data_PCOD8054108
_publ_section_title
;
Structure prediction by ZEFSAII (Michael W. Deem and Ramdas Pophale) SiO2 
 PCOD8054108
Probable space group: C M
;
_chemical_formula_sum "Si O2"
_cell_formula_units_Z 28
_cell_length_a 10.212683
_cell_length_b 25.245895
_cell_length_c 6.657424
_cell_angle_alpha 90.000000
_cell_angle_beta 130.574889
_cell_angle_gamma 90.000000
_cell_volume 1303.757729
_symmetry_space_group_name_H-M "C M"
_symmetry_group_IT_number 8
_symmetry_cell_setting 'monoclinic'
loop_
_space_group_symop_operation_xyz
x,y,z
x,-y,z
1/2+x,1/2+y,z
1/2+x,1/2-y,z
loop_
_atom_site_type_symbol
_atom_site_label
_atom_site_fract_x
_atom_site_fract_y
_atom_site_fract_z
Si Si1 0.949370 0.560810 0.478250
Si Si2 0.247864 0.561529 0.090375
Si Si3 0.597496 0.394613 0.254947
Si Si4 0.569457 0.299515 0.503134
Si Si5 0.098416 0.370250 0.295763
Si Si6 0.918068 0.266490 0.013248
Si Si7 0.932101 0.169175 0.764570
O O1 0.961413 0.500000 0.423409
O O2 0.766929 0.569297 0.409133
O O3 0.960115 0.596375 0.287674
O O4 0.105919 0.575683 0.781539
O O5 0.244267 0.500000 0.140739
O O6 0.438993 0.575607 0.202889
O O7 0.202009 0.592241 0.247553
O O8 0.648620 0.341899 0.428317
O O9 0.543320 0.377454 0.975975
O O10 0.453294 0.256562 0.270474
O O11 0.451796 0.330126 0.544474
O O12 0.715090 0.270734 0.777647
O O13 0.229869 0.344123 0.588538
O O14 0.003631 0.324086 0.075469
O O15 0.986714 0.225559 0.914475
#
# Coordination Sequence:
#
# PCOD8054108 Si02
#       7
#     4   4   4   4   4   4   4
#     4  11  25  45  70 100 133 178 230 282 345 405
#     4  11  24  44  71 100 134 179 229 283 342 403
#     4  11  23  44  69  99 139 176 225 281 348 400
#     4  11  24  41  63 100 136 182 229 276 341 411
#     4  12  23  45  70  97 138 179 223 282 341 401
#     4  11  25  40  65  99 138 181 226 281 337 410
#     4  11  24  41  65 101 131 183 224 275 342 414
#
# _framework density 21.476381
#
# number of rings (size 3 to 8) (size 9 to 14) (size 15 to 20)
#    0.000    0.857    4.286    2.571    2.000    2.286 
#    0.000    0.000    0.000    0.000    0.000    0.000 
#    0.000    0.000    0.000    0.000    0.000    0.000 
#
# Total GULP energy -173603.708819 kJ/mol
# GULP energy per Si atom -12400.264916 kJ/mol
# Density = 2.142750 g / cm^3
# Si number density = 21.476381 Si / 1000 Ang^3
#
#
#
# Elastic Constant Matrix: (Units=GPa)
#
#
# Indices 1 2 3 4 5 6 
#
# 1 120.7935 38.2439 45.6362 0.0000 0.5070 0.0000
# 2 38.2439 106.8701 49.1530 0.0000 -4.1710 0.0000
# 3 45.6362 49.1530 116.7720 0.0000 10.6490 0.0000
# 4 0.0000 0.0000 0.0000 34.2013 0.0000 1.5538
# 5 0.5070 -4.1710 10.6490 0.0000 37.8432 0.0000
# 6 0.0000 0.0000 0.0000 1.5538 0.0000 30.3846
#
#
#
# Elastic Compliance Matrix: (Units=1/GPa)
#
#
# Indices 1 2 3 4 5 6 
#
# 1 0.010135 -0.002189 -0.003084 0.000000 0.000491 0.000000
# 2 -0.002189 0.012357 -0.004590 0.000000 0.002683 0.000000
# 3 -0.003084 -0.004590 0.012053 0.000000 -0.003856 0.000000
# 4 0.000000 0.000000 0.000000 0.029307 0.000000 -0.001499
# 5 0.000491 0.002683 -0.003856 0.000000 0.027799 0.000000
# 6 0.000000 0.000000 0.000000 -0.001499 0.000000 0.032988
#
#
# Mechanical properties :
#
#
# Convention : Reuss Voigt Hill
#
# Bulk Modulus (GPa) = 67.49005 67.83353 67.66179
# Shear Modulus (GPa) = 33.48863 34.57932 34.03398
#
# Velocity S-wave (km/s) = 3.95311 4.01697 3.98517
# Velocity P-wave (km/s) = 7.23392 7.29167 7.26285
#
# Compressibility (1/GPa) = 0.01481700
#
# Stress axis : x y z
#
# Youngs Moduli (GPa) = 98.66971 80.92888 82.96746
#
# Poissons Ratio (x) = 0.17717 0.25588
# Poissons Ratio (y) = 0.21600 0.38085
# Poissons Ratio (z) = 0.30431 0.37149
#
# Static dielectric constant tensor:
#      x y z
#    x 3.658440 0.000000 0.038580 
#    y 0.000000 3.891760 0.000000 
#    z 0.038580 0.000000 3.923570 
# 
# 
# High freq. dielectric constant tensor:
#      x y z
#    x 1.835610 0.000000 0.005320 
#    y 0.000000 1.848530 0.000000 
#    z 0.005320 0.000000 1.852280 
# 
# From -- ./inp_files/1952.got.cif
#   From: 2010.03.12/outbox.cif.g09.slc.cpg/sg8_1_cif.got.tgz:1952.got - 2010.03.31 10:45:26.
