data_PCOD8054308
_publ_section_title
;
Structure prediction by ZEFSAII (Michael W. Deem and Ramdas Pophale) SiO2 
 PCOD8054308
Probable space group: C C
;
_chemical_formula_sum "Si O2"
_cell_formula_units_Z 32
_cell_length_a 24.306966
_cell_length_b 5.095248
_cell_length_c 17.137838
_cell_angle_alpha 90.000000
_cell_angle_beta 133.364523
_cell_angle_gamma 90.000000
_cell_volume 1543.073122
_symmetry_space_group_name_H-M "C C"
_symmetry_group_IT_number 9
_symmetry_cell_setting 'monoclinic'
loop_
_space_group_symop_operation_xyz
x,y,z
x,-y,1/2+z
1/2+x,1/2+y,z
1/2+x,1/2-y,1/2+z
loop_
_atom_site_type_symbol
_atom_site_label
_atom_site_fract_x
_atom_site_fract_y
_atom_site_fract_z
Si Si1 0.730850 0.352192 0.848580
Si Si2 0.853285 0.983508 0.735115
Si Si3 0.068721 0.532256 0.296917
Si Si4 0.140102 0.352191 0.720160
Si Si5 0.223887 0.607947 0.000467
Si Si6 0.517670 0.516470 0.333627
Si Si7 0.647067 0.392081 0.068277
Si Si8 0.302233 0.032279 0.271826
O O1 0.666812 0.574262 0.781903
O O2 0.751827 0.308712 0.959963
O O3 0.804247 0.444681 0.868592
O O4 0.704140 0.074262 0.786838
O O5 0.798450 0.033066 0.607206
O O6 0.825525 0.755348 0.766075
O O7 0.935478 0.909759 0.784371
O O8 0.856527 0.253797 0.786073
O O9 0.066707 0.555314 0.200150
O O10 0.158614 0.586885 0.403895
O O11 0.045433 0.244620 0.302667
O O12 0.014426 0.746172 0.282672
O O13 0.119127 0.308699 0.608778
O O14 0.185479 0.750021 0.034373
O O15 0.572503 0.466913 0.461537
O O16 0.712339 0.586910 0.164850
#
# Coordination Sequence:
#
# PCOD8054308 Si02
#       8
#     4   4   4   4   4   4   4   4
#     4  10  19  33  55  83 108 135 177 228 268 310
#     4  11  22  37  55  80 111 144 179 221 267 317
#     4  10  20  37  56  79 108 143 180 222 265 316
#     4  10  19  33  55  83 108 135 177 228 268 310
#     4   9  19  35  58  82 105 140 182 221 263 317
#     4  11  22  37  55  80 111 144 179 221 267 317
#     4   9  19  35  58  82 105 140 182 221 263 317
#     4  10  20  37  56  79 108 143 180 222 265 316
#
# _framework density 20.737838
#
# number of rings (size 3 to 8) (size 9 to 14) (size 15 to 20)
#    0.000    2.000    0.000    6.000    0.000    6.000 
#    0.000    2.500    0.000    0.000    0.000    0.000 
#    0.000    0.000    0.000    0.000    0.000    0.000 
#
# Total GULP energy -198250.605352 kJ/mol
# GULP energy per Si atom -12390.662835 kJ/mol
# Density = 2.069064 g / cm^3
# Si number density = 20.737838 Si / 1000 Ang^3
#
#
#
# Elastic Constant Matrix: (Units=GPa)
#
#
# Indices 1 2 3 4 5 6 
#
# 1 124.3841 19.5997 43.0362 -0.0003 -21.2257 -0.0011
# 2 19.5997 86.8629 5.3976 -0.0013 -13.4979 -0.0031
# 3 43.0362 5.3976 44.5519 -0.0001 -11.0204 -0.0003
# 4 -0.0003 -0.0013 -0.0001 16.6002 0.0001 -4.9817
# 5 -21.2257 -13.4979 -11.0204 0.0001 44.6306 -0.0001
# 6 -0.0011 -0.0031 -0.0003 -4.9817 -0.0001 37.0607
#
#
#
# Elastic Compliance Matrix: (Units=1/GPa)
#
#
# Indices 1 2 3 4 5 6 
#
# 1 0.012724 -0.001741 -0.011410 0.000000 0.002707 0.000000
# 2 -0.001741 0.012333 0.000965 0.000001 0.003140 0.000001
# 3 -0.011410 0.000965 0.034168 0.000000 0.003302 0.000000
# 4 0.000000 0.000001 0.000000 0.062772 0.000000 0.008438
# 5 0.002707 0.003140 0.003302 0.000000 0.025459 0.000000
# 6 0.000000 0.000001 0.000000 0.008438 0.000000 0.028117
#
#
# Mechanical properties :
#
#
# Convention : Reuss Voigt Hill
#
# Bulk Modulus (GPa) = 28.69374 43.54064 36.11719
# Shear Modulus (GPa) = 23.63351 32.17601 27.90476
#
# Velocity S-wave (km/s) = 3.37951 3.94326 3.67222
# Velocity P-wave (km/s) = 5.39394 6.46326 5.95266
#
# Compressibility (1/GPa) = 0.03485080
#
# Stress axis : x y z
#
# Youngs Moduli (GPa) = 78.59234 81.08120 29.26733
#
# Poissons Ratio (x) = 0.14119 0.33395
# Poissons Ratio (y) = 0.13685 -0.02823
# Poissons Ratio (z) = 0.89677 -0.07821
#
# Static dielectric constant tensor:
#      x y z
#    x 3.941600 0.000000 -0.406390 
#    y 0.000000 3.655770 0.000000 
#    z -0.406390 0.000000 4.340590 
# 
# 
# High freq. dielectric constant tensor:
#      x y z
#    x 1.824090 0.000000 -0.035880 
#    y 0.000000 1.809950 0.000000 
#    z -0.035880 0.000000 1.771960 
# 
# From -- ./inp_files/31132.got.cif
#   From: 2010.06.25/outbox.cif.g09.slc.cpg/sg9_16_cif.got.tgz:31132.got - 2010.06.27 21:40:51.
