data_PCOD8054398
_publ_section_title
;
Structure prediction by ZEFSAII (Michael W. Deem and Ramdas Pophale) SiO2 
 PCOD8054398
Probable space group: C C
;
_chemical_formula_sum "Si O2"
_cell_formula_units_Z 32
_cell_length_a 9.404612
_cell_length_b 16.632855
_cell_length_c 10.834404
_cell_angle_alpha 90.000000
_cell_angle_beta 78.877112
_cell_angle_gamma 90.000000
_cell_volume 1662.942334
_symmetry_space_group_name_H-M "C C"
_symmetry_group_IT_number 9
_symmetry_cell_setting 'monoclinic'
loop_
_space_group_symop_operation_xyz
x,y,z
x,-y,1/2+z
1/2+x,1/2+y,z
1/2+x,1/2-y,1/2+z
loop_
_atom_site_type_symbol
_atom_site_label
_atom_site_fract_x
_atom_site_fract_y
_atom_site_fract_z
Si Si1 0.904690 0.460753 0.726490
Si Si2 0.528366 0.203803 0.244352
Si Si3 0.970632 0.675641 0.523659
Si Si4 0.666635 0.928545 0.160191
Si Si5 0.269410 0.034552 0.506116
Si Si6 0.454425 0.501282 0.630286
Si Si7 0.344727 0.334825 0.596825
Si Si8 0.874414 0.135343 0.803547
O O1 0.830808 0.482104 0.609205
O O2 0.913109 0.364296 0.724582
O O3 0.064408 0.497911 0.717229
O O4 0.819331 0.493715 0.861430
O O5 0.551962 0.202284 0.386771
O O6 0.678813 0.182855 0.154549
O O7 0.461581 0.291118 0.223081
O O8 0.822674 0.625997 0.520295
O O9 0.931042 0.753030 0.612160
O O10 0.087564 0.623167 0.572526
O O11 0.713349 0.872840 0.269392
O O12 0.813780 0.966608 0.076949
O O13 0.097546 0.022070 0.530110
O O14 0.424628 0.406225 0.659162
O O15 0.460358 0.551621 0.758702
O O16 0.356797 0.354264 0.450572
#
# Coordination Sequence:
#
# PCOD8054398 Si02
#       8
#     4   4   4   4   4   4   4   4
#     4  10  21  37  62  86 124 159 206 246 305 367
#     4  10  19  38  60  89 113 165 198 246 301 362
#     4   9  21  40  60  84 122 158 199 246 304 358
#     4   9  20  40  60  87 120 155 199 248 294 359
#     4  10  22  38  59  90 123 161 199 255 306 355
#     4  10  22  37  61  89 117 156 199 249 295 356
#     4  11  21  37  65  87 120 157 206 242 306 355
#     4   9  22  37  61  86 123 153 200 250 297 354
#
# _framework density 19.243001
#
# number of rings (size 3 to 8) (size 9 to 14) (size 15 to 20)
#    0.750    1.500    1.250    0.750    3.500    3.000 
#    2.250    1.250    0.000    0.000    0.000    0.000 
#    0.000    0.000    0.000    0.000    0.000    0.000 
#
# Total GULP energy -198216.047294 kJ/mol
# GULP energy per Si atom -12388.502956 kJ/mol
# Density = 1.919920 g / cm^3
# Si number density = 19.243001 Si / 1000 Ang^3
#
#
#
# Elastic Constant Matrix: (Units=GPa)
#
#
# Indices 1 2 3 4 5 6 
#
# 1 101.4681 36.3657 31.5192 0.0000 -26.9904 0.0000
# 2 36.3657 129.9923 34.0147 0.0000 -9.0967 0.0000
# 3 31.5192 34.0147 83.7143 0.0000 -16.9578 0.0000
# 4 0.0000 0.0000 0.0000 29.3491 0.0000 1.4946
# 5 -26.9904 -9.0967 -16.9578 0.0000 27.3072 0.0000
# 6 0.0000 0.0000 0.0000 1.4946 0.0000 20.5362
#
#
#
# Elastic Compliance Matrix: (Units=1/GPa)
#
#
# Indices 1 2 3 4 5 6 
#
# 1 0.014756 -0.002755 -0.001908 0.000000 0.012482 0.000000
# 2 -0.002755 0.009138 -0.002986 0.000000 -0.001534 0.000000
# 3 -0.001908 -0.002986 0.015206 0.000000 0.006563 0.000000
# 4 0.000000 0.000000 0.000000 0.034199 0.000000 -0.002489
# 5 0.012482 -0.001534 0.006563 0.000000 0.052522 0.000000
# 6 0.000000 0.000000 0.000000 -0.002489 0.000000 0.048876
#
#
# Mechanical properties :
#
#
# Convention : Reuss Voigt Hill
#
# Bulk Modulus (GPa) = 42.01415 57.66376 49.83896
# Shear Modulus (GPa) = 25.26166 29.65684 27.45925
#
# Velocity S-wave (km/s) = 3.62715 3.93004 3.78163
# Velocity P-wave (km/s) = 6.27873 7.11511 6.70996
#
# Compressibility (1/GPa) = 0.02380150
#
# Stress axis : x y z
#
# Youngs Moduli (GPa) = 67.77120 109.43813 65.76193
#
# Poissons Ratio (x) = 0.30153 0.12545
# Poissons Ratio (y) = 0.18673 0.19637
# Poissons Ratio (z) = 0.12928 0.32679
#
# Static dielectric constant tensor:
#      x y z
#    x 3.393840 0.000000 -0.157200 
#    y 0.000000 3.864850 0.000000 
#    z -0.157200 0.000000 3.381410 
# 
# 
# High freq. dielectric constant tensor:
#      x y z
#    x 1.738170 0.000000 -0.013940 
#    y 0.000000 1.759110 0.000000 
#    z -0.013940 0.000000 1.738440 
# 
# From -- ./inp_files/15056.got.cif
#   From: 2010.06.25/outbox.cif.g09.slc.cpg/sg9_8_cif.got.tgz:15056.got - 2010.06.27 21:40:51.
