data_PCOD8054894
_publ_section_title
;
Structure prediction by ZEFSAII (Michael W. Deem and Ramdas Pophale) SiO2 
 PCOD8054894
Probable space group: C C
;
_chemical_formula_sum "Si O2"
_cell_formula_units_Z 24
_cell_length_a 14.037540
_cell_length_b 5.241140
_cell_length_c 12.908927
_cell_angle_alpha 90.000000
_cell_angle_beta 84.125660
_cell_angle_gamma 90.000000
_cell_volume 944.757429
_symmetry_space_group_name_H-M "C C"
_symmetry_group_IT_number 9
_symmetry_cell_setting 'monoclinic'
loop_
_space_group_symop_operation_xyz
x,y,z
x,-y,1/2+z
1/2+x,1/2+y,z
1/2+x,1/2-y,1/2+z
loop_
_atom_site_type_symbol
_atom_site_label
_atom_site_fract_x
_atom_site_fract_y
_atom_site_fract_z
Si Si1 0.712980 0.109003 0.163700
Si Si2 0.158987 0.616855 0.873334
Si Si3 0.252649 0.123298 0.855957
Si Si4 0.957036 0.429517 0.857279
Si Si5 0.417531 0.396360 0.546244
Si Si6 0.509951 0.111390 0.121914
O O1 0.727940 0.359412 0.235471
O O2 0.807698 0.062904 0.088232
O O3 0.625068 0.130325 0.091314
O O4 0.686329 0.879766 0.246792
O O5 0.198195 0.883027 0.913729
O O6 0.044414 0.582386 0.903474
O O7 0.213486 0.374992 0.919669
O O8 0.366373 0.115946 0.860321
O O9 0.990327 0.320180 0.743844
O O10 0.927323 0.178451 0.924827
O O11 0.464720 0.670653 0.556469
O O12 0.467085 0.168346 0.605789
#
# Coordination Sequence:
#
# PCOD8054894 Si02
#       6
#     4   4   4   4   4   4
#     4   9  23  40  68  92 135 174 218 273 341 382
#     4   9  22  38  65  95 126 177 216 262 342 387
#     4  10  21  39  68  92 128 175 216 269 337 388
#     4  11  25  44  73  97 138 180 225 282 335 402
#     4  12  27  43  69 105 130 182 231 271 344 401
#     4  11  26  46  67  97 143 174 224 287 331 402
#
# _framework density 25.403345999999999
#
# number of rings (size 3 to 8) (size 9 to 14) (size 15 to 20)
#    1.000    0.667    1.667    1.000    4.667    8.000 
#    0.000    0.000    0.000    0.000    0.000    0.000 
#    0.000    0.000    0.000    0.000    0.000    0.000 
#
# Total GULP energy -148763.115766 kJ/mol
# GULP energy per Si atom -12396.926314 kJ/mol
# Density = 2.534553 g / cm^3
# Si number density = 25.403346 Si / 1000 Ang^3
#
#
#
# Elastic Constant Matrix: (Units=GPa)
#
#
# Indices 1 2 3 4 5 6 
#
# 1 233.8907 63.4632 18.4772 0.0000 -3.7978 0.0000
# 2 63.4632 131.8075 5.1658 0.0000 1.9184 0.0000
# 3 18.4772 5.1658 24.4490 0.0000 -13.8041 0.0000
# 4 0.0000 0.0000 0.0000 17.2590 0.0000 -0.4939
# 5 -3.7978 1.9184 -13.8041 0.0000 42.1749 0.0000
# 6 0.0000 0.0000 0.0000 -0.4939 0.0000 30.2135
#
#
#
# Elastic Compliance Matrix: (Units=1/GPa)
#
#
# Indices 1 2 3 4 5 6 
#
# 1 0.005203 -0.002346 -0.003817 0.000000 -0.000674 0.000000
# 2 -0.002346 0.008748 -0.000515 0.000000 -0.000778 0.000000
# 3 -0.003817 -0.000515 0.053623 0.000000 0.017231 0.000000
# 4 0.000000 0.000000 0.000000 0.057968 0.000000 0.000948
# 5 -0.000674 -0.000778 0.017231 0.000000 0.029325 0.000000
# 6 0.000000 0.000000 0.000000 0.000948 0.000000 0.033113
#
#
# Mechanical properties :
#
#
# Convention : Reuss Voigt Hill
#
# Bulk Modulus (GPa) = 18.44352 62.70661 40.57506
# Shear Modulus (GPa) = 22.78869 38.13222 30.46045
#
# Velocity S-wave (km/s) = 2.99837 3.87857 3.46652
# Velocity P-wave (km/s) = 4.38896 6.69296 5.65945
#
# Compressibility (1/GPa) = 0.05421959
#
# Stress axis : x y z
#
# Youngs Moduli (GPa) = 192.21515 114.31651 18.64857
#
# Poissons Ratio (x) = 0.26813 0.07118
# Poissons Ratio (y) = 0.45084 0.00960
# Poissons Ratio (z) = 0.73364 0.05884
#
# Static dielectric constant tensor:
#      x y z
#    x 4.759850 0.000000 -0.051230 
#    y 0.000000 4.113890 0.000000 
#    z -0.051230 0.000000 4.521650 
# 
# 
# High freq. dielectric constant tensor:
#      x y z
#    x 2.032200 0.000000 -0.007470 
#    y 0.000000 1.995020 0.000000 
#    z -0.007470 0.000000 2.019120 
# 
# From -- ./inp_files/25186.got.cif
#   From: 2010.06.25/outbox.cif.g09.slc.cpg/sg9_13_cif.got.tgz:25186.got - 2010.06.27 21:40:51.
