data_PCOD8054190
_publ_section_title
;
Structure prediction by ZEFSAII (Michael W. Deem and Ramdas Pophale) SiO2 
 PCOD8054190
Probable space group: C C
;
_chemical_formula_sum "Si O2"
_cell_formula_units_Z 32
_cell_length_a 20.996310
_cell_length_b 9.287615
_cell_length_c 26.235386
_cell_angle_alpha 90.000000
_cell_angle_beta 160.364089
_cell_angle_gamma 90.000000
_cell_volume 1719.206872
_symmetry_space_group_name_H-M "C C"
_symmetry_group_IT_number 9
_symmetry_cell_setting 'monoclinic'
loop_
_space_group_symop_operation_xyz
x,y,z
x,-y,1/2+z
1/2+x,1/2+y,z
1/2+x,1/2-y,1/2+z
loop_
_atom_site_type_symbol
_atom_site_label
_atom_site_fract_x
_atom_site_fract_y
_atom_site_fract_z
Si Si1 0.956220 0.231566 0.685980
Si Si2 0.549396 0.635758 0.507852
Si Si3 0.646353 0.853573 0.660046
Si Si4 0.318600 0.038312 0.153425
Si Si5 0.715846 0.650981 0.483774
Si Si6 0.212269 0.474442 0.498441
Si Si7 0.273467 0.608197 0.151906
Si Si8 0.840050 0.411412 0.507646
O O1 0.831641 0.302047 0.638426
O O2 0.971907 0.343700 0.651256
O O3 0.854678 0.093452 0.583890
O O4 0.161303 0.191366 0.862192
O O5 0.602375 0.689670 0.605600
O O6 0.324056 0.646400 0.332207
O O7 0.636493 0.481412 0.554651
O O8 0.657905 0.745394 0.550862
O O9 0.695274 0.952547 0.647273
O O10 0.466201 0.923067 0.551913
O O11 0.324424 0.926805 0.111214
O O12 0.499361 0.007813 0.324053
O O13 0.780054 0.817653 0.530050
O O14 0.492918 0.641180 0.325000
O O15 0.770841 0.570805 0.472194
O O16 0.234232 0.498058 0.576019
#
# Coordination Sequence:
#
# PCOD8054190 Si02
#       8
#     4   4   4   4   4   4   4   4
#     4  11  24  36  56  86 126 153 190 249 306 352
#     4  10  17  33  59  86 115 150 201 241 285 346
#     4  10  20  34  57  86 120 155 200 240 291 351
#     4  11  20  35  55  91 115 144 199 243 301 338
#     4  11  19  35  62  86 114 150 200 247 287 349
#     4  12  19  36  59  89 114 149 195 251 303 342
#     4  10  18  32  59  88 109 145 196 251 277 339
#     4  11  23  39  55  90 123 160 193 242 302 359
#
# _framework density 18.613235
#
# number of rings (size 3 to 8) (size 9 to 14) (size 15 to 20)
#    0.750    0.500    6.250    1.500    0.000    0.000 
#    0.000    0.000    0.000    3.000    0.000    0.000 
#    0.000    0.000    0.000    0.000    0.000    0.000 
#
# Total GULP energy -198220.113430 kJ/mol
# GULP energy per Si atom -12388.757089 kJ/mol
# Density = 1.857087 g / cm^3
# Si number density = 18.613235 Si / 1000 Ang^3
#
#
#
# Elastic Constant Matrix: (Units=GPa)
#
#
# Indices 1 2 3 4 5 6 
#
# 1 87.4087 34.9206 27.3250 -0.0091 16.4874 -0.0057
# 2 34.9206 85.4982 26.7867 -0.0980 7.5743 0.0352
# 3 27.3250 26.7867 99.1232 -0.0192 -3.4602 0.0250
# 4 -0.0091 -0.0980 -0.0192 20.6464 0.0430 -2.0261
# 5 16.4874 7.5743 -3.4602 0.0430 32.6023 -0.0085
# 6 -0.0057 0.0352 0.0250 -2.0261 -0.0085 23.7338
#
#
#
# Elastic Compliance Matrix: (Units=1/GPa)
#
#
# Indices 1 2 3 4 5 6 
#
# 1 0.015730 -0.004752 -0.003304 -0.000003 -0.007202 0.000011
# 2 -0.004752 0.014588 -0.002677 0.000066 -0.001270 -0.000015
# 3 -0.003304 -0.002677 0.011846 -0.000011 0.003550 -0.000009
# 4 -0.000003 0.000066 -0.000011 0.048844 -0.000079 0.004170
# 5 -0.007202 -0.001270 0.003550 -0.000079 0.034987 0.000002
# 6 0.000011 -0.000015 -0.000009 0.004170 0.000002 0.042490
#
#
# Mechanical properties :
#
#
# Convention : Reuss Voigt Hill
#
# Bulk Modulus (GPa) = 48.30772 50.01051 49.15911
# Shear Modulus (GPa) = 25.40011 27.59634 26.49823
#
# Velocity S-wave (km/s) = 3.69809 3.85466 3.77719
# Velocity P-wave (km/s) = 6.65164 6.83650 6.74470
#
# Compressibility (1/GPa) = 0.02070063
#
# Stress axis : x y z
#
# Youngs Moduli (GPa) = 63.57296 68.54874 84.41386
#
# Poissons Ratio (x) = 0.32572 0.27887
# Poissons Ratio (y) = 0.30208 0.22595
# Poissons Ratio (z) = 0.21002 0.18348
#
# Static dielectric constant tensor:
#      x y z
#    x 3.308040 0.000010 -0.151420 
#    y 0.000010 3.351520 -0.000020 
#    z -0.151420 -0.000020 3.389670 
# 
# 
# High freq. dielectric constant tensor:
#      x y z
#    x 1.704850 0.000000 -0.018140 
#    y 0.000000 1.690440 -0.000010 
#    z -0.018140 -0.000010 1.733880 
# 
# From -- ./inp_files/36976.got.cif
#   From: 2010.06.25/outbox.cif.g09.slc.cpg/sg9_19_cif.got.tgz:36976.got - 2010.06.27 21:40:51.
