data_PCOD8054184
_publ_section_title
;
Structure prediction by ZEFSAII (Michael W. Deem and Ramdas Pophale) SiO2 
 PCOD8054184
Probable space group: C C
;
_chemical_formula_sum "Si O2"
_cell_formula_units_Z 32
_cell_length_a 12.402132
_cell_length_b 34.366187
_cell_length_c 13.192946
_cell_angle_alpha 90.000000
_cell_angle_beta 23.105817
_cell_angle_gamma 90.000000
_cell_volume 2206.643814
_symmetry_space_group_name_H-M "C C"
_symmetry_group_IT_number 9
_symmetry_cell_setting 'monoclinic'
loop_
_space_group_symop_operation_xyz
x,y,z
x,-y,1/2+z
1/2+x,1/2+y,z
1/2+x,1/2-y,1/2+z
loop_
_atom_site_type_symbol
_atom_site_label
_atom_site_fract_x
_atom_site_fract_y
_atom_site_fract_z
Si Si1 0.639490 0.606559 0.387620
Si Si2 0.046400 0.266819 0.360586
Si Si3 0.639497 0.158754 0.887638
Si Si4 0.441758 0.538525 0.426072
Si Si5 0.233067 0.733180 0.914234
Si Si6 0.800537 0.009341 0.341960
Si Si7 0.337750 0.038530 0.348612
Si Si8 0.978953 0.490656 0.932739
O O1 0.399632 0.632592 0.639604
O O2 0.522484 0.580745 0.396754
O O3 0.757295 0.580758 0.377676
O O4 0.878197 0.632836 0.136798
O O5 0.738243 0.251017 0.606028
O O6 0.067246 0.313802 0.352644
O O7 0.139542 0.246909 0.387599
O O8 0.712550 0.186196 0.921860
O O9 0.368335 0.541177 0.369695
O O10 0.173924 0.524310 0.718417
O O11 0.698882 0.509399 0.218086
O O12 0.541130 0.749013 0.668886
O O13 0.639757 0.029612 0.387338
O O14 0.605536 0.975696 0.556313
O O15 0.080545 0.990581 0.056660
O O16 0.411180 0.041179 0.404981
#
# Coordination Sequence:
#
# PCOD8054184 Si02
#       8
#     4   4   4   4   4   4   4   4
#     4  12  18  27  34  58  84  96 124 152 212 230
#     4   8  13  24  36  50  68  96 140 150 156 204
#     4  10  18  23  38  52  78 108 120 152 188 230
#     4  10  20  27  42  58  74  97 125 168 198 243
#     4   8  13  24  36  50  68  96 140 150 156 204
#     4  10  17  32  44  54  69  96 136 165 203 223
#     4  10  20  27  42  58  74  97 125 168 198 243
#     4  10  17  32  44  54  69  96 136 165 203 223
#
# _framework density 14.501659999999999
#
# number of rings (size 3 to 8) (size 9 to 14) (size 15 to 20)
#    0.750    1.500    2.500    3.000    0.000    0.000 
#    0.000    0.000    0.000    0.000    0.000    0.000 
#    0.000    0.000    0.000    0.000    0.000  100.000 
#
# Total GULP energy -198227.641165 kJ/mol
# GULP energy per Si atom -12389.227573 kJ/mol
# Density = 1.446865 g / cm^3
# Si number density = 14.501660 Si / 1000 Ang^3
#
#
#
# Elastic Constant Matrix: (Units=GPa)
#
#
# Indices 1 2 3 4 5 6 
#
# 1 78.6284 27.8395 10.1200 0.0000 -9.2708 0.0000
# 2 27.8395 88.4045 39.0701 0.0000 -6.2655 0.0000
# 3 10.1200 39.0701 113.5039 0.0000 -14.7455 0.0000
# 4 0.0000 0.0000 0.0000 27.3220 0.0000 -4.2181
# 5 -9.2708 -6.2655 -14.7455 0.0000 10.6817 0.0000
# 6 0.0000 0.0000 0.0000 -4.2181 0.0000 0.4168
#
#
#
# Elastic Compliance Matrix: (Units=1/GPa)
#
#
# Indices 1 2 3 4 5 6 
#
# 1 0.015807 -0.004919 0.002061 0.000000 0.013679 0.000000
# 2 -0.004919 0.014901 -0.005008 0.000000 -0.002442 0.000000
# 3 0.002061 -0.005008 0.012430 0.000000 0.016011 0.000000
# 4 0.000000 0.000000 0.000000 -0.065060 0.000000 -0.658482
# 5 0.013679 -0.002442 0.016011 0.000000 0.126159 -0.000001
# 6 0.000000 0.000000 0.000000 -0.658482 -0.000001 -4.265155
#
#
# Mechanical properties :
#
#
# Convention : Reuss Voigt Hill
#
# Bulk Modulus (GPa) = 36.48806 48.28845 42.38825
# Shear Modulus (GPa) = -1.20888 21.25124 10.02118
#
# Velocity S-wave (km/s) = -0.91402 3.83225 2.63161
# Velocity P-wave (km/s) = 4.90938 7.27684 6.20703
#
# Compressibility (1/GPa) = 0.02740623
#
# Stress axis : x y z
#
# Youngs Moduli (GPa) = 63.26167 67.11012 80.44887
#
# Poissons Ratio (x) = 0.33013 -0.16580
# Poissons Ratio (y) = 0.31120 0.40287
# Poissons Ratio (z) = -0.13038 0.33608
#
# Static dielectric constant tensor:
#      x y z
#    x 2.726840 0.000000 -0.106320 
#    y 0.000000 2.577430 0.000000 
#    z -0.106320 0.000000 3.347820 
# 
# 
# High freq. dielectric constant tensor:
#      x y z
#    x 1.504130 0.000000 -0.012590 
#    y 0.000000 1.520540 0.000000 
#    z -0.012590 0.000000 1.589390 
# 
# From -- ./inp_files/2155.got.cif
#   From: 2010.06.25/outbox.cif.g09.slc.cpg/sg9_2_cif.got.tgz:2155.got - 2010.06.27 21:40:51.
