data_PCOD8054073
_publ_section_title
;
Structure prediction by ZEFSAII (Michael W. Deem and Ramdas Pophale) SiO2 
 PCOD8054073
Probable space group: C M
;
_chemical_formula_sum "Si O2"
_cell_formula_units_Z 24
_cell_length_a 19.057201
_cell_length_b 8.971393
_cell_length_c 20.537656
_cell_angle_alpha 90.000000
_cell_angle_beta 21.883968
_cell_angle_gamma 90.000000
_cell_volume 1308.766181
_symmetry_space_group_name_H-M "C M"
_symmetry_group_IT_number 8
_symmetry_cell_setting 'monoclinic'
loop_
_space_group_symop_operation_xyz
x,y,z
x,-y,z
1/2+x,1/2+y,z
1/2+x,1/2-y,z
loop_
_atom_site_type_symbol
_atom_site_label
_atom_site_fract_x
_atom_site_fract_y
_atom_site_fract_z
Si Si1 0.172160 0.673388 0.145170
Si Si2 0.224456 0.177266 0.751146
Si Si3 0.075917 0.826609 0.741385
Si Si4 0.287102 0.323476 0.443280
Si Si5 0.340441 0.677265 0.135189
Si Si6 0.628301 0.822181 0.443170
O O1 0.118045 0.500000 0.190550
O O2 0.212033 0.726721 0.184692
O O3 0.999026 0.766783 0.267206
O O4 0.354734 0.704203 0.943290
O O5 0.194944 0.226727 0.701747
O O6 0.418192 0.241900 0.612966
O O7 0.223331 0.000000 0.754139
O O8 0.052573 0.239113 0.943157
O O9 0.146765 0.733227 0.619413
O O10 0.112515 0.000000 0.696049
O O11 0.289135 0.500000 0.443285
O O12 0.207426 0.263278 0.443220
O O13 0.345303 0.500000 0.132196
O O14 0.257900 0.741888 0.273307
O O15 0.625598 0.000000 0.443189
#
# Coordination Sequence:
#
# PCOD8054073 Si02
#       6
#     4   4   4   4   4   4
#     4   9  18  34  56  76  93 123 169 212 244 279
#     4   8  14  27  49  72  89 113 159 212 246 269
#     4   9  18  34  56  76  93 123 169 212 244 279
#     4  11  22  31  45  75 110 137 156 186 244 307
#     4   8  14  27  49  72  89 113 159 212 246 269
#     4   9  17  27  41  67 100 127 152 190 242 291
#
# _framework density 18.337880999999999
#
# number of rings (size 3 to 8) (size 9 to 14) (size 15 to 20)
#    0.000    3.000    0.000    3.500    0.000    4.667 
#    0.000    3.333    0.000    8.000    0.000    0.000 
#    0.000    0.000    0.000    0.000    0.000    0.000 
#
# Total GULP energy -148756.274365 kJ/mol
# GULP energy per Si atom -12396.356197 kJ/mol
# Density = 1.829614 g / cm^3
# Si number density = 18.337881 Si / 1000 Ang^3
#
#
#
# Elastic Constant Matrix: (Units=GPa)
#
#
# Indices 1 2 3 4 5 6 
#
# 1 165.3701 32.8192 109.9639 -0.0029 1.8519 0.0012
# 2 32.8192 32.8187 32.1093 0.0184 0.0908 -0.0036
# 3 109.9639 32.1093 153.0325 0.0088 -0.5731 -0.0020
# 4 -0.0029 0.0184 0.0088 23.3472 0.0030 -0.0244
# 5 1.8519 0.0908 -0.5731 0.0030 17.4630 -0.0013
# 6 0.0012 -0.0036 -0.0020 -0.0244 -0.0013 22.9944
#
#
#
# Elastic Compliance Matrix: (Units=1/GPa)
#
#
# Indices 1 2 3 4 5 6 
#
# 1 0.012130 -0.004521 -0.007774 0.000008 -0.001518 -0.000002
# 2 -0.004521 0.040030 -0.005150 -0.000030 0.000102 0.000006
# 3 -0.007774 -0.005150 0.013206 -0.000002 0.001285 0.000001
# 4 0.000008 -0.000030 -0.000002 0.042832 -0.000008 0.000045
# 5 -0.001518 0.000102 0.001285 -0.000008 0.057467 0.000003
# 6 -0.000002 0.000006 0.000001 0.000045 0.000003 0.043489
#
#
# Mechanical properties :
#
#
# Convention : Reuss Voigt Hill
#
# Bulk Modulus (GPa) = 32.81175 77.88956 55.35065
# Shear Modulus (GPa) = 19.66946 24.51619 22.09283
#
# Velocity S-wave (km/s) = 3.27863 3.66035 3.47474
# Velocity P-wave (km/s) = 5.68017 7.77375 6.80791
#
# Compressibility (1/GPa) = 0.03047689
#
# Stress axis : x y z
#
# Youngs Moduli (GPa) = 82.43814 24.98134 75.72431
#
# Poissons Ratio (x) = 0.11293 0.58865
# Poissons Ratio (y) = 0.37268 0.39000
# Poissons Ratio (z) = 0.64084 0.12866
#
# Static dielectric constant tensor:
#      x y z
#    x 3.509710 0.000000 -0.018170 
#    y 0.000000 2.818400 0.000000 
#    z -0.018170 0.000000 3.735770 
# 
# 
# High freq. dielectric constant tensor:
#      x y z
#    x 1.711730 0.000000 -0.001430 
#    y 0.000000 1.653520 0.000000 
#    z -0.001430 0.000000 1.729400 
# 
# From -- ./inp_files/14236.got.cif
#   From: 2010.03.12/outbox.cif.g09.slc.cpg/sg8_8_cif.got.tgz:14236.got - 2010.03.31 10:45:26.
