data_PCOD8054465
_publ_section_title
;
Structure prediction by ZEFSAII (Michael W. Deem and Ramdas Pophale) SiO2 
 PCOD8054465
Probable space group: C C
;
_chemical_formula_sum "Si O2"
_cell_formula_units_Z 32
_cell_length_a 8.617823
_cell_length_b 17.855581
_cell_length_c 18.889204
_cell_angle_alpha 90.000000
_cell_angle_beta 147.504927
_cell_angle_gamma 90.000000
_cell_volume 1561.504032
_symmetry_space_group_name_H-M "C C"
_symmetry_group_IT_number 9
_symmetry_cell_setting 'monoclinic'
loop_
_space_group_symop_operation_xyz
x,y,z
x,-y,1/2+z
1/2+x,1/2+y,z
1/2+x,1/2-y,1/2+z
loop_
_atom_site_type_symbol
_atom_site_label
_atom_site_fract_x
_atom_site_fract_y
_atom_site_fract_z
Si Si1 0.418580 0.197226 0.004350
Si Si2 0.073943 0.316490 0.718755
Si Si3 0.299637 0.936825 0.185754
Si Si4 0.695625 0.074308 0.378829
Si Si5 0.921064 0.664882 0.852313
Si Si6 0.404363 0.796973 0.144812
Si Si7 0.439661 0.203726 0.365652
Si Si8 0.488364 0.260012 0.532955
O O1 0.500032 0.155792 0.109710
O O2 0.597850 0.274035 0.060465
O O3 0.456884 0.143653 0.949885
O O4 0.093047 0.228932 0.880768
O O5 0.269643 0.376023 0.837214
O O6 0.239782 0.239690 0.774766
O O7 0.785791 0.307024 0.657265
O O8 0.256417 0.901324 0.247603
O O9 0.480458 0.877451 0.207070
O O10 0.496591 0.008847 0.271373
O O11 0.991884 0.955233 0.029489
O O12 0.510004 0.120997 0.364807
O O13 0.229570 0.678985 0.932304
O O14 0.603566 0.724807 0.239497
O O15 0.411790 0.801494 0.063029
O O16 0.548816 0.209658 0.487835
#
# Coordination Sequence:
#
# PCOD8054465 Si02
#       8
#     4   4   4   4   4   4   4   4
#     4  10  20  34  66  98 124 156 228 274 316 368
#     4  11  20  39  64  96 129 166 217 272 318 381
#     4  12  26  42  63  96 138 175 211 265 331 391
#     4  12  26  42  63  96 138 175 211 265 331 391
#     4  11  20  39  64  96 129 166 217 272 318 381
#     4  11  19  37  62  97 124 166 212 264 317 382
#     4  11  19  37  62  97 124 166 212 264 317 382
#     4  10  20  32  68  96 120 156 224 268 316 370
#
# _framework density 20.493061999999998
#
# number of rings (size 3 to 8) (size 9 to 14) (size 15 to 20)
#    0.000    1.000    6.250    1.500    1.750    0.000 
#    0.000    1.250    0.000    9.000    0.000    0.000 
#    0.000    0.000    0.000    0.000    0.000    0.000 
#
# Total GULP energy -198256.670194 kJ/mol
# GULP energy per Si atom -12391.041887 kJ/mol
# Density = 2.044642 g / cm^3
# Si number density = 20.493062 Si / 1000 Ang^3
#
#
#
# Elastic Constant Matrix: (Units=GPa)
#
#
# Indices 1 2 3 4 5 6 
#
# 1 100.5749 23.2420 27.4495 0.0024 -12.7864 0.0020
# 2 23.2420 65.5324 31.8676 0.0028 -11.8724 0.0015
# 3 27.4495 31.8676 112.4858 0.0015 -4.7107 0.0023
# 4 0.0024 0.0028 0.0015 36.7290 -0.0008 -5.2926
# 5 -12.7864 -11.8724 -4.7107 -0.0008 33.9673 0.0007
# 6 0.0020 0.0015 0.0023 -5.2926 0.0007 27.0899
#
#
#
# Elastic Compliance Matrix: (Units=1/GPa)
#
#
# Indices 1 2 3 4 5 6 
#
# 1 0.011463 -0.002549 -0.001943 -0.000001 0.003155 -0.000001
# 2 -0.002549 0.019358 -0.004646 -0.000001 0.005162 -0.000001
# 3 -0.001943 -0.004646 0.010644 0.000000 -0.000879 0.000000
# 4 -0.000001 -0.000001 0.000000 0.028015 0.000000 0.005473
# 5 0.003155 0.005162 -0.000879 0.000000 0.032310 -0.000001
# 6 -0.000001 -0.000001 0.000000 0.005473 -0.000001 0.037983
#
#
# Mechanical properties :
#
#
# Convention : Reuss Voigt Hill
#
# Bulk Modulus (GPa) = 43.12458 49.30128 46.21293
# Shear Modulus (GPa) = 30.16049 32.62617 31.39333
#
# Velocity S-wave (km/s) = 3.84049 3.99439 3.91820
# Velocity P-wave (km/s) = 6.38396 6.73671 6.56271
#
# Compressibility (1/GPa) = 0.02318863
#
# Stress axis : x y z
#
# Youngs Moduli (GPa) = 87.23478 51.65745 93.95340
#
# Poissons Ratio (x) = 0.13169 0.18255
# Poissons Ratio (y) = 0.22238 0.43651
# Poissons Ratio (z) = 0.16950 0.24000
#
# Static dielectric constant tensor:
#      x y z
#    x 4.074600 0.000000 -0.322370 
#    y 0.000000 3.212890 -0.000010 
#    z -0.322370 -0.000010 4.260880 
# 
# 
# High freq. dielectric constant tensor:
#      x y z
#    x 1.812730 0.000000 -0.015780 
#    y 0.000000 1.737340 0.000000 
#    z -0.015780 0.000000 1.830020 
# 
# From -- ./inp_files/21012.got.cif
#   From: 2010.06.25/outbox.cif.g09.slc.cpg/sg9_11_cif.got.tgz:21012.got - 2010.06.27 21:40:51.
