data_PCOD8054269
_publ_section_title
;
Structure prediction by ZEFSAII (Michael W. Deem and Ramdas Pophale) SiO2 
 PCOD8054269
Probable space group: C C
;
_chemical_formula_sum "Si O2"
_cell_formula_units_Z 28
_cell_length_a 16.193770
_cell_length_b 14.647978
_cell_length_c 7.399512
_cell_angle_alpha 90.000000
_cell_angle_beta 141.696691
_cell_angle_gamma 90.000000
_cell_volume 1087.921002
_symmetry_space_group_name_H-M "C C"
_symmetry_group_IT_number 9
_symmetry_cell_setting 'monoclinic'
loop_
_space_group_symop_operation_xyz
x,y,z
x,-y,1/2+z
1/2+x,1/2+y,z
1/2+x,1/2-y,1/2+z
loop_
_atom_site_type_symbol
_atom_site_label
_atom_site_fract_x
_atom_site_fract_y
_atom_site_fract_z
Si Si1 0.429660 0.107546 0.689360
Si Si2 0.650722 0.856500 0.834626
Si Si3 0.605420 0.353471 0.229132
Si Si4 0.940444 0.134902 0.917255
Si Si5 0.168925 0.020844 0.172299
Si Si6 0.058310 0.673264 0.565814
Si Si7 0.848782 0.195647 0.146912
O O1 0.315596 0.031551 0.515338
O O2 0.459565 0.117490 0.525922
O O3 0.365058 0.196766 0.664262
O O4 0.563290 0.088375 0.036727
O O5 0.667993 0.747274 0.828799
O O6 0.801161 0.894569 0.081493
O O7 0.581977 0.874231 0.912548
O O8 0.647603 0.410705 0.119384
O O9 0.664026 0.417537 0.486067
O O10 0.444127 0.344043 0.968993
O O11 0.904858 0.153170 0.060964
O O12 0.047061 0.053348 0.092385
O O13 0.006095 0.224536 0.936793
O O14 0.195258 0.674358 0.917324
#
# Coordination Sequence:
#
# PCOD8054269 Si02
#       7
#     4   4   4   4   4   4   4
#     4  10  22  38  66  98 131 171 219 284 328 387
#     4  10  22  41  69 100 126 170 223 276 342 380
#     4  11  23  40  62  92 134 176 215 266 338 404
#     4  10  19  38  66  94 127 162 218 284 317 395
#     4  12  23  43  62  96 135 173 222 266 340 404
#     4  10  18  37  67  98 131 156 230 282 322 389
#     4   9  19  37  62  98 118 170 219 276 331 377
#
# _framework density 25.737161
#
# number of rings (size 3 to 8) (size 9 to 14) (size 15 to 20)
#    0.000    1.714    2.857    2.571    2.000    0.000 
#   10.286    0.000    6.286    0.000    0.000    0.000 
#    0.000    0.000    0.000    0.000    0.000    0.000 
#
# Total GULP energy -173496.855499 kJ/mol
# GULP energy per Si atom -12392.632536 kJ/mol
# Density = 2.567858 g / cm^3
# Si number density = 25.737161 Si / 1000 Ang^3
#
#
#
# Elastic Constant Matrix: (Units=GPa)
#
#
# Indices 1 2 3 4 5 6 
#
# 1 57.5647 16.0020 19.3505 0.0000 15.0295 0.0000
# 2 16.0020 39.7974 28.7077 0.0000 10.8968 0.0000
# 3 19.3505 28.7077 150.6842 0.0000 18.0169 0.0000
# 4 0.0000 0.0000 0.0000 22.0120 0.0000 2.4635
# 5 15.0295 10.8968 18.0169 0.0000 38.4333 0.0000
# 6 0.0000 0.0000 0.0000 2.4635 0.0000 15.9728
#
#
#
# Elastic Compliance Matrix: (Units=1/GPa)
#
#
# Indices 1 2 3 4 5 6 
#
# 1 0.020941 -0.006194 -0.000784 0.000000 -0.006065 0.000000
# 2 -0.006194 0.032327 -0.004828 0.000000 -0.004480 0.000000
# 3 -0.000784 -0.004828 0.007899 0.000000 -0.002028 0.000000
# 4 0.000000 0.000000 0.000000 0.046228 0.000000 -0.007130
# 5 -0.006065 -0.004480 -0.002028 0.000000 0.030612 0.000000
# 6 0.000000 0.000000 0.000000 -0.007130 0.000000 0.063706
#
#
# Mechanical properties :
#
#
# Convention : Reuss Voigt Hill
#
# Bulk Modulus (GPa) = 26.62687 41.79629 34.21158
# Shear Modulus (GPa) = 21.02238 27.54935 24.28586
#
# Velocity S-wave (km/s) = 2.86109 3.27526 3.07516
# Velocity P-wave (km/s) = 4.61331 5.52974 5.09218
#
# Compressibility (1/GPa) = 0.03755605
#
# Stress axis : x y z
#
# Youngs Moduli (GPa) = 47.75411 30.93403 126.59405
#
# Poissons Ratio (x) = 0.19160 0.09924
# Poissons Ratio (y) = 0.29578 0.61116
# Poissons Ratio (z) = 0.03744 0.14934
#
# Static dielectric constant tensor:
#      x y z
#    x 4.453170 0.000000 0.089670 
#    y 0.000000 4.356920 0.000000 
#    z 0.089670 0.000000 5.150950 
# 
# 
# High freq. dielectric constant tensor:
#      x y z
#    x 2.020910 0.000000 0.005060 
#    y 0.000000 1.998570 0.000000 
#    z 0.005060 0.000000 2.049820 
# 
# From -- ./inp_files/10979.got.cif
#   From: 2010.06.25/outbox.cif.g09.slc.cpg/sg9_6_cif.got.tgz:10979.got - 2010.06.27 21:40:51.
