data_PCOD8054119
_publ_section_title
;
Structure prediction by ZEFSAII (Michael W. Deem and Ramdas Pophale) SiO2 
 PCOD8054119
Probable space group: C M
;
_chemical_formula_sum "Si O2"
_cell_formula_units_Z 20
_cell_length_a 10.570663
_cell_length_b 13.222771
_cell_length_c 10.636255
_cell_angle_alpha 90.000000
_cell_angle_beta 36.094246
_cell_angle_gamma 90.000000
_cell_volume 875.817626
_symmetry_space_group_name_H-M "C M"
_symmetry_group_IT_number 8
_symmetry_cell_setting 'monoclinic'
loop_
_space_group_symop_operation_xyz
x,y,z
x,-y,z
1/2+x,1/2+y,z
1/2+x,1/2-y,z
loop_
_atom_site_type_symbol
_atom_site_label
_atom_site_fract_x
_atom_site_fract_y
_atom_site_fract_z
Si Si1 0.189550 0.336598 0.821200
Si Si2 0.457408 0.788994 0.436903
Si Si3 0.897277 0.218844 0.212344
Si Si4 0.534494 0.500000 0.102599
Si Si5 0.531563 0.500000 0.591977
Si Si6 0.329414 0.000000 0.104425
Si Si7 0.292140 0.000000 0.636216
O O1 0.269531 0.288331 0.627409
O O2 0.384293 0.400901 0.720656
O O3 0.121499 0.241480 0.961352
O O4 0.975357 0.401396 0.980759
O O5 0.688165 0.747180 0.299646
O O6 0.424167 0.788652 0.314300
O O7 0.437764 0.899814 0.514351
O O8 0.886221 0.098491 0.243040
O O9 0.640389 0.500000 0.879716
O O10 0.705289 0.500000 0.075006
O O11 0.677411 0.500000 0.349267
O O12 0.661297 0.500000 0.613861
#
# Coordination Sequence:
#
# PCOD8054119 Si02
#       7
#     4   4   4   2   2   2   2
#     4  11  24  45  74 100 142 191 238 289 348 442
#     4  12  27  46  73 104 144 190 240 292 361 429
#     4  12  27  46  73 104 144 190 240 292 361 429
#     4  12  26  45  71 107 147 180 235 306 360 407
#     4  11  25  47  72 104 143 194 240 286 359 442
#     4  11  25  47  72 104 143 194 240 286 359 442
#     4  12  26  45  71 107 147 180 235 306 360 407
#
# _framework density 22.835805000000001
#
# number of rings (size 3 to 8) (size 9 to 14) (size 15 to 20)
#    0.000    0.400    2.000    6.600    5.600    4.800 
#    0.000    0.000    0.000    0.000    0.000    0.000 
#    0.000    0.000    0.000    0.000    0.000    0.000 
#
# Total GULP energy -123962.832118 kJ/mol
# GULP energy per Si atom -12396.283212 kJ/mol
# Density = 2.278383 g / cm^3
# Si number density = 22.835805 Si / 1000 Ang^3
#
#
#
# Elastic Constant Matrix: (Units=GPa)
#
#
# Indices 1 2 3 4 5 6 
#
# 1 185.9477 -5.4019 67.2685 -0.0079 9.2724 0.0014
# 2 -5.4019 107.5137 31.6662 0.0132 -12.9251 -0.0010
# 3 67.2685 31.6662 130.1563 0.0168 -3.7613 -0.0031
# 4 -0.0079 0.0132 0.0168 57.7050 -0.0056 -12.2423
# 5 9.2724 -12.9251 -3.7613 -0.0056 34.9650 0.0002
# 6 0.0014 -0.0010 -0.0031 -12.2423 0.0002 52.6093
#
#
#
# Elastic Compliance Matrix: (Units=1/GPa)
#
#
# Indices 1 2 3 4 5 6 
#
# 1 0.006934 0.001298 -0.003951 0.000002 -0.001784 0.000000
# 2 0.001298 0.010695 -0.003178 -0.000001 0.003268 0.000000
# 3 -0.003951 -0.003178 0.010527 -0.000003 0.001005 0.000000
# 4 0.000002 -0.000001 -0.000003 0.018229 0.000002 0.004242
# 5 -0.001784 0.003268 0.001005 0.000002 0.030389 0.000000
# 6 0.000000 0.000000 0.000000 0.004242 0.000000 0.019995
#
#
# Mechanical properties :
#
#
# Convention : Reuss Voigt Hill
#
# Bulk Modulus (GPa) = 60.63099 67.85370 64.24234
# Shear Modulus (GPa) = 43.88622 51.06152 47.47387
#
# Velocity S-wave (km/s) = 4.38861 4.73380 4.56447
# Velocity P-wave (km/s) = 7.23107 7.72377 7.48148
#
# Compressibility (1/GPa) = 0.01649322
#
# Stress axis : x y z
#
# Youngs Moduli (GPa) = 144.22191 93.49930 94.99150
#
# Poissons Ratio (x) = -0.12132 0.37529
# Poissons Ratio (y) = -0.18713 0.30191
# Poissons Ratio (z) = 0.56979 0.29717
#
# Static dielectric constant tensor:
#      x y z
#    x 3.837270 0.000010 -0.038370 
#    y 0.000010 4.694910 0.000010 
#    z -0.038370 0.000010 4.102180 
# 
# 
# High freq. dielectric constant tensor:
#      x y z
#    x 1.894440 0.000000 -0.001040 
#    y 0.000000 1.927890 0.000000 
#    z -0.001040 0.000000 1.912930 
# 
# From -- ./inp_files/2424.got.cif
#   From: 2010.03.12/outbox.cif.g09.slc.cpg/sg8_2_cif.got.tgz:2424.got - 2010.03.31 10:45:26.
