data_PCOD8054131
_publ_section_title
;
Structure prediction by ZEFSAII (Michael W. Deem and Ramdas Pophale) SiO2 
 PCOD8054131
Probable space group: C M
;
_chemical_formula_sum "Si O2"
_cell_formula_units_Z 20
_cell_length_a 19.811479
_cell_length_b 10.935890
_cell_length_c 5.040463
_cell_angle_alpha 90.000000
_cell_angle_beta 121.041562
_cell_angle_gamma 90.000000
_cell_volume 935.659024
_symmetry_space_group_name_H-M "C M"
_symmetry_group_IT_number 8
_symmetry_cell_setting 'monoclinic'
loop_
_space_group_symop_operation_xyz
x,y,z
x,-y,z
1/2+x,1/2+y,z
1/2+x,1/2-y,z
loop_
_atom_site_type_symbol
_atom_site_label
_atom_site_fract_x
_atom_site_fract_y
_atom_site_fract_z
Si Si1 0.472120 0.357874 0.983640
Si Si2 0.605166 0.000000 0.221080
Si Si3 0.000317 0.500000 0.509111
Si Si4 0.901926 0.743093 0.339184
Si Si5 0.646078 0.265559 0.320839
Si Si6 0.232359 0.142387 0.998248
O O1 0.485457 0.500000 0.061184
O O2 0.436412 0.337841 0.621172
O O3 0.410738 0.302219 0.068252
O O4 0.554814 0.290352 0.192007
O O5 0.531496 0.000000 0.272386
O O6 0.659490 0.880440 0.372412
O O7 0.573757 0.000000 0.857086
O O8 0.947590 0.616879 0.456822
O O9 0.810331 0.720569 0.209185
O O10 0.701038 0.335311 0.639409
O O11 0.665924 0.314285 0.068805
O O12 0.251104 0.000000 0.071598
#
# Coordination Sequence:
#
# PCOD8054131 Si02
#       6
#     4   2   2   4   4   4
#     4  12  25  45  70  98 134 175 222 273 325 395
#     4  12  24  44  70  98 134 166 226 274 322 394
#     4  12  20  44  74  98 124 164 228 284 314 390
#     4  12  24  45  71  98 131 172 225 274 328 389
#     4  12  25  45  69  99 133 176 218 274 332 388
#     4  12  26  45  68  99 135 174 220 274 331 392
#
# _framework density 21.375305999999998
#
# number of rings (size 3 to 8) (size 9 to 14) (size 15 to 20)
#    0.000    0.000    5.000    6.000    0.000    0.000 
#   10.800    0.000    0.000    0.000    0.000    0.000 
#    0.000    0.000    0.000    0.000    0.000    0.000 
#
# Total GULP energy -124101.762732 kJ/mol
# GULP energy per Si atom -12410.176273 kJ/mol
# Density = 2.132666 g / cm^3
# Si number density = 21.375306 Si / 1000 Ang^3
#
#
#
# Elastic Constant Matrix: (Units=GPa)
#
#
# Indices 1 2 3 4 5 6 
#
# 1 77.3557 40.6684 23.8179 0.0000 -7.4755 0.0000
# 2 40.6684 124.6374 18.3273 0.0000 -0.6073 0.0000
# 3 23.8179 18.3273 80.2670 0.0000 2.1651 0.0000
# 4 0.0000 0.0000 0.0000 82.9875 0.0000 43.1386
# 5 -7.4755 -0.6073 2.1651 0.0000 34.3833 0.0000
# 6 0.0000 0.0000 0.0000 43.1386 0.0000 80.2906
#
#
#
# Elastic Compliance Matrix: (Units=1/GPa)
#
#
# Indices 1 2 3 4 5 6 
#
# 1 0.017178 -0.004989 -0.004064 0.000000 0.003903 0.000000
# 2 -0.004989 0.009753 -0.000723 0.000000 -0.000867 0.000000
# 3 -0.004064 -0.000723 0.013877 0.000000 -0.001770 0.000000
# 4 0.000000 0.000000 0.000000 0.016720 0.000000 -0.008983
# 5 0.003903 -0.000867 -0.001770 0.000000 0.030029 0.000000
# 6 0.000000 0.000000 0.000000 -0.008983 0.000000 0.017281
#
#
# Mechanical properties :
#
#
# Convention : Reuss Voigt Hill
#
# Bulk Modulus (GPa) = 47.04196 49.76527 48.40362
# Shear Modulus (GPa) = 38.03009 52.82869 45.42939
#
# Velocity S-wave (km/s) = 4.22259 4.97679 4.61512
# Velocity P-wave (km/s) = 6.76971 7.50712 7.14793
#
# Compressibility (1/GPa) = 0.02125762
#
# Stress axis : x y z
#
# Youngs Moduli (GPa) = 58.21295 102.53084 72.06111
#
# Poissons Ratio (x) = 0.51149 0.29283
# Poissons Ratio (y) = 0.29040 0.05212
# Poissons Ratio (z) = 0.23655 0.07416
#
# Static dielectric constant tensor:
#      x y z
#    x 3.884440 0.000000 -0.112700 
#    y 0.000000 3.576100 0.000000 
#    z -0.112700 0.000000 3.798040 
# 
# 
# High freq. dielectric constant tensor:
#      x y z
#    x 1.844290 0.000000 -0.011810 
#    y 0.000000 1.855840 0.000000 
#    z -0.011810 0.000000 1.839570 
# 
# From -- ./inp_files/4759.got.cif
#   From: 2010.03.12/outbox.cif.g09.slc.cpg/sg8_3_cif.got.tgz:4759.got - 2010.03.31 10:45:26.
