data_PCOD8054410
_publ_section_title
;
Structure prediction by ZEFSAII (Michael W. Deem and Ramdas Pophale) SiO2 
 PCOD8054410
Probable space group: C C
;
_chemical_formula_sum "Si O2"
_cell_formula_units_Z 32
_cell_length_a 6.893147
_cell_length_b 22.040561
_cell_length_c 10.759986
_cell_angle_alpha 90.000000
_cell_angle_beta 113.041200
_cell_angle_gamma 90.000000
_cell_volume 1504.337499
_symmetry_space_group_name_H-M "C C"
_symmetry_group_IT_number 9
_symmetry_cell_setting 'monoclinic'
loop_
_space_group_symop_operation_xyz
x,y,z
x,-y,1/2+z
1/2+x,1/2+y,z
1/2+x,1/2-y,1/2+z
loop_
_atom_site_type_symbol
_atom_site_label
_atom_site_fract_x
_atom_site_fract_y
_atom_site_fract_z
Si Si1 0.605540 0.730946 0.518390
Si Si2 0.940313 0.827093 0.572198
Si Si3 0.580531 0.543238 0.465794
Si Si4 0.312327 0.354103 0.802987
Si Si5 0.367899 0.125946 0.666497
Si Si6 0.106983 0.046899 0.744403
Si Si7 0.407138 0.218159 0.197429
Si Si8 0.851175 0.150936 0.786882
O O1 0.792169 0.769443 0.502036
O O2 0.475052 0.699602 0.376645
O O3 0.714948 0.683801 0.640373
O O4 0.446856 0.771701 0.560505
O O5 0.837520 0.863532 0.661174
O O6 0.931451 0.867324 0.445054
O O7 0.178306 0.809134 0.663564
O O8 0.369662 0.582431 0.383278
O O9 0.785366 0.587813 0.524311
O O10 0.551408 0.513274 0.597492
O O11 0.623709 0.496179 0.366730
O O12 0.079775 0.331757 0.786609
O O13 0.329443 0.083268 0.779311
O O14 0.600972 0.149273 0.711999
O O15 0.929835 0.098233 0.716009
O O16 0.434125 0.282191 0.274248
#
# Coordination Sequence:
#
# PCOD8054410 Si02
#       8
#     4   4   4   4   4   4   4   4
#     4  10  19  39  58  86 136 173 219 261 341 395
#     4  11  24  32  61  96 132 178 218 273 321 425
#     4   9  22  48  70  93 134 171 226 286 341 398
#     4  10  22  40  58  94 135 176 213 283 338 398
#     4   9  21  41  65  92 129 174 216 284 335 401
#     4  10  23  44  69  95 129 176 224 293 335 405
#     4  11  21  37  61 100 134 178 219 274 336 414
#     4  12  22  39  66  98 133 178 229 272 349 406
#
# _framework density 21.271825
#
# number of rings (size 3 to 8) (size 9 to 14) (size 15 to 20)
#    0.750    1.000    2.500    1.500    3.500    2.000 
#    6.750    1.250    0.000    0.000    0.000    0.000 
#    0.000    0.000    0.000    0.000    0.000    0.000 
#
# Total GULP energy -198221.022255 kJ/mol
# GULP energy per Si atom -12388.813891 kJ/mol
# Density = 2.122341 g / cm^3
# Si number density = 21.271825 Si / 1000 Ang^3
#
#
#
# Elastic Constant Matrix: (Units=GPa)
#
#
# Indices 1 2 3 4 5 6 
#
# 1 96.1823 17.9189 21.8400 0.0000 -1.1926 0.0000
# 2 17.9189 47.5306 17.1412 0.0000 -10.0142 0.0000
# 3 21.8400 17.1412 93.2350 0.0000 -19.7000 0.0000
# 4 0.0000 0.0000 0.0000 35.5679 0.0000 -1.7397
# 5 -1.1926 -10.0142 -19.7000 0.0000 33.4050 0.0000
# 6 0.0000 0.0000 0.0000 -1.7397 0.0000 15.9888
#
#
#
# Elastic Compliance Matrix: (Units=1/GPa)
#
#
# Indices 1 2 3 4 5 6 
#
# 1 0.011673 -0.003979 -0.002475 0.000000 -0.002236 0.000000
# 2 -0.003979 0.024622 -0.002359 0.000000 0.005848 0.000000
# 3 -0.002475 -0.002359 0.013218 0.000000 0.007000 0.000000
# 4 0.000000 0.000000 0.000000 0.028266 0.000000 0.003075
# 5 -0.002236 0.005848 0.007000 0.000000 0.035737 0.000000
# 6 0.000000 0.000000 0.000000 0.003075 0.000000 0.062878
#
#
# Mechanical properties :
#
#
# Convention : Reuss Voigt Hill
#
# Bulk Modulus (GPa) = 31.36138 38.97202 35.16670
# Shear Modulus (GPa) = 24.43214 28.99552 26.71383
#
# Velocity S-wave (km/s) = 3.39273 3.69602 3.54762
# Velocity P-wave (km/s) = 5.48841 6.04771 5.77483
#
# Compressibility (1/GPa) = 0.03188635
#
# Stress axis : x y z
#
# Youngs Moduli (GPa) = 85.67144 40.61412 75.65408
#
# Poissons Ratio (x) = 0.16160 0.18725
# Poissons Ratio (y) = 0.34088 0.17847
# Poissons Ratio (z) = 0.21205 0.09581
#
# Static dielectric constant tensor:
#      x y z
#    x 3.779830 0.000000 -0.120960 
#    y 0.000000 3.599510 0.000000 
#    z -0.120960 0.000000 3.808710 
# 
# 
# High freq. dielectric constant tensor:
#      x y z
#    x 1.831490 0.000000 -0.008380 
#    y 0.000000 1.808520 0.000000 
#    z -0.008380 0.000000 1.833820 
# 
# From -- ./inp_files/13820.got.cif
#   From: 2010.06.25/outbox.cif.g09.slc.cpg/sg9_7_cif.got.tgz:13820.got - 2010.06.27 21:40:51.
