data_PCOD8054298
_publ_section_title
;
Structure prediction by ZEFSAII (Michael W. Deem and Ramdas Pophale) SiO2 
 PCOD8054298
Probable space group: C C
;
_chemical_formula_sum "Si O2"
_cell_formula_units_Z 28
_cell_length_a 9.266461
_cell_length_b 27.698086
_cell_length_c 5.168967
_cell_angle_alpha 90.000000
_cell_angle_beta 69.230295
_cell_angle_gamma 90.000000
_cell_volume 1240.466994
_symmetry_space_group_name_H-M "C C"
_symmetry_group_IT_number 9
_symmetry_cell_setting 'monoclinic'
loop_
_space_group_symop_operation_xyz
x,y,z
x,-y,1/2+z
1/2+x,1/2+y,z
1/2+x,1/2-y,1/2+z
loop_
_atom_site_type_symbol
_atom_site_label
_atom_site_fract_x
_atom_site_fract_y
_atom_site_fract_z
Si Si1 0.655270 0.815154 0.919220
Si Si2 0.064665 0.631264 0.959002
Si Si3 0.073371 0.519350 0.061573
Si Si4 0.894440 0.757206 0.482087
Si Si5 0.634613 0.314666 0.043208
Si Si6 0.725776 0.367996 0.503639
Si Si7 0.728824 0.520796 0.885352
O O1 0.605355 0.848796 0.712910
O O2 0.818083 0.790064 0.753809
O O3 0.676472 0.847141 0.165275
O O4 0.524208 0.774479 0.043683
O O5 0.072544 0.573888 0.967023
O O6 0.895024 0.648007 0.984666
O O7 0.159543 0.512113 0.282351
O O8 0.905182 0.496750 0.235364
O O9 0.763206 0.726667 0.417838
O O10 0.971008 0.790579 0.213032
O O11 0.689327 0.347696 0.246025
O O12 0.612907 0.346409 0.796646
O O13 0.713351 0.425227 0.495621
O O14 0.647389 0.512243 0.659889
#
# Coordination Sequence:
#
# PCOD8054298 Si02
#       7
#     4   4   4   4   4   4   4
#     4  11  25  39  62  85 121 158 197 248 288 352
#     4  12  21  36  57  92 125 149 191 244 305 339
#     4  10  19  30  52  84 126 145 184 239 297 339
#     4  10  24  44  60  86 116 160 206 240 296 342
#     4  11  25  39  62  85 121 158 197 248 288 352
#     4  12  21  36  57  92 125 149 191 244 305 339
#     4  10  19  30  52  84 126 145 184 239 297 339
#
# _framework density 22.572146
#
# number of rings (size 3 to 8) (size 9 to 14) (size 15 to 20)
#    0.000    1.143    5.714    1.714    4.000    8.000 
#    0.000    0.000    0.000    0.000    0.000   20.000 
#    0.000    0.000    0.000    0.000    0.000    0.000 
#
# Total GULP energy -173529.674960 kJ/mol
# GULP energy per Si atom -12394.976783 kJ/mol
# Density = 2.252077 g / cm^3
# Si number density = 22.572146 Si / 1000 Ang^3
#
#
#
# Elastic Constant Matrix: (Units=GPa)
#
#
# Indices 1 2 3 4 5 6 
#
# 1 26.4493 16.2252 27.8869 0.0000 -4.9641 0.0000
# 2 16.2252 150.9463 80.8490 0.0000 -9.6545 0.0000
# 3 27.8869 80.8490 161.8346 0.0000 14.1576 0.0000
# 4 0.0000 0.0000 0.0000 51.5151 0.0000 3.7298
# 5 -4.9641 -9.6545 14.1576 0.0000 40.8083 0.0000
# 6 0.0000 0.0000 0.0000 3.7298 0.0000 0.7306
#
#
#
# Elastic Compliance Matrix: (Units=1/GPa)
#
#
# Indices 1 2 3 4 5 6 
#
# 1 0.049378 0.000399 -0.009531 0.000000 0.009408 0.000000
# 2 0.000399 0.009666 -0.005262 0.000000 0.004161 0.000000
# 3 -0.009531 -0.005262 0.010994 0.000000 -0.006219 0.000000
# 4 0.000000 0.000000 0.000000 0.030794 0.000000 -0.157209
# 5 0.009408 0.004161 -0.006219 0.000000 0.028791 0.000000
# 6 0.000000 0.000000 0.000000 -0.157209 0.000000 2.171346
#
#
# Mechanical properties :
#
#
# Convention : Reuss Voigt Hill
#
# Bulk Modulus (GPa) = 24.24187 65.46139 44.85163
# Shear Modulus (GPa) = 2.13355 32.89540 17.51448
#
# Velocity S-wave (km/s) = 0.97328 3.82166 2.78858
# Velocity P-wave (km/s) = 3.46786 6.96688 5.50288
#
# Compressibility (1/GPa) = 0.04125094
#
# Stress axis : x y z
#
# Youngs Moduli (GPa) = 20.25189 103.45023 90.95650
#
# Poissons Ratio (x) = -0.04128 0.86691
# Poissons Ratio (y) = -0.00808 0.47861
# Poissons Ratio (z) = 0.19302 0.54435
#
# Static dielectric constant tensor:
#      x y z
#    x 4.802620 0.000000 2.179220 
#    y 0.000000 4.184390 0.000000 
#    z 2.179220 0.000000 7.981180 
# 
# 
# High freq. dielectric constant tensor:
#      x y z
#    x 1.841980 0.000000 0.028320 
#    y 0.000000 1.899720 0.000000 
#    z 0.028320 0.000000 1.910390 
# 
# From -- ./inp_files/2021.got.cif
#   From: 2010.06.25/outbox.cif.g09.slc.cpg/sg9_2_cif.got.tgz:2021.got - 2010.06.27 21:40:51.
