data_PCOD8054560
_publ_section_title
;
Structure prediction by ZEFSAII (Michael W. Deem and Ramdas Pophale) SiO2 
 PCOD8054560
Probable space group: C C
;
_chemical_formula_sum "Si O2"
_cell_formula_units_Z 32
_cell_length_a 5.183871
_cell_length_b 18.514771
_cell_length_c 15.944364
_cell_angle_alpha 90.000000
_cell_angle_beta 80.038370
_cell_angle_gamma 90.000000
_cell_volume 1507.239865
_symmetry_space_group_name_H-M "C C"
_symmetry_group_IT_number 9
_symmetry_cell_setting 'monoclinic'
loop_
_space_group_symop_operation_xyz
x,y,z
x,-y,1/2+z
1/2+x,1/2+y,z
1/2+x,1/2-y,1/2+z
loop_
_atom_site_type_symbol
_atom_site_label
_atom_site_fract_x
_atom_site_fract_y
_atom_site_fract_z
Si Si1 0.224730 0.247104 0.038050
Si Si2 0.936814 0.623540 0.496153
Si Si3 0.248365 0.716197 0.719859
Si Si4 0.185696 0.514086 0.038107
Si Si5 0.192188 0.777880 0.892236
Si Si6 0.233015 0.873378 0.254626
Si Si7 0.150555 0.978555 0.118890
Si Si8 0.490600 0.638708 0.937359
O O1 0.310657 0.241318 0.129964
O O2 0.989777 0.304766 0.048071
O O3 0.429025 0.281801 0.961023
O O4 0.139342 0.167245 0.012134
O O5 0.168069 0.562772 0.488092
O O6 0.868712 0.651442 0.405565
O O7 0.679202 0.590384 0.554807
O O8 0.143326 0.774762 0.794644
O O9 0.524233 0.684727 0.733937
O O10 0.029438 0.653541 0.720650
O O11 0.293997 0.573867 0.969125
O O12 0.369898 0.511603 0.110847
O O13 0.892179 0.534080 0.086725
O O14 0.327593 0.703133 0.907622
O O15 0.176287 0.950013 0.212481
O O16 0.200533 0.887561 0.356147
#
# Coordination Sequence:
#
# PCOD8054560 Si02
#       8
#     4   4   4   4   4   4   4   4
#     4  11  20  37  65  92 127 164 208 269 325 375
#     4   9  19  34  61  89 117 159 212 249 308 377
#     4  11  22  35  61  93 125 158 212 264 322 375
#     4  10  22  38  62  89 120 170 203 261 313 385
#     4  10  21  37  60  95 126 166 211 267 321 389
#     4  11  20  40  61  95 119 164 214 267 297 394
#     4  10  20  37  65  86 116 159 220 248 302 374
#     4  10  24  38  63  93 132 164 212 265 334 375
#
# _framework density 21.23086
#
# number of rings (size 3 to 8) (size 9 to 14) (size 15 to 20)
#    0.750    1.000    2.500    3.000    3.500    0.000 
#    0.000    0.000    8.250    0.000    0.000    0.000 
#    0.000    0.000    0.000    0.000    0.000    0.000 
#
# Total GULP energy -198216.731658 kJ/mol
# GULP energy per Si atom -12388.545729 kJ/mol
# Density = 2.118254 g / cm^3
# Si number density = 21.230860 Si / 1000 Ang^3
#
#
#
# Elastic Constant Matrix: (Units=GPa)
#
#
# Indices 1 2 3 4 5 6 
#
# 1 82.1888 14.9084 12.3383 0.0000 7.1062 0.0000
# 2 14.9084 65.8681 27.6975 0.0000 -0.4256 0.0000
# 3 12.3383 27.6975 124.5169 0.0000 2.9577 0.0000
# 4 0.0000 0.0000 0.0000 20.6762 0.0000 -5.6956
# 5 7.1062 -0.4256 2.9577 0.0000 25.0648 0.0000
# 6 0.0000 0.0000 0.0000 -5.6956 0.0000 30.4139
#
#
#
# Elastic Compliance Matrix: (Units=1/GPa)
#
#
# Indices 1 2 3 4 5 6 
#
# 1 0.013071 -0.002730 -0.000601 0.000000 -0.003681 0.000000
# 2 -0.002730 0.017332 -0.003620 0.000000 0.001495 0.000000
# 3 -0.000601 -0.003620 0.008918 0.000000 -0.000944 0.000000
# 4 0.000000 0.000000 0.000000 0.050996 0.000000 0.009550
# 5 -0.003681 0.001495 -0.000944 0.000000 0.041077 0.000000
# 6 0.000000 0.000000 0.000000 0.009550 0.000000 0.034668
#
#
# Mechanical properties :
#
#
# Convention : Reuss Voigt Hill
#
# Bulk Modulus (GPa) = 39.33965 42.49580 40.91773
# Shear Modulus (GPa) = 26.53428 29.73961 28.13695
#
# Velocity S-wave (km/s) = 3.53908 3.74675 3.64440
# Velocity P-wave (km/s) = 5.93884 6.22712 6.08469
#
# Compressibility (1/GPa) = 0.02541965
#
# Stress axis : x y z
#
# Youngs Moduli (GPa) = 76.50713 57.69783 112.12955
#
# Poissons Ratio (x) = 0.15749 0.06734
# Poissons Ratio (y) = 0.20884 0.40594
# Poissons Ratio (z) = 0.04595 0.20888
#
# Static dielectric constant tensor:
#      x y z
#    x 3.852760 0.000000 0.038040 
#    y 0.000000 3.477280 0.000000 
#    z 0.038040 0.000000 4.120940 
# 
# 
# High freq. dielectric constant tensor:
#      x y z
#    x 1.838870 0.000000 0.005390 
#    y 0.000000 1.797410 0.000000 
#    z 0.005390 0.000000 1.821960 
# 
# From -- ./inp_files/22161.got.cif
#   From: 2010.06.25/outbox.cif.g09.slc.cpg/sg9_12_cif.got.tgz:22161.got - 2010.06.27 21:40:51.
