data_PCOD8054339
_publ_section_title
;
Structure prediction by ZEFSAII (Michael W. Deem and Ramdas Pophale) SiO2 
 PCOD8054339
Probable space group: C C
;
_chemical_formula_sum "Si O2"
_cell_formula_units_Z 32
_cell_length_a 9.176507
_cell_length_b 22.758759
_cell_length_c 9.300902
_cell_angle_alpha 90.000000
_cell_angle_beta 62.097217
_cell_angle_gamma 90.000000
_cell_volume 1716.631129
_symmetry_space_group_name_H-M "C C"
_symmetry_group_IT_number 9
_symmetry_cell_setting 'monoclinic'
loop_
_space_group_symop_operation_xyz
x,y,z
x,-y,1/2+z
1/2+x,1/2+y,z
1/2+x,1/2-y,1/2+z
loop_
_atom_site_type_symbol
_atom_site_label
_atom_site_fract_x
_atom_site_fract_y
_atom_site_fract_z
Si Si1 0.953970 0.201043 0.757180
Si Si2 0.060615 0.087681 0.858971
Si Si3 0.812981 0.259664 0.074030
Si Si4 0.449738 0.348453 0.672429
Si Si5 0.325602 0.112850 0.521406
Si Si6 0.019487 0.864187 0.967393
Si Si7 0.331978 0.481327 0.025685
Si Si8 0.668461 0.061607 0.326968
O O1 0.955042 0.135248 0.820269
O O2 0.123969 0.236022 0.711339
O O3 0.930196 0.189788 0.596688
O O4 0.813739 0.237113 0.906079
O O5 0.235984 0.079977 0.697075
O O6 0.968748 0.025336 0.897940
O O7 0.076226 0.113379 0.014994
O O8 0.922018 0.217219 0.124990
O O9 0.893917 0.324389 0.046855
O O10 0.525436 0.346759 0.797209
O O11 0.271899 0.379558 0.749171
O O12 0.203344 0.126911 0.444930
O O13 0.475033 0.073671 0.395133
O O14 0.925488 0.924615 0.041951
O O15 0.199125 0.461098 0.971743
O O16 0.222355 0.509806 0.198382
#
# Coordination Sequence:
#
# PCOD8054339 Si02
#       8
#     4   4   4   4   4   4   4   4
#     4   9  17  32  51  74 100 133 167 203 250 304
#     4   8  17  32  54  73  98 137 173 199 249 311
#     4   9  17  32  52  71 100 135 165 204 253 298
#     4   9  17  33  56  75  96 136 176 203 246 312
#     4  10  20  35  51  78 106 131 168 216 255 295
#     4   9  19  33  53  78 102 132 175 209 245 308
#     4  10  19  36  54  73 101 140 172 206 251 307
#     4  10  20  33  53  78 103 130 170 214 255 295
#
# _framework density 18.641162000000001
#
# number of rings (size 3 to 8) (size 9 to 14) (size 15 to 20)
#    0.000    3.000    0.000    2.250    0.000    1.000 
#    0.000   13.750    0.000    0.000    0.000    0.000 
#    0.000    0.000    0.000    0.000    0.000    0.000 
#
# Total GULP energy -198267.176350 kJ/mol
# GULP energy per Si atom -12391.698522 kJ/mol
# Density = 1.859873 g / cm^3
# Si number density = 18.641162 Si / 1000 Ang^3
#
#
#
# Elastic Constant Matrix: (Units=GPa)
#
#
# Indices 1 2 3 4 5 6 
#
# 1 73.5934 38.4329 46.7311 0.0000 4.3345 0.0000
# 2 38.4329 75.0091 21.0522 0.0000 -5.5013 0.0000
# 3 46.7311 21.0522 93.1583 0.0000 5.2274 0.0000
# 4 0.0000 0.0000 0.0000 28.8254 0.0000 5.1973
# 5 4.3345 -5.5013 5.2274 0.0000 28.3289 0.0000
# 6 0.0000 0.0000 0.0000 5.1973 0.0000 11.4277
#
#
#
# Elastic Compliance Matrix: (Units=1/GPa)
#
#
# Indices 1 2 3 4 5 6 
#
# 1 0.026043 -0.010727 -0.010407 0.000000 -0.004147 0.000000
# 2 -0.010727 0.018983 0.000800 0.000000 0.005180 0.000000
# 3 -0.010407 0.000800 0.015840 0.000000 -0.001175 0.000000
# 4 0.000000 0.000000 0.000000 0.037790 0.000000 -0.017187
# 5 -0.004147 0.005180 -0.001175 0.000000 0.037157 0.000000
# 6 0.000000 0.000000 0.000000 -0.017187 0.000000 0.095324
#
#
# Mechanical properties :
#
#
# Convention : Reuss Voigt Hill
#
# Bulk Modulus (GPa) = 49.50792 50.46591 49.98691
# Shear Modulus (GPa) = 17.95092 22.75272 20.35182
#
# Velocity S-wave (km/s) = 3.10655 3.49745 3.30778
# Velocity P-wave (km/s) = 6.28359 6.59095 6.43910
#
# Compressibility (1/GPa) = 0.02019879
#
# Stress axis : x y z
#
# Youngs Moduli (GPa) = 38.39829 52.67798 63.13150
#
# Poissons Ratio (x) = 0.56508 0.65701
# Poissons Ratio (y) = 0.41190 -0.05053
# Poissons Ratio (z) = 0.39961 -0.04217
#
# Static dielectric constant tensor:
#      x y z
#    x 3.004860 0.000000 0.105710 
#    y 0.000000 3.797910 0.000000 
#    z 0.105710 0.000000 3.760750 
# 
# 
# High freq. dielectric constant tensor:
#      x y z
#    x 1.679050 0.000000 0.004500 
#    y 0.000000 1.729610 0.000000 
#    z 0.004500 0.000000 1.739360 
# 
# From -- ./inp_files/6080.got.cif
#   From: 2010.06.25/outbox.cif.g09.slc.cpg/sg9_4_cif.got.tgz:6080.got - 2010.06.27 21:40:51.
