data_PCOD8054931
_publ_section_title
;
Structure prediction by ZEFSAII (Michael W. Deem and Ramdas Pophale) SiO2 
 PCOD8054931
Probable space group: C C
;
_chemical_formula_sum "Si O2"
_cell_formula_units_Z 32
_cell_length_a 12.867817
_cell_length_b 21.911207
_cell_length_c 9.318838
_cell_angle_alpha 90.000000
_cell_angle_beta 34.471120
_cell_angle_gamma 90.000000
_cell_volume 1487.107224
_symmetry_space_group_name_H-M "C C"
_symmetry_group_IT_number 9
_symmetry_cell_setting 'monoclinic'
loop_
_space_group_symop_operation_xyz
x,y,z
x,-y,1/2+z
1/2+x,1/2+y,z
1/2+x,1/2-y,1/2+z
loop_
_atom_site_type_symbol
_atom_site_label
_atom_site_fract_x
_atom_site_fract_y
_atom_site_fract_z
Si Si1 0.686010 0.865340 0.097800
Si Si2 0.644638 0.897343 0.821228
Si Si3 0.400798 0.121894 0.348025
Si Si4 0.498967 0.666198 0.427330
Si Si5 0.585262 0.540348 0.447701
Si Si6 0.027630 0.065583 0.820794
Si Si7 0.877938 0.705588 0.101901
Si Si8 0.502666 0.034901 0.989653
O O1 0.562425 0.812682 0.309230
O O2 0.638913 0.929766 0.227218
O O3 0.647051 0.865619 0.973270
O O4 0.901994 0.849089 0.883754
O O5 0.525187 0.858801 0.842055
O O6 0.847043 0.893384 0.523413
O O7 0.562357 0.965156 0.930858
O O8 0.206328 0.106555 0.643370
O O9 0.364649 0.174734 0.273228
O O10 0.497471 0.064605 0.155594
O O11 0.482848 0.604694 0.539090
O O12 0.712122 0.686003 0.183852
O O13 0.381375 0.721884 0.629579
O O14 0.564484 0.525965 0.637708
O O15 0.483232 0.484085 0.492526
O O16 0.797853 0.542001 0.156227
#
# Coordination Sequence:
#
# PCOD8054931 Si02
#       8
#     4   4   4   4   4   4   4   4
#     4  11  25  40  68  99 125 178 221 280 331 400
#     4  12  25  38  65  97 143 173 213 273 346 412
#     4  10  23  43  64  98 135 175 221 277 337 399
#     4  12  23  44  72 100 127 172 239 277 334 400
#     4  11  24  40  66  99 136 172 221 279 339 406
#     4  11  25  39  63 101 133 181 213 274 345 407
#     4  11  24  44  76  95 125 175 235 287 323 394
#     4  10  21  40  64  97 134 176 217 265 335 410
#
# _framework density 21.518286
#
# number of rings (size 3 to 8) (size 9 to 14) (size 15 to 20)
#    0.000    1.000    6.250    1.500   10.500    1.000 
#    0.000    0.000    5.500    0.000    0.000    0.000 
#    0.000    0.000    0.000    0.000    0.000    0.000 
#
# Total GULP energy -198297.102262 kJ/mol
# GULP energy per Si atom -12393.568891 kJ/mol
# Density = 2.146931 g / cm^3
# Si number density = 21.518286 Si / 1000 Ang^3
#
#
#
# Elastic Constant Matrix: (Units=GPa)
#
#
# Indices 1 2 3 4 5 6 
#
# 1 176.4794 39.3556 51.2434 0.0000 -10.9324 0.0000
# 2 39.3556 66.2143 18.5329 0.0000 -3.1782 0.0000
# 3 51.2434 18.5329 87.7831 0.0003 -10.5164 -0.0001
# 4 0.0000 0.0000 0.0003 12.9479 -0.0001 -5.6416
# 5 -10.9324 -3.1782 -10.5164 -0.0001 29.9715 0.0001
# 6 0.0000 0.0000 -0.0001 -5.6416 0.0001 25.3368
#
#
#
# Elastic Compliance Matrix: (Units=1/GPa)
#
#
# Indices 1 2 3 4 5 6 
#
# 1 0.007528 -0.003431 -0.003533 0.000000 0.001142 0.000000
# 2 -0.003431 0.017623 -0.001716 0.000000 0.000015 0.000000
# 3 -0.003533 -0.001716 0.014239 0.000000 0.003525 0.000000
# 4 0.000000 0.000000 0.000000 0.085530 0.000000 0.019044
# 5 0.001142 0.000015 0.003525 0.000000 0.035020 0.000000
# 6 0.000000 0.000000 0.000000 0.019044 0.000000 0.043709
#
#
# Mechanical properties :
#
#
# Convention : Reuss Voigt Hill
#
# Bulk Modulus (GPa) = 45.39375 60.97120 53.18247
# Shear Modulus (GPa) = 21.89594 28.40756 25.15175
#
# Velocity S-wave (km/s) = 3.19337 3.63734 3.42256
# Velocity P-wave (km/s) = 5.89390 6.78502 6.35509
#
# Compressibility (1/GPa) = 0.02202947
#
# Stress axis : x y z
#
# Youngs Moduli (GPa) = 132.83399 56.74532 70.22978
#
# Poissons Ratio (x) = 0.19468 0.24815
# Poissons Ratio (y) = 0.45571 0.12052
# Poissons Ratio (z) = 0.46936 0.09738
#
# Static dielectric constant tensor:
#      x y z
#    x 4.148430 0.000000 -0.255300 
#    y 0.000000 3.760490 0.000000 
#    z -0.255300 0.000000 3.738910 
# 
# 
# High freq. dielectric constant tensor:
#      x y z
#    x 1.859350 0.000000 -0.023890 
#    y 0.000000 1.823360 0.000000 
#    z -0.023890 0.000000 1.830110 
# 
# From -- ./inp_files/8512.got.cif
#   From: 2010.06.25/outbox.cif.g09.slc.cpg/sg9_5_cif.got.tgz:8512.got - 2010.06.27 21:40:51.
