data_PCOD8054737
_publ_section_title
;
Structure prediction by ZEFSAII (Michael W. Deem and Ramdas Pophale) SiO2 
 PCOD8054737
Probable space group: C C
;
_chemical_formula_sum "Si O2"
_cell_formula_units_Z 32
_cell_length_a 7.427131
_cell_length_b 10.986619
_cell_length_c 17.344546
_cell_angle_alpha 90.000000
_cell_angle_beta 96.416461
_cell_angle_gamma 90.000000
_cell_volume 1406.432987
_symmetry_space_group_name_H-M "C C"
_symmetry_group_IT_number 9
_symmetry_cell_setting 'monoclinic'
loop_
_space_group_symop_operation_xyz
x,y,z
x,-y,1/2+z
1/2+x,1/2+y,z
1/2+x,1/2-y,1/2+z
loop_
_atom_site_type_symbol
_atom_site_label
_atom_site_fract_x
_atom_site_fract_y
_atom_site_fract_z
Si Si1 0.462680 0.104099 0.057360
Si Si2 0.556269 0.845427 0.812660
Si Si3 0.786949 0.556310 0.423132
Si Si4 0.971241 0.810598 0.168022
Si Si5 0.008809 0.124720 0.895401
Si Si6 0.217572 0.574284 0.764394
Si Si7 0.880579 0.619717 0.661045
Si Si8 0.326082 0.289146 0.527075
O O1 0.413384 0.241432 0.085930
O O2 0.432946 0.007319 0.123763
O O3 0.352705 0.059894 0.977561
O O4 0.672879 0.114024 0.042724
O O5 0.460891 0.793313 0.732330
O O6 0.634800 0.735932 0.869848
O O7 0.417139 0.923822 0.857459
O O8 0.714795 0.933266 0.790091
O O9 0.595595 0.506462 0.381416
O O10 0.752455 0.675819 0.472342
O O11 0.168760 0.874316 0.173539
O O12 0.827095 0.913184 0.188040
O O13 0.819320 0.142979 0.839369
O O14 0.974997 0.137465 0.985182
O O15 0.013748 0.628183 0.741837
O O16 0.922894 0.733868 0.607102
#
# Coordination Sequence:
#
# PCOD8054737 Si02
#       8
#     4   4   4   4   4   4   4   4
#     4  10  20  43  65  90 132 166 211 270 315 379
#     4  10  22  42  60  93 130 162 212 269 310 377
#     4  10  22  40  67  91 131 168 207 272 315 376
#     4  10  23  42  61  95 128 166 222 259 319 388
#     4  10  23  41  63  97 127 165 221 255 321 391
#     4  11  23  40  64  94 127 170 212 264 322 379
#     4  10  22  43  64  91 133 165 212 273 312 378
#     4   9  21  43  62  93 126 166 217 260 318 386
#
# _framework density 22.752597000000002
#
# number of rings (size 3 to 8) (size 9 to 14) (size 15 to 20)
#    0.000    2.000    1.250    0.750    5.250    1.000 
#   15.750    0.000    0.000    0.000    0.000    0.000 
#    0.000    0.000    0.000    0.000    0.000    0.000 
#
# Total GULP energy -198241.833719 kJ/mol
# GULP energy per Si atom -12390.114607 kJ/mol
# Density = 2.270081 g / cm^3
# Si number density = 22.752597 Si / 1000 Ang^3
#
#
#
# Elastic Constant Matrix: (Units=GPa)
#
#
# Indices 1 2 3 4 5 6 
#
# 1 85.7585 54.1302 29.3782 0.0000 -10.1678 0.0000
# 2 54.1302 96.0433 32.3625 0.0000 -15.9190 0.0000
# 3 29.3782 32.3625 78.0700 0.0000 -14.1083 0.0000
# 4 0.0000 0.0000 0.0000 29.4292 0.0000 -8.7204
# 5 -10.1678 -15.9190 -14.1083 0.0000 34.2080 0.0000
# 6 0.0000 0.0000 0.0000 -8.7204 0.0000 43.8975
#
#
#
# Elastic Compliance Matrix: (Units=1/GPa)
#
#
# Indices 1 2 3 4 5 6 
#
# 1 0.018726 -0.009527 -0.003126 0.000000 -0.000157 0.000000
# 2 -0.009527 0.017437 -0.002905 0.000000 0.004085 0.000000
# 3 -0.003126 -0.002905 0.015967 0.000000 0.004304 0.000000
# 4 0.000000 0.000000 0.000000 0.036105 0.000000 0.007172
# 5 -0.000157 0.004085 0.004304 0.000000 0.032862 0.000000
# 6 0.000000 0.000000 0.000000 0.007172 0.000000 0.024205
#
#
# Mechanical properties :
#
#
# Convention : Reuss Voigt Hill
#
# Bulk Modulus (GPa) = 47.58456 54.62374 51.10415
# Shear Modulus (GPa) = 27.25920 31.10701 29.18311
#
# Velocity S-wave (km/s) = 3.46507 3.70156 3.58526
# Velocity P-wave (km/s) = 6.08015 6.50604 6.29670
#
# Compressibility (1/GPa) = 0.02101522
#
# Stress axis : x y z
#
# Youngs Moduli (GPa) = 53.40119 57.34860 62.62743
#
# Poissons Ratio (x) = 0.54635 0.19577
# Poissons Ratio (y) = 0.50874 0.18194
# Poissons Ratio (z) = 0.16693 0.16661
#
# Static dielectric constant tensor:
#      x y z
#    x 3.916280 0.000000 -0.215970 
#    y 0.000000 4.248230 0.000000 
#    z -0.215970 0.000000 4.304560 
# 
# 
# High freq. dielectric constant tensor:
#      x y z
#    x 1.873390 0.000000 -0.017240 
#    y 0.000000 1.895940 0.000000 
#    z -0.017240 0.000000 1.906440 
# 
# From -- ./inp_files/32013.got.cif
#   From: 2010.06.25/outbox.cif.g09.slc.cpg/sg9_17_cif.got.tgz:32013.got - 2010.06.27 21:40:51.
