data_PCOD8054870
_publ_section_title
;
Structure prediction by ZEFSAII (Michael W. Deem and Ramdas Pophale) SiO2 
 PCOD8054870
Probable space group: C C
;
_chemical_formula_sum "Si O2"
_cell_formula_units_Z 32
_cell_length_a 8.983171
_cell_length_b 30.968103
_cell_length_c 5.009793
_cell_angle_alpha 90.000000
_cell_angle_beta 116.903005
_cell_angle_gamma 90.000000
_cell_volume 1242.850123
_symmetry_space_group_name_H-M "C C"
_symmetry_group_IT_number 9
_symmetry_cell_setting 'monoclinic'
loop_
_space_group_symop_operation_xyz
x,y,z
x,-y,1/2+z
1/2+x,1/2+y,z
1/2+x,1/2-y,1/2+z
loop_
_atom_site_type_symbol
_atom_site_label
_atom_site_fract_x
_atom_site_fract_y
_atom_site_fract_z
Si Si1 0.880910 0.029145 0.473890
Si Si2 0.512695 0.315313 0.791365
Si Si3 0.746938 0.876510 0.831785
Si Si4 0.095036 0.302614 0.008345
Si Si5 0.764214 0.525973 0.814762
Si Si6 0.911356 0.389123 0.277371
Si Si7 0.276603 0.154905 0.154650
Si Si8 0.718081 0.242651 0.107660
O O1 0.780671 0.073810 0.433121
O O2 0.074844 0.042411 0.625476
O O3 0.832398 0.995091 0.662848
O O4 0.414929 0.353395 0.859361
O O5 0.583531 0.333444 0.567072
O O6 0.681169 0.294524 0.066658
O O7 0.405040 0.271303 0.671906
O O8 0.681822 0.850132 0.038477
O O9 0.600168 0.873599 0.489994
O O10 0.187916 0.269345 0.889797
O O11 0.899302 0.303578 0.766343
O O12 0.106171 0.287400 0.321748
O O13 0.793781 0.484480 0.649152
O O14 0.898867 0.560244 0.824003
O O15 0.776312 0.366667 0.365126
O O16 0.854780 0.378966 0.932263
#
# Coordination Sequence:
#
# PCOD8054870 Si02
#       8
#     4   4   4   4   4   4   4   4
#     4  10  23  41  65  99 136 173 219 275 331 392
#     4  11  25  44  69  97 134 177 224 277 334 399
#     4  10  24  43  69 100 135 178 223 273 336 399
#     4  10  23  45  65  93 131 169 217 269 328 396
#     4  10  21  39  62  90 127 170 213 266 333 391
#     4  11  24  42  65  95 129 169 223 273 322 393
#     4  11  23  40  64  91 124 168 215 266 320 382
#     4  11  25  42  65  95 128 170 218 273 330 390
#
# _framework density 25.747271999999999
#
# number of rings (size 3 to 8) (size 9 to 14) (size 15 to 20)
#    0.000    1.500    0.000    4.500    0.000   15.000 
#    0.000    0.000    0.000    0.000    0.000    0.000 
#    0.000    0.000    0.000    0.000    0.000    0.000 
#
# Total GULP energy -198310.997267 kJ/mol
# GULP energy per Si atom -12394.437329 kJ/mol
# Density = 2.568867 g / cm^3
# Si number density = 25.747272 Si / 1000 Ang^3
#
#
#
# Elastic Constant Matrix: (Units=GPa)
#
#
# Indices 1 2 3 4 5 6 
#
# 1 110.7078 37.6847 6.6659 0.0000 2.0364 0.0000
# 2 37.6847 125.7667 8.7207 0.0000 -1.3807 0.0000
# 3 6.6659 8.7207 46.9127 0.0000 -12.4341 0.0000
# 4 0.0000 0.0000 0.0000 19.5704 0.0000 7.3176
# 5 2.0364 -1.3807 -12.4341 0.0000 27.3392 0.0000
# 6 0.0000 0.0000 0.0000 7.3176 0.0000 36.0795
#
#
#
# Elastic Compliance Matrix: (Units=1/GPa)
#
#
# Indices 1 2 3 4 5 6 
#
# 1 0.010148 -0.002968 -0.001285 0.000000 -0.001490 0.000000
# 2 -0.002968 0.008925 -0.001205 0.000000 0.000124 0.000000
# 3 -0.001285 -0.001205 0.024711 0.000000 0.011274 0.000000
# 4 0.000000 0.000000 0.000000 0.055291 0.000000 -0.011214
# 5 -0.001490 0.000124 0.011274 0.000000 0.041822 0.000000
# 6 0.000000 0.000000 0.000000 -0.011214 0.000000 0.029991
#
#
# Mechanical properties :
#
#
# Convention : Reuss Voigt Hill
#
# Bulk Modulus (GPa) = 30.42419 43.28109 36.85264
# Shear Modulus (GPa) = 25.93905 31.95220 28.94562
#
# Velocity S-wave (km/s) = 3.17748 3.52660 3.35658
# Velocity P-wave (km/s) = 5.03030 5.78178 5.41908
#
# Compressibility (1/GPa) = 0.03286858
#
# Stress axis : x y z
#
# Youngs Moduli (GPa) = 98.54286 112.03943 40.46819
#
# Poissons Ratio (x) = 0.33253 0.05201
# Poissons Ratio (y) = 0.29247 0.04875
# Poissons Ratio (z) = 0.12665 0.13496
#
# Static dielectric constant tensor:
#      x y z
#    x 4.914280 0.000000 0.058270 
#    y 0.000000 4.491340 0.000000 
#    z 0.058270 0.000000 4.445290 
# 
# 
# High freq. dielectric constant tensor:
#      x y z
#    x 2.041520 0.000000 -0.004620 
#    y 0.000000 2.028850 0.000000 
#    z -0.004620 0.000000 2.017100 
# 
# From -- ./inp_files/1409.got.cif
#   From: 2010.06.25/outbox.cif.g09.slc.cpg/sg9_1_cif.got.tgz:1409.got - 2010.06.27 21:40:51.
