data_PCOD8054802
_publ_section_title
;
Structure prediction by ZEFSAII (Michael W. Deem and Ramdas Pophale) SiO2 
 PCOD8054802
Probable space group: C C
;
_chemical_formula_sum "Si O2"
_cell_formula_units_Z 24
_cell_length_a 4.813481
_cell_length_b 23.701371
_cell_length_c 8.453548
_cell_angle_alpha 90.000000
_cell_angle_beta 92.202814
_cell_angle_gamma 90.000000
_cell_volume 963.719627
_symmetry_space_group_name_H-M "C C"
_symmetry_group_IT_number 9
_symmetry_cell_setting 'monoclinic'
loop_
_space_group_symop_operation_xyz
x,y,z
x,-y,1/2+z
1/2+x,1/2+y,z
1/2+x,1/2-y,1/2+z
loop_
_atom_site_type_symbol
_atom_site_label
_atom_site_fract_x
_atom_site_fract_y
_atom_site_fract_z
Si Si1 0.899640 0.292552 0.666150
Si Si2 0.884327 0.797187 0.437840
Si Si3 0.370330 0.466730 0.985262
Si Si4 0.996656 0.917245 0.413340
Si Si5 0.895297 0.526008 0.705558
Si Si6 0.726960 0.591122 0.257464
O O1 0.835092 0.244167 0.790709
O O2 0.692714 0.290574 0.512988
O O3 0.894095 0.350432 0.770564
O O4 0.194011 0.285535 0.586702
O O5 0.843189 0.859802 0.357028
O O6 0.293514 0.526111 0.885712
O O7 0.632711 0.490002 0.089599
O O8 0.134442 0.446676 0.101420
O O9 0.484685 0.414776 0.884953
O O10 0.288205 0.927473 0.328048
O O11 0.053971 0.905616 0.595281
O O12 0.949603 0.462082 0.780111
#
# Coordination Sequence:
#
# PCOD8054802 Si02
#       6
#     4   4   4   4   4   4
#     4  11  24  44  67  93 127 169 217 266 317 374
#     4  11  24  44  67  93 127 169 217 266 317 374
#     4  10  21  37  60  93 126 158 201 251 311 378
#     4   9  21  39  62  89 125 165 202 253 317 376
#     4  10  21  37  60  93 126 158 201 251 311 378
#     4   9  21  39  62  89 125 165 202 253 317 376
#
# _framework density 24.903509
#
# number of rings (size 3 to 8) (size 9 to 14) (size 15 to 20)
#    0.000    2.000    0.000    2.000    0.000   18.667 
#    0.000    3.333    0.000    0.000    0.000    0.000 
#    0.000    0.000    0.000    0.000    0.000    0.000 
#
# Total GULP energy -148734.270589 kJ/mol
# GULP energy per Si atom -12394.522549 kJ/mol
# Density = 2.484683 g / cm^3
# Si number density = 24.903509 Si / 1000 Ang^3
#
#
#
# Elastic Constant Matrix: (Units=GPa)
#
#
# Indices 1 2 3 4 5 6 
#
# 1 57.7161 18.3452 20.5868 0.0000 -39.7449 0.0000
# 2 18.3452 126.6062 37.9297 0.0000 -2.2425 0.0000
# 3 20.5868 37.9297 126.6649 0.0000 -44.5086 0.0000
# 4 0.0000 0.0000 0.0000 34.1432 0.0000 -6.6136
# 5 -39.7449 -2.2425 -44.5086 0.0000 47.4484 0.0000
# 6 0.0000 0.0000 0.0000 -6.6136 0.0000 31.7303
#
#
#
# Elastic Compliance Matrix: (Units=1/GPa)
#
#
# Indices 1 2 3 4 5 6 
#
# 1 0.061809 -0.013047 0.017657 0.000000 0.067721 0.000000
# 2 -0.013047 0.011732 -0.007515 0.000000 -0.017423 0.000000
# 3 0.017657 -0.007515 0.018419 0.000000 0.031713 0.000000
# 4 0.000000 0.000000 0.000000 0.030521 0.000000 0.006361
# 5 0.067721 -0.017423 0.031713 0.000000 0.106727 0.000000
# 6 0.000000 0.000000 0.000000 0.006361 0.000000 0.032842
#
#
# Mechanical properties :
#
#
# Convention : Reuss Voigt Hill
#
# Bulk Modulus (GPa) = 11.60740 51.63450 31.62095
# Shear Modulus (GPa) = 16.85916 38.27275 27.56595
#
# Velocity S-wave (km/s) = 2.60471 3.92451 3.33064
# Velocity P-wave (km/s) = 3.70365 6.42764 5.24555
#
# Compressibility (1/GPa) = 0.08615194
#
# Stress axis : x y z
#
# Youngs Moduli (GPa) = 16.17875 85.23898 54.29165
#
# Poissons Ratio (x) = 1.11208 -0.95865
# Poissons Ratio (y) = 0.21108 0.40800
# Poissons Ratio (z) = -0.28567 0.64057
#
# Static dielectric constant tensor:
#      x y z
#    x 4.638950 0.000000 0.186600 
#    y 0.000000 4.923390 0.000000 
#    z 0.186600 0.000000 4.726810 
# 
# 
# High freq. dielectric constant tensor:
#      x y z
#    x 2.001550 0.000000 0.000130 
#    y 0.000000 1.976270 0.000000 
#    z 0.000130 0.000000 2.007700 
# 
# From -- ./inp_files/3860.got.cif
#   From: 2010.06.25/outbox.cif.g09.slc.cpg/sg9_2_cif.got.tgz:3860.got - 2010.06.27 21:40:51.
