data_PCOD8054182
_publ_section_title
;
Structure prediction by ZEFSAII (Michael W. Deem and Ramdas Pophale) SiO2 
 PCOD8054182
Probable space group: C C
;
_chemical_formula_sum "Si O2"
_cell_formula_units_Z 32
_cell_length_a 11.942777
_cell_length_b 15.490201
_cell_length_c 8.877435
_cell_angle_alpha 90.000000
_cell_angle_beta 74.336415
_cell_angle_gamma 90.000000
_cell_volume 1581.301261
_symmetry_space_group_name_H-M "C C"
_symmetry_group_IT_number 9
_symmetry_cell_setting 'monoclinic'
loop_
_space_group_symop_operation_xyz
x,y,z
x,-y,1/2+z
1/2+x,1/2+y,z
1/2+x,1/2-y,1/2+z
loop_
_atom_site_type_symbol
_atom_site_label
_atom_site_fract_x
_atom_site_fract_y
_atom_site_fract_z
Si Si1 0.261660 0.340601 0.364140
Si Si2 0.730419 0.036106 0.429617
Si Si3 0.998339 0.543178 0.120279
Si Si4 0.682435 0.295726 0.457765
Si Si5 0.869746 0.172893 0.536097
Si Si6 0.380843 0.908693 0.357288
Si Si7 0.044012 0.259006 0.279218
Si Si8 0.668445 0.830443 0.707007
O O1 0.275316 0.442964 0.369071
O O2 0.146590 0.315359 0.313390
O O3 0.254660 0.302653 0.536609
O O4 0.369648 0.310616 0.218683
O O5 0.818012 0.077305 0.521134
O O6 0.732429 0.096706 0.282208
O O7 0.598804 0.026257 0.541450
O O8 0.904228 0.496484 0.259382
O O9 0.051645 0.627284 0.182231
O O10 0.927351 0.580843 0.008260
O O11 0.786995 0.240145 0.484873
O O12 0.740922 0.389845 0.407034
O O13 0.580637 0.297055 0.619176
O O14 0.637055 0.253439 0.317910
O O15 0.997518 0.190093 0.420922
O O16 0.446906 0.826977 0.258159
#
# Coordination Sequence:
#
# PCOD8054182 Si02
#       8
#     4   4   4   4   4   4   4   4
#     4  10  17  30  52  80 109 138 189 239 277 333
#     4  10  17  30  51  82 114 143 179 234 282 336
#     4  11  19  31  59  89 113 141 193 239 289 334
#     4   9  21  35  54  77 119 153 186 230 292 348
#     4   9  19  31  53  79 108 153 184 225 289 339
#     4  11  20  35  57  88 113 151 192 240 292 343
#     4  10  18  36  54  76 112 156 187 223 288 353
#     4  10  17  30  52  85 114 143 180 242 289 328
#
# _framework density 20.236497
#
# number of rings (size 3 to 8) (size 9 to 14) (size 15 to 20)
#    0.000    2.000    3.750    3.750    0.000    0.000 
#    0.000    8.750    2.750    0.000    0.000    0.000 
#    0.000    0.000    0.000    0.000    0.000    0.000 
#
# Total GULP energy -198242.627669 kJ/mol
# GULP energy per Si atom -12390.164229 kJ/mol
# Density = 2.019044 g / cm^3
# Si number density = 20.236497 Si / 1000 Ang^3
#
#
#
# Elastic Constant Matrix: (Units=GPa)
#
#
# Indices 1 2 3 4 5 6 
#
# 1 35.2274 28.3258 38.2625 0.0000 -8.9606 0.0000
# 2 28.3258 58.6982 42.4016 0.0000 -8.2721 0.0000
# 3 38.2625 42.4016 178.7662 0.0000 -14.4288 0.0000
# 4 0.0000 0.0000 0.0000 28.4238 0.0000 -1.7585
# 5 -8.9606 -8.2721 -14.4288 0.0000 25.3967 0.0000
# 6 0.0000 0.0000 0.0000 -1.7585 0.0000 23.3669
#
#
#
# Elastic Compliance Matrix: (Units=1/GPa)
#
#
# Indices 1 2 3 4 5 6 
#
# 1 0.053301 -0.020210 -0.005899 0.000000 0.008872 0.000000
# 2 -0.020210 0.028640 -0.002400 0.000000 0.000834 0.000000
# 3 -0.005899 -0.002400 0.007540 0.000000 0.001421 0.000000
# 4 0.000000 0.000000 0.000000 0.035346 0.000000 0.002660
# 5 0.008872 0.000834 0.001421 0.000000 0.043585 0.000000
# 6 0.000000 0.000000 0.000000 0.002660 0.000000 0.042996
#
#
# Mechanical properties :
#
#
# Convention : Reuss Voigt Hill
#
# Bulk Modulus (GPa) = 30.80321 54.51907 42.66114
# Shear Modulus (GPa) = 17.90522 26.35096 22.12809
#
# Velocity S-wave (km/s) = 2.97778 3.61245 3.31036
# Velocity P-wave (km/s) = 5.20361 6.66327 5.97816
#
# Compressibility (1/GPa) = 0.03246415
#
# Stress axis : x y z
#
# Youngs Moduli (GPa) = 18.76126 34.91567 132.61854
#
# Poissons Ratio (x) = 0.70565 0.78228
# Poissons Ratio (y) = 0.37917 0.31831
# Poissons Ratio (z) = 0.11067 0.08380
#
# Static dielectric constant tensor:
#      x y z
#    x 3.458690 0.000000 -0.120420 
#    y 0.000000 3.715290 0.000000 
#    z -0.120420 0.000000 4.247010 
# 
# 
# High freq. dielectric constant tensor:
#      x y z
#    x 1.737840 0.000000 0.000750 
#    y 0.000000 1.765920 0.000000 
#    z 0.000750 0.000000 1.812950 
# 
# From -- ./inp_files/7880.got.cif
#   From: 2010.06.25/outbox.cif.g09.slc.cpg/sg9_4_cif.got.tgz:7880.got - 2010.06.27 21:40:51.
