data_PCOD8054101
_publ_section_title
;
Structure prediction by ZEFSAII (Michael W. Deem and Ramdas Pophale) SiO2 
 PCOD8054101
Probable space group: C M
;
_chemical_formula_sum "Si O2"
_cell_formula_units_Z 32
_cell_length_a 23.514673
_cell_length_b 14.694157
_cell_length_c 8.490938
_cell_angle_alpha 90.000000
_cell_angle_beta 28.337895
_cell_angle_gamma 90.000000
_cell_volume 1392.616326
_symmetry_space_group_name_H-M "C M"
_symmetry_group_IT_number 8
_symmetry_cell_setting 'monoclinic'
loop_
_space_group_symop_operation_xyz
x,y,z
x,-y,z
1/2+x,1/2+y,z
1/2+x,1/2-y,z
loop_
_atom_site_type_symbol
_atom_site_label
_atom_site_fract_x
_atom_site_fract_y
_atom_site_fract_z
Si Si1 0.008400 0.396829 0.234700
Si Si2 0.010036 0.099713 0.160382
Si Si3 0.898177 0.326525 0.186313
Si Si4 0.315769 0.396703 0.086723
Si Si5 0.285806 0.354063 0.514785
Si Si6 0.213196 0.899615 0.414541
Si Si7 0.499088 0.732790 0.460004
Si Si8 0.124558 0.733307 0.456942
O O1 0.980625 0.500000 0.355410
O O2 0.951425 0.381466 0.202423
O O3 0.949442 0.327528 0.505784
O O4 0.150769 0.381661 0.881833
O O5 0.872434 0.108478 0.440250
O O6 0.047709 0.172957 0.198030
O O7 0.028767 0.000000 0.188844
O O8 0.096155 0.115275 0.804350
O O9 0.795762 0.255337 0.489247
O O10 0.835587 0.395404 0.217173
O O11 0.998801 0.266204 0.854625
O O12 0.337833 0.500000 0.973219
O O13 0.327003 0.395774 0.247359
O O14 0.184533 0.363102 0.354490
O O15 0.404055 0.325484 0.789195
O O16 0.208698 0.818962 0.298171
O O17 0.209166 0.000000 0.344503
O O18 0.607669 0.759358 0.310724
#
# Coordination Sequence:
#
# PCOD8054101 Si02
#       8
#     4   4   4   4   4   4   4   4
#     4  12  27  46  74 108 140 186 238 294 353 419
#     4  11  23  41  67 102 138 184 238 292 346 412
#     4  12  21  45  72 101 139 184 234 294 353 407
#     4  12  26  45  73 104 136 184 241 293 349 414
#     4  12  22  45  76 105 138 180 244 295 342 410
#     4  11  23  42  69 101 136 184 238 288 348 417
#     4  12  26  44  65 103 148 183 223 292 360 416
#     4  12  24  44  66 100 141 187 232 286 349 419
#
# _framework density 22.978332999999999
#
# number of rings (size 3 to 8) (size 9 to 14) (size 15 to 20)
#    0.000    0.250    6.250    2.625    1.750    4.000 
#    0.000    1.875    0.000    0.000    0.000    0.000 
#    0.000    0.000    0.000    0.000    0.000    0.000 
#
# Total GULP energy -198404.021740 kJ/mol
# GULP energy per Si atom -12400.251359 kJ/mol
# Density = 2.292603 g / cm^3
# Si number density = 22.978333 Si / 1000 Ang^3
#
#
#
# Elastic Constant Matrix: (Units=GPa)
#
#
# Indices 1 2 3 4 5 6 
#
# 1 144.3596 49.1379 13.1758 0.0000 -6.4207 0.0000
# 2 49.1379 168.9603 25.8450 0.0000 10.2920 0.0000
# 3 13.1758 25.8450 47.9037 0.0000 -7.5500 0.0000
# 4 0.0000 0.0000 0.0000 27.1360 0.0000 -0.7793
# 5 -6.4207 10.2920 -7.5500 0.0000 30.7660 0.0000
# 6 0.0000 0.0000 0.0000 -0.7793 0.0000 19.9838
#
#
#
# Elastic Compliance Matrix: (Units=1/GPa)
#
#
# Indices 1 2 3 4 5 6 
#
# 1 0.007878 -0.002349 -0.000537 0.000000 0.002298 0.000000
# 2 -0.002349 0.007455 -0.004001 0.000000 -0.003966 0.000000
# 3 -0.000537 -0.004001 0.024316 0.000000 0.007193 0.000000
# 4 0.000000 0.000000 0.000000 0.036893 0.000000 0.001439
# 5 0.002298 -0.003966 0.007193 0.000000 0.036075 0.000000
# 6 0.000000 0.000000 0.000000 0.001439 0.000000 0.050097
#
#
# Mechanical properties :
#
#
# Convention : Reuss Voigt Hill
#
# Bulk Modulus (GPa) = 38.64936 59.72679 49.18808
# Shear Modulus (GPa) = 27.01057 33.78151 30.39604
#
# Velocity S-wave (km/s) = 3.43225 3.83841 3.64100
# Velocity P-wave (km/s) = 5.70645 6.75970 6.25528
#
# Compressibility (1/GPa) = 0.02587365
#
# Stress axis : x y z
#
# Youngs Moduli (GPa) = 126.93701 134.13246 41.12594
#
# Poissons Ratio (x) = 0.31506 0.02210
# Poissons Ratio (y) = 0.29816 0.16456
# Poissons Ratio (z) = 0.06821 0.53671
#
# Static dielectric constant tensor:
#      x y z
#    x 4.286640 0.000000 -0.080890 
#    y 0.000000 4.338770 0.000000 
#    z -0.080890 0.000000 3.914090 
# 
# 
# High freq. dielectric constant tensor:
#      x y z
#    x 1.911020 0.000000 -0.010600 
#    y 0.000000 1.920110 0.000000 
#    z -0.010600 0.000000 1.889870 
# 
# From -- ./inp_files/17113.got.cif
#   From: 2010.03.12/outbox.cif.g09.slc.cpg/sg8_9_cif.got.tgz:17113.got - 2010.03.31 10:45:26.
