data_PCOD8054332
_publ_section_title
;
Structure prediction by ZEFSAII (Michael W. Deem and Ramdas Pophale) SiO2 
 PCOD8054332
Probable space group: C C
;
_chemical_formula_sum "Si O2"
_cell_formula_units_Z 28
_cell_length_a 16.688446
_cell_length_b 17.902088
_cell_length_c 7.401338
_cell_angle_alpha 90.000000
_cell_angle_beta 142.907032
_cell_angle_gamma 90.000000
_cell_volume 1333.602561
_symmetry_space_group_name_H-M "C C"
_symmetry_group_IT_number 9
_symmetry_cell_setting 'monoclinic'
loop_
_space_group_symop_operation_xyz
x,y,z
x,-y,1/2+z
1/2+x,1/2+y,z
1/2+x,1/2-y,1/2+z
loop_
_atom_site_type_symbol
_atom_site_label
_atom_site_fract_x
_atom_site_fract_y
_atom_site_fract_z
Si Si1 0.662290 0.598159 0.974450
Si Si2 0.893638 0.836605 0.906201
Si Si3 0.865453 0.291510 0.787101
Si Si4 0.689061 0.571160 0.606323
Si Si5 0.935349 0.333745 0.533264
Si Si6 0.220563 0.654935 0.411659
Si Si7 0.930872 0.854586 0.567105
O O1 0.518397 0.634822 0.754269
O O2 0.674169 0.599188 0.781091
O O3 0.787340 0.647906 0.270040
O O4 0.682564 0.517883 0.098339
O O5 0.897724 0.747487 0.890691
O O6 0.763661 0.865316 0.783318
O O7 0.888845 0.871456 0.698096
O O8 0.953615 0.328801 0.785401
O O9 0.746596 0.243987 0.477165
O O10 0.952081 0.235054 0.067739
O O11 0.826178 0.604836 0.776973
O O12 0.568316 0.603382 0.267901
O O13 0.068854 0.364423 0.679485
O O14 0.315527 0.612819 0.729463
#
# Coordination Sequence:
#
# PCOD8054332 Si02
#       7
#     4   4   4   4   4   4   4
#     4  10  20  38  58  89 118 161 197 247 292 367
#     4  10  19  35  60  87 120 149 209 240 292 358
#     4   8  18  35  60  80 115 156 197 238 298 347
#     4  10  23  35  64  88 122 152 207 244 299 353
#     4  10  19  37  57  88 121 154 197 250 296 356
#     4   9  19  36  61  81 118 156 189 249 301 335
#     4   9  20  36  58  93 108 158 204 246 286 362
#
# _framework density 20.995760000000001
#
# number of rings (size 3 to 8) (size 9 to 14) (size 15 to 20)
#    0.857    1.714    1.429    0.000    4.000    2.286 
#    0.000    0.000    6.286    0.000    0.000    0.000 
#    0.000    0.000    0.000    0.000    0.000    0.000 
#
# Total GULP energy -173468.554244 kJ/mol
# GULP energy per Si atom -12390.611017 kJ/mol
# Density = 2.094797 g / cm^3
# Si number density = 20.995760 Si / 1000 Ang^3
#
#
#
# Elastic Constant Matrix: (Units=GPa)
#
#
# Indices 1 2 3 4 5 6 
#
# 1 98.5107 0.7427 33.7657 0.0000 26.4505 0.0000
# 2 0.7427 84.4198 12.4352 0.0000 14.5413 0.0000
# 3 33.7657 12.4352 53.4685 0.0000 21.6944 0.0000
# 4 0.0000 0.0000 0.0000 31.6800 0.0000 0.9807
# 5 26.4505 14.5413 21.6944 0.0000 38.0728 0.0000
# 6 0.0000 0.0000 0.0000 0.9807 0.0000 19.1638
#
#
#
# Elastic Compliance Matrix: (Units=1/GPa)
#
#
# Indices 1 2 3 4 5 6 
#
# 1 0.014281 0.002047 -0.006701 0.000000 -0.006885 0.000000
# 2 0.002047 0.013041 -0.002247 0.000000 -0.005123 0.000000
# 3 -0.006701 -0.002247 0.027601 0.000000 -0.010214 0.000000
# 4 0.000000 0.000000 0.000000 0.031616 0.000000 -0.001618
# 5 -0.006885 -0.005123 -0.010214 0.000000 0.038825 0.000000
# 6 0.000000 0.000000 0.000000 -0.001618 0.000000 0.052265
#
#
# Mechanical properties :
#
#
# Convention : Reuss Voigt Hill
#
# Bulk Modulus (GPa) = 24.31849 36.69847 30.50848
# Shear Modulus (GPa) = 24.37371 30.41367 27.39369
#
# Velocity S-wave (km/s) = 3.41088 3.81013 3.61602
# Velocity P-wave (km/s) = 5.20767 6.07232 5.65654
#
# Compressibility (1/GPa) = 0.04112097
#
# Stress axis : x y z
#
# Youngs Moduli (GPa) = 70.02096 76.68141 36.23014
#
# Poissons Ratio (x) = -0.15700 0.24279
# Poissons Ratio (y) = -0.14337 0.08143
# Poissons Ratio (z) = 0.46924 0.17234
#
# Static dielectric constant tensor:
#      x y z
#    x 3.813440 0.000000 0.145700 
#    y 0.000000 3.512290 0.000000 
#    z 0.145700 0.000000 3.544540 
# 
# 
# High freq. dielectric constant tensor:
#      x y z
#    x 1.832570 0.000000 0.005640 
#    y 0.000000 1.788770 0.000000 
#    z 0.005640 0.000000 1.794690 
# 
# From -- ./inp_files/11028.got.cif
#   From: 2010.06.25/outbox.cif.g09.slc.cpg/sg9_6_cif.got.tgz:11028.got - 2010.06.27 21:40:51.
