data_PCOD8054550
_publ_section_title
;
Structure prediction by ZEFSAII (Michael W. Deem and Ramdas Pophale) SiO2 
 PCOD8054550
Probable space group: C C
;
_chemical_formula_sum "Si O2"
_cell_formula_units_Z 28
_cell_length_a 11.132371
_cell_length_b 23.310729
_cell_length_c 8.986047
_cell_angle_alpha 90.000000
_cell_angle_beta 28.227959
_cell_angle_gamma 90.000000
_cell_volume 1102.949660
_symmetry_space_group_name_H-M "C C"
_symmetry_group_IT_number 9
_symmetry_cell_setting 'monoclinic'
loop_
_space_group_symop_operation_xyz
x,y,z
x,-y,1/2+z
1/2+x,1/2+y,z
1/2+x,1/2-y,1/2+z
loop_
_atom_site_type_symbol
_atom_site_label
_atom_site_fract_x
_atom_site_fract_y
_atom_site_fract_z
Si Si1 0.453520 0.041302 0.409660
Si Si2 0.481609 0.612818 0.443466
Si Si3 0.903180 0.786491 0.523801
Si Si4 0.969021 0.099190 0.792392
Si Si5 0.364157 0.937531 0.331153
Si Si6 0.648719 0.828023 0.082030
Si Si7 0.613284 0.266877 0.847263
O O1 0.330520 0.033981 0.706880
O O2 0.237929 0.071742 0.544964
O O3 0.531751 0.980154 0.251543
O O4 0.717528 0.074928 0.146823
O O5 0.421837 0.587021 0.669574
O O6 0.234134 0.637956 0.636085
O O7 0.681223 0.666456 0.244940
O O8 0.594982 0.564275 0.211385
O O9 0.982352 0.833076 0.313482
O O10 0.129413 0.740617 0.283481
O O11 0.874399 0.816022 0.717711
O O12 0.455312 0.871621 0.212613
O O13 0.545081 0.767182 0.262616
O O14 0.822070 0.237863 0.730054
#
# Coordination Sequence:
#
# PCOD8054550 Si02
#       7
#     4   4   4   4   4   4   4
#     4  12  30  51  80 110 152 206 263 327 385 461
#     4  11  26  44  77 111 155 199 251 318 381 467
#     4  12  26  47  78 113 157 206 255 314 394 471
#     4  12  29  52  75 116 161 199 257 320 395 458
#     4  12  27  50  79 108 149 205 264 324 386 456
#     4  11  24  43  76 109 152 198 260 307 384 455
#     4  10  20  37  63 103 140 183 236 292 357 440
#
# _framework density 25.386469999999999
#
# number of rings (size 3 to 8) (size 9 to 14) (size 15 to 20)
#    0.000    0.571    2.857    4.286    8.000    2.286 
#    0.000    0.000    0.000    0.000    0.000    0.000 
#    0.000    0.000    0.000    0.000    0.000    0.000 
#
# Total GULP energy -173498.219032 kJ/mol
# GULP energy per Si atom -12392.729931 kJ/mol
# Density = 2.532869 g / cm^3
# Si number density = 25.386470 Si / 1000 Ang^3
#
#
#
# Elastic Constant Matrix: (Units=GPa)
#
#
# Indices 1 2 3 4 5 6 
#
# 1 65.0857 -5.5051 35.6431 0.0000 6.3614 -0.0001
# 2 -5.5051 79.1620 25.4097 0.0001 -0.3965 0.0001
# 3 35.6431 25.4097 85.3679 -0.0005 -0.1364 -0.0002
# 4 0.0000 0.0001 -0.0005 34.3354 0.0003 -2.4741
# 5 6.3614 -0.3965 -0.1364 0.0003 62.3519 0.0002
# 6 -0.0001 0.0001 -0.0002 -2.4741 0.0002 40.7728
#
#
#
# Elastic Compliance Matrix: (Units=1/GPa)
#
#
# Indices 1 2 3 4 5 6 
#
# 1 0.021771 0.004889 -0.010549 0.000000 -0.002213 0.000000
# 2 0.004889 0.015065 -0.006526 0.000000 -0.000417 0.000000
# 3 -0.010549 -0.006526 0.018062 0.000000 0.001074 0.000000
# 4 0.000000 0.000000 0.000000 0.029252 0.000000 0.001775
# 5 -0.002213 -0.000417 0.001074 0.000000 0.016263 0.000000
# 6 0.000000 0.000000 0.000000 0.001775 0.000000 0.024634
#
#
# Mechanical properties :
#
#
# Convention : Reuss Voigt Hill
#
# Bulk Modulus (GPa) = 32.75793 37.85677 35.30735
# Shear Modulus (GPa) = 31.32929 39.09655 35.21292
#
# Velocity S-wave (km/s) = 3.51678 3.92861 3.72839
# Velocity P-wave (km/s) = 5.42421 5.96013 5.69847
#
# Compressibility (1/GPa) = 0.03052696
#
# Stress axis : x y z
#
# Youngs Moduli (GPa) = 45.93281 66.37932 55.36348
#
# Poissons Ratio (x) = -0.32452 0.58401
# Poissons Ratio (y) = -0.22456 0.36130
# Poissons Ratio (z) = 0.48453 0.43319
#
# Static dielectric constant tensor:
#      x y z
#    x 4.304410 0.000000 0.121440 
#    y 0.000000 4.896520 0.000000 
#    z 0.121440 0.000000 4.528510 
# 
# 
# High freq. dielectric constant tensor:
#      x y z
#    x 2.002740 0.000000 -0.001110 
#    y 0.000000 2.019410 0.000000 
#    z -0.001110 0.000000 2.017390 
# 
# From -- ./inp_files/2023.got.cif
#   From: 2010.06.25/outbox.cif.g09.slc.cpg/sg9_2_cif.got.tgz:2023.got - 2010.06.27 21:40:51.
