data_PCOD8054488
_publ_section_title
;
Structure prediction by ZEFSAII (Michael W. Deem and Ramdas Pophale) SiO2 
 PCOD8054488
Probable space group: C C
;
_chemical_formula_sum "Si O2"
_cell_formula_units_Z 32
_cell_length_a 10.688581
_cell_length_b 28.472489
_cell_length_c 5.271947
_cell_angle_alpha 90.000000
_cell_angle_beta 66.591601
_cell_angle_gamma 90.000000
_cell_volume 1472.365217
_symmetry_space_group_name_H-M "C C"
_symmetry_group_IT_number 9
_symmetry_cell_setting 'monoclinic'
loop_
_space_group_symop_operation_xyz
x,y,z
x,-y,1/2+z
1/2+x,1/2+y,z
1/2+x,1/2-y,1/2+z
loop_
_atom_site_type_symbol
_atom_site_label
_atom_site_fract_x
_atom_site_fract_y
_atom_site_fract_z
Si Si1 0.818520 0.972068 0.267130
Si Si2 0.457324 0.871825 0.687995
Si Si3 0.196034 0.353626 0.803587
Si Si4 0.025987 0.704321 0.750124
Si Si5 0.856347 0.130260 0.678110
Si Si6 0.496492 0.971735 0.523734
Si Si7 0.806056 0.290009 0.050717
Si Si8 0.013486 0.781483 0.130243
O O1 0.900530 0.922791 0.209039
O O2 0.657751 0.961006 0.398914
O O3 0.862901 0.999663 0.482640
O O4 0.561870 0.884458 0.836931
O O5 0.544011 0.841156 0.415929
O O6 0.414204 0.922137 0.606718
O O7 0.332129 0.839389 0.880338
O O8 0.285708 0.347205 0.482671
O O9 0.134792 0.302402 0.932151
O O10 0.274627 0.375391 0.979588
O O11 0.869699 0.706035 0.779610
O O12 0.067398 0.752645 0.845769
O O13 0.979315 0.166910 0.545734
O O14 0.453112 0.996135 0.296611
O O15 0.643804 0.284259 0.211442
O O16 0.884807 0.246205 0.853473
#
# Coordination Sequence:
#
# PCOD8054488 Si02
#       8
#     4   4   4   4   4   4   4   4
#     4  10  20  35  57  91 130 166 211 264 324 374
#     4  10  21  39  61  90 135 167 211 261 329 371
#     4  11  21  38  63  96 126 176 208 259 330 372
#     4  10  22  40  67  89 134 169 213 262 318 387
#     4  12  24  38  66  94 135 169 218 266 323 387
#     4  10  21  31  57  92 125 162 209 264 317 376
#     4  10  25  41  66  92 131 171 212 265 316 391
#     4  11  26  44  63 100 128 170 220 261 323 380
#
# _framework density 21.733737999999999
#
# number of rings (size 3 to 8) (size 9 to 14) (size 15 to 20)
#    0.000    1.500    2.500    1.500   12.250    2.000 
#    0.000    0.000    0.000    1.500    0.000    0.000 
#    0.000    0.000    0.000    0.000    0.000    0.000 
#
# Total GULP energy -198258.801394 kJ/mol
# GULP energy per Si atom -12391.175087 kJ/mol
# Density = 2.168427 g / cm^3
# Si number density = 21.733738 Si / 1000 Ang^3
#
#
#
# Elastic Constant Matrix: (Units=GPa)
#
#
# Indices 1 2 3 4 5 6 
#
# 1 73.5763 42.0772 26.7568 0.0000 12.5533 0.0000
# 2 42.0772 168.5244 38.2154 0.0000 9.0458 0.0000
# 3 26.7568 38.2154 97.1788 0.0000 30.5971 0.0000
# 4 0.0000 0.0000 0.0000 23.4905 0.0000 8.7391
# 5 12.5533 9.0458 30.5971 0.0000 24.9273 0.0000
# 6 0.0000 0.0000 0.0000 8.7391 0.0000 18.5942
#
#
#
# Elastic Compliance Matrix: (Units=1/GPa)
#
#
# Indices 1 2 3 4 5 6 
#
# 1 0.017169 -0.003633 -0.001616 0.000000 -0.005345 0.000000
# 2 -0.003633 0.007309 -0.002632 0.000000 0.002408 0.000000
# 3 -0.001616 -0.002632 0.018277 0.000000 -0.020665 0.000000
# 4 0.000000 0.000000 0.000000 0.051591 0.000000 -0.024248
# 5 -0.005345 0.002408 -0.020665 0.000000 0.067300 0.000000
# 6 0.000000 0.000000 0.000000 -0.024248 0.000000 0.065177
#
#
# Mechanical properties :
#
#
# Convention : Reuss Voigt Hill
#
# Bulk Modulus (GPa) = 37.04787 61.48648 49.26718
# Shear Modulus (GPa) = 19.87435 28.88439 24.37937
#
# Velocity S-wave (km/s) = 3.02726 3.64952 3.35286
# Velocity P-wave (km/s) = 5.41316 6.79050 6.14057
#
# Compressibility (1/GPa) = 0.02699210
#
# Stress axis : x y z
#
# Youngs Moduli (GPa) = 58.24583 136.82471 54.71474
#
# Poissons Ratio (x) = 0.49714 0.08839
# Poissons Ratio (y) = 0.21163 0.14400
# Poissons Ratio (z) = 0.09410 0.36011
#
# Static dielectric constant tensor:
#      x y z
#    x 3.497560 0.000000 0.342430 
#    y 0.000000 3.964750 0.000000 
#    z 0.342430 0.000000 4.006280 
# 
# 
# High freq. dielectric constant tensor:
#      x y z
#    x 1.802610 0.000000 0.032570 
#    y 0.000000 1.857550 0.000000 
#    z 0.032570 0.000000 1.858270 
# 
# From -- ./inp_files/2149.got.cif
#   From: 2010.06.25/outbox.cif.g09.slc.cpg/sg9_2_cif.got.tgz:2149.got - 2010.06.27 21:40:51.
