data_PCOD8054399
_publ_section_title
;
Structure prediction by ZEFSAII (Michael W. Deem and Ramdas Pophale) SiO2 
 PCOD8054399
Probable space group: C C
;
_chemical_formula_sum "Si O2"
_cell_formula_units_Z 32
_cell_length_a 7.586746
_cell_length_b 13.160762
_cell_length_c 18.296973
_cell_angle_alpha 90.000000
_cell_angle_beta 89.685251
_cell_angle_gamma 90.000000
_cell_volume 1826.876856
_symmetry_space_group_name_H-M "C C"
_symmetry_group_IT_number 9
_symmetry_cell_setting 'monoclinic'
loop_
_space_group_symop_operation_xyz
x,y,z
x,-y,1/2+z
1/2+x,1/2+y,z
1/2+x,1/2-y,1/2+z
loop_
_atom_site_type_symbol
_atom_site_label
_atom_site_fract_x
_atom_site_fract_y
_atom_site_fract_z
Si Si1 0.035550 0.783198 0.971380
Si Si2 0.236490 0.530661 0.806898
Si Si3 0.865568 0.388287 0.290572
Si Si4 0.841867 0.862490 0.452829
Si Si5 0.731237 0.629992 0.948814
Si Si6 0.033262 0.989848 0.045433
Si Si7 0.444005 0.659369 0.313260
Si Si8 0.557432 0.507788 0.715482
O O1 0.215824 0.722964 0.986711
O O2 0.866153 0.711206 0.981263
O O3 0.042532 0.830898 0.890411
O O4 0.022178 0.869867 0.032266
O O5 0.252539 0.597969 0.879270
O O6 0.268393 0.410762 0.824655
O O7 0.383476 0.565492 0.747015
O O8 0.044439 0.550092 0.774179
O O9 0.798293 0.415032 0.371929
O O10 0.891569 0.267880 0.280916
O O11 0.727553 0.423669 0.230179
O O12 0.038444 0.817787 0.436609
O O13 0.860836 0.954977 0.511101
O O14 0.708696 0.536350 0.005725
O O15 0.039458 0.013157 0.130458
O O16 0.575441 0.601572 0.256782
#
# Coordination Sequence:
#
# PCOD8054399 Si02
#       8
#     4   4   4   4   4   4   4   4
#     4  11  19  39  61  85 109 154 196 242 285 332
#     4  10  19  39  58  89 111 149 197 241 283 328
#     4  11  19  39  62  82 113 149 201 242 277 342
#     4  10  19  38  61  84 115 145 199 244 277 329
#     4   9  20  38  58  86 111 146 198 240 276 335
#     4  10  22  42  53  85 130 148 184 239 287 358
#     4   9  20  37  60  86 111 143 201 240 278 331
#     4  10  22  42  53  85 130 148 184 238 289 359
#
# _framework density 17.516234000000001
#
# number of rings (size 3 to 8) (size 9 to 14) (size 15 to 20)
#    1.500    0.500    5.000    0.750    0.000    1.000 
#   18.000    0.000    0.000    0.000    0.000    0.000 
#    0.000    0.000    0.000    0.000    0.000    0.000 
#
# Total GULP energy -198294.348494 kJ/mol
# GULP energy per Si atom -12393.396781 kJ/mol
# Density = 1.747637 g / cm^3
# Si number density = 17.516234 Si / 1000 Ang^3
#
#
#
# Elastic Constant Matrix: (Units=GPa)
#
#
# Indices 1 2 3 4 5 6 
#
# 1 118.0044 38.4003 18.3840 0.0000 4.2095 0.0000
# 2 38.4003 86.6793 22.9609 0.0000 -0.7174 0.0000
# 3 18.3840 22.9609 81.3196 0.0000 1.5692 0.0000
# 4 0.0000 0.0000 0.0000 12.5315 0.0000 -3.0973
# 5 4.2095 -0.7174 1.5692 0.0000 7.2341 0.0000
# 6 0.0000 0.0000 0.0000 -3.0973 0.0000 33.1852
#
#
#
# Elastic Compliance Matrix: (Units=1/GPa)
#
#
# Indices 1 2 3 4 5 6 
#
# 1 0.010258 -0.004338 -0.000975 0.000000 -0.006188 0.000000
# 2 -0.004338 0.014333 -0.003156 0.000000 0.004630 0.000000
# 3 -0.000975 -0.003156 0.013460 0.000000 -0.002665 0.000000
# 4 0.000000 0.000000 0.000000 0.081683 0.000000 0.007624
# 5 -0.006188 0.004630 -0.002665 0.000000 0.142872 0.000000
# 6 0.000000 0.000000 0.000000 0.007624 0.000000 0.030845
#
#
# Mechanical properties :
#
#
# Convention : Reuss Voigt Hill
#
# Bulk Modulus (GPa) = 47.36046 49.49931 48.42988
# Shear Modulus (GPa) = 15.75171 24.34072 20.04622
#
# Velocity S-wave (km/s) = 3.00203 3.73179 3.38662
# Velocity P-wave (km/s) = 6.25403 6.84754 6.55751
#
# Compressibility (1/GPa) = 0.02111466
#
# Stress axis : x y z
#
# Youngs Moduli (GPa) = 97.48109 69.77092 74.29421
#
# Poissons Ratio (x) = 0.30264 0.07244
# Poissons Ratio (y) = 0.42283 0.23444
# Poissons Ratio (z) = 0.09504 0.22017
#
# Static dielectric constant tensor:
#      x y z
#    x 3.199520 0.000000 -0.003430 
#    y 0.000000 3.189940 0.000000 
#    z -0.003430 0.000000 2.974060 
# 
# 
# High freq. dielectric constant tensor:
#      x y z
#    x 1.670670 0.000000 0.002200 
#    y 0.000000 1.671610 0.000000 
#    z 0.002200 0.000000 1.658300 
# 
# From -- ./inp_files/29300.got.cif
#   From: 2010.06.25/outbox.cif.g09.slc.cpg/sg9_15_cif.got.tgz:29300.got - 2010.06.27 21:40:51.
