data_PCOD8054633
_publ_section_title
;
Structure prediction by ZEFSAII (Michael W. Deem and Ramdas Pophale) SiO2 
 PCOD8054633
Probable space group: C C
;
_chemical_formula_sum "Si O2"
_cell_formula_units_Z 32
_cell_length_a 11.107781
_cell_length_b 17.605170
_cell_length_c 9.520153
_cell_angle_alpha 90.000000
_cell_angle_beta 126.416439
_cell_angle_gamma 90.000000
_cell_volume 1498.159822
_symmetry_space_group_name_H-M "C C"
_symmetry_group_IT_number 9
_symmetry_cell_setting 'monoclinic'
loop_
_space_group_symop_operation_xyz
x,y,z
x,-y,1/2+z
1/2+x,1/2+y,z
1/2+x,1/2-y,1/2+z
loop_
_atom_site_type_symbol
_atom_site_label
_atom_site_fract_x
_atom_site_fract_y
_atom_site_fract_z
Si Si1 0.882720 0.665567 0.717140
Si Si2 0.310333 0.306724 0.207588
Si Si3 0.859234 0.395620 0.494025
Si Si4 0.534132 0.826055 0.857125
Si Si5 0.035820 0.939604 0.380704
Si Si6 0.649680 0.741632 0.354392
Si Si7 0.082945 0.922759 0.721620
Si Si8 0.420069 0.059266 0.494862
O O1 0.777955 0.718729 0.550682
O O2 0.923368 0.591186 0.655328
O O3 0.030183 0.711579 0.860902
O O4 0.807865 0.642689 0.812414
O O5 0.422022 0.239457 0.324564
O O6 0.405415 0.382452 0.241165
O O7 0.201921 0.300618 0.268529
O O8 0.205615 0.295882 0.994752
O O9 0.982108 0.347058 0.664637
O O10 0.704022 0.408217 0.469985
O O11 0.957296 0.470642 0.530196
O O12 0.528025 0.896761 0.962126
O O13 0.003804 0.948040 0.523576
O O14 0.016679 0.022810 0.297857
O O15 0.562593 0.666825 0.236003
O O16 0.256472 0.936178 0.815912
#
# Coordination Sequence:
#
# PCOD8054633 Si02
#       8
#     4   4   4   4   4   4   4   4
#     4  11  23  39  66  97 126 179 217 280 328 403
#     4  12  23  43  72  96 130 180 234 277 335 415
#     4  11  24  41  64 102 139 168 226 282 343 400
#     4  12  22  42  69  98 127 182 226 278 338 407
#     4  11  24  41  69  97 134 179 225 283 337 408
#     4  11  21  41  69  95 131 175 231 268 341 407
#     4  10  21  40  67  97 128 176 226 274 335 409
#     4  10  20  39  68  92 125 175 227 266 331 403
#
# _framework density 21.359537
#
# number of rings (size 3 to 8) (size 9 to 14) (size 15 to 20)
#    0.000    1.000    5.000    3.000    8.750    2.000 
#    2.250    1.250    0.000    0.000    0.000    0.000 
#    0.000    0.000    0.000    0.000    0.000    0.000 
#
# Total GULP energy -198277.095385 kJ/mol
# GULP energy per Si atom -12392.318462 kJ/mol
# Density = 2.131092 g / cm^3
# Si number density = 21.359537 Si / 1000 Ang^3
#
#
#
# Elastic Constant Matrix: (Units=GPa)
#
#
# Indices 1 2 3 4 5 6 
#
# 1 52.3052 38.4621 28.9197 0.0000 3.9534 0.0000
# 2 38.4621 67.8140 20.2389 0.0000 12.9501 0.0000
# 3 28.9197 20.2389 122.0691 0.0000 2.5271 0.0000
# 4 0.0000 0.0000 0.0000 24.8776 0.0000 -2.1280
# 5 3.9534 12.9501 2.5271 0.0000 27.6087 0.0000
# 6 0.0000 0.0000 0.0000 -2.1280 0.0000 31.3266
#
#
#
# Elastic Compliance Matrix: (Units=1/GPa)
#
#
# Indices 1 2 3 4 5 6 
#
# 1 0.036412 -0.019917 -0.005420 0.000000 0.004625 0.000000
# 2 -0.019917 0.027913 0.000303 0.000000 -0.010269 0.000000
# 3 -0.005420 0.000303 0.009431 0.000000 -0.000229 0.000000
# 4 0.000000 0.000000 0.000000 0.040432 0.000000 0.002746
# 5 0.004625 -0.010269 -0.000229 0.000000 0.040396 0.000000
# 6 0.000000 0.000000 0.000000 0.002746 0.000000 0.032108
#
#
# Mechanical properties :
#
#
# Convention : Reuss Voigt Hill
#
# Bulk Modulus (GPa) = 42.21598 46.38108 44.29853
# Shear Modulus (GPa) = 20.43699 27.06708 23.75203
#
# Velocity S-wave (km/s) = 3.09659 3.56366 3.33830
# Velocity P-wave (km/s) = 5.70899 6.22049 5.97022
#
# Compressibility (1/GPa) = 0.02368771
#
# Stress axis : x y z
#
# Youngs Moduli (GPa) = 27.46382 35.82556 106.03794
#
# Poissons Ratio (x) = 0.71354 0.57471
# Poissons Ratio (y) = 0.54700 -0.03216
# Poissons Ratio (z) = 0.14885 -0.01086
#
# Static dielectric constant tensor:
#      x y z
#    x 3.648770 0.000000 0.072860 
#    y 0.000000 4.332420 0.000000 
#    z 0.072860 0.000000 3.845100 
# 
# 
# High freq. dielectric constant tensor:
#      x y z
#    x 1.804120 0.000000 0.002660 
#    y 0.000000 1.842590 0.000000 
#    z 0.002660 0.000000 1.844440 
# 
# From -- ./inp_files/8020.got.cif
#   From: 2010.06.25/outbox.cif.g09.slc.cpg/sg9_5_cif.got.tgz:8020.got - 2010.06.27 21:40:51.
