data_PCOD8054056
_publ_section_title
;
Structure prediction by ZEFSAII (Michael W. Deem and Ramdas Pophale) SiO2 
 PCOD8054056
Probable space group: C M
;
_chemical_formula_sum "Si O2"
_cell_formula_units_Z 32
_cell_length_a 12.149771
_cell_length_b 14.369633
_cell_length_c 8.756926
_cell_angle_alpha 90.000000
_cell_angle_beta 96.930685
_cell_angle_gamma 90.000000
_cell_volume 1517.680474
_symmetry_space_group_name_H-M "C M"
_symmetry_group_IT_number 8
_symmetry_cell_setting 'monoclinic'
loop_
_space_group_symop_operation_xyz
x,y,z
x,-y,z
1/2+x,1/2+y,z
1/2+x,1/2-y,z
loop_
_atom_site_type_symbol
_atom_site_label
_atom_site_fract_x
_atom_site_fract_y
_atom_site_fract_z
Si Si1 0.408310 0.682238 0.914410
Si Si2 0.203856 0.275742 0.428733
Si Si3 0.721533 0.604466 0.640643
Si Si4 0.638504 0.605764 0.949886
Si Si5 0.205124 0.605029 0.725015
Si Si6 0.499850 0.890798 0.367719
Si Si7 0.962380 0.340132 0.696976
Si Si8 0.820399 0.297240 0.170755
O O1 0.508230 0.611418 0.964609
O O2 0.293608 0.627454 0.871143
O O3 0.442151 0.740835 0.770630
O O4 0.394335 0.745420 0.059553
O O5 0.186620 0.170661 0.492961
O O6 0.238276 0.335478 0.581872
O O7 0.102947 0.328804 0.325999
O O8 0.296576 0.269256 0.312254
O O9 0.682197 0.500000 0.591558
O O10 0.661140 0.643503 0.782263
O O11 0.852407 0.598560 0.707394
O O12 0.679048 0.500000 0.968432
O O13 0.705224 0.666480 0.083417
O O14 0.217262 0.500000 0.673533
O O15 0.081117 0.619677 0.774015
O O16 0.470236 0.834895 0.516444
O O17 0.396525 0.884365 0.235810
O O18 0.529282 0.000000 0.400323
#
# Coordination Sequence:
#
# PCOD8054056 Si02
#       8
#     4   4   4   4   4   4   4   4
#     4  12  23  42  63  93 128 170 205 256 316 375
#     4  11  22  40  62  95 126 162 201 265 314 370
#     4  11  21  39  67  96 123 161 215 268 312 365
#     4  11  24  41  61  90 125 163 212 261 308 370
#     4  11  23  42  69  96 124 163 209 264 317 370
#     4  11  23  40  64  93 125 163 210 263 311 368
#     4  11  20  39  65  93 124 156 210 263 307 361
#     4  12  23  41  61  88 125 174 208 252 307 373
#
# _framework density 21.084807999999999
#
# number of rings (size 3 to 8) (size 9 to 14) (size 15 to 20)
#    0.000    0.750    3.750    6.000    0.000    0.500 
#    0.000    3.750    0.000    0.750    0.000    0.000 
#    0.000    0.000    0.000    0.000    0.000    0.000 
#
# Total GULP energy -198285.842373 kJ/mol
# GULP energy per Si atom -12392.865148 kJ/mol
# Density = 2.103682 g / cm^3
# Si number density = 21.084808 Si / 1000 Ang^3
#
#
#
# Elastic Constant Matrix: (Units=GPa)
#
#
# Indices 1 2 3 4 5 6 
#
# 1 132.3204 35.3272 44.5256 0.0000 9.1299 0.0000
# 2 35.3272 95.6002 33.4000 0.0000 -3.0732 0.0000
# 3 44.5256 33.4000 59.6989 0.0000 -1.8956 0.0000
# 4 0.0000 0.0000 0.0000 13.7378 0.0000 5.4006
# 5 9.1299 -3.0732 -1.8956 0.0000 29.7197 0.0000
# 6 0.0000 0.0000 0.0000 5.4006 0.0000 29.9831
#
#
#
# Elastic Compliance Matrix: (Units=1/GPa)
#
#
# Indices 1 2 3 4 5 6 
#
# 1 0.010667 -0.001547 -0.007214 0.000000 -0.003897 0.000000
# 2 -0.001547 0.013249 -0.006213 0.000000 0.001449 0.000000
# 3 -0.007214 -0.006213 0.025709 0.000000 0.003214 0.000000
# 4 0.000000 0.000000 0.000000 0.078339 0.000000 -0.014110
# 5 -0.003897 0.001449 0.003214 0.000000 0.035200 0.000000
# 6 0.000000 0.000000 0.000000 -0.014110 0.000000 0.035894
#
#
# Mechanical properties :
#
#
# Convention : Reuss Voigt Hill
#
# Bulk Modulus (GPa) = 50.81889 57.12502 53.97195
# Shear Modulus (GPa) = 21.22568 26.31256 23.76912
#
# Velocity S-wave (km/s) = 3.17627 3.53645 3.36119
# Velocity P-wave (km/s) = 6.13237 6.62020 6.38095
#
# Compressibility (1/GPa) = 0.01967772
#
# Stress axis : x y z
#
# Youngs Moduli (GPa) = 93.74932 75.47774 38.89635
#
# Poissons Ratio (x) = 0.11673 0.28060
# Poissons Ratio (y) = 0.14499 0.24166
# Poissons Ratio (z) = 0.67632 0.46894
#
# Static dielectric constant tensor:
#      x y z
#    x 4.336110 0.000000 0.030140 
#    y 0.000000 3.718950 0.000000 
#    z 0.030140 0.000000 3.699200 
# 
# 
# High freq. dielectric constant tensor:
#      x y z
#    x 1.836040 0.000000 0.002210 
#    y 0.000000 1.819100 0.000000 
#    z 0.002210 0.000000 1.814600 
# 
# From -- ./inp_files/10743.got.cif
#   From: 2010.03.12/outbox.cif.g09.slc.cpg/sg8_6_cif.got.tgz:10743.got - 2010.03.31 10:45:26.
