data_PCOD8054485
_publ_section_title
;
Structure prediction by ZEFSAII (Michael W. Deem and Ramdas Pophale) SiO2 
 PCOD8054485
Probable space group: C C
;
_chemical_formula_sum "Si O2"
_cell_formula_units_Z 32
_cell_length_a 8.061544
_cell_length_b 11.794822
_cell_length_c 20.974903
_cell_angle_alpha 90.000000
_cell_angle_beta 130.098546
_cell_angle_gamma 90.000000
_cell_volume 1525.582412
_symmetry_space_group_name_H-M "C C"
_symmetry_group_IT_number 9
_symmetry_cell_setting 'monoclinic'
loop_
_space_group_symop_operation_xyz
x,y,z
x,-y,1/2+z
1/2+x,1/2+y,z
1/2+x,1/2-y,1/2+z
loop_
_atom_site_type_symbol
_atom_site_label
_atom_site_fract_x
_atom_site_fract_y
_atom_site_fract_z
Si Si1 0.975610 0.289333 0.068400
Si Si2 0.035092 0.680990 0.948890
Si Si3 0.738813 0.898836 0.375287
Si Si4 0.152208 0.351599 0.846036
Si Si5 0.590305 0.210667 0.465274
Si Si6 0.030823 0.680990 0.084785
Si Si7 0.827102 0.601164 0.158387
Si Si8 0.913707 0.351599 0.187638
O O1 0.033787 0.353926 0.148073
O O2 0.101235 0.167713 0.096329
O O3 0.717329 0.276721 0.003746
O O4 0.032958 0.356801 0.016837
O O5 0.100264 0.600282 0.906759
O O6 0.809048 0.743717 0.877794
O O7 0.032958 0.614253 0.016837
O O8 0.598340 0.837341 0.286163
O O9 0.964680 0.832287 0.437345
O O10 0.781932 0.030067 0.368176
O O11 0.032129 0.353926 0.885601
O O12 0.967576 0.337341 0.747512
O O13 0.848587 0.223279 0.529929
O O14 0.965652 0.600282 0.126915
O O15 0.256867 0.743717 0.155881
O O16 0.783983 0.469933 0.165499
#
# Coordination Sequence:
#
# PCOD8054485 Si02
#       8
#     4   4   4   4   4   4   4   4
#     4   9  19  34  53  77 104 135 171 212 253 301
#     4   9  19  34  53  77 104 135 171 212 253 301
#     4  10  20  35  55  77 104 137 170 210 258 304
#     4  10  20  35  55  77 104 137 170 210 258 304
#     4   9  19  34  53  77 104 135 171 212 253 301
#     4   9  19  34  53  77 104 135 171 212 253 301
#     4  10  20  35  55  77 104 137 170 210 258 304
#     4  10  20  35  55  77 104 137 170 210 258 304
#
# _framework density 20.975595999999999
#
# number of rings (size 3 to 8) (size 9 to 14) (size 15 to 20)
#    0.000    2.500    0.000    1.500    0.000   10.000 
#    0.000    7.500    0.000   27.000    0.000    0.000 
#    0.000    0.000    0.000    0.000    0.000    0.000 
#
# Total GULP energy -198235.426216 kJ/mol
# GULP energy per Si atom -12389.714138 kJ/mol
# Density = 2.092785 g / cm^3
# Si number density = 20.975596 Si / 1000 Ang^3
#
#
#
# Elastic Constant Matrix: (Units=GPa)
#
#
# Indices 1 2 3 4 5 6 
#
# 1 78.8946 -7.1422 30.8862 0.0000 -16.4872 0.0000
# 2 -7.1422 42.4797 -0.3953 0.0000 12.3075 0.0000
# 3 30.8862 -0.3953 109.6669 0.0000 -20.8096 0.0000
# 4 0.0000 0.0000 0.0000 -3.3483 0.0000 1.6840
# 5 -16.4872 12.3075 -20.8096 0.0000 40.0309 0.0000
# 6 0.0000 0.0000 0.0000 1.6840 0.0000 20.4095
#
#
#
# Elastic Compliance Matrix: (Units=1/GPa)
#
#
# Indices 1 2 3 4 5 6 
#
# 1 0.014979 0.001340 -0.003463 0.000000 0.003957 0.000000
# 2 0.001340 0.026208 -0.001894 0.000000 -0.008491 0.000000
# 3 -0.003463 -0.001894 0.011013 0.000000 0.004881 0.000000
# 4 0.000000 0.000000 0.000000 -0.286762 0.000000 0.023661
# 5 0.003957 -0.008491 0.004881 0.000000 0.031758 0.000000
# 6 0.000000 0.000000 0.000000 0.023661 0.000000 0.047044
#
#
# Mechanical properties :
#
#
# Convention : Reuss Voigt Hill
#
# Bulk Modulus (GPa) = 22.64175 30.85985 26.75080
# Shear Modulus (GPa) = -37.59330 25.26458 -6.16436
#
# Velocity S-wave (km/s) = -4.23808 3.47432 -1.71616
# Velocity P-wave (km/s) = 3.62362 5.55326 2.97557
#
# Compressibility (1/GPa) = 0.04416619
#
# Stress axis : x y z
#
# Youngs Moduli (GPa) = 66.75971 38.15593 90.80016
#
# Poissons Ratio (x) = -0.05112 0.31444
# Poissons Ratio (y) = -0.08944 0.17197
# Poissons Ratio (z) = 0.23118 0.07227
#
# Static dielectric constant tensor:
#      x y z
#    x 3.957860 0.000000 -0.473370 
#    y 0.000000 3.184650 0.000000 
#    z -0.473370 0.000000 4.096650 
# 
# 
# High freq. dielectric constant tensor:
#      x y z
#    x 1.820430 0.000000 -0.020610 
#    y 0.000000 1.775660 0.000000 
#    z -0.020610 0.000000 1.845170 
# 
# From -- ./inp_files/10631.got.cif
#   From: 2010.06.25/outbox.cif.g09.slc.cpg/sg9_6_cif.got.tgz:10631.got - 2010.06.27 21:40:51.
