data_PCOD8054270
_publ_section_title
;
Structure prediction by ZEFSAII (Michael W. Deem and Ramdas Pophale) SiO2 
 PCOD8054270
Probable space group: C C
;
_chemical_formula_sum "Si O2"
_cell_formula_units_Z 28
_cell_length_a 21.562604
_cell_length_b 9.330462
_cell_length_c 8.274564
_cell_angle_alpha 90.000000
_cell_angle_beta 50.395177
_cell_angle_gamma 90.000000
_cell_volume 1282.623925
_symmetry_space_group_name_H-M "C C"
_symmetry_group_IT_number 9
_symmetry_cell_setting 'monoclinic'
loop_
_space_group_symop_operation_xyz
x,y,z
x,-y,1/2+z
1/2+x,1/2+y,z
1/2+x,1/2-y,1/2+z
loop_
_atom_site_type_symbol
_atom_site_label
_atom_site_fract_x
_atom_site_fract_y
_atom_site_fract_z
Si Si1 0.063040 0.320976 0.798740
Si Si2 0.613985 0.373455 0.692217
Si Si3 0.244684 0.216825 0.438926
Si Si4 0.982019 0.914375 0.654311
Si Si5 0.713326 0.469811 0.264706
Si Si6 0.028208 0.625214 0.993176
Si Si7 0.904396 0.168929 0.585173
O O1 0.157811 0.284801 0.621730
O O2 0.024069 0.345692 0.690011
O O3 0.051670 0.461858 0.925801
O O4 0.011664 0.201710 0.976284
O O5 0.545311 0.440863 0.693840
O O6 0.693578 0.364475 0.447254
O O7 0.630101 0.491720 0.804951
O O8 0.598030 0.217965 0.790724
O O9 0.247983 0.120621 0.270520
O O10 0.312340 0.337999 0.300719
O O11 0.271371 0.115904 0.546336
O O12 0.959977 0.059984 0.597675
O O13 0.905257 0.860904 0.890108
O O14 0.942921 0.673501 0.056354
#
# Coordination Sequence:
#
# PCOD8054270 Si02
#       7
#     4   4   4   4   4   4   4
#     4  12  25  43  70 100 134 178 239 281 336 407
#     4  10  18  37  67  99 123 175 230 278 318 404
#     4  11  25  43  69 102 139 175 230 288 348 403
#     4  11  23  42  71  96 134 184 231 270 342 422
#     4  10  21  38  68  98 132 175 228 278 338 407
#     4  11  24  40  67  98 135 175 228 286 333 404
#     4  11  26  45  68 101 141 178 226 283 355 403
#
# _framework density 21.830249999999999
#
# number of rings (size 3 to 8) (size 9 to 14) (size 15 to 20)
#    0.000    1.143    2.857    4.286    6.000    3.429 
#    0.000    2.857    0.000    0.000    0.000    0.000 
#    0.000    0.000    0.000    0.000    0.000    0.000 
#
# Total GULP energy -173485.998465 kJ/mol
# GULP energy per Si atom -12391.857033 kJ/mol
# Density = 2.178056 g / cm^3
# Si number density = 21.830250 Si / 1000 Ang^3
#
#
#
# Elastic Constant Matrix: (Units=GPa)
#
#
# Indices 1 2 3 4 5 6 
#
# 1 52.8570 29.1988 43.4858 0.0000 19.8097 0.0000
# 2 29.1988 104.3164 55.0567 0.0000 3.1732 0.0000
# 3 43.4858 55.0567 126.5785 0.0000 12.4640 0.0000
# 4 0.0000 0.0000 0.0000 44.3023 0.0000 5.8545
# 5 19.8097 3.1732 12.4640 0.0000 38.7829 0.0000
# 6 0.0000 0.0000 0.0000 5.8545 0.0000 24.1738
#
#
#
# Elastic Compliance Matrix: (Units=1/GPa)
#
#
# Indices 1 2 3 4 5 6 
#
# 1 0.033411 -0.004670 -0.008059 0.000000 -0.014094 0.000000
# 2 -0.004670 0.013116 -0.004368 0.000000 0.002716 0.000000
# 3 -0.008059 -0.004368 0.012525 0.000000 0.000449 0.000000
# 4 0.000000 0.000000 0.000000 0.023319 0.000000 -0.005647
# 5 -0.014094 0.002716 0.000449 0.000000 0.032617 0.000000
# 6 0.000000 0.000000 0.000000 -0.005647 0.000000 0.042735
#
#
# Mechanical properties :
#
#
# Convention : Reuss Voigt Hill
#
# Bulk Modulus (GPa) = 40.22918 59.91495 50.07206
# Shear Modulus (GPa) = 24.97471 31.85251 28.41361
#
# Velocity S-wave (km/s) = 3.38604 3.82396 3.61164
# Velocity P-wave (km/s) = 5.80992 6.85582 6.35443
#
# Compressibility (1/GPa) = 0.02485758
#
# Stress axis : x y z
#
# Youngs Moduli (GPa) = 29.93023 76.24206 79.84134
#
# Poissons Ratio (x) = 0.35602 0.64348
# Poissons Ratio (y) = 0.13976 0.34876
# Poissons Ratio (z) = 0.24122 0.33304
#
# Static dielectric constant tensor:
#      x y z
#    x 3.826160 0.000000 0.420410 
#    y 0.000000 3.871080 0.000000 
#    z 0.420410 0.000000 4.476460 
# 
# 
# High freq. dielectric constant tensor:
#      x y z
#    x 1.837410 0.000000 0.030230 
#    y 0.000000 1.846330 0.000000 
#    z 0.030230 0.000000 1.881440 
# 
# From -- ./inp_files/10437.got.cif
#   From: 2010.06.25/outbox.cif.g09.slc.cpg/sg9_6_cif.got.tgz:10437.got - 2010.06.27 21:40:51.
