data_PCOD8054874
_publ_section_title
;
Structure prediction by ZEFSAII (Michael W. Deem and Ramdas Pophale) SiO2 
 PCOD8054874
Probable space group: C C
;
_chemical_formula_sum "Si O2"
_cell_formula_units_Z 32
_cell_length_a 23.427682
_cell_length_b 15.586653
_cell_length_c 9.133123
_cell_angle_alpha 90.000000
_cell_angle_beta 152.606948
_cell_angle_gamma 90.000000
_cell_volume 1534.427203
_symmetry_space_group_name_H-M "C C"
_symmetry_group_IT_number 9
_symmetry_cell_setting 'monoclinic'
loop_
_space_group_symop_operation_xyz
x,y,z
x,-y,1/2+z
1/2+x,1/2+y,z
1/2+x,1/2-y,1/2+z
loop_
_atom_site_type_symbol
_atom_site_label
_atom_site_fract_x
_atom_site_fract_y
_atom_site_fract_z
Si Si1 0.031980 0.839165 0.329850
Si Si2 0.292176 0.889838 0.823070
Si Si3 0.552136 0.827752 0.746347
Si Si4 0.095388 0.863775 0.797578
Si Si5 0.301315 0.608375 0.928914
Si Si6 0.491473 0.748721 0.316588
Si Si7 0.332904 0.052875 0.739685
Si Si8 0.395201 0.495625 0.900910
O O1 0.152358 0.854274 0.499428
O O2 0.973498 0.750388 0.138370
O O3 0.063863 0.821971 0.570751
O O4 0.936073 0.916887 0.096880
O O5 0.320256 0.953838 0.753688
O O6 0.388479 0.812807 0.017861
O O7 0.303394 0.940203 0.001352
O O8 0.574028 0.800602 0.624623
O O9 0.472632 0.914090 0.582171
O O10 0.674856 0.838378 0.125212
O O11 0.074440 0.792502 0.876225
O O12 0.239342 0.890453 0.125285
O O13 0.017214 0.951826 0.632073
O O14 0.307912 0.559823 0.789899
O O15 0.417682 0.670503 0.225220
O O16 0.307461 0.537916 0.070694
#
# Coordination Sequence:
#
# PCOD8054874 Si02
#       8
#     4   4   4   4   4   4   4   4
#     4  11  20  38  64  92 126 165 211 264 319 377
#     4  10  21  39  63  90 124 167 206 256 318 381
#     4  11  24  42  62  91 133 168 204 268 331 378
#     4  10  22  39  63  99 120 161 223 266 310 383
#     4  11  23  40  63  97 128 169 211 265 322 383
#     4  10  22  41  64  91 126 165 216 261 321 379
#     4  10  23  39  62  92 126 162 209 258 321 381
#     4  11  21  38  65  94 127 165 216 264 318 380
#
# _framework density 20.854689
#
# number of rings (size 3 to 8) (size 9 to 14) (size 15 to 20)
#    0.000    1.500    5.000    0.000    0.000    4.000 
#    4.500    2.500    0.000    0.000    0.000    0.000 
#    0.000    0.000    0.000    0.000    0.000    0.000 
#
# Total GULP energy -198354.849393 kJ/mol
# GULP energy per Si atom -12397.178087 kJ/mol
# Density = 2.080722 g / cm^3
# Si number density = 20.854689 Si / 1000 Ang^3
#
#
#
# Elastic Constant Matrix: (Units=GPa)
#
#
# Indices 1 2 3 4 5 6 
#
# 1 65.8556 27.0147 16.4223 0.0000 -5.8873 0.0000
# 2 27.0147 74.6987 11.3166 0.0000 -6.8411 0.0000
# 3 16.4223 11.3166 71.9001 0.0000 -4.8680 0.0000
# 4 0.0000 0.0000 0.0000 34.7851 0.0000 -6.1749
# 5 -5.8873 -6.8411 -4.8680 0.0000 16.8091 0.0000
# 6 0.0000 0.0000 0.0000 -6.1749 0.0000 35.4381
#
#
#
# Elastic Compliance Matrix: (Units=1/GPa)
#
#
# Indices 1 2 3 4 5 6 
#
# 1 0.018709 -0.006001 -0.003111 0.000000 0.003209 0.000000
# 2 -0.006001 0.016073 -0.000876 0.000000 0.004186 0.000000
# 3 -0.003111 -0.000876 0.014952 0.000000 0.002884 0.000000
# 4 0.000000 0.000000 0.000000 0.029666 0.000000 0.005169
# 5 0.003209 0.004186 0.002884 0.000000 0.063155 0.000000
# 6 0.000000 0.000000 0.000000 0.005169 0.000000 0.029119
#
#
# Mechanical properties :
#
#
# Convention : Reuss Voigt Hill
#
# Bulk Modulus (GPa) = 33.60408 35.77350 34.68879
# Shear Modulus (GPa) = 24.80536 27.91984 26.36260
#
# Velocity S-wave (km/s) = 3.45256 3.66290 3.55929
# Velocity P-wave (km/s) = 5.66057 5.92284 5.79319
#
# Compressibility (1/GPa) = 0.02975829
#
# Stress axis : x y z
#
# Youngs Moduli (GPa) = 53.44972 62.21469 66.88083
#
# Poissons Ratio (x) = 0.37334 0.20810
# Poissons Ratio (y) = 0.32074 0.05857
# Poissons Ratio (z) = 0.16631 0.05449
#
# Static dielectric constant tensor:
#      x y z
#    x 3.611770 0.000000 -0.071290 
#    y 0.000000 3.770090 0.000000 
#    z -0.071290 0.000000 3.526250 
# 
# 
# High freq. dielectric constant tensor:
#      x y z
#    x 1.799940 0.000000 -0.013430 
#    y 0.000000 1.827200 0.000000 
#    z -0.013430 0.000000 1.806970 
# 
# From -- ./inp_files/7281.got.cif
#   From: 2010.06.25/outbox.cif.g09.slc.cpg/sg9_4_cif.got.tgz:7281.got - 2010.06.27 21:40:51.
