data_PCOD8054875
_publ_section_title
;
Structure prediction by ZEFSAII (Michael W. Deem and Ramdas Pophale) SiO2 
 PCOD8054875
Probable space group: C C
;
_chemical_formula_sum "Si O2"
_cell_formula_units_Z 32
_cell_length_a 12.017821
_cell_length_b 7.699092
_cell_length_c 17.221892
_cell_angle_alpha 90.000000
_cell_angle_beta 74.626183
_cell_angle_gamma 90.000000
_cell_volume 1536.458136
_symmetry_space_group_name_H-M "C C"
_symmetry_group_IT_number 9
_symmetry_cell_setting 'monoclinic'
loop_
_space_group_symop_operation_xyz
x,y,z
x,-y,1/2+z
1/2+x,1/2+y,z
1/2+x,1/2-y,1/2+z
loop_
_atom_site_type_symbol
_atom_site_label
_atom_site_fract_x
_atom_site_fract_y
_atom_site_fract_z
Si Si1 0.648900 0.635765 0.529040
Si Si2 0.537406 0.102144 0.465773
Si Si3 0.512656 0.536584 0.926311
Si Si4 0.566375 0.798312 0.796872
Si Si5 0.762783 0.017632 0.001762
Si Si6 0.933150 0.786779 0.174499
Si Si7 0.335279 0.992898 0.098114
Si Si8 0.296077 0.387033 0.665199
O O1 0.602591 0.584554 0.453439
O O2 0.742003 0.780022 0.487598
O O3 0.548356 0.711768 0.601402
O O4 0.719248 0.492781 0.566930
O O5 0.493187 0.299096 0.487933
O O6 0.540150 0.065332 0.371832
O O7 0.663659 0.095096 0.480448
O O8 0.447533 0.973734 0.523110
O O9 0.568729 0.602883 0.834799
O O10 0.384802 0.453038 0.942313
O O11 0.465590 0.793697 0.751929
O O12 0.686798 0.854658 0.739232
O O13 0.761948 0.001095 0.095313
O O14 0.837576 0.653374 0.157755
O O15 0.885677 0.984299 0.192398
O O16 0.346755 0.804792 0.137990
#
# Coordination Sequence:
#
# PCOD8054875 Si02
#       8
#     4   4   4   4   4   4   4   4
#     4  11  20  40  65  94 124 161 227 262 302 401
#     4  10  21  39  63  90 130 166 209 268 323 376
#     4  10  23  39  62  91 128 169 209 267 322 377
#     4  10  23  42  59  98 138 161 213 281 325 384
#     4  11  20  40  65  90 125 168 217 261 315 389
#     4  12  23  41  69  93 131 173 215 268 332 378
#     4  11  22  44  68  95 128 175 225 264 320 401
#     4  11  22  43  63  95 132 167 217 273 317 390
#
# _framework density 20.827121999999999
#
# number of rings (size 3 to 8) (size 9 to 14) (size 15 to 20)
#    0.750    0.500    7.500    0.000    3.500    0.000 
#    6.750    1.250    0.000    0.000    0.000    0.000 
#    0.000    0.000    0.000    0.000    0.000    0.000 
#
# Total GULP energy -198214.247132 kJ/mol
# GULP energy per Si atom -12388.390446 kJ/mol
# Density = 2.077972 g / cm^3
# Si number density = 20.827122 Si / 1000 Ang^3
#
#
#
# Elastic Constant Matrix: (Units=GPa)
#
#
# Indices 1 2 3 4 5 6 
#
# 1 120.3293 33.6163 33.7943 0.0000 14.0225 0.0000
# 2 33.6163 54.2991 24.4553 0.0000 5.5564 0.0000
# 3 33.7943 24.4553 91.9196 0.0000 2.1768 0.0000
# 4 0.0000 0.0000 0.0000 25.6112 0.0000 9.6595
# 5 14.0225 5.5564 2.1768 0.0000 33.4334 0.0000
# 6 0.0000 0.0000 0.0000 9.6595 0.0000 37.3920
#
#
#
# Elastic Compliance Matrix: (Units=1/GPa)
#
#
# Indices 1 2 3 4 5 6 
#
# 1 0.010898 -0.005247 -0.002527 0.000000 -0.003534 0.000000
# 2 -0.005247 0.023780 -0.004363 0.000000 -0.001467 0.000000
# 3 -0.002527 -0.004363 0.012947 0.000000 0.000942 0.000000
# 4 0.000000 0.000000 0.000000 0.043260 0.000000 -0.011176
# 5 -0.003534 -0.001467 0.000942 0.000000 0.031575 0.000000
# 6 0.000000 0.000000 0.000000 -0.011176 0.000000 0.029631
#
#
# Mechanical properties :
#
#
# Convention : Reuss Voigt Hill
#
# Bulk Modulus (GPa) = 42.82524 50.03109 46.42817
# Shear Modulus (GPa) = 27.15205 30.93278 29.04242
#
# Velocity S-wave (km/s) = 3.61458 3.85803 3.73829
# Velocity P-wave (km/s) = 6.16661 6.62723 6.40106
#
# Compressibility (1/GPa) = 0.02335072
#
# Stress axis : x y z
#
# Youngs Moduli (GPa) = 91.76038 42.05206 77.24076
#
# Poissons Ratio (x) = 0.22065 0.19518
# Poissons Ratio (y) = 0.48148 0.33699
# Poissons Ratio (z) = 0.23187 0.18347
#
# Static dielectric constant tensor:
#      x y z
#    x 3.816000 0.000000 0.200280 
#    y 0.000000 3.549040 0.000000 
#    z 0.200280 0.000000 3.712220 
# 
# 
# High freq. dielectric constant tensor:
#      x y z
#    x 1.823230 0.000000 0.008360 
#    y 0.000000 1.791890 0.000000 
#    z 0.008360 0.000000 1.803420 
# 
# From -- ./inp_files/29835.got.cif
#   From: 2010.06.25/outbox.cif.g09.slc.cpg/sg9_15_cif.got.tgz:29835.got - 2010.06.27 21:40:51.
