data_PCOD8054658
_publ_section_title
;
Structure prediction by ZEFSAII (Michael W. Deem and Ramdas Pophale) SiO2 
 PCOD8054658
Probable space group: C C
;
_chemical_formula_sum "Si O2"
_cell_formula_units_Z 32
_cell_length_a 5.265240
_cell_length_b 22.823316
_cell_length_c 12.340422
_cell_angle_alpha 90.000000
_cell_angle_beta 105.566456
_cell_angle_gamma 90.000000
_cell_volume 1428.556535
_symmetry_space_group_name_H-M "C C"
_symmetry_group_IT_number 9
_symmetry_cell_setting 'monoclinic'
loop_
_space_group_symop_operation_xyz
x,y,z
x,-y,1/2+z
1/2+x,1/2+y,z
1/2+x,1/2-y,1/2+z
loop_
_atom_site_type_symbol
_atom_site_label
_atom_site_fract_x
_atom_site_fract_y
_atom_site_fract_z
Si Si1 0.970940 0.632681 0.792500
Si Si2 0.813487 0.294934 0.087593
Si Si3 0.320411 0.865661 0.697952
Si Si4 0.441109 0.608871 0.486176
Si Si5 0.914580 0.694655 0.992720
Si Si6 0.411449 0.431300 0.212940
Si Si7 0.569552 0.210596 0.393466
Si Si8 0.865533 0.064940 0.258529
O O1 0.953446 0.693065 0.718893
O O2 0.057407 0.651107 0.924574
O O3 0.703564 0.594095 0.766678
O O4 0.210900 0.594025 0.777330
O O5 0.712661 0.360452 0.048578
O O6 0.600389 0.242905 0.072667
O O7 0.001761 0.279080 0.011339
O O8 0.276349 0.841939 0.571915
O O9 0.349211 0.808420 0.781353
O O10 0.563874 0.911578 0.723953
O O11 0.048516 0.894700 0.703890
O O12 0.310126 0.583171 0.579591
O O13 0.271582 0.657866 0.406919
O O14 0.478323 0.561146 0.395115
O O15 0.705940 0.726809 0.886691
O O16 0.395680 0.500718 0.215246
#
# Coordination Sequence:
#
# PCOD8054658 Si02
#       8
#     4   4   4   4   4   4   4   4
#     4  11  25  43  63  98 130 166 219 261 317 387
#     4  10  20  40  65  89 129 176 209 248 320 393
#     4  11  25  43  63  98 130 166 219 261 317 387
#     4   9  20  40  62  92 124 166 214 263 304 392
#     4  11  26  38  64  98 138 168 202 273 322 378
#     4  11  24  43  68  93 124 170 218 269 322 369
#     4  10  20  40  65  89 129 176 209 248 320 393
#     4  11  24  43  68  93 124 170 218 269 322 369
#
# _framework density 22.400233
#
# number of rings (size 3 to 8) (size 9 to 14) (size 15 to 20)
#    0.000    1.500    2.500    1.500    3.500    3.000 
#    0.000    0.000    0.000    0.000    0.000    0.000 
#    0.000    0.000    0.000    0.000    0.000    0.000 
#
# Total GULP energy -198255.419900 kJ/mol
# GULP energy per Si atom -12390.963744 kJ/mol
# Density = 2.234925 g / cm^3
# Si number density = 22.400233 Si / 1000 Ang^3
#
#
#
# Elastic Constant Matrix: (Units=GPa)
#
#
# Indices 1 2 3 4 5 6 
#
# 1 93.8762 16.8776 5.1442 0.0000 -15.3620 0.0000
# 2 16.8776 90.1362 31.8257 0.0000 -5.8879 0.0000
# 3 5.1442 31.8257 96.9227 0.0000 -28.7713 0.0000
# 4 0.0000 0.0000 0.0000 19.3261 0.0000 -7.1987
# 5 -15.3620 -5.8879 -28.7713 0.0000 30.4452 0.0000
# 6 0.0000 0.0000 0.0000 -7.1987 0.0000 24.2957
#
#
#
# Elastic Compliance Matrix: (Units=1/GPa)
#
#
# Indices 1 2 3 4 5 6 
#
# 1 0.012342 -0.002720 0.002684 0.000000 0.008238 0.000000
# 2 -0.002720 0.013241 -0.005352 0.000000 -0.003870 0.000000
# 3 0.002684 -0.005352 0.016717 0.000000 0.016117 0.000000
# 4 0.000000 0.000000 0.000000 0.058163 0.000000 0.017233
# 5 0.008238 -0.003870 0.016117 0.000000 0.051484 0.000000
# 6 0.000000 0.000000 0.000000 0.017233 0.000000 0.046266
#
#
# Mechanical properties :
#
#
# Convention : Reuss Voigt Hill
#
# Bulk Modulus (GPa) = 31.72427 43.18114 37.45270
# Shear Modulus (GPa) = 22.77925 29.95258 26.36591
#
# Velocity S-wave (km/s) = 3.19238 3.66068 3.43452
# Velocity P-wave (km/s) = 5.27082 6.09806 5.69947
#
# Compressibility (1/GPa) = 0.03152161
#
# Stress axis : x y z
#
# Youngs Moduli (GPa) = 81.02166 75.52486 59.82054
#
# Poissons Ratio (x) = 0.20546 -0.16053
# Poissons Ratio (y) = 0.22042 0.32017
# Poissons Ratio (z) = -0.21742 0.40422
#
# Static dielectric constant tensor:
#      x y z
#    x 3.942020 0.000000 -0.173770 
#    y 0.000000 4.040740 0.000000 
#    z -0.173770 0.000000 4.350290 
# 
# 
# High freq. dielectric constant tensor:
#      x y z
#    x 1.880600 0.000000 -0.020490 
#    y 0.000000 1.872650 0.000000 
#    z -0.020490 0.000000 1.888060 
# 
# From -- ./inp_files/13358.got.cif
#   From: 2010.06.25/outbox.cif.g09.slc.cpg/sg9_7_cif.got.tgz:13358.got - 2010.06.27 21:40:51.
