data_PCOD8054636
_publ_section_title
;
Structure prediction by ZEFSAII (Michael W. Deem and Ramdas Pophale) SiO2 
 PCOD8054636
Probable space group: C C
;
_chemical_formula_sum "Si O2"
_cell_formula_units_Z 24
_cell_length_a 11.678057
_cell_length_b 5.255370
_cell_length_c 22.999431
_cell_angle_alpha 90.000000
_cell_angle_beta 140.880551
_cell_angle_gamma 90.000000
_cell_volume 890.591386
_symmetry_space_group_name_H-M "C C"
_symmetry_group_IT_number 9
_symmetry_cell_setting 'monoclinic'
loop_
_space_group_symop_operation_xyz
x,y,z
x,-y,1/2+z
1/2+x,1/2+y,z
1/2+x,1/2-y,1/2+z
loop_
_atom_site_type_symbol
_atom_site_label
_atom_site_fract_x
_atom_site_fract_y
_atom_site_fract_z
Si Si1 0.117130 0.236167 0.905760
Si Si2 0.943170 0.950317 0.523702
Si Si3 0.426693 0.704944 0.189730
Si Si4 0.810047 0.704945 0.208497
Si Si5 0.293570 0.950333 0.874524
Si Si6 0.619612 0.736154 0.492467
O O1 0.907777 0.316626 0.810414
O O2 0.195930 0.172971 0.872485
O O3 0.258486 0.454498 0.985044
O O4 0.118380 0.000009 0.949118
O O5 0.868377 0.749989 0.449115
O O6 0.091990 0.837046 0.627202
O O7 0.040806 0.172959 0.525739
O O8 0.338915 0.490223 0.196268
O O9 0.644750 0.662947 0.271025
O O10 0.328962 0.683374 0.087813
O O11 0.397827 0.990222 0.201961
O O12 0.478250 0.045527 0.913178
#
# Coordination Sequence:
#
# PCOD8054636 Si02
#       6
#     4   4   4   4   4   4
#     4  10  22  40  69 101 140 185 246 303 359 439
#     4  10  20  40  69  94 141 189 232 299 373 435
#     4  10  20  39  69  97 137 192 237 290 373 440
#     4  10  20  39  69  97 137 192 237 290 373 440
#     4  10  20  40  69  94 141 189 232 299 373 435
#     4  10  22  40  69 101 140 185 246 303 359 439
#
# _framework density 26.948385999999999
#
# number of rings (size 3 to 8) (size 9 to 14) (size 15 to 20)
#    0.000    2.000    3.333    0.000    0.000    1.333 
#    0.000    1.667   14.667    0.000    0.000    0.000 
#    0.000    0.000    0.000    0.000    0.000    0.000 
#
# Total GULP energy -148725.755876 kJ/mol
# GULP energy per Si atom -12393.812990 kJ/mol
# Density = 2.688705 g / cm^3
# Si number density = 26.948386 Si / 1000 Ang^3
#
#
#
# Elastic Constant Matrix: (Units=GPa)
#
#
# Indices 1 2 3 4 5 6 
#
# 1 84.3383 10.1030 68.0522 0.0001 39.7324 -0.0004
# 2 10.1030 113.7533 77.4485 0.0006 -3.0398 -0.0003
# 3 68.0522 77.4485 344.7820 -0.0002 20.9175 0.0003
# 4 0.0001 0.0006 -0.0002 56.1654 0.0000 -3.9882
# 5 39.7324 -3.0398 20.9175 0.0000 51.0116 0.0000
# 6 -0.0004 -0.0003 0.0003 -3.9882 0.0000 56.1826
#
#
#
# Elastic Compliance Matrix: (Units=1/GPa)
#
#
# Indices 1 2 3 4 5 6 
#
# 1 0.022016 -0.000082 -0.003370 0.000000 -0.015771 0.000000
# 2 -0.000082 0.010510 -0.002447 0.000000 0.001694 0.000000
# 3 -0.003370 -0.002447 0.004066 0.000000 0.000812 0.000000
# 4 0.000000 0.000000 0.000000 0.017895 0.000000 0.001270
# 5 -0.015771 0.001694 0.000812 0.000000 0.031655 0.000000
# 6 0.000000 0.000000 0.000000 0.001270 0.000000 0.017889
#
#
# Mechanical properties :
#
#
# Convention : Reuss Voigt Hill
#
# Bulk Modulus (GPa) = 40.33492 94.89788 67.61640
# Shear Modulus (GPa) = 40.29171 58.48992 49.39082
#
# Velocity S-wave (km/s) = 3.87090 4.66385 4.28576
# Velocity P-wave (km/s) = 5.91426 8.01830 7.04527
#
# Compressibility (1/GPa) = 0.02479241
#
# Stress axis : x y z
#
# Youngs Moduli (GPa) = 45.42131 95.14939 245.93707
#
# Poissons Ratio (x) = 0.00782 0.82886
# Poissons Ratio (y) = 0.00373 0.60189
# Poissons Ratio (z) = 0.15308 0.23286
#
# Static dielectric constant tensor:
#      x y z
#    x 5.285090 0.000040 0.795200 
#    y 0.000040 4.969740 0.000000 
#    z 0.795200 0.000000 6.863530 
# 
# 
# High freq. dielectric constant tensor:
#      x y z
#    x 2.094060 0.000000 0.017380 
#    y 0.000000 2.085080 0.000000 
#    z 0.017380 0.000000 2.130200 
# 
# From -- ./inp_files/31755.got.cif
#   From: 2010.06.25/outbox.cif.g09.slc.cpg/sg9_16_cif.got.tgz:31755.got - 2010.06.27 21:40:51.
