data_PCOD8054145
_publ_section_title
;
Structure prediction by ZEFSAII (Michael W. Deem and Ramdas Pophale) SiO2 
 PCOD8054145
Probable space group: C M
;
_chemical_formula_sum "Si O2"
_cell_formula_units_Z 16
_cell_length_a 8.310399
_cell_length_b 16.335784
_cell_length_c 9.566663
_cell_angle_alpha 90.000000
_cell_angle_beta 29.698663
_cell_angle_gamma 90.000000
_cell_volume 643.445839
_symmetry_space_group_name_H-M "C M"
_symmetry_group_IT_number 8
_symmetry_cell_setting 'monoclinic'
loop_
_space_group_symop_operation_xyz
x,y,z
x,-y,z
1/2+x,1/2+y,z
1/2+x,1/2-y,z
loop_
_atom_site_type_symbol
_atom_site_label
_atom_site_fract_x
_atom_site_fract_y
_atom_site_fract_z
Si Si1 0.804510 0.342517 0.751270
Si Si2 0.473147 0.594020 0.263811
Si Si3 0.199550 0.405981 0.037441
Si Si4 0.505840 0.657468 0.549961
O O1 0.496281 0.362761 0.890503
O O2 0.107214 0.399898 0.478287
O O3 0.911640 0.249994 0.650596
O O4 0.722161 0.358154 0.976115
O O5 0.581346 0.500000 0.193481
O O6 0.476093 0.637211 0.410712
O O7 0.167219 0.500000 0.107710
O O8 0.262561 0.399912 0.822956
O O9 0.873145 0.358173 0.325155
#
# Coordination Sequence:
#
# PCOD8054145 Si02
#       4
#     4   4   4   4
#     4  12  27  47  73 108 147 191 241 300 363 431
#     4  12  25  47  75 108 145 191 243 300 361 431
#     4  12  25  47  75 108 145 191 243 300 361 431
#     4  12  27  47  73 108 147 191 241 300 363 431
#
# _framework density 24.866119000000001
#
# number of rings (size 3 to 8) (size 9 to 14) (size 15 to 20)
#    0.000    0.000    0.000   10.500    0.000    4.000 
#    0.000    2.500    0.000    0.000    0.000    0.000 
#    0.000    0.000    0.000    0.000    0.000    0.000 
#
# Total GULP energy -99268.103685 kJ/mol
# GULP energy per Si atom -12408.512961 kJ/mol
# Density = 2.480952 g / cm^3
# Si number density = 24.866119 Si / 1000 Ang^3
#
#
#
# Elastic Constant Matrix: (Units=GPa)
#
#
# Indices 1 2 3 4 5 6 
#
# 1 67.1240 74.3214 22.0419 -0.0133 -7.8499 0.0076
# 2 74.3214 216.3808 98.6943 -0.0142 -3.1268 0.0073
# 3 22.0419 98.6943 140.5860 -0.0125 -1.5730 0.0089
# 4 -0.0133 -0.0142 -0.0125 43.6222 0.0223 -0.9833
# 5 -7.8499 -3.1268 -1.5730 0.0223 52.5346 -0.0120
# 6 0.0076 0.0073 0.0089 -0.9833 -0.0120 36.0703
#
#
#
# Elastic Compliance Matrix: (Units=1/GPa)
#
#
# Indices 1 2 3 4 5 6 
#
# 1 0.025480 -0.010148 0.003166 0.000004 0.003298 -0.000003
# 2 -0.010148 0.010844 -0.006033 -0.000001 -0.001052 0.000001
# 3 0.003166 -0.006033 0.010857 0.000002 0.000439 -0.000002
# 4 0.000004 -0.000001 0.000002 0.022938 -0.000009 0.000625
# 5 0.003298 -0.001052 0.000439 -0.000009 0.019478 0.000006
# 6 -0.000003 0.000001 -0.000002 0.000625 0.000006 0.027741
#
#
# Mechanical properties :
#
#
# Convention : Reuss Voigt Hill
#
# Bulk Modulus (GPa) = 47.28005 90.46733 68.87369
# Shear Modulus (GPa) = 33.24039 41.71430 37.47734
#
# Velocity S-wave (km/s) = 3.66016 4.10024 3.88643
# Velocity P-wave (km/s) = 6.07597 7.67312 6.92077
#
# Compressibility (1/GPa) = 0.02115057
#
# Stress axis : x y z
#
# Youngs Moduli (GPa) = 39.24598 92.21802 92.10619
#
# Poissons Ratio (x) = 0.93587 -0.29164
# Poissons Ratio (y) = 0.39828 0.55570
# Poissons Ratio (z) = -0.12427 0.55638
#
# Static dielectric constant tensor:
#      x y z
#    x 4.726660 -0.000050 -0.053310 
#    y -0.000050 4.473460 0.000030 
#    z -0.053310 0.000030 5.146780 
# 
# 
# High freq. dielectric constant tensor:
#      x y z
#    x 2.001870 0.000000 -0.002330 
#    y 0.000000 1.992570 0.000000 
#    z -0.002330 0.000000 2.020230 
# 
# From -- ./inp_files/1088.got.cif
#   From: 2010.03.12/outbox.cif.g09.slc.cpg/sg8_1_cif.got.tgz:1088.got - 2010.03.31 10:45:26.
