data_PCOD8054586
_publ_section_title
;
Structure prediction by ZEFSAII (Michael W. Deem and Ramdas Pophale) SiO2 
 PCOD8054586
Probable space group: C C
;
_chemical_formula_sum "Si O2"
_cell_formula_units_Z 32
_cell_length_a 13.004844
_cell_length_b 14.065815
_cell_length_c 12.830255
_cell_angle_alpha 90.000000
_cell_angle_beta 144.536766
_cell_angle_gamma 90.000000
_cell_volume 1361.659155
_symmetry_space_group_name_H-M "C C"
_symmetry_group_IT_number 9
_symmetry_cell_setting 'monoclinic'
loop_
_space_group_symop_operation_xyz
x,y,z
x,-y,1/2+z
1/2+x,1/2+y,z
1/2+x,1/2-y,1/2+z
loop_
_atom_site_type_symbol
_atom_site_label
_atom_site_fract_x
_atom_site_fract_y
_atom_site_fract_z
Si Si1 0.327490 0.108440 0.177520
Si Si2 0.528546 0.267556 0.444486
Si Si3 0.689344 0.519239 0.743107
Si Si4 0.415530 0.641646 0.384811
Si Si5 0.624472 0.369231 0.855662
Si Si6 0.019628 0.355631 0.502423
Si Si7 0.979711 0.577239 0.739845
Si Si8 0.195317 0.309410 0.273588
O O1 0.443841 0.203276 0.285400
O O2 0.287145 0.061154 0.255521
O O3 0.428869 0.034297 0.188270
O O4 0.138929 0.148112 0.978339
O O5 0.406761 0.312460 0.436809
O O6 0.647775 0.196474 0.612049
O O7 0.526261 0.566732 0.546003
O O8 0.615123 0.467998 0.784441
O O9 0.846542 0.591667 0.906579
O O10 0.460550 0.630312 0.299507
O O11 0.475194 0.744838 0.472187
O O12 0.202345 0.625444 0.217755
O O13 0.619965 0.278069 0.778257
O O14 0.802943 0.362278 0.071929
O O15 0.053162 0.390986 0.411893
O O16 0.125171 0.594591 0.769797
#
# Coordination Sequence:
#
# PCOD8054586 Si02
#       8
#     4   4   4   4   4   4   4   4
#     4  10  21  41  60  92 135 179 214 282 343 408
#     4  10  20  38  64  88 134 169 219 270 346 400
#     4  11  23  44  65 103 150 178 234 301 348 419
#     4  12  23  43  71 102 141 192 233 289 358 418
#     4  12  22  40  68 102 142 178 224 303 347 404
#     4  11  23  41  71 101 145 185 233 290 362 411
#     4  11  22  39  64 100 141 171 227 290 342 405
#     4  11  20  34  63 102 126 166 220 281 340 397
#
# _framework density 23.500741999999999
#
# number of rings (size 3 to 8) (size 9 to 14) (size 15 to 20)
#    0.000    1.000    8.750    0.000    1.750    0.000 
#   13.500    0.000    2.750    0.000    0.000    0.000 
#    0.000    0.000    0.000    0.000    0.000    0.000 
#
# Total GULP energy -198287.700210 kJ/mol
# GULP energy per Si atom -12392.981263 kJ/mol
# Density = 2.344725 g / cm^3
# Si number density = 23.500742 Si / 1000 Ang^3
#
#
#
# Elastic Constant Matrix: (Units=GPa)
#
#
# Indices 1 2 3 4 5 6 
#
# 1 52.5824 48.5724 19.5179 0.0000 7.8978 -0.0006
# 2 48.5724 124.7908 36.5291 0.0007 20.6444 0.0000
# 3 19.5179 36.5291 124.0141 0.0020 19.6085 0.0000
# 4 0.0000 0.0007 0.0020 40.3687 0.0007 7.8254
# 5 7.8978 20.6444 19.6085 0.0007 16.3285 -0.0005
# 6 -0.0006 0.0000 0.0000 7.8254 -0.0005 37.4313
#
#
#
# Elastic Compliance Matrix: (Units=1/GPa)
#
#
# Indices 1 2 3 4 5 6 
#
# 1 0.029962 -0.011519 -0.001646 0.000000 0.002049 0.000001
# 2 -0.011519 0.014704 -0.000568 0.000000 -0.012338 0.000000
# 3 -0.001646 -0.000568 0.010184 0.000000 -0.010716 0.000000
# 4 0.000000 0.000000 0.000000 0.025818 -0.000001 -0.005398
# 5 0.002049 -0.012338 -0.010716 -0.000001 0.088719 0.000001
# 6 0.000001 0.000000 0.000000 -0.005398 0.000001 0.027844
#
#
# Mechanical properties :
#
#
# Convention : Reuss Voigt Hill
#
# Bulk Modulus (GPa) = 36.51753 56.73625 46.62689
# Shear Modulus (GPa) = 21.38349 31.94357 26.66353
#
# Velocity S-wave (km/s) = 3.01974 3.69081 3.37201
# Velocity P-wave (km/s) = 5.26603 6.50827 5.91982
#
# Compressibility (1/GPa) = 0.02738411
#
# Stress axis : x y z
#
# Youngs Moduli (GPa) = 33.37588 68.00800 98.19055
#
# Poissons Ratio (x) = 0.78339 0.16167
# Poissons Ratio (y) = 0.38446 0.05572
# Poissons Ratio (z) = 0.05495 0.03860
#
# Static dielectric constant tensor:
#      x y z
#    x 3.963030 0.000000 0.237590 
#    y 0.000000 4.372330 -0.000010 
#    z 0.237590 -0.000010 4.359610 
# 
# 
# High freq. dielectric constant tensor:
#      x y z
#    x 1.902440 0.000000 0.011370 
#    y 0.000000 1.928560 0.000000 
#    z 0.011370 0.000000 1.936970 
# 
# From -- ./inp_files/26038.got.cif
#   From: 2010.06.25/outbox.cif.g09.slc.cpg/sg9_14_cif.got.tgz:26038.got - 2010.06.27 21:40:51.
