data_PCOD8054201
_publ_section_title
;
Structure prediction by ZEFSAII (Michael W. Deem and Ramdas Pophale) SiO2 
 PCOD8054201
Probable space group: C C
;
_chemical_formula_sum "Si O2"
_cell_formula_units_Z 28
_cell_length_a 11.082276
_cell_length_b 8.772738
_cell_length_c 14.997778
_cell_angle_alpha 90.000000
_cell_angle_beta 122.697006
_cell_angle_gamma 90.000000
_cell_volume 1227.058576
_symmetry_space_group_name_H-M "C C"
_symmetry_group_IT_number 9
_symmetry_cell_setting 'monoclinic'
loop_
_space_group_symop_operation_xyz
x,y,z
x,-y,1/2+z
1/2+x,1/2+y,z
1/2+x,1/2-y,1/2+z
loop_
_atom_site_type_symbol
_atom_site_label
_atom_site_fract_x
_atom_site_fract_y
_atom_site_fract_z
Si Si1 0.312860 0.939696 0.972080
Si Si2 0.596776 0.747465 0.055373
Si Si3 0.890869 0.019151 0.914247
Si Si4 0.716772 0.966919 0.522414
Si Si5 0.409454 0.828917 0.379794
Si Si6 0.335285 0.817665 0.162214
Si Si7 0.660964 0.240046 0.770042
O O1 0.197330 0.855636 0.864145
O O2 0.335335 0.108646 0.941103
O O3 0.460436 0.849215 0.026617
O O4 0.270611 0.935388 0.061294
O O5 0.664711 0.680109 0.173891
O O6 0.709677 0.858571 0.052428
O O7 0.542654 0.610988 0.969554
O O8 0.771840 0.098814 0.805059
O O9 0.926566 0.851173 0.896229
O O10 0.834869 0.032056 0.992751
O O11 0.563236 0.908457 0.425396
O O12 0.772576 0.851795 0.620956
O O13 0.304279 0.865133 0.252915
O O14 0.505993 0.823800 0.229005
#
# Coordination Sequence:
#
# PCOD8054201 Si02
#       7
#     4   4   4   4   4   4   4
#     4   9  20  38  61  92 122 166 214 260 310 384
#     4   9  20  37  66  88 125 166 207 257 319 371
#     4  11  21  41  62  94 128 161 215 267 304 382
#     4  11  21  42  63  92 127 168 209 259 318 381
#     4  11  24  39  66  94 126 169 217 261 321 378
#     4  11  19  40  68  85 127 177 205 261 330 366
#     4  10  17  39  64  83 125 167 203 253 320 372
#
# _framework density 22.818797
#
# number of rings (size 3 to 8) (size 9 to 14) (size 15 to 20)
#    0.000    1.714    5.714    0.857    0.000    1.143 
#    7.714    0.000    0.000    0.000    0.000    0.000 
#    0.000    0.000    0.000    0.000    0.000    0.000 
#
# Total GULP energy -173479.914695 kJ/mol
# GULP energy per Si atom -12391.422478 kJ/mol
# Density = 2.276686 g / cm^3
# Si number density = 22.818797 Si / 1000 Ang^3
#
#
#
# Elastic Constant Matrix: (Units=GPa)
#
#
# Indices 1 2 3 4 5 6 
#
# 1 36.0327 23.2140 22.6382 0.0000 2.5910 0.0000
# 2 23.2140 106.3187 65.5047 0.0000 -7.0151 0.0000
# 3 22.6382 65.5047 161.4407 0.0000 -8.4775 0.0000
# 4 0.0000 0.0000 0.0000 22.7162 0.0000 1.1017
# 5 2.5910 -7.0151 -8.4775 0.0000 24.9605 0.0000
# 6 0.0000 0.0000 0.0000 1.1017 0.0000 32.7453
#
#
#
# Elastic Compliance Matrix: (Units=1/GPa)
#
#
# Indices 1 2 3 4 5 6 
#
# 1 0.033793 -0.006219 -0.002536 0.000000 -0.006117 0.000000
# 2 -0.006219 0.013768 -0.004558 0.000000 0.002967 0.000000
# 3 -0.002536 -0.004558 0.008498 0.000000 0.001868 0.000000
# 4 0.000000 0.000000 0.000000 0.044093 0.000000 -0.001483
# 5 -0.006117 0.002967 0.001868 0.000000 0.042167 0.000000
# 6 0.000000 0.000000 0.000000 -0.001483 0.000000 0.030589
#
#
# Mechanical properties :
#
#
# Convention : Reuss Voigt Hill
#
# Bulk Modulus (GPa) = 33.97893 58.50064 46.23979
# Shear Modulus (GPa) = 23.88398 28.91339 26.39869
#
# Velocity S-wave (km/s) = 3.23875 3.56348 3.40499
# Velocity P-wave (km/s) = 5.37672 6.52870 5.98051
#
# Compressibility (1/GPa) = 0.02943000
#
# Stress axis : x y z
#
# Youngs Moduli (GPa) = 29.59213 72.63250 117.68057
#
# Poissons Ratio (x) = 0.45173 0.29848
# Poissons Ratio (y) = 0.18404 0.53644
# Poissons Ratio (z) = 0.07506 0.33109
#
# Static dielectric constant tensor:
#      x y z
#    x 3.995210 0.000000 -0.213680 
#    y 0.000000 4.189440 0.000000 
#    z -0.213680 0.000000 4.980520 
# 
# 
# High freq. dielectric constant tensor:
#      x y z
#    x 1.879840 0.000000 0.001710 
#    y 0.000000 1.885820 0.000000 
#    z 0.001710 0.000000 1.918890 
# 
# From -- ./inp_files/20781.got.cif
#   From: 2010.06.25/outbox.cif.g09.slc.cpg/sg9_11_cif.got.tgz:20781.got - 2010.06.27 21:40:51.
