data_PCOD8054406
_publ_section_title
;
Structure prediction by ZEFSAII (Michael W. Deem and Ramdas Pophale) SiO2 
 PCOD8054406
Probable space group: C C
;
_chemical_formula_sum "Si O2"
_cell_formula_units_Z 32
_cell_length_a 6.735034
_cell_length_b 17.609071
_cell_length_c 13.726327
_cell_angle_alpha 90.000000
_cell_angle_beta 117.443200
_cell_angle_gamma 90.000000
_cell_volume 1444.718898
_symmetry_space_group_name_H-M "C C"
_symmetry_group_IT_number 9
_symmetry_cell_setting 'monoclinic'
loop_
_space_group_symop_operation_xyz
x,y,z
x,-y,1/2+z
1/2+x,1/2+y,z
1/2+x,1/2-y,1/2+z
loop_
_atom_site_type_symbol
_atom_site_label
_atom_site_fract_x
_atom_site_fract_y
_atom_site_fract_z
Si Si1 0.517600 0.097228 0.730680
Si Si2 0.467167 0.935468 0.434349
Si Si3 0.000952 0.965846 0.324089
Si Si4 0.377396 0.362959 0.608425
Si Si5 0.677159 0.099293 0.461970
Si Si6 0.385695 0.801073 0.035926
Si Si7 0.438843 0.631270 0.351089
Si Si8 0.096726 0.010725 0.626406
O O1 0.495103 0.111111 0.840151
O O2 0.433328 0.171891 0.656766
O O3 0.352890 0.029732 0.653607
O O4 0.775186 0.081646 0.763673
O O5 0.215295 0.922645 0.419222
O O6 0.628095 0.898116 0.550321
O O7 0.518769 0.024971 0.425301
O O8 0.090024 0.991104 0.240638
O O9 0.970591 0.041340 0.380502
O O10 0.405743 0.289351 0.547980
O O11 0.422152 0.348603 0.733141
O O12 0.531629 0.424272 0.584828
O O13 0.572586 0.162757 0.508375
O O14 0.710894 0.142185 0.364154
O O15 0.925695 0.075578 0.552645
O O16 0.140338 0.820652 0.941418
#
# Coordination Sequence:
#
# PCOD8054406 Si02
#       8
#     4   4   4   4   4   4   4   4
#     4  11  21  38  74 100 138 172 234 284 338 400
#     4  10  22  40  69 105 135 177 235 286 331 414
#     4  10  19  38  68 106 130 176 231 285 332 397
#     4  10  26  46  68  99 151 179 229 284 359 410
#     4  11  20  41  70 101 130 181 238 275 343 405
#     4  12  25  43  71 100 144 183 219 294 347 427
#     4  11  23  42  69  99 137 182 229 284 351 407
#     4   9  20  40  67 102 131 176 229 280 329 412
#
# _framework density 22.149637999999999
#
# number of rings (size 3 to 8) (size 9 to 14) (size 15 to 20)
#    0.000    1.500    5.000    0.000    1.750    0.000 
#    0.000    6.250    2.750    0.000    0.000    0.000 
#    0.000    0.000    0.000    0.000    0.000    0.000 
#
# Total GULP energy -198247.984213 kJ/mol
# GULP energy per Si atom -12390.499013 kJ/mol
# Density = 2.209922 g / cm^3
# Si number density = 22.149638 Si / 1000 Ang^3
#
#
#
# Elastic Constant Matrix: (Units=GPa)
#
#
# Indices 1 2 3 4 5 6 
#
# 1 124.5349 39.1593 42.7405 0.0000 23.0381 0.0000
# 2 39.1593 100.6922 25.3361 0.0000 7.1551 0.0000
# 3 42.7405 25.3361 65.1892 0.0000 19.0580 0.0000
# 4 0.0000 0.0000 0.0000 30.0784 0.0000 -3.3779
# 5 23.0381 7.1551 19.0580 0.0000 43.8639 0.0000
# 6 0.0000 0.0000 0.0000 -3.3779 0.0000 15.1149
#
#
#
# Elastic Compliance Matrix: (Units=1/GPa)
#
#
# Indices 1 2 3 4 5 6 
#
# 1 0.011366 -0.002830 -0.005432 0.000000 -0.003148 0.000000
# 2 -0.002830 0.011712 -0.002947 0.000000 0.000856 0.000000
# 3 -0.005432 -0.002947 0.021847 0.000000 -0.006158 0.000000
# 4 0.000000 0.000000 0.000000 0.034102 0.000000 0.007621
# 5 -0.003148 0.000856 -0.006158 0.000000 0.026987 0.000000
# 6 0.000000 0.000000 0.000000 0.007621 0.000000 0.067863
#
#
# Mechanical properties :
#
#
# Convention : Reuss Voigt Hill
#
# Bulk Modulus (GPa) = 44.42837 56.09869 50.26353
# Shear Modulus (GPa) = 24.53397 30.02349 27.27873
#
# Velocity S-wave (km/s) = 3.33174 3.68568 3.51317
# Velocity P-wave (km/s) = 5.90783 6.59503 6.26087
#
# Compressibility (1/GPa) = 0.02250814
#
# Stress axis : x y z
#
# Youngs Moduli (GPa) = 87.97874 85.37894 45.77248
#
# Poissons Ratio (x) = 0.24161 0.24864
# Poissons Ratio (y) = 0.24897 0.13489
# Poissons Ratio (z) = 0.47790 0.25161
#
# Static dielectric constant tensor:
#      x y z
#    x 4.303080 0.000000 0.126180 
#    y 0.000000 3.714900 0.000000 
#    z 0.126180 0.000000 4.221910 
# 
# 
# High freq. dielectric constant tensor:
#      x y z
#    x 1.875610 0.000000 0.002500 
#    y 0.000000 1.832980 0.000000 
#    z 0.002500 0.000000 1.891030 
# 
# From -- ./inp_files/22005.got.cif
#   From: 2010.06.25/outbox.cif.g09.slc.cpg/sg9_12_cif.got.tgz:22005.got - 2010.06.27 21:40:51.
