data_PCOD8054314
_publ_section_title
;
Structure prediction by ZEFSAII (Michael W. Deem and Ramdas Pophale) SiO2 
 PCOD8054314
Probable space group: C C
;
_chemical_formula_sum "Si O2"
_cell_formula_units_Z 32
_cell_length_a 8.113444
_cell_length_b 15.806150
_cell_length_c 13.787498
_cell_angle_alpha 90.000000
_cell_angle_beta 61.842518
_cell_angle_gamma 90.000000
_cell_volume 1558.888048
_symmetry_space_group_name_H-M "C C"
_symmetry_group_IT_number 9
_symmetry_cell_setting 'monoclinic'
loop_
_space_group_symop_operation_xyz
x,y,z
x,-y,1/2+z
1/2+x,1/2+y,z
1/2+x,1/2-y,1/2+z
loop_
_atom_site_type_symbol
_atom_site_label
_atom_site_fract_x
_atom_site_fract_y
_atom_site_fract_z
Si Si1 0.328030 0.495068 0.125000
Si Si2 0.151318 0.890709 0.487046
Si Si3 0.394481 0.059982 0.419591
Si Si4 0.107328 0.907112 0.288490
Si Si5 0.936604 0.536436 0.190520
Si Si6 0.950348 0.668954 0.030503
Si Si7 0.219684 0.462049 0.371691
Si Si8 0.074886 0.156070 0.586115
O O1 0.238466 0.469271 0.251293
O O2 0.455773 0.414863 0.061242
O O3 0.149829 0.507534 0.102933
O O4 0.451428 0.582146 0.089817
O O5 0.129610 0.855363 0.382619
O O6 0.266313 0.818348 0.513207
O O7 0.276052 0.974316 0.453211
O O8 0.439195 0.080116 0.295304
O O9 0.290367 0.139294 0.497151
O O10 0.578675 0.040063 0.434916
O O11 0.058898 0.848946 0.208495
O O12 0.927711 0.969207 0.359523
O O13 0.292931 0.959917 0.215826
O O14 0.872399 0.607355 0.134517
O O15 0.126432 0.628741 0.924224
O O16 0.011759 0.754443 0.064663
#
# Coordination Sequence:
#
# PCOD8054314 Si02
#       8
#     4   4   4   4   4   4   4   4
#     4   9  18  36  59  83 109 147 195 243 286 343
#     4   9  18  34  57  83 112 149 198 238 283 344
#     4   8  17  33  54  83 111 145 193 240 281 342
#     4  10  19  35  61  86 112 153 199 247 289 344
#     4  10  19  34  59  84 111 150 198 239 285 346
#     4  11  21  34  56  86 118 155 189 240 298 353
#     4   9  17  32  57  82 109 146 189 236 285 337
#     4  10  21  36  57  85 118 151 191 243 301 349
#
# _framework density 20.527453999999999
#
# number of rings (size 3 to 8) (size 9 to 14) (size 15 to 20)
#    0.000    2.500    0.000    4.500    0.000    2.000 
#    0.000    2.500    0.000   21.000    0.000    0.000 
#    0.000    0.000    0.000    0.000    0.000    0.000 
#
# Total GULP energy -198208.875797 kJ/mol
# GULP energy per Si atom -12388.054737 kJ/mol
# Density = 2.048073 g / cm^3
# Si number density = 20.527454 Si / 1000 Ang^3
#
#
#
# Elastic Constant Matrix: (Units=GPa)
#
#
# Indices 1 2 3 4 5 6 
#
# 1 158.8113 45.7387 51.5234 0.0000 -1.4362 0.0000
# 2 45.7387 74.7205 41.6180 0.0000 7.3536 0.0000
# 3 51.5234 41.6180 88.3667 0.0000 0.7516 0.0000
# 4 0.0000 0.0000 0.0000 15.3866 0.0000 6.0605
# 5 -1.4362 7.3536 0.7516 0.0000 42.2231 0.0000
# 6 0.0000 0.0000 0.0000 6.0605 0.0000 27.0611
#
#
#
# Elastic Compliance Matrix: (Units=1/GPa)
#
#
# Indices 1 2 3 4 5 6 
#
# 1 0.008341 -0.003367 -0.003285 0.000000 0.000929 0.000000
# 2 -0.003367 0.019892 -0.007376 0.000000 -0.003448 0.000000
# 3 -0.003285 -0.007376 0.016698 0.000000 0.000876 0.000000
# 4 0.000000 0.000000 0.000000 0.071279 0.000000 -0.015963
# 5 0.000929 -0.003448 0.000876 0.000000 0.024300 0.000000
# 6 0.000000 0.000000 0.000000 -0.015963 0.000000 0.040529
#
#
# Mechanical properties :
#
#
# Convention : Reuss Voigt Hill
#
# Bulk Modulus (GPa) = 59.26138 66.62874 62.94506
# Shear Modulus (GPa) = 23.28612 29.13542 26.21077
#
# Velocity S-wave (km/s) = 3.37172 3.77150 3.57720
# Velocity P-wave (km/s) = 6.64003 7.17596 6.91319
#
# Compressibility (1/GPa) = 0.01687440
#
# Stress axis : x y z
#
# Youngs Moduli (GPa) = 119.89262 50.27176 59.88626
#
# Poissons Ratio (x) = 0.16928 0.19674
# Poissons Ratio (y) = 0.40370 0.44171
# Poissons Ratio (z) = 0.39388 0.37080
#
# Static dielectric constant tensor:
#      x y z
#    x 4.477860 0.000000 -0.093910 
#    y 0.000000 3.130030 0.000000 
#    z -0.093910 0.000000 4.029780 
# 
# 
# High freq. dielectric constant tensor:
#      x y z
#    x 1.824400 0.000000 -0.003340 
#    y 0.000000 1.732680 0.000000 
#    z -0.003340 0.000000 1.821600 
# 
# From -- ./inp_files/23376.got.cif
#   From: 2010.06.25/outbox.cif.g09.slc.cpg/sg9_12_cif.got.tgz:23376.got - 2010.06.27 21:40:51.
