data_PCOD8054140
_publ_section_title
;
Structure prediction by ZEFSAII (Michael W. Deem and Ramdas Pophale) SiO2 
 PCOD8054140
Probable space group: C M
;
_chemical_formula_sum "Si O2"
_cell_formula_units_Z 24
_cell_length_a 9.251234
_cell_length_b 14.101421
_cell_length_c 8.241668
_cell_angle_alpha 90.000000
_cell_angle_beta 83.758255
_cell_angle_gamma 90.000000
_cell_volume 1068.797693
_symmetry_space_group_name_H-M "C M"
_symmetry_group_IT_number 8
_symmetry_cell_setting 'monoclinic'
loop_
_space_group_symop_operation_xyz
x,y,z
x,-y,z
1/2+x,1/2+y,z
1/2+x,1/2-y,z
loop_
_atom_site_type_symbol
_atom_site_label
_atom_site_fract_x
_atom_site_fract_y
_atom_site_fract_z
Si Si1 0.844150 0.799540 0.170830
Si Si2 0.855858 0.000000 0.178678
Si Si3 0.282255 0.500000 0.555493
Si Si4 0.105903 0.186795 0.376485
Si Si5 0.153067 0.000000 0.936126
Si Si6 0.091091 0.000000 0.573394
Si Si7 0.809546 0.314206 0.867066
Si Si8 0.602830 0.814290 0.665736
O O1 0.767663 0.903051 0.148756
O O2 0.755735 0.729048 0.293604
O O3 0.996016 0.824038 0.240112
O O4 0.872964 0.757249 0.992443
O O5 0.868780 0.000000 0.373123
O O6 0.003946 0.000000 0.054222
O O7 0.422476 0.500000 0.653652
O O8 0.192134 0.405383 0.596221
O O9 0.042968 0.258497 0.517183
O O10 0.141248 0.088677 0.459854
O O11 0.164706 0.000000 0.739026
O O12 0.234931 0.902135 0.970638
O O13 0.699116 0.256921 0.763936
O O14 0.955495 0.351834 0.764476
#
# Coordination Sequence:
#
# PCOD8054140 Si02
#       8
#     4   2   2   4   2   2   4   4
#     4  12  26  45  71 104 145 188 237 299 364 437
#     4  12  24  46  67 105 138 193 235 296 365 432
#     4  12  25  46  72 105 146 189 246 302 362 438
#     4  12  23  45  70 106 137 188 241 295 362 432
#     4  12  27  46  74 107 147 191 249 298 370 429
#     4  12  24  44  75 105 137 191 242 306 353 437
#     4  12  27  47  73 110 149 194 239 307 362 439
#     4  12  25  46  73 108 145 190 249 294 367 428
#
# _framework density 22.455138999999999
#
# number of rings (size 3 to 8) (size 9 to 14) (size 15 to 20)
#    0.000    0.000    5.000    5.500    2.333    0.000 
#    0.000    4.167    0.000    0.000    0.000    0.000 
#    0.000    0.000    0.000    0.000    0.000    0.000 
#
# Total GULP energy -148727.186209 kJ/mol
# GULP energy per Si atom -12393.932184 kJ/mol
# Density = 2.240403 g / cm^3
# Si number density = 22.455139 Si / 1000 Ang^3
#
#
#
# Elastic Constant Matrix: (Units=GPa)
#
#
# Indices 1 2 3 4 5 6 
#
# 1 73.2354 28.9788 28.3034 0.0000 -15.4421 0.0000
# 2 28.9788 167.9713 36.3750 0.0000 -10.9671 0.0000
# 3 28.3034 36.3750 100.9533 0.0000 -5.2566 0.0000
# 4 0.0000 0.0000 0.0000 44.6678 0.0000 -4.2326
# 5 -15.4421 -10.9671 -5.2566 0.0000 46.4177 0.0000
# 6 0.0000 0.0000 0.0000 -4.2326 0.0000 20.0595
#
#
#
# Elastic Compliance Matrix: (Units=1/GPa)
#
#
# Indices 1 2 3 4 5 6 
#
# 1 0.016837 -0.001764 -0.003838 0.000000 0.004750 0.000000
# 2 -0.001764 0.006717 -0.001885 0.000000 0.000787 0.000000
# 3 -0.003838 -0.001885 0.011640 0.000000 -0.000404 0.000000
# 4 0.000000 0.000000 0.000000 0.022844 0.000000 0.004820
# 5 0.004750 0.000787 -0.000404 0.000000 0.023264 0.000000
# 6 0.000000 0.000000 0.000000 0.004820 0.000000 0.050869
#
#
# Mechanical properties :
#
#
# Convention : Reuss Voigt Hill
#
# Bulk Modulus (GPa) = 49.45193 58.83048 54.14121
# Shear Modulus (GPa) = 32.49201 38.79586 35.64394
#
# Velocity S-wave (km/s) = 3.80804 4.16108 3.98847
# Velocity P-wave (km/s) = 6.43469 7.02439 6.73600
#
# Compressibility (1/GPa) = 0.02022166
#
# Stress axis : x y z
#
# Youngs Moduli (GPa) = 59.39228 148.87115 85.91327
#
# Poissons Ratio (x) = 0.26255 0.32971
# Poissons Ratio (y) = 0.10474 0.16194
# Poissons Ratio (z) = 0.22793 0.28061
#
# Static dielectric constant tensor:
#      x y z
#    x 3.793870 0.000000 0.049170 
#    y 0.000000 4.613100 0.000000 
#    z 0.049170 0.000000 4.272240 
# 
# 
# High freq. dielectric constant tensor:
#      x y z
#    x 1.862110 0.000000 -0.010040 
#    y 0.000000 1.912110 0.000000 
#    z -0.010040 0.000000 1.903810 
# 
# From -- ./inp_files/7872.got.cif
#   From: 2010.03.12/outbox.cif.g09.slc.cpg/sg8_4_cif.got.tgz:7872.got - 2010.03.31 10:45:26.
