data_PCOD8054734
_publ_section_title
;
Structure prediction by ZEFSAII (Michael W. Deem and Ramdas Pophale) SiO2 
 PCOD8054734
Probable space group: C C
;
_chemical_formula_sum "Si O2"
_cell_formula_units_Z 32
_cell_length_a 5.003912
_cell_length_b 13.123577
_cell_length_c 25.781688
_cell_angle_alpha 90.000000
_cell_angle_beta 73.231394
_cell_angle_gamma 90.000000
_cell_volume 1621.070542
_symmetry_space_group_name_H-M "C C"
_symmetry_group_IT_number 9
_symmetry_cell_setting 'monoclinic'
loop_
_space_group_symop_operation_xyz
x,y,z
x,-y,1/2+z
1/2+x,1/2+y,z
1/2+x,1/2-y,1/2+z
loop_
_atom_site_type_symbol
_atom_site_label
_atom_site_fract_x
_atom_site_fract_y
_atom_site_fract_z
Si Si1 0.684610 0.754461 0.307720
Si Si2 0.073446 0.760352 0.076581
Si Si3 0.730107 0.172952 0.254289
Si Si4 0.346920 0.942963 0.841614
Si Si5 0.589770 0.505585 0.546988
Si Si6 0.980127 0.167776 0.130114
Si Si7 0.275934 0.556936 0.872236
Si Si8 0.683019 0.087048 0.993479
O O1 0.419321 0.728197 0.287267
O O2 0.664812 0.864121 0.335204
O O3 0.970355 0.749588 0.257365
O O4 0.710194 0.670119 0.353062
O O5 0.260415 0.743391 0.116511
O O6 0.188235 0.696586 0.021123
O O7 0.770088 0.724521 0.109387
O O8 0.084196 0.877400 0.061758
O O9 0.587427 0.066429 0.282582
O O10 0.909469 0.148294 0.193852
O O11 0.529866 0.971099 0.882464
O O12 0.091911 0.019815 0.842702
O O13 0.476291 0.441783 0.602402
O O14 0.398925 0.490084 0.507567
O O15 0.890464 0.467919 0.513988
O O16 0.272221 0.605418 0.929367
#
# Coordination Sequence:
#
# PCOD8054734 Si02
#       8
#     4   4   4   4   4   4   4   4
#     4  10  22  40  57  86 125 156 203 248 287 355
#     4  10  21  40  61  89 117 150 196 248 296 362
#     4  10  20  43  59  85 129 158 190 265 291 345
#     4  10  22  40  57  86 125 155 202 250 285 357
#     4  10  21  42  59  89 117 150 196 251 292 365
#     4  10  21  39  62  87 120 151 197 241 301 352
#     4  12  22  39  62  86 118 168 198 244 306 357
#     4  10  23  37  61  86 119 150 198 247 296 349
#
# _framework density 19.74004
#
# number of rings (size 3 to 8) (size 9 to 14) (size 15 to 20)
#    0.750    1.000    1.250    3.000    0.000    2.000 
#    6.750    0.000    0.000    0.000    0.000    0.000 
#    0.000    0.000    0.000    0.000    0.000    0.000 
#
# Total GULP energy -198252.344065 kJ/mol
# GULP energy per Si atom -12390.771504 kJ/mol
# Density = 1.969511 g / cm^3
# Si number density = 19.740040 Si / 1000 Ang^3
#
#
#
# Elastic Constant Matrix: (Units=GPa)
#
#
# Indices 1 2 3 4 5 6 
#
# 1 138.4134 29.4498 26.2237 0.0000 14.5475 0.0000
# 2 29.4498 101.8716 34.3463 0.0000 8.0273 0.0000
# 3 26.2237 34.3463 95.5025 0.0000 3.7624 0.0000
# 4 0.0000 0.0000 0.0000 19.4532 0.0000 3.4611
# 5 14.5475 8.0273 3.7624 0.0000 25.8158 0.0000
# 6 0.0000 0.0000 0.0000 3.4611 0.0000 26.2251
#
#
#
# Elastic Compliance Matrix: (Units=1/GPa)
#
#
# Indices 1 2 3 4 5 6 
#
# 1 0.008265 -0.001554 -0.001555 0.000000 -0.003948 0.000000
# 2 -0.001554 0.011684 -0.003688 0.000000 -0.002220 0.000000
# 3 -0.001555 -0.003688 0.012215 0.000000 0.000243 0.000000
# 4 0.000000 0.000000 0.000000 0.052642 0.000000 -0.006947
# 5 -0.003948 -0.002220 0.000243 0.000000 0.041615 0.000000
# 6 0.000000 0.000000 0.000000 -0.006947 0.000000 0.039048
#
#
# Mechanical properties :
#
#
# Convention : Reuss Voigt Hill
#
# Bulk Modulus (GPa) = 53.85103 57.31411 55.58257
# Shear Modulus (GPa) = 26.99026 30.68332 28.83679
#
# Velocity S-wave (km/s) = 3.70169 3.94683 3.82622
# Velocity P-wave (km/s) = 6.75347 7.06169 6.90930
#
# Compressibility (1/GPa) = 0.01856975
#
# Stress axis : x y z
#
# Youngs Moduli (GPa) = 120.99406 85.58876 81.86902
#
# Poissons Ratio (x) = 0.13300 0.12731
# Poissons Ratio (y) = 0.18801 0.30192
# Poissons Ratio (z) = 0.18815 0.31563
#
# Static dielectric constant tensor:
#      x y z
#    x 3.848550 0.000000 -0.004610 
#    y 0.000000 3.435910 0.000000 
#    z -0.004610 0.000000 3.363440 
# 
# 
# High freq. dielectric constant tensor:
#      x y z
#    x 1.799700 0.000000 0.000360 
#    y 0.000000 1.758280 0.000000 
#    z 0.000360 0.000000 1.748620 
# 
# From -- ./inp_files/34773.got.cif
#   From: 2010.06.25/outbox.cif.g09.slc.cpg/sg9_18_cif.got.tgz:34773.got - 2010.06.27 21:40:51.
