data_PCOD8054607
_publ_section_title
;
Structure prediction by ZEFSAII (Michael W. Deem and Ramdas Pophale) SiO2 
 PCOD8054607
Probable space group: C C
;
_chemical_formula_sum "Si O2"
_cell_formula_units_Z 32
_cell_length_a 8.603664
_cell_length_b 15.084504
_cell_length_c 14.759666
_cell_angle_alpha 90.000000
_cell_angle_beta 62.605462
_cell_angle_gamma 90.000000
_cell_volume 1700.729052
_symmetry_space_group_name_H-M "C C"
_symmetry_group_IT_number 9
_symmetry_cell_setting 'monoclinic'
loop_
_space_group_symop_operation_xyz
x,y,z
x,-y,1/2+z
1/2+x,1/2+y,z
1/2+x,1/2-y,1/2+z
loop_
_atom_site_type_symbol
_atom_site_label
_atom_site_fract_x
_atom_site_fract_y
_atom_site_fract_z
Si Si1 0.501080 0.489720 0.536310
Si Si2 0.030912 0.831515 0.949420
Si Si3 0.778163 0.090120 0.236510
Si Si4 0.865097 0.240851 0.663837
Si Si5 0.987773 0.068341 0.721645
Si Si6 0.895358 0.389929 0.791143
Si Si7 0.965067 0.249019 0.275440
Si Si8 0.238991 0.077098 0.821978
O O1 0.441160 0.571796 0.488339
O O2 0.332260 0.434363 0.617304
O O3 0.592152 0.533387 0.603000
O O4 0.633566 0.427298 0.445381
O O5 0.955283 0.789183 0.879090
O O6 0.241247 0.844240 0.890848
O O7 0.985966 0.766216 0.043296
O O8 0.570730 0.101872 0.303423
O O9 0.866016 0.183112 0.235452
O O10 0.847799 0.010310 0.283584
O O11 0.884415 0.158175 0.726703
O O12 0.929000 0.331028 0.693527
O O13 0.663418 0.244848 0.687874
O O14 0.110568 0.091665 0.772211
O O15 0.841349 0.487234 0.773573
O O16 0.876600 0.344441 0.293418
#
# Coordination Sequence:
#
# PCOD8054607 Si02
#       8
#     4   4   4   4   4   4   4   4
#     4   8  20  37  62  83 119 159 197 244 302 353
#     4   9  20  40  62  86 120 158 200 250 299 360
#     4  10  20  39  59  86 120 158 193 249 298 350
#     4  10  20  40  60  86 121 157 200 246 305 347
#     4   9  19  37  63  82 121 158 191 253 295 350
#     4  10  21  38  60  87 120 158 198 248 297 358
#     4  11  23  35  63  90 120 159 197 251 299 360
#     4  11  21  38  61  90 121 157 204 243 301 360
#
# _framework density 18.815460000000002
#
# number of rings (size 3 to 8) (size 9 to 14) (size 15 to 20)
#    0.750    1.500    0.000    3.750    1.750    0.000 
#    6.750    3.750    8.250    0.000    0.000    0.000 
#    0.000    0.000    0.000    0.000    0.000    0.000 
#
# Total GULP energy -198293.560506 kJ/mol
# GULP energy per Si atom -12393.347532 kJ/mol
# Density = 1.877264 g / cm^3
# Si number density = 18.815460 Si / 1000 Ang^3
#
#
#
# Elastic Constant Matrix: (Units=GPa)
#
#
# Indices 1 2 3 4 5 6 
#
# 1 100.6807 30.7598 31.3603 0.0000 -4.2862 0.0000
# 2 30.7598 106.4728 39.3879 0.0000 -4.7809 0.0000
# 3 31.3603 39.3879 93.8111 0.0000 1.2407 0.0000
# 4 0.0000 0.0000 0.0000 32.0083 0.0000 1.9644
# 5 -4.2862 -4.7809 1.2407 0.0000 16.7740 0.0000
# 6 0.0000 0.0000 0.0000 1.9644 0.0000 39.9302
#
#
#
# Elastic Compliance Matrix: (Units=1/GPa)
#
#
# Indices 1 2 3 4 5 6 
#
# 1 0.011636 -0.002123 -0.003033 0.000000 0.002592 0.000000
# 2 -0.002123 0.011718 -0.004251 0.000000 0.003112 0.000000
# 3 -0.003033 -0.004251 0.013498 0.000000 -0.002985 0.000000
# 4 0.000000 0.000000 0.000000 0.031336 0.000000 -0.001542
# 5 0.002592 0.003112 -0.002985 0.000000 0.061386 0.000000
# 6 0.000000 0.000000 0.000000 -0.001542 0.000000 0.025120
#
#
# Mechanical properties :
#
#
# Convention : Reuss Voigt Hill
#
# Bulk Modulus (GPa) = 55.44022 55.99785 55.71903
# Shear Modulus (GPa) = 27.85187 31.03960 29.44574
#
# Velocity S-wave (km/s) = 3.85160 4.06604 3.96027
# Velocity P-wave (km/s) = 7.02203 7.20207 7.11262
#
# Compressibility (1/GPa) = 0.01803745
#
# Stress axis : x y z
#
# Youngs Moduli (GPa) = 85.93949 85.33940 74.08539
#
# Poissons Ratio (x) = 0.18121 0.22467
# Poissons Ratio (y) = 0.18248 0.31496
# Poissons Ratio (z) = 0.26062 0.36280
#
# Static dielectric constant tensor:
#      x y z
#    x 3.259890 0.000000 -0.051190 
#    y 0.000000 3.608430 0.000000 
#    z -0.051190 0.000000 3.423920 
# 
# 
# High freq. dielectric constant tensor:
#      x y z
#    x 1.711150 0.000000 -0.000370 
#    y 0.000000 1.747340 0.000000 
#    z -0.000370 0.000000 1.720700 
# 
# From -- ./inp_files/23119.got.cif
#   From: 2010.06.25/outbox.cif.g09.slc.cpg/sg9_12_cif.got.tgz:23119.got - 2010.06.27 21:40:51.
