data_PCOD8054390
_publ_section_title
;
Structure prediction by ZEFSAII (Michael W. Deem and Ramdas Pophale) SiO2 
 PCOD8054390
Probable space group: C C
;
_chemical_formula_sum "Si O2"
_cell_formula_units_Z 32
_cell_length_a 12.115033
_cell_length_b 17.071804
_cell_length_c 9.469308
_cell_angle_alpha 90.000000
_cell_angle_beta 122.246668
_cell_angle_gamma 90.000000
_cell_volume 1656.413694
_symmetry_space_group_name_H-M "C C"
_symmetry_group_IT_number 9
_symmetry_cell_setting 'monoclinic'
loop_
_space_group_symop_operation_xyz
x,y,z
x,-y,1/2+z
1/2+x,1/2+y,z
1/2+x,1/2-y,1/2+z
loop_
_atom_site_type_symbol
_atom_site_label
_atom_site_fract_x
_atom_site_fract_y
_atom_site_fract_z
Si Si1 0.155570 0.337020 0.709280
Si Si2 0.882555 0.584749 0.056026
Si Si3 0.493497 0.543328 0.039577
Si Si4 0.081948 0.829144 0.072830
Si Si5 0.480062 0.681321 0.817130
Si Si6 0.244303 0.244149 0.022781
Si Si7 0.394239 0.588359 0.274327
Si Si8 0.264242 0.972210 0.201796
O O1 0.121282 0.261424 0.592660
O O2 0.239876 0.394959 0.669191
O O3 0.028499 0.382906 0.677955
O O4 0.247571 0.309149 0.901696
O O5 0.783490 0.657731 0.995607
O O6 0.848570 0.515358 0.140677
O O7 0.867304 0.543477 0.895159
O O8 0.456102 0.611380 0.906706
O O9 0.430116 0.467420 0.928885
O O10 0.429948 0.555397 0.147499
O O11 0.648409 0.532114 0.167216
O O12 0.199970 0.888814 0.113538
O O13 0.026513 0.847233 0.193348
O O14 0.976176 0.834357 0.873632
O O15 0.343237 0.728876 0.713168
O O16 0.591811 0.737007 0.963648
#
# Coordination Sequence:
#
# PCOD8054390 Si02
#       8
#     4   4   4   4   4   4   4   4
#     4  11  22  39  66  89 126 169 213 258 320 385
#     4  12  22  38  64  92 127 163 213 260 323 384
#     4  11  23  40  65  90 122 165 213 264 315 382
#     4  10  19  37  67  87 116 166 211 258 310 383
#     4  11  20  40  68  95 122 164 219 266 317 386
#     4  11  20  39  70  92 118 169 216 261 315 389
#     4  11  23  39  61  91 121 163 214 258 312 385
#     4  11  21  38  61  94 120 159 209 263 314 382
#
# _framework density 19.318846000000001
#
# number of rings (size 3 to 8) (size 9 to 14) (size 15 to 20)
#    0.000    1.000    7.500    3.000    0.000    1.000 
#    2.250    0.000    0.000    0.000    0.000    0.000 
#    0.000    0.000    0.000    0.000    0.000    0.000 
#
# Total GULP energy -198290.185234 kJ/mol
# GULP energy per Si atom -12393.136577 kJ/mol
# Density = 1.927488 g / cm^3
# Si number density = 19.318846 Si / 1000 Ang^3
#
#
#
# Elastic Constant Matrix: (Units=GPa)
#
#
# Indices 1 2 3 4 5 6 
#
# 1 85.0714 43.7397 39.0915 0.0000 12.0806 0.0000
# 2 43.7397 76.4740 36.8367 0.0000 8.0928 0.0000
# 3 39.0915 36.8367 88.5468 0.0000 13.1203 0.0000
# 4 0.0000 0.0000 0.0000 32.4008 0.0000 -4.9248
# 5 12.0806 8.0928 13.1203 0.0000 29.8644 0.0000
# 6 0.0000 0.0000 0.0000 -4.9248 0.0000 21.7504
#
#
#
# Elastic Compliance Matrix: (Units=1/GPa)
#
#
# Indices 1 2 3 4 5 6 
#
# 1 0.018339 -0.008095 -0.004230 0.000000 -0.003366 0.000000
# 2 -0.008095 0.019994 -0.004734 0.000000 -0.000063 0.000000
# 3 -0.004230 -0.004734 0.015709 0.000000 -0.003908 0.000000
# 4 0.000000 0.000000 0.000000 0.031963 0.000000 0.007237
# 5 -0.003366 -0.000063 -0.003908 0.000000 0.036580 0.000000
# 6 0.000000 0.000000 0.000000 0.007237 0.000000 0.047615
#
#
# Mechanical properties :
#
#
# Convention : Reuss Voigt Hill
#
# Bulk Modulus (GPa) = 50.19274 54.38089 52.28682
# Shear Modulus (GPa) = 23.70119 25.49806 24.59962
#
# Velocity S-wave (km/s) = 3.50643 3.63692 3.57227
# Velocity P-wave (km/s) = 6.51391 6.77101 6.64370
#
# Compressibility (1/GPa) = 0.01992320
#
# Stress axis : x y z
#
# Youngs Moduli (GPa) = 54.52968 50.01579 63.65663
#
# Poissons Ratio (x) = 0.40489 0.26924
# Poissons Ratio (y) = 0.44144 0.30137
# Poissons Ratio (z) = 0.23063 0.23679
#
# Static dielectric constant tensor:
#      x y z
#    x 3.369080 0.000000 0.262310 
#    y 0.000000 3.729660 0.000000 
#    z 0.262310 0.000000 3.535720 
# 
# 
# High freq. dielectric constant tensor:
#      x y z
#    x 1.730810 0.000000 0.023280 
#    y 0.000000 1.753850 0.000000 
#    z 0.023280 0.000000 1.747660 
# 
# From -- ./inp_files/8055.got.cif
#   From: 2010.06.25/outbox.cif.g09.slc.cpg/sg9_5_cif.got.tgz:8055.got - 2010.06.27 21:40:51.
