data_PCOD8054693
_publ_section_title
;
Structure prediction by ZEFSAII (Michael W. Deem and Ramdas Pophale) SiO2 
 PCOD8054693
Probable space group: C C
;
_chemical_formula_sum "Si O2"
_cell_formula_units_Z 28
_cell_length_a 7.434766
_cell_length_b 21.942785
_cell_length_c 9.971937
_cell_angle_alpha 90.000000
_cell_angle_beta 131.318119
_cell_angle_gamma 90.000000
_cell_volume 1221.829311
_symmetry_space_group_name_H-M "C C"
_symmetry_group_IT_number 9
_symmetry_cell_setting 'monoclinic'
loop_
_space_group_symop_operation_xyz
x,y,z
x,-y,1/2+z
1/2+x,1/2+y,z
1/2+x,1/2-y,1/2+z
loop_
_atom_site_type_symbol
_atom_site_label
_atom_site_fract_x
_atom_site_fract_y
_atom_site_fract_z
Si Si1 0.689680 0.193063 0.528300
Si Si2 0.802366 0.446188 0.210896
Si Si3 0.355644 0.380432 0.863095
Si Si4 0.391759 0.943689 0.558486
Si Si5 0.662178 0.676636 0.919379
Si Si6 0.451241 0.180060 0.798482
Si Si7 0.205525 0.202755 0.424109
O O1 0.711106 0.165304 0.390679
O O2 0.688476 0.266803 0.532527
O O3 0.432584 0.173010 0.461924
O O4 0.898688 0.170050 0.727773
O O5 0.808615 0.466218 0.370044
O O6 0.865482 0.502354 0.150191
O O7 0.000040 0.391495 0.290056
O O8 0.541772 0.420169 0.042518
O O9 0.474031 0.341739 0.797070
O O10 0.170422 0.424954 0.697992
O O11 0.224662 0.886943 0.523574
O O12 0.867164 0.686860 0.908849
O O13 0.231732 0.202168 0.598218
O O14 0.667276 0.226153 0.864507
#
# Coordination Sequence:
#
# PCOD8054693 Si02
#       7
#     4   4   4   4   4   4   4
#     4  12  22  42  71 110 147 185 241 303 376 450
#     4  10  25  48  69 106 141 200 251 298 365 433
#     4  11  24  47  75 104 153 184 239 320 362 437
#     4  11  25  46  77 102 143 205 251 297 373 432
#     4  11  21  42  71 103 149 191 233 307 377 430
#     4  10  20  41  66  98 147 178 230 298 365 430
#     4  11  23  38  69 107 142 183 235 291 378 434
#
# _framework density 22.916456
#
# number of rings (size 3 to 8) (size 9 to 14) (size 15 to 20)
#    0.000    1.143    5.714    1.714    4.000    3.429 
#    7.714    0.000    0.000    0.000    0.000    0.000 
#    0.000    0.000    0.000    0.000    0.000    0.000 
#
# Total GULP energy -173507.806167 kJ/mol
# GULP energy per Si atom -12393.414726 kJ/mol
# Density = 2.286430 g / cm^3
# Si number density = 22.916456 Si / 1000 Ang^3
#
#
#
# Elastic Constant Matrix: (Units=GPa)
#
#
# Indices 1 2 3 4 5 6 
#
# 1 110.5058 61.4654 35.3029 0.0000 22.7087 0.0000
# 2 61.4654 145.9869 54.7613 0.0000 2.2568 0.0000
# 3 35.3029 54.7613 86.1027 0.0000 4.8117 0.0000
# 4 0.0000 0.0000 0.0000 41.7698 0.0000 -9.4906
# 5 22.7087 2.2568 4.8117 0.0000 29.7998 0.0000
# 6 0.0000 0.0000 0.0000 -9.4906 0.0000 32.6061
#
#
#
# Elastic Compliance Matrix: (Units=1/GPa)
#
#
# Indices 1 2 3 4 5 6 
#
# 1 0.014842 -0.005285 -0.002133 0.000000 -0.010565 0.000000
# 2 -0.005285 0.010880 -0.004977 0.000000 0.004007 0.000000
# 3 -0.002133 -0.004977 0.015683 0.000000 -0.000530 0.000000
# 4 0.000000 0.000000 0.000000 0.025636 0.000000 0.007462
# 5 -0.010565 0.004007 -0.000530 0.000000 0.041391 0.000000
# 6 0.000000 0.000000 0.000000 0.007462 0.000000 0.032841
#
#
# Mechanical properties :
#
#
# Convention : Reuss Voigt Hill
#
# Bulk Modulus (GPa) = 60.18772 71.73939 65.96356
# Shear Modulus (GPa) = 29.13720 33.57285 31.35502
#
# Velocity S-wave (km/s) = 3.56961 3.83170 3.70297
# Velocity P-wave (km/s) = 6.58107 7.13783 6.86510
#
# Compressibility (1/GPa) = 0.01661468
#
# Stress axis : x y z
#
# Youngs Moduli (GPa) = 67.37736 91.91121 63.76134
#
# Poissons Ratio (x) = 0.48578 0.13603
# Poissons Ratio (y) = 0.35611 0.31732
# Poissons Ratio (z) = 0.14374 0.45741
#
# Static dielectric constant tensor:
#      x y z
#    x 3.885700 0.000000 0.034990 
#    y 0.000000 4.343380 0.000000 
#    z 0.034990 0.000000 4.253950 
# 
# 
# High freq. dielectric constant tensor:
#      x y z
#    x 1.883330 0.000000 0.001400 
#    y 0.000000 1.899050 0.000000 
#    z 0.001400 0.000000 1.915230 
# 
# From -- ./inp_files/15510.got.cif
#   From: 2010.06.25/outbox.cif.g09.slc.cpg/sg9_8_cif.got.tgz:15510.got - 2010.06.27 21:40:51.
