data_PCOD8054028
_publ_section_title
;
Structure prediction by ZEFSAII (Michael W. Deem and Ramdas Pophale) SiO2 
 PCOD8054028
Probable space group: C M
;
_chemical_formula_sum "Si O2"
_cell_formula_units_Z 20
_cell_length_a 16.614857
_cell_length_b 9.702759
_cell_length_c 10.938327
_cell_angle_alpha 90.000000
_cell_angle_beta 149.454549
_cell_angle_gamma 90.000000
_cell_volume 896.181481
_symmetry_space_group_name_H-M "C M"
_symmetry_group_IT_number 8
_symmetry_cell_setting 'monoclinic'
loop_
_space_group_symop_operation_xyz
x,y,z
x,-y,z
1/2+x,1/2+y,z
1/2+x,1/2-y,z
loop_
_atom_site_type_symbol
_atom_site_label
_atom_site_fract_x
_atom_site_fract_y
_atom_site_fract_z
Si Si1 0.969681 0.500000 0.338430
Si Si2 0.152888 0.000000 0.480298
Si Si3 0.284239 0.500000 0.048827
Si Si4 0.171124 0.000000 0.773942
Si Si5 0.261484 0.500000 0.537386
Si Si6 0.124948 0.500000 0.089189
Si Si7 0.378463 0.207140 0.674552
Si Si8 0.537882 0.793903 0.633305
O O1 0.119939 0.500000 0.447580
O O2 0.969780 0.362082 0.420926
O O3 0.810866 0.500000 0.053375
O O4 0.239038 0.000000 0.725412
O O5 0.209616 0.863663 0.482781
O O6 0.965617 0.000000 0.248216
O O7 0.204184 0.364704 0.885780
O O8 0.263505 0.500000 0.168349
O O9 0.060010 0.867641 0.644406
O O10 0.199517 0.500000 0.318918
O O11 0.371781 0.367090 0.702879
O O12 0.018013 0.636532 0.934735
O O13 0.409667 0.182984 0.571933
#
# Coordination Sequence:
#
# PCOD8054028 Si02
#       8
#     2   2   2   2   2   2   4   4
#     4  11  25  44  64 101 140 165 222 274 324 390
#     4  11  23  44  70  96 136 173 218 271 335 384
#     4   9  22  43  72  96 132 177 218 271 330 386
#     4  12  26  39  74  98 129 178 220 269 327 388
#     4  12  24  40  71  98 132 168 215 281 323 373
#     4   9  22  46  67  93 133 175 217 266 323 393
#     4  10  23  45  66  97 131 173 221 266 323 391
#     4  10  24  46  69  95 135 175 220 269 324 396
#
# _framework density 22.316908999999999
#
# number of rings (size 3 to 8) (size 9 to 14) (size 15 to 20)
#    0.000    1.600    0.000    4.800    8.400    1.600 
#    3.600    1.000    0.000    0.000    0.000    0.000 
#    0.000    0.000    0.000    0.000    0.000    0.000 
#
# Total GULP energy -124035.764801 kJ/mol
# GULP energy per Si atom -12403.576480 kJ/mol
# Density = 2.226611 g / cm^3
# Si number density = 22.316909 Si / 1000 Ang^3
#
#
#
# Elastic Constant Matrix: (Units=GPa)
#
#
# Indices 1 2 3 4 5 6 
#
# 1 155.0576 60.6402 63.7701 0.0000 6.9295 0.0000
# 2 60.6402 204.3325 65.0749 0.0000 2.5642 0.0000
# 3 63.7701 65.0749 103.0476 0.0000 0.9369 0.0000
# 4 0.0000 0.0000 0.0000 17.3541 0.0000 -0.4855
# 5 6.9295 2.5642 0.9369 0.0000 43.8725 0.0000
# 6 0.0000 0.0000 0.0000 -0.4855 0.0000 10.5555
#
#
#
# Elastic Compliance Matrix: (Units=1/GPa)
#
#
# Indices 1 2 3 4 5 6 
#
# 1 0.008912 -0.001097 -0.004811 0.000000 -0.001241 0.000000
# 2 -0.001097 0.006264 -0.003276 0.000000 -0.000123 0.000000
# 3 -0.004811 -0.003276 0.014745 0.000000 0.000637 0.000000
# 4 0.000000 0.000000 0.000000 0.057698 0.000000 0.002654
# 5 -0.001241 -0.000123 0.000637 0.000000 0.022983 0.000000
# 6 0.000000 0.000000 0.000000 0.002654 0.000000 0.094860
#
#
# Mechanical properties :
#
#
# Convention : Reuss Voigt Hill
#
# Bulk Modulus (GPa) = 86.55875 93.48979 90.02427
# Shear Modulus (GPa) = 21.96053 32.55326 27.25690
#
# Velocity S-wave (km/s) = 3.14033 3.82341 3.49858
# Velocity P-wave (km/s) = 7.21244 7.84055 7.53304
#
# Compressibility (1/GPa) = 0.01155285
#
# Stress axis : x y z
#
# Youngs Moduli (GPa) = 112.20253 159.63149 67.82115
#
# Poissons Ratio (x) = 0.17513 0.32631
# Poissons Ratio (y) = 0.12310 0.22218
# Poissons Ratio (z) = 0.53984 0.52294
#
# Static dielectric constant tensor:
#      x y z
#    x 4.323950 0.000000 -0.117360 
#    y 0.000000 4.491910 0.000000 
#    z -0.117360 0.000000 3.758940 
# 
# 
# High freq. dielectric constant tensor:
#      x y z
#    x 1.900530 0.000000 0.000280 
#    y 0.000000 1.893670 0.000000 
#    z 0.000280 0.000000 1.859360 
# 
# From -- ./inp_files/10229.got.cif
#   From: 2010.03.12/outbox.cif.g09.slc.cpg/sg8_6_cif.got.tgz:10229.got - 2010.03.31 10:45:26.
