data_PCOD8054758
_publ_section_title
;
Structure prediction by ZEFSAII (Michael W. Deem and Ramdas Pophale) SiO2 
 PCOD8054758
Probable space group: C C
;
_chemical_formula_sum "Si O2"
_cell_formula_units_Z 24
_cell_length_a 12.321108
_cell_length_b 7.359293
_cell_length_c 12.832562
_cell_angle_alpha 90.000000
_cell_angle_beta 65.677159
_cell_angle_gamma 90.000000
_cell_volume 1060.306935
_symmetry_space_group_name_H-M "C C"
_symmetry_group_IT_number 9
_symmetry_cell_setting 'monoclinic'
loop_
_space_group_symop_operation_xyz
x,y,z
x,-y,1/2+z
1/2+x,1/2+y,z
1/2+x,1/2-y,1/2+z
loop_
_atom_site_type_symbol
_atom_site_label
_atom_site_fract_x
_atom_site_fract_y
_atom_site_fract_z
Si Si1 0.519580 0.926444 0.187710
Si Si2 0.886195 0.836635 0.460359
Si Si3 0.034911 0.183861 0.363163
Si Si4 0.252574 0.452363 0.703986
Si Si5 0.798420 0.691367 0.285580
Si Si6 0.080636 0.570699 0.433186
O O1 0.620599 0.035790 0.207823
O O2 0.398339 0.041019 0.227237
O O3 0.497518 0.738923 0.259466
O O4 0.575236 0.873422 0.055108
O O5 0.826550 0.818083 0.599816
O O6 0.796733 0.786177 0.401651
O O7 0.989409 0.693058 0.405165
O O8 0.936247 0.040809 0.436882
O O9 0.168870 0.099374 0.316721
O O10 0.038001 0.362096 0.435407
O O11 0.316753 0.648229 0.692189
O O12 0.214855 0.385385 0.835799
#
# Coordination Sequence:
#
# PCOD8054758 Si02
#       6
#     4   4   4   4   4   4
#     4  10  20  45  66  93 136 167 214 273 320 383
#     4  12  23  42  69  98 128 176 217 263 331 384
#     4  10  24  43  65 103 129 166 221 264 325 388
#     4  10  22  39  67  95 129 172 214 268 317 381
#     4  10  21  44  69  95 134 168 211 275 321 383
#     4  10  22  43  64  94 134 167 215 269 318 381
#
# _framework density 22.634955999999999
#
# number of rings (size 3 to 8) (size 9 to 14) (size 15 to 20)
#    0.000    2.000    3.333    3.000    2.333    1.333 
#    6.000    1.667    0.000    0.000    0.000    0.000 
#    0.000    0.000    0.000    0.000    0.000    0.000 
#
# Total GULP energy -148661.346746 kJ/mol
# GULP energy per Si atom -12388.445562 kJ/mol
# Density = 2.258344 g / cm^3
# Si number density = 22.634956 Si / 1000 Ang^3
#
#
#
# Elastic Constant Matrix: (Units=GPa)
#
#
# Indices 1 2 3 4 5 6 
#
# 1 82.8952 43.2724 45.0521 0.0000 -4.6086 0.0000
# 2 43.2724 59.3854 30.6447 0.0000 -14.9141 0.0000
# 3 45.0521 30.6447 148.6777 0.0000 -5.4681 0.0000
# 4 0.0000 0.0000 0.0000 21.2800 0.0000 -6.9636
# 5 -4.6086 -14.9141 -5.4681 0.0000 31.2783 0.0000
# 6 0.0000 0.0000 0.0000 -6.9636 0.0000 32.6935
#
#
#
# Elastic Compliance Matrix: (Units=1/GPa)
#
#
# Indices 1 2 3 4 5 6 
#
# 1 0.021635 -0.015057 -0.003622 0.000000 -0.004625 0.000000
# 2 -0.015057 0.031777 -0.001521 0.000000 0.012667 0.000000
# 3 -0.003622 -0.001521 0.008143 0.000000 0.000164 0.000000
# 4 0.000000 0.000000 0.000000 0.050513 0.000000 0.010759
# 5 -0.004625 0.012667 0.000164 0.000000 0.037358 0.000000
# 6 0.000000 0.000000 0.000000 0.010759 0.000000 0.032879
#
#
# Mechanical properties :
#
#
# Convention : Reuss Voigt Hill
#
# Bulk Modulus (GPa) = 47.27276 58.76628 53.01952
# Shear Modulus (GPa) = 21.76199 28.51631 25.13915
#
# Velocity S-wave (km/s) = 3.10406 3.55327 3.33623
# Velocity P-wave (km/s) = 5.81181 6.54624 6.18993
#
# Compressibility (1/GPa) = 0.02115383
#
# Stress axis : x y z
#
# Youngs Moduli (GPa) = 46.22143 31.46923 122.80135
#
# Poissons Ratio (x) = 0.47383 0.44484
# Poissons Ratio (y) = 0.69596 0.18682
# Poissons Ratio (z) = 0.16743 0.04787
#
# Static dielectric constant tensor:
#      x y z
#    x 4.134060 0.000000 0.205260 
#    y 0.000000 3.675630 0.000000 
#    z 0.205260 0.000000 4.464480 
# 
# 
# High freq. dielectric constant tensor:
#      x y z
#    x 1.900460 0.000000 0.006410 
#    y 0.000000 1.866110 0.000000 
#    z 0.006410 0.000000 1.900810 
# 
# From -- ./inp_files/24011.got.cif
#   From: 2010.06.25/outbox.cif.g09.slc.cpg/sg9_13_cif.got.tgz:24011.got - 2010.06.27 21:40:51.
