data_PCOD8054807
_publ_section_title
;
Structure prediction by ZEFSAII (Michael W. Deem and Ramdas Pophale) SiO2 
 PCOD8054807
Probable space group: C C
;
_chemical_formula_sum "Si O2"
_cell_formula_units_Z 32
_cell_length_a 7.361243
_cell_length_b 12.791212
_cell_length_c 16.736401
_cell_angle_alpha 90.000000
_cell_angle_beta 118.710318
_cell_angle_gamma 90.000000
_cell_volume 1382.146458
_symmetry_space_group_name_H-M "C C"
_symmetry_group_IT_number 9
_symmetry_cell_setting 'monoclinic'
loop_
_space_group_symop_operation_xyz
x,y,z
x,-y,1/2+z
1/2+x,1/2+y,z
1/2+x,1/2-y,1/2+z
loop_
_atom_site_type_symbol
_atom_site_label
_atom_site_fract_x
_atom_site_fract_y
_atom_site_fract_z
Si Si1 0.342610 0.828914 0.909500
Si Si2 0.825652 0.830641 0.653399
Si Si3 0.471132 0.807087 0.331172
Si Si4 0.552406 0.016664 0.736906
Si Si5 0.366809 0.155724 0.093791
Si Si6 0.091333 0.312725 0.111014
Si Si7 0.982194 0.015278 0.292143
Si Si8 0.640509 0.689712 0.889284
O O1 0.497868 0.794273 0.869669
O O2 0.208669 0.724432 0.898862
O O3 0.191653 0.924989 0.860037
O O4 0.482441 0.868113 0.012671
O O5 0.878315 0.767609 0.744681
O O6 0.579762 0.829322 0.590504
O O7 0.915013 0.948683 0.687851
O O8 0.936984 0.782371 0.601002
O O9 0.460967 0.928405 0.297538
O O10 0.351457 0.785324 0.387826
O O11 0.619146 0.107332 0.688429
O O12 0.382696 0.940960 0.659871
O O13 0.772712 0.958509 0.801156
O O14 0.310219 0.260019 0.132467
O O15 0.190931 0.141010 0.988112
O O16 0.021168 0.892531 0.308092
#
# Coordination Sequence:
#
# PCOD8054807 Si02
#       8
#     4   4   4   4   4   4   4   4
#     4  10  21  41  59  90 124 169 206 267 322 378
#     4   9  21  37  57  87 116 158 208 264 306 377
#     4  10  21  37  62  87 123 163 211 263 317 376
#     4  10  21  41  62  94 128 165 217 268 315 388
#     4  10  22  38  60  89 124 165 210 259 322 381
#     4  10  21  38  65  84 125 167 210 259 326 375
#     4  10  21  38  61  86 126 157 210 263 313 377
#     4  11  22  38  62  89 124 166 210 263 325 384
#
# _framework density 23.152394000000001
#
# number of rings (size 3 to 8) (size 9 to 14) (size 15 to 20)
#    0.000    2.000    1.250    1.500    3.500    0.000 
#    4.500    0.000    2.750    0.000    0.000    0.000 
#    0.000    0.000    0.000    0.000    0.000    0.000 
#
# Total GULP energy -198232.758607 kJ/mol
# GULP energy per Si atom -12389.547413 kJ/mol
# Density = 2.309970 g / cm^3
# Si number density = 23.152394 Si / 1000 Ang^3
#
#
#
# Elastic Constant Matrix: (Units=GPa)
#
#
# Indices 1 2 3 4 5 6 
#
# 1 107.5403 12.5633 25.7710 0.0000 -1.1949 0.0000
# 2 12.5633 52.0179 18.7044 0.0000 3.2561 0.0000
# 3 25.7710 18.7044 57.6889 0.0000 4.6160 0.0000
# 4 0.0000 0.0000 0.0000 32.0653 0.0000 4.1015
# 5 -1.1949 3.2561 4.6160 0.0000 31.8022 0.0000
# 6 0.0000 0.0000 0.0000 4.1015 0.0000 37.2454
#
#
#
# Elastic Compliance Matrix: (Units=1/GPa)
#
#
# Indices 1 2 3 4 5 6 
#
# 1 0.010496 -0.001005 -0.004455 0.000000 0.001144 0.000000
# 2 -0.001005 0.021904 -0.006547 0.000000 -0.001330 0.000000
# 3 -0.004455 -0.006547 0.021658 0.000000 -0.002641 0.000000
# 4 0.000000 0.000000 0.000000 0.031632 0.000000 -0.003483
# 5 0.001144 -0.001330 -0.002641 0.000000 0.032007 0.000000
# 6 0.000000 0.000000 0.000000 -0.003483 0.000000 0.027233
#
#
# Mechanical properties :
#
#
# Convention : Reuss Voigt Hill
#
# Bulk Modulus (GPa) = 33.28182 36.81384 35.04783
# Shear Modulus (GPa) = 27.93949 30.90314 29.42132
#
# Velocity S-wave (km/s) = 3.47762 3.65742 3.56865
# Velocity P-wave (km/s) = 5.52553 5.81126 5.67019
#
# Compressibility (1/GPa) = 0.03004644
#
# Stress axis : x y z
#
# Youngs Moduli (GPa) = 95.27007 45.65348 46.17166
#
# Poissons Ratio (x) = 0.04588 0.20568
# Poissons Ratio (y) = 0.09573 0.30227
# Poissons Ratio (z) = 0.42440 0.29888
#
# Static dielectric constant tensor:
#      x y z
#    x 4.292800 0.000000 0.113490 
#    y 0.000000 4.194890 0.000000 
#    z 0.113490 0.000000 3.958730 
# 
# 
# High freq. dielectric constant tensor:
#      x y z
#    x 1.920860 0.000000 0.016920 
#    y 0.000000 1.901010 0.000000 
#    z 0.016920 0.000000 1.903600 
# 
# From -- ./inp_files/28572.got.cif
#   From: 2010.06.25/outbox.cif.g09.slc.cpg/sg9_15_cif.got.tgz:28572.got - 2010.06.27 21:40:51.
