data_PCOD8054300
_publ_section_title
;
Structure prediction by ZEFSAII (Michael W. Deem and Ramdas Pophale) SiO2 
 PCOD8054300
Probable space group: C C
;
_chemical_formula_sum "Si O2"
_cell_formula_units_Z 28
_cell_length_a 17.509650
_cell_length_b 16.081890
_cell_length_c 5.089079
_cell_angle_alpha 90.000000
_cell_angle_beta 113.365408
_cell_angle_gamma 90.000000
_cell_volume 1315.508621
_symmetry_space_group_name_H-M "C C"
_symmetry_group_IT_number 9
_symmetry_cell_setting 'monoclinic'
loop_
_space_group_symop_operation_xyz
x,y,z
x,-y,1/2+z
1/2+x,1/2+y,z
1/2+x,1/2-y,1/2+z
loop_
_atom_site_type_symbol
_atom_site_label
_atom_site_fract_x
_atom_site_fract_y
_atom_site_fract_z
Si Si1 0.196100 0.444027 0.355730
Si Si2 0.412196 0.723024 0.813991
Si Si3 0.076946 0.303049 0.105021
Si Si4 0.146943 0.222649 0.689422
Si Si5 0.148642 0.967581 0.232611
Si Si6 0.807886 0.208050 0.159332
Si Si7 0.466802 0.458388 0.449205
O O1 0.201702 0.517728 0.573335
O O2 0.107725 0.394393 0.240216
O O3 0.271023 0.380849 0.521427
O O4 0.377900 0.702282 0.478423
O O5 0.457877 0.639708 0.975307
O O6 0.480408 0.797375 0.885258
O O7 0.344009 0.748941 0.940233
O O8 0.083028 0.244363 0.369996
O O9 0.135234 0.277219 0.937309
O O10 0.131788 0.128682 0.757432
O O11 0.238244 0.233462 0.692073
O O12 0.199938 0.012072 0.536994
O O13 0.063814 0.018550 0.050762
O O14 0.422024 0.506654 0.627151
#
# Coordination Sequence:
#
# PCOD8054300 Si02
#       7
#     4   4   4   4   4   4   4
#     4  11  23  42  64  90 122 166 218 262 313 375
#     4  12  23  38  59  92 126 156 200 253 317 377
#     4  11  22  39  66  88 117 167 217 263 300 363
#     4  11  21  41  61  85 124 167 215 247 296 385
#     4  10  19  32  55  84 113 149 193 243 289 345
#     4  11  25  39  60  88 125 166 196 252 320 375
#     4  10  19  31  49  81 117 147 179 228 295 356
#
# _framework density 21.284541999999998
#
# number of rings (size 3 to 8) (size 9 to 14) (size 15 to 20)
#    0.000    1.143    0.000   10.286    0.000    3.429 
#    0.000    0.000    0.000    5.143    0.000    0.000 
#    0.000    0.000    0.000    0.000    0.000    0.000 
#
# Total GULP energy -173506.707663 kJ/mol
# GULP energy per Si atom -12393.336262 kJ/mol
# Density = 2.123610 g / cm^3
# Si number density = 21.284542 Si / 1000 Ang^3
#
#
#
# Elastic Constant Matrix: (Units=GPa)
#
#
# Indices 1 2 3 4 5 6 
#
# 1 74.6172 14.5388 25.0207 0.0000 -2.0625 0.0000
# 2 14.5388 48.0786 26.0327 0.0000 5.6144 0.0000
# 3 25.0207 26.0327 122.1238 0.0000 -20.0573 0.0000
# 4 0.0000 0.0000 0.0000 31.7538 0.0000 -4.0525
# 5 -2.0625 5.6144 -20.0573 0.0000 43.0353 0.0000
# 6 0.0000 0.0000 0.0000 -4.0525 0.0000 30.9692
#
#
#
# Elastic Compliance Matrix: (Units=1/GPa)
#
#
# Indices 1 2 3 4 5 6 
#
# 1 0.014815 -0.003215 -0.002344 0.000000 0.000037 0.000000
# 2 -0.003215 0.025655 -0.005831 0.000000 -0.006219 0.000000
# 3 -0.002344 -0.005831 0.010849 0.000000 0.005705 0.000000
# 4 0.000000 0.000000 0.000000 0.032027 0.000000 0.004191
# 5 0.000037 -0.006219 0.005705 0.000000 0.026709 0.000000
# 6 0.000000 0.000000 0.000000 0.004191 0.000000 0.032839
#
#
# Mechanical properties :
#
#
# Convention : Reuss Voigt Hill
#
# Bulk Modulus (GPa) = 35.04116 41.77821 38.40969
# Shear Modulus (GPa) = 28.54088 33.10014 30.82051
#
# Velocity S-wave (km/s) = 3.66583 3.94779 3.80942
# Velocity P-wave (km/s) = 5.86657 6.36012 6.11832
#
# Compressibility (1/GPa) = 0.02853787
#
# Stress axis : x y z
#
# Youngs Moduli (GPa) = 67.49833 38.97827 92.17766
#
# Poissons Ratio (x) = 0.12533 0.21605
# Poissons Ratio (y) = 0.21703 0.53753
# Poissons Ratio (z) = 0.15821 0.22730
#
# Static dielectric constant tensor:
#      x y z
#    x 4.048140 0.000000 -0.736960 
#    y 0.000000 3.565680 0.000000 
#    z -0.736960 0.000000 4.913540 
# 
# 
# High freq. dielectric constant tensor:
#      x y z
#    x 1.815840 0.000000 -0.032020 
#    y 0.000000 1.810450 0.000000 
#    z -0.032020 0.000000 1.860540 
# 
# From -- ./inp_files/2387.got.cif
#   From: 2010.06.25/outbox.cif.g09.slc.cpg/sg9_2_cif.got.tgz:2387.got - 2010.06.27 21:40:51.
