data_PCOD8054207
_publ_section_title
;
Structure prediction by ZEFSAII (Michael W. Deem and Ramdas Pophale) SiO2 
 PCOD8054207
Probable space group: C C
;
_chemical_formula_sum "Si O2"
_cell_formula_units_Z 32
_cell_length_a 37.519720
_cell_length_b 7.152705
_cell_length_c 5.327991
_cell_angle_alpha 90.000000
_cell_angle_beta 106.979356
_cell_angle_gamma 90.000000
_cell_volume 1367.532040
_symmetry_space_group_name_H-M "C C"
_symmetry_group_IT_number 9
_symmetry_cell_setting 'monoclinic'
loop_
_space_group_symop_operation_xyz
x,y,z
x,-y,1/2+z
1/2+x,1/2+y,z
1/2+x,1/2-y,1/2+z
loop_
_atom_site_type_symbol
_atom_site_label
_atom_site_fract_x
_atom_site_fract_y
_atom_site_fract_z
Si Si1 0.782820 0.383988 0.908450
Si Si2 0.558039 0.777192 0.979647
Si Si3 0.440344 0.293531 0.722914
Si Si4 0.706615 0.788028 0.315189
Si Si5 0.471465 0.287385 0.286586
Si Si6 0.365221 0.881167 0.127300
Si Si7 0.088645 0.691911 0.042580
Si Si8 0.675572 0.801890 0.751502
O O1 0.778150 0.461218 0.616538
O O2 0.751076 0.229841 0.884535
O O3 0.823855 0.291775 0.021012
O O4 0.578167 0.693085 0.269298
O O5 0.565038 0.000010 0.987403
O O6 0.515485 0.717506 0.904633
O O7 0.576277 0.691142 0.763478
O O8 0.453201 0.188149 0.492944
O O9 0.455122 0.503691 0.729596
O O10 0.395576 0.283622 0.657114
O O11 0.459339 0.188358 0.000745
O O12 0.690874 0.689809 0.538956
O O13 0.697680 0.005088 0.325283
O O14 0.685432 0.693835 0.031435
O O15 0.370645 0.969487 0.414489
O O16 0.132255 0.650336 0.138342
#
# Coordination Sequence:
#
# PCOD8054207 Si02
#       8
#     4   4   4   4   4   4   4   4
#     4  10  21  37  58  83 114 154 189 226 276 337
#     4  10  18  32  50  80 109 140 190 233 282 328
#     4  10  21  40  57  81 110 152 181 225 297 336
#     4  10  18  32  54  85 115 144 180 236 282 322
#     4  10  21  37  57  80 114 144 186 226 284 360
#     4  10  21  40  60  85 113 143 193 242 276 338
#     4  10  19  33  53  84 110 148 190 240 283 317
#     4  10  19  33  55  88 115 143 187 242 276 324
#
# _framework density 23.399816999999999
#
# number of rings (size 3 to 8) (size 9 to 14) (size 15 to 20)
#    0.000    2.000    0.000    6.000    0.000    0.000 
#   13.500    5.000    0.000    0.000  110.500    0.000 
#    0.000    0.000    0.000    0.000    0.000    0.000 
#
# Total GULP energy -198240.355035 kJ/mol
# GULP energy per Si atom -12390.022190 kJ/mol
# Density = 2.334656 g / cm^3
# Si number density = 23.399817 Si / 1000 Ang^3
#
#
#
# Elastic Constant Matrix: (Units=GPa)
#
#
# Indices 1 2 3 4 5 6 
#
# 1 173.6475 20.4087 56.7269 0.0000 7.4994 0.0000
# 2 20.4087 29.5885 -9.0431 0.0000 17.6271 0.0000
# 3 56.7269 -9.0431 181.0570 0.0000 -39.4978 0.0000
# 4 0.0000 0.0000 0.0000 4.4490 0.0000 21.4892
# 5 7.4994 17.6271 -39.4978 0.0000 72.9060 0.0000
# 6 0.0000 0.0000 0.0000 21.4892 0.0000 42.2966
#
#
#
# Elastic Compliance Matrix: (Units=1/GPa)
#
#
# Indices 1 2 3 4 5 6 
#
# 1 0.007334 -0.005329 -0.002775 0.000000 -0.000970 0.000000
# 2 -0.005329 0.043359 0.001891 0.000000 -0.008910 0.000000
# 3 -0.002775 0.001891 0.007314 0.000000 0.003791 0.000000
# 4 0.000000 0.000000 0.000000 -0.154588 0.000000 0.078540
# 5 -0.000970 -0.008910 0.003791 0.000000 0.018024 0.000000
# 6 0.000000 0.000000 0.000000 0.078540 0.000000 -0.016260
#
#
# Mechanical properties :
#
#
# Convention : Reuss Voigt Hill
#
# Bulk Modulus (GPa) = 21.93902 57.83088 39.88495
# Shear Modulus (GPa) = -74.40740 45.01035 -14.69853
#
# Velocity S-wave (km/s) = -5.64511 4.39057 -2.50901
# Velocity P-wave (km/s) = 5.75271 7.10427 2.94763
#
# Compressibility (1/GPa) = 0.04558088
#
# Stress axis : x y z
#
# Youngs Moduli (GPa) = 136.35805 23.06321 136.72256
#
# Poissons Ratio (x) = 0.12290 0.37945
# Poissons Ratio (y) = 0.72666 -0.25860
# Poissons Ratio (z) = 0.37844 -0.04362
#
# Static dielectric constant tensor:
#      x y z
#    x 5.044270 0.000000 -1.389710 
#    y 0.000000 3.396470 0.000000 
#    z -1.389710 0.000000 6.701270 
# 
# 
# High freq. dielectric constant tensor:
#      x y z
#    x 1.943690 0.000000 -0.020320 
#    y 0.000000 1.862580 0.000000 
#    z -0.020320 0.000000 1.967860 
# 
# From -- ./inp_files/3469.got.cif
#   From: 2010.06.25/outbox.cif.g09.slc.cpg/sg9_2_cif.got.tgz:3469.got - 2010.06.27 21:40:51.
