data_PCOD8054690
_publ_section_title
;
Structure prediction by ZEFSAII (Michael W. Deem and Ramdas Pophale) SiO2 
 PCOD8054690
Probable space group: C C
;
_chemical_formula_sum "Si O2"
_cell_formula_units_Z 32
_cell_length_a 29.894143
_cell_length_b 8.784900
_cell_length_c 9.649320
_cell_angle_alpha 90.000000
_cell_angle_beta 34.229214
_cell_angle_gamma 90.000000
_cell_volume 1425.430474
_symmetry_space_group_name_H-M "C C"
_symmetry_group_IT_number 9
_symmetry_cell_setting 'monoclinic'
loop_
_space_group_symop_operation_xyz
x,y,z
x,-y,1/2+z
1/2+x,1/2+y,z
1/2+x,1/2-y,1/2+z
loop_
_atom_site_type_symbol
_atom_site_label
_atom_site_fract_x
_atom_site_fract_y
_atom_site_fract_z
Si Si1 0.346210 0.159900 0.511890
Si Si2 0.911610 0.667266 0.853568
Si Si3 0.445272 0.672068 0.988132
Si Si4 0.112844 0.262703 0.490374
Si Si5 0.350922 0.356964 0.239992
Si Si6 0.570539 0.105642 0.576671
Si Si7 0.680277 0.218490 0.513525
Si Si8 0.189698 0.619933 0.039157
O O1 0.396721 0.220587 0.510186
O O2 0.377512 0.251473 0.298254
O O3 0.363415 0.983864 0.438426
O O4 0.252168 0.172442 0.783937
O O5 0.948938 0.743572 0.624215
O O6 0.977741 0.636557 0.801071
O O7 0.855858 0.788127 0.072676
O O8 0.399876 0.512753 0.121173
O O9 0.537234 0.648885 0.702419
O O10 0.080053 0.432387 0.600827
O O11 0.151815 0.234807 0.240760
O O12 0.181016 0.252507 0.437443
O O13 0.255047 0.362523 0.493700
O O14 0.606162 0.227660 0.596124
O O15 0.606375 0.123988 0.332124
O O16 0.711116 0.045728 0.422388
#
# Coordination Sequence:
#
# PCOD8054690 Si02
#       8
#     4   4   4   4   4   4   4   4
#     4  12  25  44  69 107 142 186 238 293 356 421
#     4  12  27  45  71 102 145 188 236 297 361 422
#     4  12  25  44  69 107 142 186 238 293 356 421
#     4  10  22  38  71 102 139 183 235 284 343 421
#     4  12  27  45  71 102 145 188 236 297 361 422
#     4  10  20  41  66 100 137 188 237 279 343 428
#     4  10  22  38  71 102 139 183 235 284 343 421
#     4  10  20  41  66 100 137 188 237 279 343 428
#
# _framework density 22.449359000000001
#
# number of rings (size 3 to 8) (size 9 to 14) (size 15 to 20)
#    0.000    1.000    5.000    1.500    3.500    0.000 
#    0.000    2.500    0.000    0.000    0.000    0.000 
#    0.000    0.000    0.000    0.000    0.000    0.000 
#
# Total GULP energy -198335.106421 kJ/mol
# GULP energy per Si atom -12395.944151 kJ/mol
# Density = 2.239826 g / cm^3
# Si number density = 22.449359 Si / 1000 Ang^3
#
#
#
# Elastic Constant Matrix: (Units=GPa)
#
#
# Indices 1 2 3 4 5 6 
#
# 1 112.5745 26.7705 30.3535 0.0000 -1.6420 0.0000
# 2 26.7705 86.8744 35.1020 0.0000 -2.8099 0.0000
# 3 30.3535 35.1020 101.5736 0.0000 4.2303 0.0000
# 4 0.0000 0.0000 0.0000 22.8459 0.0000 1.7225
# 5 -1.6420 -2.8099 4.2303 0.0000 43.1110 0.0000
# 6 0.0000 0.0000 0.0000 1.7225 0.0000 24.4591
#
#
#
# Elastic Compliance Matrix: (Units=1/GPa)
#
#
# Indices 1 2 3 4 5 6 
#
# 1 0.010013 -0.002155 -0.002267 0.000000 0.000463 0.000000
# 2 -0.002155 0.013919 -0.004218 0.000000 0.001239 0.000000
# 3 -0.002267 -0.004218 0.012044 0.000000 -0.001543 0.000000
# 4 0.000000 0.000000 0.000000 0.044005 0.000000 -0.003099
# 5 0.000463 0.001239 -0.001543 0.000000 0.023446 0.000000
# 6 0.000000 0.000000 0.000000 -0.003099 0.000000 0.041103
#
#
# Mechanical properties :
#
#
# Convention : Reuss Voigt Hill
#
# Bulk Modulus (GPa) = 53.48223 53.94162 53.71192
# Shear Modulus (GPa) = 29.75433 32.00295 30.87864
#
# Velocity S-wave (km/s) = 3.64455 3.77976 3.71277
# Velocity P-wave (km/s) = 6.44869 6.56727 6.50825
#
# Compressibility (1/GPa) = 0.01869780
#
# Stress axis : x y z
#
# Youngs Moduli (GPa) = 99.86612 71.84327 83.02576
#
# Poissons Ratio (x) = 0.15480 0.18822
# Poissons Ratio (y) = 0.21518 0.35020
# Poissons Ratio (z) = 0.22640 0.30303
#
# Static dielectric constant tensor:
#      x y z
#    x 4.249740 0.000000 -0.053620 
#    y 0.000000 3.757750 0.000000 
#    z -0.053620 0.000000 3.946540 
# 
# 
# High freq. dielectric constant tensor:
#      x y z
#    x 1.907070 0.000000 0.004170 
#    y 0.000000 1.849920 0.000000 
#    z 0.004170 0.000000 1.893300 
# 
# From -- ./inp_files/12422.got.cif
#   From: 2010.06.25/outbox.cif.g09.slc.cpg/sg9_7_cif.got.tgz:12422.got - 2010.06.27 21:40:51.
