data_PCOD8054568
_publ_section_title
;
Structure prediction by ZEFSAII (Michael W. Deem and Ramdas Pophale) SiO2 
 PCOD8054568
Probable space group: C C
;
_chemical_formula_sum "Si O2"
_cell_formula_units_Z 32
_cell_length_a 22.934035
_cell_length_b 7.581513
_cell_length_c 20.197706
_cell_angle_alpha 90.000000
_cell_angle_beta 22.747129
_cell_angle_gamma 90.000000
_cell_volume 1357.916246
_symmetry_space_group_name_H-M "C C"
_symmetry_group_IT_number 9
_symmetry_cell_setting 'monoclinic'
loop_
_space_group_symop_operation_xyz
x,y,z
x,-y,1/2+z
1/2+x,1/2+y,z
1/2+x,1/2-y,1/2+z
loop_
_atom_site_type_symbol
_atom_site_label
_atom_site_fract_x
_atom_site_fract_y
_atom_site_fract_z
Si Si1 0.264290 0.150660 0.331860
Si Si2 0.526239 0.273439 0.811580
Si Si3 0.308061 0.918528 0.444663
Si Si4 0.910610 0.324362 0.190382
Si Si5 0.220994 0.319140 0.549179
Si Si6 0.227709 0.462053 0.818687
Si Si7 0.986671 0.199611 0.700617
Si Si8 0.244035 0.524915 0.652518
O O1 0.231610 0.324616 0.323272
O O2 0.408863 0.182136 0.226695
O O3 0.119497 0.089417 0.526901
O O4 0.318902 0.969363 0.239507
O O5 0.424614 0.133441 0.879749
O O6 0.639855 0.353282 0.638712
O O7 0.624485 0.183149 0.767450
O O8 0.417873 0.417386 0.959728
O O9 0.357131 0.840463 0.322428
O O10 0.295550 0.128201 0.460940
O O11 0.873875 0.129286 0.199616
O O12 0.087380 0.364135 0.999107
O O13 0.360903 0.429863 0.367676
O O14 0.198359 0.374003 0.647838
O O15 0.066869 0.335179 0.669384
O O16 0.226887 0.433392 0.741115
#
# Coordination Sequence:
#
# PCOD8054568 Si02
#       8
#     4   4   4   4   4   4   4   4
#     4  11  23  45  70 102 141 191 232 301 366 420
#     4  10  25  44  71  99 143 183 231 306 363 415
#     4  11  21  43  70 107 139 174 234 308 366 421
#     4  12  27  46  74 110 145 191 242 307 365 433
#     4  11  21  38  71  99 134 178 237 290 360 422
#     4  12  30  48  70 108 147 203 246 290 356 449
#     4  10  20  37  73  98 133 178 232 297 370 418
#     4  11  27  47  69 103 140 198 238 291 354 446
#
# _framework density 23.565518999999998
#
# number of rings (size 3 to 8) (size 9 to 14) (size 15 to 20)
#    0.000    1.000    3.750    2.250    3.500    8.000 
#    2.250    0.000    0.000    0.000    0.000    0.000 
#    0.000    0.000    0.000    0.000    0.000    0.000 
#
# Total GULP energy -198225.471785 kJ/mol
# GULP energy per Si atom -12389.091987 kJ/mol
# Density = 2.351188 g / cm^3
# Si number density = 23.565519 Si / 1000 Ang^3
#
#
#
# Elastic Constant Matrix: (Units=GPa)
#
#
# Indices 1 2 3 4 5 6 
#
# 1 111.8454 12.0234 44.3073 -0.0030 6.4604 -0.0007
# 2 12.0234 49.0600 3.4844 -0.0187 8.3924 0.0013
# 3 44.3073 3.4844 122.3176 -0.0078 -14.3416 0.0014
# 4 -0.0030 -0.0187 -0.0078 27.5493 0.0034 1.0233
# 5 6.4604 8.3924 -14.3416 0.0034 36.8920 0.0000
# 6 -0.0007 0.0013 0.0014 1.0233 0.0000 29.1046
#
#
#
# Elastic Compliance Matrix: (Units=1/GPa)
#
#
# Indices 1 2 3 4 5 6 
#
# 1 0.011035 -0.001852 -0.004318 -0.000001 -0.003190 0.000001
# 2 -0.001852 0.021696 -0.000511 0.000015 -0.004810 -0.000002
# 3 -0.004318 -0.000511 0.010327 0.000002 0.004887 -0.000001
# 4 -0.000001 0.000015 0.000002 0.036346 -0.000006 -0.001278
# 5 -0.003190 -0.004810 0.004887 -0.000006 0.030659 0.000000
# 6 0.000001 -0.000002 -0.000001 -0.001278 0.000000 0.034404
#
#
# Mechanical properties :
#
#
# Convention : Reuss Voigt Hill
#
# Bulk Modulus (GPa) = 33.67543 44.76145 39.21844
# Shear Modulus (GPa) = 29.81002 33.60305 31.70653
#
# Velocity S-wave (km/s) = 3.56052 3.78026 3.67203
# Velocity P-wave (km/s) = 5.58786 6.17167 5.88701
#
# Compressibility (1/GPa) = 0.02969524
#
# Stress axis : x y z
#
# Youngs Moduli (GPa) = 90.62069 46.09099 96.83065
#
# Poissons Ratio (x) = 0.08536 0.41816
# Poissons Ratio (y) = 0.16783 0.04949
# Poissons Ratio (z) = 0.39134 0.02356
#
# Static dielectric constant tensor:
#      x y z
#    x 4.008140 -0.000010 -0.278540 
#    y -0.000010 4.326420 0.000020 
#    z -0.278540 0.000020 4.879860 
# 
# 
# High freq. dielectric constant tensor:
#      x y z
#    x 1.914640 0.000000 -0.022090 
#    y 0.000000 1.922580 0.000000 
#    z -0.022090 0.000000 1.960020 
# 
# From -- ./inp_files/34502.got.cif
#   From: 2010.06.25/outbox.cif.g09.slc.cpg/sg9_18_cif.got.tgz:34502.got - 2010.06.27 21:40:51.
