data_PCOD8054847
_publ_section_title
;
Structure prediction by ZEFSAII (Michael W. Deem and Ramdas Pophale) SiO2 
 PCOD8054847
Probable space group: C C
;
_chemical_formula_sum "Si O2"
_cell_formula_units_Z 24
_cell_length_a 9.031174
_cell_length_b 5.400957
_cell_length_c 17.895719
_cell_angle_alpha 90.000000
_cell_angle_beta 79.117001
_cell_angle_gamma 90.000000
_cell_volume 857.199886
_symmetry_space_group_name_H-M "C C"
_symmetry_group_IT_number 9
_symmetry_cell_setting 'monoclinic'
loop_
_space_group_symop_operation_xyz
x,y,z
x,-y,1/2+z
1/2+x,1/2+y,z
1/2+x,1/2-y,1/2+z
loop_
_atom_site_type_symbol
_atom_site_label
_atom_site_fract_x
_atom_site_fract_y
_atom_site_fract_z
Si Si1 0.404270 0.933576 0.471000
Si Si2 0.259892 0.433612 0.421646
Si Si3 0.247423 0.063668 0.256963
Si Si4 0.416137 0.563218 0.635616
Si Si5 0.428867 0.346218 0.785288
Si Si6 0.734668 0.346626 0.107285
O O1 0.310594 0.179059 0.454644
O O2 0.582092 0.979975 0.446412
O O3 0.346046 0.930170 0.564354
O O4 0.353681 0.679060 0.437927
O O5 0.317739 0.430338 0.328266
O O6 0.332003 0.250114 0.196321
O O7 0.092184 0.153918 0.311528
O O8 0.350162 0.922007 0.309067
O O9 0.199368 0.854891 0.199297
O O10 0.463940 0.354161 0.693266
O O11 0.571402 0.653091 0.580981
O O12 0.313135 0.421850 0.583578
#
# Coordination Sequence:
#
# PCOD8054847 Si02
#       6
#     4   4   4   4   4   4
#     4  12  28  47  73 102 142 192 235 286 345 417
#     4  12  28  47  73 102 142 192 235 286 345 417
#     4  10  21  38  66  92 127 167 217 287 343 394
#     4  10  21  38  66  92 127 167 217 287 343 394
#     4  10  23  39  61  97 127 170 227 276 342 406
#     4  10  23  39  61  97 127 170 227 276 342 406
#
# _framework density 27.998138999999998
#
# number of rings (size 3 to 8) (size 9 to 14) (size 15 to 20)
#    0.000    1.333    0.000    4.000    9.333    0.000 
#    0.000    0.000    0.000    0.000    0.000    0.000 
#    0.000    0.000    0.000    0.000    0.000    0.000 
#
# Total GULP energy -148684.839617 kJ/mol
# GULP energy per Si atom -12390.403301 kJ/mol
# Density = 2.793441 g / cm^3
# Si number density = 27.998139 Si / 1000 Ang^3
#
#
#
# Elastic Constant Matrix: (Units=GPa)
#
#
# Indices 1 2 3 4 5 6 
#
# 1 232.5613 61.1851 22.8317 0.0000 -74.4397 0.0000
# 2 61.1851 104.2847 0.3633 0.0000 -7.2813 0.0000
# 3 22.8317 0.3633 107.8519 0.0000 -32.5804 0.0000
# 4 0.0000 0.0000 0.0000 34.6215 0.0000 13.2274
# 5 -74.4397 -7.2813 -32.5804 0.0000 39.8106 0.0000
# 6 0.0000 0.0000 0.0000 13.2274 0.0000 64.9355
#
#
#
# Elastic Compliance Matrix: (Units=1/GPa)
#
#
# Indices 1 2 3 4 5 6 
#
# 1 0.017919 -0.007852 0.007865 0.000000 0.038506 0.000000
# 2 -0.007852 0.013191 -0.002775 0.000000 -0.014540 0.000000
# 3 0.007865 -0.002775 0.015816 0.000000 0.027143 0.000000
# 4 0.000000 0.000000 0.000000 0.031321 0.000000 -0.006380
# 5 0.038506 -0.014540 0.027143 0.000000 0.116674 0.000000
# 6 0.000000 0.000000 0.000000 -0.006380 0.000000 0.016700
#
#
# Mechanical properties :
#
#
# Convention : Reuss Voigt Hill
#
# Bulk Modulus (GPa) = 24.15328 68.16202 46.15765
# Shear Modulus (GPa) = 21.65030 51.89469 36.77249
#
# Velocity S-wave (km/s) = 2.78380 4.30991 3.62800
# Velocity P-wave (km/s) = 4.35640 7.01178 5.83709
#
# Compressibility (1/GPa) = 0.04140225
#
# Stress axis : x y z
#
# Youngs Moduli (GPa) = 55.80672 75.81211 63.22846
#
# Poissons Ratio (x) = 0.59529 -0.49731
# Poissons Ratio (y) = 0.43820 0.17543
# Poissons Ratio (z) = -0.43894 0.21035
#
# Static dielectric constant tensor:
#      x y z
#    x 6.399210 0.000000 0.397520 
#    y 0.000000 5.612060 0.000000 
#    z 0.397520 0.000000 8.321180 
# 
# 
# High freq. dielectric constant tensor:
#      x y z
#    x 2.142620 0.000000 -0.007640 
#    y 0.000000 2.143210 0.000000 
#    z -0.007640 0.000000 2.156750 
# 
# From -- ./inp_files/32249.got.cif
#   From: 2010.06.25/outbox.cif.g09.slc.cpg/sg9_17_cif.got.tgz:32249.got - 2010.06.27 21:40:51.
