data_PCOD8054364
_publ_section_title
;
Structure prediction by ZEFSAII (Michael W. Deem and Ramdas Pophale) SiO2 
 PCOD8054364
Probable space group: C C
;
_chemical_formula_sum "Si O2"
_cell_formula_units_Z 32
_cell_length_a 9.303006
_cell_length_b 17.801619
_cell_length_c 12.190427
_cell_angle_alpha 90.000000
_cell_angle_beta 133.232180
_cell_angle_gamma 90.000000
_cell_volume 1470.893991
_symmetry_space_group_name_H-M "C C"
_symmetry_group_IT_number 9
_symmetry_cell_setting 'monoclinic'
loop_
_space_group_symop_operation_xyz
x,y,z
x,-y,1/2+z
1/2+x,1/2+y,z
1/2+x,1/2-y,1/2+z
loop_
_atom_site_type_symbol
_atom_site_label
_atom_site_fract_x
_atom_site_fract_y
_atom_site_fract_z
Si Si1 0.320550 0.238857 0.311780
Si Si2 0.886918 0.813321 0.933175
Si Si3 0.387362 0.709863 0.073757
Si Si4 0.975112 0.588495 0.484589
Si Si5 0.791427 0.631461 0.606779
Si Si6 0.390582 0.633033 0.676434
Si Si7 0.607884 0.162626 0.092783
Si Si8 0.806272 0.562247 0.847493
O O1 0.277270 0.287200 0.399280
O O2 0.462622 0.170386 0.420329
O O3 0.412998 0.294341 0.268789
O O4 0.118365 0.198583 0.168391
O O5 0.689944 0.819330 0.756685
O O6 0.834141 0.836400 0.028028
O O7 0.053078 0.869426 0.971413
O O8 0.967911 0.728884 0.974507
O O9 0.368051 0.784112 0.137860
O O10 0.286771 0.647134 0.098894
O O11 0.883942 0.582964 0.558184
O O12 0.851499 0.526093 0.353338
O O13 0.211995 0.577453 0.619413
O O14 0.854491 0.600472 0.757237
O O15 0.588720 0.582736 0.778422
O O16 0.467338 0.089880 0.021640
#
# Coordination Sequence:
#
# PCOD8054364 Si02
#       8
#     4   4   4   4   4   4   4   4
#     4  11  21  40  67  97 133 166 231 289 337 385
#     4  10  22  37  67  99 133 174 229 295 331 410
#     4  10  19  36  69  98 120 174 226 288 324 408
#     4  11  25  43  70  97 141 178 235 286 350 417
#     4   9  19  44  64  93 135 175 229 279 338 420
#     4  11  25  45  66 100 141 176 235 293 347 406
#     4  11  21  37  66  96 136 178 232 272 357 410
#     4  11  26  44  67  98 143 189 221 286 364 428
#
# _framework density 21.755476999999999
#
# number of rings (size 3 to 8) (size 9 to 14) (size 15 to 20)
#    0.000    1.500    2.500    5.250    3.500    3.000 
#    2.250    1.250    0.000    0.000    0.000    0.000 
#    0.000    0.000    0.000    0.000    0.000    0.000 
#
# Total GULP energy -198314.469441 kJ/mol
# GULP energy per Si atom -12394.654340 kJ/mol
# Density = 2.170596 g / cm^3
# Si number density = 21.755477 Si / 1000 Ang^3
#
#
#
# Elastic Constant Matrix: (Units=GPa)
#
#
# Indices 1 2 3 4 5 6 
#
# 1 130.2492 43.3418 45.1651 0.0000 -1.5538 0.0001
# 2 43.3418 66.6569 34.6218 0.0000 -0.9399 0.0000
# 3 45.1651 34.6218 120.6471 0.0002 -2.7268 0.0002
# 4 0.0000 0.0000 0.0002 25.4047 0.0001 2.4402
# 5 -1.5538 -0.9399 -2.7268 0.0001 32.8521 0.0001
# 6 0.0001 0.0000 0.0002 2.4402 0.0001 21.0745
#
#
#
# Elastic Compliance Matrix: (Units=1/GPa)
#
#
# Indices 1 2 3 4 5 6 
#
# 1 0.010303 -0.005518 -0.002270 0.000000 0.000141 0.000000
# 2 -0.005518 0.020585 -0.003841 0.000000 0.000009 0.000000
# 3 -0.002270 -0.003841 0.010255 0.000000 0.000634 0.000000
# 4 0.000000 0.000000 0.000000 0.039806 0.000000 -0.004609
# 5 0.000141 0.000009 0.000634 0.000000 0.030499 0.000000
# 6 0.000000 0.000000 0.000000 -0.004609 0.000000 0.047984
#
#
# Mechanical properties :
#
#
# Convention : Reuss Voigt Hill
#
# Bulk Modulus (GPa) = 55.91549 62.64562 59.28056
# Shear Modulus (GPa) = 26.50374 28.82790 27.66582
#
# Velocity S-wave (km/s) = 3.49414 3.64412 3.56992
# Velocity P-wave (km/s) = 6.48354 6.82378 6.65584
#
# Compressibility (1/GPa) = 0.01788413
#
# Stress axis : x y z
#
# Youngs Moduli (GPa) = 97.06269 48.57807 97.51125
#
# Poissons Ratio (x) = 0.26805 0.22137
# Poissons Ratio (y) = 0.53558 0.37459
# Poissons Ratio (z) = 0.22035 0.18661
#
# Static dielectric constant tensor:
#      x y z
#    x 4.194240 0.000000 0.128310 
#    y 0.000000 3.629630 0.000000 
#    z 0.128310 0.000000 3.880780 
# 
# 
# High freq. dielectric constant tensor:
#      x y z
#    x 1.869850 0.000000 0.006360 
#    y 0.000000 1.811110 0.000000 
#    z 0.006360 0.000000 1.859860 
# 
# From -- ./inp_files/15410.got.cif
#   From: 2010.06.25/outbox.cif.g09.slc.cpg/sg9_8_cif.got.tgz:15410.got - 2010.06.27 21:40:51.
