data_PCOD8054420
_publ_section_title
;
Structure prediction by ZEFSAII (Michael W. Deem and Ramdas Pophale) SiO2 
 PCOD8054420
Probable space group: C C
;
_chemical_formula_sum "Si O2"
_cell_formula_units_Z 32
_cell_length_a 9.426987
_cell_length_b 10.729470
_cell_length_c 16.750039
_cell_angle_alpha 90.000000
_cell_angle_beta 97.386874
_cell_angle_gamma 90.000000
_cell_volume 1680.148216
_symmetry_space_group_name_H-M "C C"
_symmetry_group_IT_number 9
_symmetry_cell_setting 'monoclinic'
loop_
_space_group_symop_operation_xyz
x,y,z
x,-y,1/2+z
1/2+x,1/2+y,z
1/2+x,1/2-y,1/2+z
loop_
_atom_site_type_symbol
_atom_site_label
_atom_site_fract_x
_atom_site_fract_y
_atom_site_fract_z
Si Si1 0.498740 0.105867 0.259680
Si Si2 0.909416 0.059309 0.500870
Si Si3 0.256184 0.163344 0.365810
Si Si4 0.687047 0.858522 0.482086
Si Si5 0.940044 0.312811 0.579736
Si Si6 0.021020 0.346486 0.319545
Si Si7 0.193426 0.932159 0.463242
Si Si8 0.757176 0.216429 0.362169
O O1 0.394502 0.157871 0.320603
O O2 0.444286 0.158975 0.172828
O O3 0.656605 0.152082 0.290988
O O4 0.512211 0.955769 0.253363
O O5 0.901811 0.167319 0.566528
O O6 0.862097 0.116376 0.412288
O O7 0.060774 0.987752 0.503727
O O8 0.794088 0.961097 0.522155
O O9 0.277227 0.243940 0.449198
O O10 0.126593 0.229937 0.305748
O O11 0.223369 0.024058 0.391525
O O12 0.596637 0.819777 0.552142
O O13 0.577132 0.910137 0.406559
O O14 0.828665 0.409996 0.531670
O O15 0.859388 0.303869 0.318192
O O16 0.164970 0.797527 0.419621
#
# Coordination Sequence:
#
# PCOD8054420 Si02
#       8
#     4   4   4   4   4   4   4   4
#     4  12  24  38  61  92 128 157 197 259 314 349
#     4  11  20  39  63  87 115 155 210 249 288 366
#     4  10  19  39  64  86 114 156 209 247 285 368
#     4  10  19  41  64  83 118 158 203 251 291 359
#     4  11  25  40  57  93 130 157 196 258 311 357
#     4  10  20  38  60  88 114 154 204 247 291 362
#     4  11  19  39  66  86 114 159 210 243 291 367
#     4  11  20  36  63  91 111 158 205 250 299 354
#
# _framework density 19.045939000000001
#
# number of rings (size 3 to 8) (size 9 to 14) (size 15 to 20)
#    0.750    0.500    7.500    0.750    0.000    2.000 
#    0.000    1.250    0.000    0.000    0.000    0.000 
#    0.000    0.000    0.000    0.000    0.000    0.000 
#
# Total GULP energy -198262.798963 kJ/mol
# GULP energy per Si atom -12391.424935 kJ/mol
# Density = 1.900259 g / cm^3
# Si number density = 19.045939 Si / 1000 Ang^3
#
#
#
# Elastic Constant Matrix: (Units=GPa)
#
#
# Indices 1 2 3 4 5 6 
#
# 1 90.4856 39.3037 30.2844 0.0000 -2.0459 0.0000
# 2 39.3037 81.6470 19.6508 0.0000 -0.0165 0.0000
# 3 30.2844 19.6508 62.0836 0.0000 1.9419 0.0000
# 4 0.0000 0.0000 0.0000 20.0202 0.0000 5.8710
# 5 -2.0459 -0.0165 1.9419 0.0000 19.7574 0.0000
# 6 0.0000 0.0000 0.0000 5.8710 0.0000 34.6788
#
#
#
# Elastic Compliance Matrix: (Units=1/GPa)
#
#
# Indices 1 2 3 4 5 6 
#
# 1 0.015718 -0.006174 -0.005781 0.000000 0.002191 0.000000
# 2 -0.006174 0.015687 -0.001940 0.000000 -0.000436 0.000000
# 3 -0.005781 -0.001940 0.019621 0.000000 -0.002529 0.000000
# 4 0.000000 0.000000 0.000000 0.052559 0.000000 -0.008898
# 5 0.002191 -0.000436 -0.002529 0.000000 0.051089 0.000000
# 6 0.000000 0.000000 0.000000 -0.008898 0.000000 0.030342
#
#
# Mechanical properties :
#
#
# Convention : Reuss Voigt Hill
#
# Bulk Modulus (GPa) = 43.03993 45.85488 44.44741
# Shear Modulus (GPa) = 22.67043 24.55644 23.61344
#
# Velocity S-wave (km/s) = 3.45382 3.59462 3.52492
# Velocity P-wave (km/s) = 6.20904 6.43091 6.32095
#
# Compressibility (1/GPa) = 0.02323424
#
# Stress axis : x y z
#
# Youngs Moduli (GPa) = 63.62153 63.74740 50.96706
#
# Poissons Ratio (x) = 0.39361 0.29466
# Poissons Ratio (y) = 0.39283 0.09886
# Poissons Ratio (z) = 0.36782 0.12365
#
# Static dielectric constant tensor:
#      x y z
#    x 3.487280 0.000000 0.001590 
#    y 0.000000 3.667150 0.000000 
#    z 0.001590 0.000000 3.034290 
# 
# 
# High freq. dielectric constant tensor:
#      x y z
#    x 1.746860 0.000000 -0.004530 
#    y 0.000000 1.752150 0.000000 
#    z -0.004530 0.000000 1.695080 
# 
# From -- ./inp_files/29182.got.cif
#   From: 2010.06.25/outbox.cif.g09.slc.cpg/sg9_15_cif.got.tgz:29182.got - 2010.06.27 21:40:51.
