data_PCOD8054164
_publ_section_title
;
Structure prediction by ZEFSAII (Michael W. Deem and Ramdas Pophale) SiO2 
 PCOD8054164
Probable space group: C C
;
_chemical_formula_sum "Si O2"
_cell_formula_units_Z 20
_cell_length_a 23.669594
_cell_length_b 8.410166
_cell_length_c 5.260093
_cell_angle_alpha 90.000000
_cell_angle_beta 90.119279
_cell_angle_gamma 90.000000
_cell_volume 1047.099273
_symmetry_space_group_name_H-M "C C"
_symmetry_group_IT_number 9
_symmetry_cell_setting 'monoclinic'
loop_
_space_group_symop_operation_xyz
x,y,z
x,-y,1/2+z
1/2+x,1/2+y,z
1/2+x,1/2-y,1/2+z
loop_
_atom_site_type_symbol
_atom_site_label
_atom_site_fract_x
_atom_site_fract_y
_atom_site_fract_z
Si Si1 0.317910 0.689096 0.604990
Si Si2 0.437303 0.599395 0.557990
Si Si3 0.061729 0.102824 0.616386
Si Si4 0.770514 0.836756 0.604394
Si Si5 0.138626 0.404122 0.600215
O O1 0.385409 0.722012 0.599583
O O2 0.306116 0.499695 0.608664
O O3 0.286947 0.763306 0.356945
O O4 0.289901 0.764867 0.857698
O O5 0.432002 0.538171 0.269460
O O6 0.498791 0.680213 0.595256
O O7 0.107757 0.237311 0.579463
O O8 0.070257 0.974018 0.393671
O O9 0.704962 0.873958 0.593235
O O10 0.120521 0.510443 0.360072
#
# Coordination Sequence:
#
# PCOD8054164 Si02
#       5
#     4   4   4   4   4
#     4  10  14  25  43  74 105 119 158 230 275 279
#     4  10  16  27  47  68 102 126 169 212 268 295
#     4  10  23  38  52  78 112 149 178 215 269 322
#     4  10  16  25  44  77 104 120 161 227 274 284
#     4  12  21  35  56  81 111 140 184 222 262 320
#
# _framework density 19.100384999999999
#
# number of rings (size 3 to 8) (size 9 to 14) (size 15 to 20)
#    0.000    1.600    8.000    1.200    0.000    0.000 
#    0.000    0.000    0.000    0.000    0.000    8.400 
#    0.000    0.000    0.000    0.000    0.000    0.000 
#
# Total GULP energy -123918.461769 kJ/mol
# GULP energy per Si atom -12391.846177 kJ/mol
# Density = 1.905691 g / cm^3
# Si number density = 19.100385 Si / 1000 Ang^3
#
#
#
# Elastic Constant Matrix: (Units=GPa)
#
#
# Indices 1 2 3 4 5 6 
#
# 1 81.4448 32.0565 25.7095 0.0000 -3.0905 0.0000
# 2 32.0565 26.0825 8.3881 0.0000 -0.0756 0.0000
# 3 25.7095 8.3881 151.6057 0.0000 10.0745 0.0000
# 4 0.0000 0.0000 0.0000 13.0269 0.0000 1.7463
# 5 -3.0905 -0.0756 10.0745 0.0000 26.4657 0.0000
# 6 0.0000 0.0000 0.0000 1.7463 0.0000 -0.2847
#
#
#
# Elastic Compliance Matrix: (Units=1/GPa)
#
#
# Indices 1 2 3 4 5 6 
#
# 1 0.025113 -0.029933 -0.002864 0.000000 0.003937 0.000000
# 2 -0.029933 0.074735 0.001189 0.000000 -0.003735 0.000000
# 3 -0.002864 0.001189 0.007221 0.000000 -0.003080 0.000000
# 4 0.000000 0.000000 0.000000 0.042122 0.000000 0.258411
# 5 0.003937 -0.003735 -0.003080 0.000000 0.039406 0.000000
# 6 0.000000 0.000000 0.000000 0.258411 0.000000 -1.927634
#
#
# Mechanical properties :
#
#
# Convention : Reuss Voigt Hill
#
# Bulk Modulus (GPa) = 22.80315 43.49346 33.14830
# Shear Modulus (GPa) = -3.00987 20.70685 8.84849
#
# Velocity S-wave (km/s) = -1.25668 3.29615 2.15469
# Velocity P-wave (km/s) = 3.13988 6.10791 4.85620
#
# Compressibility (1/GPa) = 0.04385359
#
# Stress axis : x y z
#
# Youngs Moduli (GPa) = 39.81962 13.38057 138.49200
#
# Poissons Ratio (x) = 0.40052 0.39667
# Poissons Ratio (y) = 1.19191 -0.16469
# Poissons Ratio (z) = 0.11405 -0.01591
#
# Static dielectric constant tensor:
#      x y z
#    x 3.781940 0.000000 0.189020 
#    y 0.000000 2.625060 0.000000 
#    z 0.189020 0.000000 5.999200 
# 
# 
# High freq. dielectric constant tensor:
#      x y z
#    x 1.761720 0.000000 0.002060 
#    y 0.000000 1.640590 0.000000 
#    z 0.002060 0.000000 1.786460 
# 
# From -- ./inp_files/3096.got.cif
#   From: 2010.06.25/outbox.cif.g09.slc.cpg/sg9_2_cif.got.tgz:3096.got - 2010.06.27 21:40:51.
