data_PCOD8054813
_publ_section_title
;
Structure prediction by ZEFSAII (Michael W. Deem and Ramdas Pophale) SiO2 
 PCOD8054813
Probable space group: C C
;
_chemical_formula_sum "Si O2"
_cell_formula_units_Z 32
_cell_length_a 15.179929
_cell_length_b 9.016420
_cell_length_c 12.349859
_cell_angle_alpha 90.000000
_cell_angle_beta 63.601951
_cell_angle_gamma 90.000000
_cell_volume 1514.054437
_symmetry_space_group_name_H-M "C C"
_symmetry_group_IT_number 9
_symmetry_cell_setting 'monoclinic'
loop_
_space_group_symop_operation_xyz
x,y,z
x,-y,1/2+z
1/2+x,1/2+y,z
1/2+x,1/2-y,1/2+z
loop_
_atom_site_type_symbol
_atom_site_label
_atom_site_fract_x
_atom_site_fract_y
_atom_site_fract_z
Si Si1 0.112360 0.706586 0.238010
Si Si2 0.033462 0.434795 0.372362
Si Si3 0.583371 0.284044 0.010654
Si Si4 0.285138 0.103515 0.355612
Si Si5 0.359711 0.785689 0.385733
Si Si6 0.353344 0.696031 0.626144
Si Si7 0.314873 0.629879 0.202279
Si Si8 0.922747 0.287139 0.958431
O O1 0.097584 0.527589 0.252084
O O2 0.114174 0.758306 0.115762
O O3 0.218041 0.731549 0.235296
O O4 0.021455 0.786274 0.350331
O O5 0.098488 0.366760 0.433143
O O6 0.976983 0.306314 0.337578
O O7 0.950462 0.542303 0.473788
O O8 0.470895 0.337654 0.061830
O O9 0.665920 0.396770 0.920440
O O10 0.326632 0.167485 0.219573
O O11 0.331836 0.209108 0.423564
O O12 0.315213 0.933818 0.356609
O O13 0.314635 0.741089 0.527394
O O14 0.345646 0.650703 0.310155
O O15 0.299038 0.545079 0.691467
O O16 0.398815 0.691093 0.076448
#
# Coordination Sequence:
#
# PCOD8054813 Si02
#       8
#     4   4   4   4   4   4   4   4
#     4  10  21  37  64  93 122 176 224 260 322 395
#     4   8  20  38  61  91 125 172 220 258 322 398
#     4  11  20  39  66  95 129 169 220 278 326 380
#     4  11  22  42  71  94 128 177 221 273 325 397
#     4  10  25  43  68  93 132 179 220 266 341 398
#     4  11  26  44  65 100 140 165 223 280 333 391
#     4  12  25  41  67  97 137 172 218 280 333 390
#     4   9  21  38  64  91 127 174 222 261 324 393
#
# _framework density 21.135304000000001
#
# number of rings (size 3 to 8) (size 9 to 14) (size 15 to 20)
#    0.750    1.000    2.500    0.750    8.750    2.000 
#    0.000    7.500    0.000    0.000    0.000    0.000 
#    0.000    0.000    0.000    0.000    0.000    0.000 
#
# Total GULP energy -198237.794628 kJ/mol
# GULP energy per Si atom -12389.862164 kJ/mol
# Density = 2.108720 g / cm^3
# Si number density = 21.135304 Si / 1000 Ang^3
#
#
#
# Elastic Constant Matrix: (Units=GPa)
#
#
# Indices 1 2 3 4 5 6 
#
# 1 86.3299 16.9133 50.4359 0.0000 -4.7217 0.0000
# 2 16.9133 71.4659 40.9949 0.0000 13.5697 0.0000
# 3 50.4359 40.9949 115.4533 0.0000 14.1296 0.0000
# 4 0.0000 0.0000 0.0000 14.8723 0.0000 25.0336
# 5 -4.7217 13.5697 14.1296 0.0000 46.3970 0.0000
# 6 0.0000 0.0000 0.0000 25.0336 0.0000 7.9563
#
#
#
# Elastic Compliance Matrix: (Units=1/GPa)
#
#
# Indices 1 2 3 4 5 6 
#
# 1 0.016229 -0.000320 -0.007468 0.000000 0.004019 0.000000
# 2 -0.000320 0.018099 -0.005853 0.000000 -0.003543 0.000000
# 3 -0.007468 -0.005853 0.014423 0.000000 -0.003441 0.000000
# 4 0.000000 0.000000 0.000000 -0.015651 0.000000 0.049245
# 5 0.004019 -0.003543 -0.003441 0.000000 0.024046 0.000000
# 6 0.000000 0.000000 0.000000 0.049245 0.000000 -0.029256
#
#
# Mechanical properties :
#
#
# Convention : Reuss Voigt Hill
#
# Bulk Modulus (GPa) = 46.57908 54.43749 50.50829
# Shear Modulus (GPa) = 80.22088 24.83879 52.52983
#
# Velocity S-wave (km/s) = 6.16752 3.43188 4.99079
# Velocity P-wave (km/s) = 8.53253 6.44331 7.56043
#
# Compressibility (1/GPa) = 0.02146886
#
# Stress axis : x y z
#
# Youngs Moduli (GPa) = 61.61830 55.25267 69.33292
#
# Poissons Ratio (x) = 0.01769 0.51777
# Poissons Ratio (y) = 0.01973 0.40580
# Poissons Ratio (z) = 0.46016 0.32339
#
# Static dielectric constant tensor:
#      x y z
#    x 3.883000 0.000000 -0.013190 
#    y 0.000000 3.544820 0.000000 
#    z -0.013190 0.000000 3.746590 
# 
# 
# High freq. dielectric constant tensor:
#      x y z
#    x 1.833240 0.000000 0.000640 
#    y 0.000000 1.802940 0.000000 
#    z 0.000640 0.000000 1.825290 
# 
# From -- ./inp_files/17889.got.cif
#   From: 2010.06.25/outbox.cif.g09.slc.cpg/sg9_9_cif.got.tgz:17889.got - 2010.06.27 21:40:51.
