data_PCOD8054169
_publ_section_title
;
Structure prediction by ZEFSAII (Michael W. Deem and Ramdas Pophale) SiO2 
 PCOD8054169
Probable space group: C C
;
_chemical_formula_sum "Si O2"
_cell_formula_units_Z 20
_cell_length_a 22.860446
_cell_length_b 7.232055
_cell_length_c 5.346236
_cell_angle_alpha 90.000000
_cell_angle_beta 76.379574
_cell_angle_gamma 90.000000
_cell_volume 859.025190
_symmetry_space_group_name_H-M "C C"
_symmetry_group_IT_number 9
_symmetry_cell_setting 'monoclinic'
loop_
_space_group_symop_operation_xyz
x,y,z
x,-y,1/2+z
1/2+x,1/2+y,z
1/2+x,1/2-y,1/2+z
loop_
_atom_site_type_symbol
_atom_site_label
_atom_site_fract_x
_atom_site_fract_y
_atom_site_fract_z
Si Si1 0.826790 0.197194 0.929420
Si Si2 0.968167 0.803282 0.281237
Si Si3 0.018035 0.214911 0.231038
Si Si4 0.150211 0.120238 0.088658
Si Si5 0.776701 0.787307 0.979834
O O1 0.897458 0.161679 0.852628
O O2 0.805130 0.306651 0.702219
O O3 0.792029 0.003118 0.970106
O O4 0.807165 0.305780 0.201793
O O5 0.989059 0.692998 0.510071
O O6 0.002472 0.997857 0.244804
O O7 0.988735 0.693129 0.010018
O O8 0.089702 0.242225 0.161048
O O9 0.152792 0.984576 0.322315
O O10 0.205276 0.262404 0.047487
#
# Coordination Sequence:
#
# PCOD8054169 Si02
#       5
#     4   4   4   4   4
#     4  10  19  35  52  80 102 126 176 212 264 306
#     4  10  16  28  51  71 103 113 158 228 264 295
#     4  10  16  27  43  72 100 128 149 202 269 295
#     4  12  21  34  47  74 118 138 172 197 247 330
#     4  10  20  32  51  71 109 139 163 211 250 306
#
# _framework density 23.282205000000001
#
# number of rings (size 3 to 8) (size 9 to 14) (size 15 to 20)
#    0.000    1.600    4.000    7.200    0.000    0.000 
#    0.000    0.000    0.000    0.000    0.000    0.000 
#  204.000    0.000    0.000    0.000    0.000    0.000 
#
# Total GULP energy -123928.364318 kJ/mol
# GULP energy per Si atom -12392.836432 kJ/mol
# Density = 2.322921 g / cm^3
# Si number density = 23.282205 Si / 1000 Ang^3
#
#
#
# Elastic Constant Matrix: (Units=GPa)
#
#
# Indices 1 2 3 4 5 6 
#
# 1 215.8783 20.8998 84.9982 0.0000 -10.9444 0.0000
# 2 20.8998 20.7067 -1.1723 0.0000 -6.5445 0.0000
# 3 84.9982 -1.1723 238.8274 0.0000 32.0691 0.0000
# 4 0.0000 0.0000 0.0000 -3.2397 0.0000 -7.9961
# 5 -10.9444 -6.5445 32.0691 0.0000 63.2497 0.0000
# 6 0.0000 0.0000 0.0000 -7.9961 0.0000 20.3133
#
#
#
# Elastic Compliance Matrix: (Units=1/GPa)
#
#
# Indices 1 2 3 4 5 6 
#
# 1 0.006277 -0.005928 -0.002497 0.000000 0.001739 0.000000
# 2 -0.005928 0.055575 0.001876 0.000000 0.003774 0.000000
# 3 -0.002497 0.001876 0.005491 0.000000 -0.003022 0.000000
# 4 0.000000 0.000000 0.000000 -0.156560 0.000000 -0.061628
# 5 0.001739 0.003774 -0.003022 0.000000 0.018034 0.000000
# 6 0.000000 0.000000 0.000000 -0.061628 0.000000 0.024970
#
#
# Mechanical properties :
#
#
# Convention : Reuss Voigt Hill
#
# Bulk Modulus (GPa) = 18.43448 76.09596 47.26522
# Shear Modulus (GPa) = -332.56921 40.77711 -145.89605
#
# Velocity S-wave (km/s) = -11.96465 4.18955 -7.92466
# Velocity P-wave (km/s) = 13.52536 7.49388 7.96169
#
# Compressibility (1/GPa) = 0.05424616
#
# Stress axis : x y z
#
# Youngs Moduli (GPa) = 159.30525 17.99359 182.12826
#
# Poissons Ratio (x) = 0.10666 0.45471
# Poissons Ratio (y) = 0.94430 -0.34162
# Poissons Ratio (z) = 0.39773 -0.03375
#
# Static dielectric constant tensor:
#      x y z
#    x 4.849550 0.000000 1.787870 
#    y 0.000000 3.189930 0.000000 
#    z 1.787870 0.000000 9.365890 
# 
# 
# High freq. dielectric constant tensor:
#      x y z
#    x 1.934580 0.000000 0.013470 
#    y 0.000000 1.844060 0.000000 
#    z 0.013470 0.000000 1.968920 
# 
# From -- ./inp_files/2829.got.cif
#   From: 2010.06.25/outbox.cif.g09.slc.cpg/sg9_2_cif.got.tgz:2829.got - 2010.06.27 21:40:51.
