data_PCOD8054812
_publ_section_title
;
Structure prediction by ZEFSAII (Michael W. Deem and Ramdas Pophale) SiO2 
 PCOD8054812
Probable space group: C C
;
_chemical_formula_sum "Si O2"
_cell_formula_units_Z 28
_cell_length_a 12.263904
_cell_length_b 19.549573
_cell_length_c 14.644710
_cell_angle_alpha 90.000000
_cell_angle_beta 160.659562
_cell_angle_gamma 90.000000
_cell_volume 1162.817209
_symmetry_space_group_name_H-M "C C"
_symmetry_group_IT_number 9
_symmetry_cell_setting 'monoclinic'
loop_
_space_group_symop_operation_xyz
x,y,z
x,-y,1/2+z
1/2+x,1/2+y,z
1/2+x,1/2-y,1/2+z
loop_
_atom_site_type_symbol
_atom_site_label
_atom_site_fract_x
_atom_site_fract_y
_atom_site_fract_z
Si Si1 0.489250 0.424813 0.551860
Si Si2 0.302544 0.680580 0.139330
Si Si3 0.375192 0.899528 0.172503
Si Si4 0.958628 0.934599 0.131508
Si Si5 0.248220 0.787635 0.329337
Si Si6 0.708917 0.712551 0.295037
Si Si7 0.208626 0.950892 0.530447
O O1 0.577268 0.498473 0.668036
O O2 0.725107 0.368009 0.785120
O O3 0.531634 0.416620 0.476864
O O4 0.106001 0.404853 0.264695
O O5 0.582962 0.654581 0.430056
O O6 0.465858 0.726540 0.189361
O O7 0.114789 0.616209 0.946182
O O8 0.024458 0.725552 0.969651
O O9 0.210095 0.971088 0.062775
O O10 0.166636 0.868120 0.266869
O O11 0.000858 0.943637 0.273576
O O12 0.575973 0.921134 0.807023
O O13 0.422942 0.758977 0.558897
O O14 0.068556 0.742399 0.600199
#
# Coordination Sequence:
#
# PCOD8054812 Si02
#       7
#     4   4   4   4   4   4   4
#     4  10  24  44  69  96 134 178 223 275 337 398
#     4  11  21  38  63  95 132 169 211 266 341 407
#     4  10  21  37  63  99 130 166 215 275 328 397
#     4  11  26  45  68  99 131 171 229 283 327 401
#     4  12  25  44  68  97 132 177 221 278 344 398
#     4  11  22  38  58  91 129 164 210 266 318 387
#     4  11  23  42  67  97 132 175 225 277 335 390
#
# _framework density 24.079450000000001
#
# number of rings (size 3 to 8) (size 9 to 14) (size 15 to 20)
#    0.000    1.143    0.000    7.714    0.000    9.143 
#    0.000    5.714    0.000    0.000    0.000    0.000 
#    0.000    0.000    0.000    0.000    0.000    0.000 
#
# Total GULP energy -173547.881964 kJ/mol
# GULP energy per Si atom -12396.277283 kJ/mol
# Density = 2.402464 g / cm^3
# Si number density = 24.079450 Si / 1000 Ang^3
#
#
#
# Elastic Constant Matrix: (Units=GPa)
#
#
# Indices 1 2 3 4 5 6 
#
# 1 79.7648 5.8765 12.2263 -0.0032 -6.0733 0.0066
# 2 5.8765 107.7320 34.9202 -0.0372 1.0976 -0.0106
# 3 12.2263 34.9202 101.6522 -0.0249 -18.4148 0.0229
# 4 -0.0032 -0.0372 -0.0249 42.7945 0.0278 -1.1647
# 5 -6.0733 1.0976 -18.4148 0.0278 28.6657 0.0196
# 6 0.0066 -0.0106 0.0229 -1.1647 0.0196 24.1402
#
#
#
# Elastic Compliance Matrix: (Units=1/GPa)
#
#
# Indices 1 2 3 4 5 6 
#
# 1 0.012883 -0.000387 -0.001041 -0.000001 0.002076 -0.000004
# 2 -0.000387 0.010700 -0.004208 0.000009 -0.003195 0.000012
# 3 -0.001041 -0.004208 0.012898 -0.000002 0.008227 -0.000021
# 4 -0.000001 0.000009 -0.000002 0.023398 -0.000025 0.001129
# 5 0.002076 -0.003195 0.008227 -0.000025 0.040732 -0.000044
# 6 -0.000004 0.000012 -0.000021 0.001129 -0.000044 0.041479
#
#
# Mechanical properties :
#
#
# Convention : Reuss Voigt Hill
#
# Bulk Modulus (GPa) = 39.66543 43.91058 41.78800
# Shear Modulus (GPa) = 30.90914 34.86183 32.88548
#
# Velocity S-wave (km/s) = 3.58667 3.80910 3.69956
# Velocity P-wave (km/s) = 5.80179 6.13359 5.97000
#
# Compressibility (1/GPa) = 0.02521087
#
# Stress axis : x y z
#
# Youngs Moduli (GPa) = 77.62232 93.45881 77.52856
#
# Poissons Ratio (x) = 0.03613 0.08068
# Poissons Ratio (y) = 0.03001 0.32624
# Poissons Ratio (z) = 0.08078 0.39327
#
# Static dielectric constant tensor:
#      x y z
#    x 4.175880 -0.000050 -0.252150 
#    y -0.000050 4.279070 -0.000010 
#    z -0.252150 -0.000010 4.441860 
# 
# 
# High freq. dielectric constant tensor:
#      x y z
#    x 1.929030 0.000000 -0.018520 
#    y 0.000000 1.961690 -0.000010 
#    z -0.018520 -0.000010 1.962270 
# 
# From -- ./inp_files/25099.got.cif
#   From: 2010.06.25/outbox.cif.g09.slc.cpg/sg9_13_cif.got.tgz:25099.got - 2010.06.27 21:40:51.
