data_PCOD8054442
_publ_section_title
;
Structure prediction by ZEFSAII (Michael W. Deem and Ramdas Pophale) SiO2 
 PCOD8054442
Probable space group: C C
;
_chemical_formula_sum "Si O2"
_cell_formula_units_Z 32
_cell_length_a 22.219511
_cell_length_b 9.106504
_cell_length_c 14.036149
_cell_angle_alpha 90.000000
_cell_angle_beta 145.777082
_cell_angle_gamma 90.000000
_cell_volume 1597.314361
_symmetry_space_group_name_H-M "C C"
_symmetry_group_IT_number 9
_symmetry_cell_setting 'monoclinic'
loop_
_space_group_symop_operation_xyz
x,y,z
x,-y,1/2+z
1/2+x,1/2+y,z
1/2+x,1/2-y,1/2+z
loop_
_atom_site_type_symbol
_atom_site_label
_atom_site_fract_x
_atom_site_fract_y
_atom_site_fract_z
Si Si1 0.342450 0.511665 0.448010
Si Si2 0.572689 0.815566 0.240849
Si Si3 0.143211 0.369046 0.795075
Si Si4 0.711652 0.615546 0.019660
Si Si5 0.510559 0.636307 0.529450
Si Si6 0.519793 0.586747 0.323907
Si Si7 0.842616 0.297735 0.867020
Si Si8 0.706957 0.429977 0.841795
O O1 0.243977 0.606052 0.357928
O O2 0.402825 0.607010 0.447144
O O3 0.419364 0.481170 0.637888
O O4 0.300869 0.362471 0.343930
O O5 0.552242 0.739973 0.316222
O O6 0.672139 0.735645 0.320542
O O7 0.602561 0.984192 0.292964
O O8 0.470363 0.800568 0.037966
O O9 0.167124 0.262262 0.913766
O O10 0.051307 0.299690 0.607605
O O11 0.616495 0.530641 0.950235
O O12 0.761350 0.508320 0.004132
O O13 0.806353 0.662900 0.213516
O O14 0.483882 0.623274 0.383437
O O15 0.600586 0.519064 0.676232
O O16 0.794067 0.423194 0.872722
#
# Coordination Sequence:
#
# PCOD8054442 Si02
#       8
#     4   4   4   4   4   4   4   4
#     4  11  23  41  66  92 129 170 208 260 319 372
#     4  10  22  42  60  92 128 160 207 266 310 367
#     4  11  24  41  63  97 129 159 216 269 300 379
#     4  10  22  40  66  93 121 169 211 257 315 376
#     4  11  22  43  65  91 130 168 210 257 318 375
#     4  10  21  44  66  88 128 174 202 256 327 376
#     4  11  21  40  67  91 124 170 210 251 323 375
#     4  10  19  41  63  88 129 162 206 258 312 378
#
# _framework density 20.033628
#
# number of rings (size 3 to 8) (size 9 to 14) (size 15 to 20)
#    0.000    1.500    7.500    0.000    1.750    3.000 
#    4.500    0.000    0.000    0.000    0.000    0.000 
#    0.000    0.000    0.000    0.000    0.000    0.000 
#
# Total GULP energy -198419.089843 kJ/mol
# GULP energy per Si atom -12401.193115 kJ/mol
# Density = 1.998803 g / cm^3
# Si number density = 20.033628 Si / 1000 Ang^3
#
#
#
# Elastic Constant Matrix: (Units=GPa)
#
#
# Indices 1 2 3 4 5 6 
#
# 1 116.6161 43.7333 50.5380 0.0000 -15.5175 0.0000
# 2 43.7333 126.6165 39.1564 0.0000 -3.7119 0.0000
# 3 50.5380 39.1564 93.8348 0.0000 -23.6760 0.0000
# 4 0.0000 0.0000 0.0000 28.7206 0.0000 3.5354
# 5 -15.5175 -3.7119 -23.6760 0.0000 33.3787 0.0000
# 6 0.0000 0.0000 0.0000 3.5354 0.0000 23.5722
#
#
#
# Elastic Compliance Matrix: (Units=1/GPa)
#
#
# Indices 1 2 3 4 5 6 
#
# 1 0.011884 -0.002539 -0.004894 0.000000 0.001771 0.000000
# 2 -0.002539 0.009726 -0.003308 0.000000 -0.002445 0.000000
# 3 -0.004894 -0.003308 0.017060 0.000000 0.009458 0.000000
# 4 0.000000 0.000000 0.000000 0.035473 0.000000 -0.005320
# 5 0.001771 -0.002445 0.009458 0.000000 0.037219 0.000000
# 6 0.000000 0.000000 0.000000 -0.005320 0.000000 0.043221
#
#
# Mechanical properties :
#
#
# Convention : Reuss Voigt Hill
#
# Bulk Modulus (GPa) = 58.18339 67.10251 62.64295
# Shear Modulus (GPa) = 27.50355 30.71028 29.10691
#
# Velocity S-wave (km/s) = 3.70924 3.91952 3.81583
# Velocity P-wave (km/s) = 6.88844 7.35195 7.12396
#
# Compressibility (1/GPa) = 0.01718704
#
# Stress axis : x y z
#
# Youngs Moduli (GPa) = 84.14639 102.81430 58.61801
#
# Poissons Ratio (x) = 0.26108 0.28688
# Poissons Ratio (y) = 0.21367 0.19391
# Poissons Ratio (z) = 0.41182 0.34011
#
# Static dielectric constant tensor:
#      x y z
#    x 3.612370 0.000000 -0.053020 
#    y 0.000000 3.783150 0.000000 
#    z -0.053020 0.000000 3.531480 
# 
# 
# High freq. dielectric constant tensor:
#      x y z
#    x 1.781720 0.000000 -0.003210 
#    y 0.000000 1.788580 0.000000 
#    z -0.003210 0.000000 1.770220 
# 
# From -- ./inp_files/17833.got.cif
#   From: 2010.06.25/outbox.cif.g09.slc.cpg/sg9_9_cif.got.tgz:17833.got - 2010.06.27 21:40:51.
