data_PCOD8054728
_publ_section_title
;
Structure prediction by ZEFSAII (Michael W. Deem and Ramdas Pophale) SiO2 
 PCOD8054728
Probable space group: C C
;
_chemical_formula_sum "Si O2"
_cell_formula_units_Z 28
_cell_length_a 7.601512
_cell_length_b 11.501643
_cell_length_c 14.948506
_cell_angle_alpha 90.000000
_cell_angle_beta 63.561706
_cell_angle_gamma 90.000000
_cell_volume 1170.258290
_symmetry_space_group_name_H-M "C C"
_symmetry_group_IT_number 9
_symmetry_cell_setting 'monoclinic'
loop_
_space_group_symop_operation_xyz
x,y,z
x,-y,1/2+z
1/2+x,1/2+y,z
1/2+x,1/2-y,1/2+z
loop_
_atom_site_type_symbol
_atom_site_label
_atom_site_fract_x
_atom_site_fract_y
_atom_site_fract_z
Si Si1 0.414950 0.251329 0.832260
Si Si2 0.563053 0.100294 0.148292
Si Si3 0.542980 0.828667 0.980989
Si Si4 0.666317 0.578881 0.170530
Si Si5 0.234899 0.828115 0.191922
Si Si6 0.985700 0.924765 0.517751
Si Si7 0.385111 0.998584 0.868065
O O1 0.281481 0.328691 0.930416
O O2 0.599038 0.326906 0.759976
O O3 0.270994 0.218948 0.782107
O O4 0.470691 0.128956 0.866204
O O5 0.401681 0.100170 0.105231
O O6 0.619875 0.231829 0.160638
O O7 0.447996 0.036702 0.254693
O O8 0.759855 0.028409 0.073621
O O9 0.475808 0.915424 0.919883
O O10 0.444762 0.861385 0.097849
O O11 0.476922 0.697945 0.968190
O O12 0.612319 0.448657 0.217424
O O13 0.556173 0.602608 0.103160
O O14 0.145458 0.007651 0.433242
#
# Coordination Sequence:
#
# PCOD8054728 Si02
#       7
#     4   4   4   4   4   4   4
#     4  11  23  42  69  98 145 180 227 293 343 406
#     4  11  24  43  68 105 136 183 236 281 348 416
#     4  10  20  42  71  99 137 184 227 286 349 406
#     4  12  23  44  69 102 131 188 232 273 355 415
#     4  11  22  44  69  98 145 180 223 294 342 402
#     4  10  23  43  69 100 144 180 227 296 341 406
#     4  11  21  42  73 100 140 185 230 289 350 411
#
# _framework density 23.926342000000002
#
# number of rings (size 3 to 8) (size 9 to 14) (size 15 to 20)
#    0.000    1.143    7.143    0.000    0.000    2.286 
#    2.571    5.714    0.000    0.000    0.000    0.000 
#    0.000    0.000    0.000    0.000    0.000    0.000 
#
# Total GULP energy -173497.771462 kJ/mol
# GULP energy per Si atom -12392.697962 kJ/mol
# Density = 2.387188 g / cm^3
# Si number density = 23.926342 Si / 1000 Ang^3
#
#
#
# Elastic Constant Matrix: (Units=GPa)
#
#
# Indices 1 2 3 4 5 6 
#
# 1 98.6043 27.9157 23.6392 0.0000 -38.8880 0.0000
# 2 27.9157 117.0817 19.3107 0.0000 -16.7829 0.0000
# 3 23.6392 19.3107 108.7770 0.0000 -38.8655 0.0000
# 4 0.0000 0.0000 0.0000 43.9947 0.0000 -3.7780
# 5 -38.8880 -16.7829 -38.8655 0.0000 43.1860 0.0000
# 6 0.0000 0.0000 0.0000 -3.7780 0.0000 29.4568
#
#
#
# Elastic Compliance Matrix: (Units=1/GPa)
#
#
# Indices 1 2 3 4 5 6 
#
# 1 0.016612 -0.002025 0.002672 0.000000 0.016576 0.000000
# 2 -0.002025 0.009312 -0.000843 0.000000 0.001037 0.000000
# 3 0.002672 -0.000843 0.014009 0.000000 0.014687 0.000000
# 4 0.000000 0.000000 0.000000 0.022983 0.000000 0.002948
# 5 0.016576 0.001037 0.014687 0.000000 0.051702 0.000000
# 6 0.000000 0.000000 0.000000 0.002948 0.000000 0.034326
#
#
# Mechanical properties :
#
#
# Convention : Reuss Voigt Hill
#
# Bulk Modulus (GPa) = 25.29008 51.79936 38.54472
# Shear Modulus (GPa) = 30.76617 40.23400 35.50008
#
# Velocity S-wave (km/s) = 3.58979 4.10515 3.85609
# Velocity P-wave (km/s) = 5.27021 6.64577 5.99755
#
# Compressibility (1/GPa) = 0.03954120
#
# Stress axis : x y z
#
# Youngs Moduli (GPa) = 60.19843 107.39408 71.38039
#
# Poissons Ratio (x) = 0.21751 -0.19074
# Poissons Ratio (y) = 0.12192 0.06014
# Poissons Ratio (z) = -0.16086 0.09048
#
# Static dielectric constant tensor:
#      x y z
#    x 4.164740 0.000000 -0.352360 
#    y 0.000000 4.572410 0.000000 
#    z -0.352360 0.000000 4.656060 
# 
# 
# High freq. dielectric constant tensor:
#      x y z
#    x 1.917700 0.000000 -0.019310 
#    y 0.000000 1.959450 0.000000 
#    z -0.019310 0.000000 1.959860 
# 
# From -- ./inp_files/22537.got.cif
#   From: 2010.06.25/outbox.cif.g09.slc.cpg/sg9_12_cif.got.tgz:22537.got - 2010.06.27 21:40:51.
