data_PCOD8054646
_publ_section_title
;
Structure prediction by ZEFSAII (Michael W. Deem and Ramdas Pophale) SiO2 
 PCOD8054646
Probable space group: C C
;
_chemical_formula_sum "Si O2"
_cell_formula_units_Z 28
_cell_length_a 8.991606
_cell_length_b 11.595463
_cell_length_c 17.372060
_cell_angle_alpha 90.000000
_cell_angle_beta 135.377178
_cell_angle_gamma 90.000000
_cell_volume 1272.283287
_symmetry_space_group_name_H-M "C C"
_symmetry_group_IT_number 9
_symmetry_cell_setting 'monoclinic'
loop_
_space_group_symop_operation_xyz
x,y,z
x,-y,1/2+z
1/2+x,1/2+y,z
1/2+x,1/2-y,1/2+z
loop_
_atom_site_type_symbol
_atom_site_label
_atom_site_fract_x
_atom_site_fract_y
_atom_site_fract_z
Si Si1 0.014840 0.981247 0.073300
Si Si2 0.342964 0.826053 0.832180
Si Si3 0.168480 0.597899 0.332036
Si Si4 0.313048 0.586641 0.777712
Si Si5 0.653512 0.659392 0.008546
Si Si6 0.403948 0.578894 0.183750
Si Si7 0.621835 0.245612 0.172448
O O1 0.144363 0.883592 0.168647
O O2 0.162366 0.079673 0.088319
O O3 0.871657 0.053652 0.081311
O O4 0.878744 0.912753 0.960541
O O5 0.469953 0.899900 0.815903
O O6 0.233573 0.718535 0.745299
O O7 0.152699 0.901481 0.796015
O O8 0.497396 0.773378 0.956104
O O9 0.149008 0.487094 0.269222
O O10 0.188639 0.711689 0.284713
O O11 0.324633 0.536221 0.696913
O O12 0.550698 0.582286 0.902334
O O13 0.884013 0.701411 0.070376
O O14 0.270455 0.687860 0.162993
#
# Coordination Sequence:
#
# PCOD8054646 Si02
#       7
#     4   4   4   4   4   4   4
#     4  11  22  43  61  97 126 165 214 264 309 386
#     4  10  20  40  61  87 124 165 202 259 313 369
#     4  10  20  40  66  87 127 167 206 257 322 362
#     4   8  20  40  60  90 124 160 206 261 307 374
#     4   9  21  42  62  87 130 162 208 258 322 362
#     4  11  24  37  63  97 121 163 218 247 320 377
#     4  11  23  42  63  93 128 168 210 266 313 382
#
# _framework density 22.007679
#
# number of rings (size 3 to 8) (size 9 to 14) (size 15 to 20)
#    0.857    1.143    1.429    1.714    0.000    4.571 
#    7.714    0.000    0.000    0.000    0.000    0.000 
#    0.000    0.000    0.000    0.000    0.000    0.000 
#
# Total GULP energy -173441.844834 kJ/mol
# GULP energy per Si atom -12388.703202 kJ/mol
# Density = 2.195759 g / cm^3
# Si number density = 22.007679 Si / 1000 Ang^3
#
#
#
# Elastic Constant Matrix: (Units=GPa)
#
#
# Indices 1 2 3 4 5 6 
#
# 1 104.0177 37.7517 17.8617 0.0000 -0.6074 0.0000
# 2 37.7517 71.9553 14.2799 0.0000 -0.3515 0.0000
# 3 17.8617 14.2799 60.5322 0.0000 -1.5215 0.0000
# 4 0.0000 0.0000 0.0000 35.6415 0.0000 -2.2258
# 5 -0.6074 -0.3515 -1.5215 0.0000 26.0476 0.0000
# 6 0.0000 0.0000 0.0000 -2.2258 0.0000 32.0040
#
#
#
# Elastic Compliance Matrix: (Units=1/GPa)
#
#
# Indices 1 2 3 4 5 6 
#
# 1 0.012144 -0.005938 -0.002181 0.000000 0.000076 0.000000
# 2 -0.005938 0.017484 -0.002373 0.000000 -0.000041 0.000000
# 3 -0.002181 -0.002373 0.017747 0.000000 0.000954 0.000000
# 4 0.000000 0.000000 0.000000 0.028180 0.000000 0.001960
# 5 0.000076 -0.000041 0.000954 0.000000 0.038448 0.000000
# 6 0.000000 0.000000 0.000000 0.001960 0.000000 0.031382
#
#
# Mechanical properties :
#
#
# Convention : Reuss Voigt Hill
#
# Bulk Modulus (GPa) = 37.89202 41.81020 39.85111
# Shear Modulus (GPa) = 28.54427 29.84607 29.19517
#
# Velocity S-wave (km/s) = 3.60532 3.68661 3.64619
# Velocity P-wave (km/s) = 5.88099 6.09596 5.98944
#
# Compressibility (1/GPa) = 0.02639078
#
# Stress axis : x y z
#
# Youngs Moduli (GPa) = 82.34642 57.19571 56.34619
#
# Poissons Ratio (x) = 0.33964 0.12287
# Poissons Ratio (y) = 0.48899 0.13373
# Poissons Ratio (z) = 0.17957 0.13575
#
# Static dielectric constant tensor:
#      x y z
#    x 3.845820 0.000000 -0.141620 
#    y 0.000000 4.041660 0.000000 
#    z -0.141620 0.000000 3.750050 
# 
# 
# High freq. dielectric constant tensor:
#      x y z
#    x 1.859570 0.000000 -0.008590 
#    y 0.000000 1.868040 0.000000 
#    z -0.008590 0.000000 1.844020 
# 
# From -- ./inp_files/29228.got.cif
#   From: 2010.06.25/outbox.cif.g09.slc.cpg/sg9_15_cif.got.tgz:29228.got - 2010.06.27 21:40:51.
