data_PCOD8054918
_publ_section_title
;
Structure prediction by ZEFSAII (Michael W. Deem and Ramdas Pophale) SiO2 
 PCOD8054918
Probable space group: C C
;
_chemical_formula_sum "Si O2"
_cell_formula_units_Z 24
_cell_length_a 14.286855
_cell_length_b 7.981437
_cell_length_c 8.145945
_cell_angle_alpha 90.000000
_cell_angle_beta 107.632741
_cell_angle_gamma 90.000000
_cell_volume 885.238267
_symmetry_space_group_name_H-M "C C"
_symmetry_group_IT_number 9
_symmetry_cell_setting 'monoclinic'
loop_
_space_group_symop_operation_xyz
x,y,z
x,-y,1/2+z
1/2+x,1/2+y,z
1/2+x,1/2-y,1/2+z
loop_
_atom_site_type_symbol
_atom_site_label
_atom_site_fract_x
_atom_site_fract_y
_atom_site_fract_z
Si Si1 0.577280 0.903255 0.957190
Si Si2 0.081284 0.741762 0.814007
Si Si3 0.273055 0.943126 0.919575
Si Si4 0.278768 0.662176 0.404612
Si Si5 0.876437 0.167486 0.128921
Si Si6 0.379325 0.284789 0.277694
O O1 0.670885 0.898647 0.887353
O O2 0.490542 0.784274 0.842298
O O3 0.552101 0.102166 0.935923
O O4 0.605924 0.848972 0.155003
O O5 0.168143 0.864911 0.918496
O O6 0.987356 0.862654 0.746304
O O7 0.301391 0.869766 0.751595
O O8 0.277927 0.138557 0.913103
O O9 0.357418 0.868480 0.087351
O O10 0.304366 0.602444 0.233940
O O11 0.358557 0.612000 0.596930
O O12 0.856143 0.095507 0.929998
#
# Coordination Sequence:
#
# PCOD8054918 Si02
#       6
#     4   4   4   4   4   4
#     4  11  24  39  63  92 125 161 202 252 309 359
#     4  11  23  41  61  93 126 158 203 256 302 366
#     4  10  21  40  62  87 121 155 205 251 293 355
#     4  12  21  41  66  89 118 165 204 250 304 357
#     4   9  23  37  65  88 120 161 208 245 298 366
#     4   9  22  40  61  91 120 160 206 250 292 369
#
# _framework density 27.111343999999999
#
# number of rings (size 3 to 8) (size 9 to 14) (size 15 to 20)
#    1.000    0.667    1.667    3.000    4.667    0.000 
#    0.000    3.333    0.000    0.000    0.000    0.000 
#    0.000    0.000    0.000    0.000    0.000    0.000 
#
# Total GULP energy -148685.769924 kJ/mol
# GULP energy per Si atom -12390.480827 kJ/mol
# Density = 2.704964 g / cm^3
# Si number density = 27.111344 Si / 1000 Ang^3
#
#
#
# Elastic Constant Matrix: (Units=GPa)
#
#
# Indices 1 2 3 4 5 6 
#
# 1 130.8713 2.9602 41.7106 0.0000 2.2062 0.0000
# 2 2.9602 110.5273 52.9911 0.0000 -9.5561 0.0000
# 3 41.7106 52.9911 95.7884 0.0000 -3.3191 0.0000
# 4 0.0000 0.0000 0.0000 47.4333 0.0000 -0.9897
# 5 2.2062 -9.5561 -3.3191 0.0000 46.6781 0.0000
# 6 0.0000 0.0000 0.0000 -0.9897 0.0000 0.9844
#
#
#
# Elastic Compliance Matrix: (Units=1/GPa)
#
#
# Indices 1 2 3 4 5 6 
#
# 1 0.009288 0.002267 -0.005311 0.000000 -0.000353 0.000000
# 2 0.002267 0.013064 -0.008145 0.000000 0.001988 0.000000
# 3 -0.005311 -0.008145 0.017252 0.000000 -0.000190 0.000000
# 4 0.000000 0.000000 0.000000 0.021534 0.000000 0.021651
# 5 -0.000353 0.001988 -0.000190 0.000000 0.021834 0.000000
# 6 0.000000 0.000000 0.000000 0.021651 0.000000 1.037656
#
#
# Mechanical properties :
#
#
# Convention : Reuss Voigt Hill
#
# Bulk Modulus (GPa) = 58.05314 59.16786 58.61050
# Shear Modulus (GPa) = 4.35257 34.98751 19.67004
#
# Velocity S-wave (km/s) = 1.26843 3.59627 2.69648
# Velocity P-wave (km/s) = 4.85845 6.25424 5.60001
#
# Compressibility (1/GPa) = 0.01722560
#
# Stress axis : x y z
#
# Youngs Moduli (GPa) = 107.66073 76.54674 57.96491
#
# Poissons Ratio (x) = -0.17353 0.30785
# Poissons Ratio (y) = -0.24407 0.47214
# Poissons Ratio (z) = 0.57178 0.62350
#
# Static dielectric constant tensor:
#      x y z
#    x 4.899660 0.000000 -0.223980 
#    y 0.000000 5.086660 0.000000 
#    z -0.223980 0.000000 5.177480 
# 
# 
# High freq. dielectric constant tensor:
#      x y z
#    x 2.085310 0.000000 -0.008710 
#    y 0.000000 2.130500 0.000000 
#    z -0.008710 0.000000 2.102920 
# 
# From -- ./inp_files/7020.got.cif
#   From: 2010.06.25/outbox.cif.g09.slc.cpg/sg9_4_cif.got.tgz:7020.got - 2010.06.27 21:40:51.
