data_PCOD8054575
_publ_section_title
;
Structure prediction by ZEFSAII (Michael W. Deem and Ramdas Pophale) SiO2 
 PCOD8054575
Probable space group: C C
;
_chemical_formula_sum "Si O2"
_cell_formula_units_Z 32
_cell_length_a 8.552306
_cell_length_b 23.571281
_cell_length_c 9.533475
_cell_angle_alpha 90.000000
_cell_angle_beta 53.239382
_cell_angle_gamma 90.000000
_cell_volume 1539.669996
_symmetry_space_group_name_H-M "C C"
_symmetry_group_IT_number 9
_symmetry_cell_setting 'monoclinic'
loop_
_space_group_symop_operation_xyz
x,y,z
x,-y,1/2+z
1/2+x,1/2+y,z
1/2+x,1/2-y,1/2+z
loop_
_atom_site_type_symbol
_atom_site_label
_atom_site_fract_x
_atom_site_fract_y
_atom_site_fract_z
Si Si1 0.136390 0.323788 0.071290
Si Si2 0.049008 0.205281 0.214828
Si Si3 0.261182 0.794597 0.111927
Si Si4 0.867130 0.926330 0.039568
Si Si5 0.629330 0.075591 0.156185
Si Si6 0.738885 0.005739 0.355047
Si Si7 0.244736 0.144975 0.342919
Si Si8 0.930230 0.825212 0.496131
O O1 0.083395 0.272762 0.204618
O O2 0.184589 0.381750 0.130591
O O3 0.949086 0.329766 0.069436
O O4 0.330056 0.308306 0.881354
O O5 0.219684 0.177253 0.211326
O O6 0.079359 0.176330 0.046743
O O7 0.282090 0.726617 0.111537
O O8 0.059722 0.814044 0.290551
O O9 0.236704 0.807008 0.963312
O O10 0.849380 0.966816 0.183513
O O11 0.881605 0.957926 0.880166
O O12 0.072985 0.899031 0.959055
O O13 0.613431 0.047430 0.320600
O O14 0.448721 0.115091 0.231462
O O15 0.823792 0.114218 0.039659
O O16 0.616164 0.030489 0.035018
#
# Coordination Sequence:
#
# PCOD8054575 Si02
#       8
#     4   4   4   4   4   4   4   4
#     4  10  20  38  60  86 123 156 190 238 291 354
#     4  10  21  36  59  90 121 156 191 232 292 362
#     4  11  22  37  62  94 122 157 193 232 296 366
#     4  10  22  40  60  84 117 153 197 249 292 341
#     4  11  23  41  62  86 119 156 199 249 294 343
#     4  10  23  42  61  81 112 158 205 247 294 341
#     4  11  23  38  61  92 120 149 193 246 296 353
#     4  11  22  40  61  87 124 161 192 237 293 356
#
# _framework density 20.783674000000001
#
# number of rings (size 3 to 8) (size 9 to 14) (size 15 to 20)
#    0.000    1.500    0.000    7.500    0.000    8.000 
#    0.000    5.000    0.000    0.000    0.000    0.000 
#    0.000    0.000    0.000    0.000    0.000    0.000 
#
# Total GULP energy -198290.274288 kJ/mol
# GULP energy per Si atom -12393.142143 kJ/mol
# Density = 2.073637 g / cm^3
# Si number density = 20.783674 Si / 1000 Ang^3
#
#
#
# Elastic Constant Matrix: (Units=GPa)
#
#
# Indices 1 2 3 4 5 6 
#
# 1 86.5067 47.2526 45.3405 0.0000 26.4349 0.0000
# 2 47.2526 100.1332 25.4255 0.0000 8.2862 0.0000
# 3 45.3405 25.4255 49.5452 0.0000 8.6181 0.0000
# 4 0.0000 0.0000 0.0000 28.4282 0.0000 10.2117
# 5 26.4349 8.2862 8.6181 0.0000 26.0201 0.0000
# 6 0.0000 0.0000 0.0000 10.2117 0.0000 24.3889
#
#
#
# Elastic Compliance Matrix: (Units=1/GPa)
#
#
# Indices 1 2 3 4 5 6 
#
# 1 0.038679 -0.009421 -0.025731 0.000000 -0.027773 0.000000
# 2 -0.009421 0.013858 0.000650 0.000000 0.004942 0.000000
# 3 -0.025731 0.000650 0.041264 0.000000 0.012267 0.000000
# 4 0.000000 0.000000 0.000000 0.041404 0.000000 -0.017336
# 5 -0.027773 0.004942 0.012267 0.000000 0.061011 0.000000
# 6 0.000000 0.000000 0.000000 -0.017336 0.000000 0.048261
#
#
# Mechanical properties :
#
#
# Convention : Reuss Voigt Hill
#
# Bulk Modulus (GPa) = 40.32748 52.46917 46.39833
# Shear Modulus (GPa) = 15.54025 23.64520 19.59272
#
# Velocity S-wave (km/s) = 2.73740 3.37661 3.07367
# Velocity P-wave (km/s) = 5.42556 6.36413 5.91350
#
# Compressibility (1/GPa) = 0.02479699
#
# Stress axis : x y z
#
# Youngs Moduli (GPa) = 25.85394 72.15873 24.23447
#
# Poissons Ratio (x) = 0.67979 0.62357
# Poissons Ratio (y) = 0.24356 -0.01574
# Poissons Ratio (z) = 0.66524 -0.04688
#
# Static dielectric constant tensor:
#      x y z
#    x 3.943360 0.000000 0.305490 
#    y 0.000000 4.102110 0.000000 
#    z 0.305490 0.000000 3.711340 
# 
# 
# High freq. dielectric constant tensor:
#      x y z
#    x 1.816720 0.000000 0.019160 
#    y 0.000000 1.823360 0.000000 
#    z 0.019160 0.000000 1.807120 
# 
# From -- ./inp_files/6379.got.cif
#   From: 2010.06.25/outbox.cif.g09.slc.cpg/sg9_4_cif.got.tgz:6379.got - 2010.06.27 21:40:51.
