data_PCOD8054448
_publ_section_title
;
Structure prediction by ZEFSAII (Michael W. Deem and Ramdas Pophale) SiO2 
 PCOD8054448
Probable space group: C C
;
_chemical_formula_sum "Si O2"
_cell_formula_units_Z 32
_cell_length_a 16.233838
_cell_length_b 6.071320
_cell_length_c 14.031120
_cell_angle_alpha 90.000000
_cell_angle_beta 95.737958
_cell_angle_gamma 90.000000
_cell_volume 1375.989726
_symmetry_space_group_name_H-M "C C"
_symmetry_group_IT_number 9
_symmetry_cell_setting 'monoclinic'
loop_
_space_group_symop_operation_xyz
x,y,z
x,-y,1/2+z
1/2+x,1/2+y,z
1/2+x,1/2-y,1/2+z
loop_
_atom_site_type_symbol
_atom_site_label
_atom_site_fract_x
_atom_site_fract_y
_atom_site_fract_z
Si Si1 0.783320 0.381452 0.635700
Si Si2 0.524650 0.363835 0.562039
Si Si3 0.419409 0.423709 0.205164
Si Si4 0.646490 0.946256 0.164368
Si Si5 0.727656 0.061365 0.869583
Si Si6 0.167822 0.180000 0.534225
Si Si7 0.826284 0.692030 0.803730
Si Si8 0.402807 0.201630 0.388180
O O1 0.870145 0.256817 0.634957
O O2 0.716242 0.191762 0.619647
O O3 0.757173 0.553537 0.549222
O O4 0.779216 0.507372 0.736623
O O5 0.493506 0.509140 0.646302
O O6 0.559405 0.146524 0.617281
O O7 0.592045 0.507265 0.510301
O O8 0.449117 0.279603 0.488218
O O9 0.363784 0.631094 0.233226
O O10 0.453315 0.302194 0.303937
O O11 0.660347 0.915331 0.278136
O O12 0.653238 0.200906 0.134176
O O13 0.808443 0.213288 0.871105
O O14 0.762271 0.809663 0.869963
O O15 0.673761 0.129779 0.955200
O O16 0.896764 0.565417 0.875378
#
# Coordination Sequence:
#
# PCOD8054448 Si02
#       8
#     4   4   4   4   4   4   4   4
#     4  10  19  42  71 101 135 179 245 291 349 419
#     4  11  28  46  69 107 156 184 237 293 378 429
#     4  10  22  44  72  99 144 191 234 298 357 425
#     4  11  23  46  65 104 144 193 231 290 372 420
#     4  11  23  43  75 103 140 191 248 294 353 427
#     4  11  26  45  70 107 148 190 242 295 356 448
#     4  10  19  42  74 100 138 175 250 300 346 415
#     4  10  24  44  70 113 135 191 243 297 359 429
#
# _framework density 23.255987000000001
#
# number of rings (size 3 to 8) (size 9 to 14) (size 15 to 20)
#    0.000    1.500    5.000    0.000    5.250    6.000 
#    4.500    0.000    0.000    0.000    0.000    0.000 
#    0.000    0.000    0.000    0.000    0.000    0.000 
#
# Total GULP energy -198214.144891 kJ/mol
# GULP energy per Si atom -12388.384056 kJ/mol
# Density = 2.320306 g / cm^3
# Si number density = 23.255987 Si / 1000 Ang^3
#
#
#
# Elastic Constant Matrix: (Units=GPa)
#
#
# Indices 1 2 3 4 5 6 
#
# 1 61.6814 32.3883 33.1211 0.0000 1.8187 0.0000
# 2 32.3883 117.2670 36.1629 0.0000 11.4028 0.0000
# 3 33.1211 36.1629 109.7388 0.0000 13.0734 0.0000
# 4 0.0000 0.0000 0.0000 29.7924 0.0000 8.4017
# 5 1.8187 11.4028 13.0734 0.0000 31.5332 0.0000
# 6 0.0000 0.0000 0.0000 8.4017 0.0000 29.7966
#
#
#
# Elastic Compliance Matrix: (Units=1/GPa)
#
#
# Indices 1 2 3 4 5 6 
#
# 1 0.021333 -0.004522 -0.005256 0.000000 0.002584 0.000000
# 2 -0.004522 0.010605 -0.001792 0.000000 -0.002831 0.000000
# 3 -0.005256 -0.001792 0.011757 0.000000 -0.003923 0.000000
# 4 0.000000 0.000000 0.000000 0.036465 0.000000 -0.010282
# 5 0.002584 -0.002831 -0.003923 0.000000 0.034214 0.000000
# 6 0.000000 0.000000 0.000000 -0.010282 0.000000 0.036460
#
#
# Mechanical properties :
#
#
# Convention : Reuss Voigt Hill
#
# Bulk Modulus (GPa) = 48.65560 54.67019 51.66290
# Shear Modulus (GPa) = 27.65070 30.69209 29.17139
#
# Velocity S-wave (km/s) = 3.45189 3.63678 3.54554
# Velocity P-wave (km/s) = 6.07079 6.41825 6.24694
#
# Compressibility (1/GPa) = 0.02055262
#
# Stress axis : x y z
#
# Youngs Moduli (GPa) = 46.87496 94.29847 85.05558
#
# Poissons Ratio (x) = 0.42646 0.44708
# Poissons Ratio (y) = 0.21199 0.15245
# Poissons Ratio (z) = 0.24639 0.16902
#
# Static dielectric constant tensor:
#      x y z
#    x 3.821850 0.000000 0.181080 
#    y 0.000000 4.689790 0.000000 
#    z 0.181080 0.000000 4.173130 
# 
# 
# High freq. dielectric constant tensor:
#      x y z
#    x 1.884820 0.000000 0.013160 
#    y 0.000000 1.940540 0.000000 
#    z 0.013160 0.000000 1.915170 
# 
# From -- ./inp_files/26483.got.cif
#   From: 2010.06.25/outbox.cif.g09.slc.cpg/sg9_14_cif.got.tgz:26483.got - 2010.06.27 21:40:51.
