data_PCOD8054974
_publ_section_title
;
Structure prediction by ZEFSAII (Michael W. Deem and Ramdas Pophale) SiO2 
 PCOD8054974
Probable space group: C C
;
_chemical_formula_sum "Si O2"
_cell_formula_units_Z 32
_cell_length_a 26.415370
_cell_length_b 7.725470
_cell_length_c 15.363903
_cell_angle_alpha 90.000000
_cell_angle_beta 152.370828
_cell_angle_gamma 90.000000
_cell_volume 1454.000146
_symmetry_space_group_name_H-M "C C"
_symmetry_group_IT_number 9
_symmetry_cell_setting 'monoclinic'
loop_
_space_group_symop_operation_xyz
x,y,z
x,-y,1/2+z
1/2+x,1/2+y,z
1/2+x,1/2-y,1/2+z
loop_
_atom_site_type_symbol
_atom_site_label
_atom_site_fract_x
_atom_site_fract_y
_atom_site_fract_z
Si Si1 0.600000 0.252195 0.670970
Si Si2 0.759446 0.977068 0.980989
Si Si3 0.445142 0.524984 0.498191
Si Si4 0.226500 0.655757 0.616958
Si Si5 0.007222 0.439516 0.869728
Si Si6 0.858621 0.741556 0.004571
Si Si7 0.977525 0.166909 0.362138
Si Si8 0.699533 0.517983 0.182724
O O1 0.661866 0.112884 0.823374
O O2 0.532452 0.369237 0.636284
O O3 0.516495 0.165572 0.474589
O O4 0.687274 0.366783 0.751065
O O5 0.876202 0.069604 0.164517
O O6 0.733285 0.856783 0.023456
O O7 0.762115 0.859526 0.898445
O O8 0.325391 0.444672 0.311953
O O9 0.448419 0.645802 0.588675
O O10 0.473994 0.644479 0.460237
O O11 0.120509 0.558294 0.491093
O O12 0.226512 0.858536 0.642100
O O13 0.968230 0.632600 0.827145
O O14 0.916177 0.348437 0.673201
O O15 0.801906 0.608946 0.851558
O O16 0.088435 0.085332 0.492530
#
# Coordination Sequence:
#
# PCOD8054974 Si02
#       8
#     4   4   4   4   4   4   4   4
#     4  10  22  43  65  90 127 166 208 262 312 367
#     4  11  23  41  66  95 127 165 210 257 312 374
#     4  10  23  41  62  90 126 167 209 257 312 371
#     4  10  22  41  63  91 127 166 209 258 313 372
#     4  11  23  41  65  94 127 164 209 261 312 371
#     4  12  24  39  65  96 127 167 210 255 311 374
#     4  10  22  43  65  91 126 163 208 261 314 373
#     4  10  21  41  65  89 127 168 207 259 314 370
#
# _framework density 22.008251999999999
#
# number of rings (size 3 to 8) (size 9 to 14) (size 15 to 20)
#    0.000    1.500    0.000    6.750    0.000    7.000 
#    0.000    7.500    0.000    0.000    0.000    0.000 
#    0.000    0.000    0.000    0.000    0.000    0.000 
#
# Total GULP energy -198481.957996 kJ/mol
# GULP energy per Si atom -12405.122375 kJ/mol
# Density = 2.195816 g / cm^3
# Si number density = 22.008252 Si / 1000 Ang^3
#
#
#
# Elastic Constant Matrix: (Units=GPa)
#
#
# Indices 1 2 3 4 5 6 
#
# 1 102.7652 74.9750 37.8491 0.0000 0.5254 0.0000
# 2 74.9750 151.9399 51.8609 0.0000 -6.3687 0.0000
# 3 37.8491 51.8609 104.5832 0.0000 -2.6214 0.0000
# 4 0.0000 0.0000 0.0000 31.4942 0.0000 -2.4322
# 5 0.5254 -6.3687 -2.6214 0.0000 27.6810 0.0000
# 6 0.0000 0.0000 0.0000 -2.4322 0.0000 40.9510
#
#
#
# Elastic Compliance Matrix: (Units=1/GPa)
#
#
# Indices 1 2 3 4 5 6 
#
# 1 0.015740 -0.007095 -0.002232 0.000000 -0.002143 0.000000
# 2 -0.007095 0.011179 -0.002915 0.000000 0.002431 0.000000
# 3 -0.002232 -0.002915 0.011827 0.000000 0.000492 0.000000
# 4 0.000000 0.000000 0.000000 0.031898 0.000000 0.001895
# 5 -0.002143 0.002431 0.000492 0.000000 0.036772 0.000000
# 6 0.000000 0.000000 0.000000 0.001895 0.000000 0.024532
#
#
# Mechanical properties :
#
#
# Convention : Reuss Voigt Hill
#
# Bulk Modulus (GPa) = 70.11077 76.51759 73.31418
# Shear Modulus (GPa) = 31.01971 32.99881 32.00926
#
# Velocity S-wave (km/s) = 3.75835 3.87639 3.81782
# Velocity P-wave (km/s) = 7.12456 7.40799 7.26766
#
# Compressibility (1/GPa) = 0.01426314
#
# Stress axis : x y z
#
# Youngs Moduli (GPa) = 63.53122 89.44951 84.55004
#
# Poissons Ratio (x) = 0.63465 0.18870
# Poissons Ratio (y) = 0.45076 0.24647
# Poissons Ratio (z) = 0.14179 0.26075
#
# Static dielectric constant tensor:
#      x y z
#    x 3.918380 0.000000 0.086330 
#    y 0.000000 4.117500 0.000000 
#    z 0.086330 0.000000 3.827800 
# 
# 
# High freq. dielectric constant tensor:
#      x y z
#    x 1.864110 0.000000 0.007040 
#    y 0.000000 1.877350 0.000000 
#    z 0.007040 0.000000 1.861300 
# 
# From -- ./inp_files/28027.got.cif
#   From: 2010.06.25/outbox.cif.g09.slc.cpg/sg9_15_cif.got.tgz:28027.got - 2010.06.27 21:40:51.
