data_PCOD8054991
_publ_section_title
;
Structure prediction by ZEFSAII (Michael W. Deem and Ramdas Pophale) SiO2 
 PCOD8054991
Probable space group: C C
;
_chemical_formula_sum "Si O2"
_cell_formula_units_Z 28
_cell_length_a 11.846258
_cell_length_b 20.280098
_cell_length_c 7.336374
_cell_angle_alpha 90.000000
_cell_angle_beta 137.008218
_cell_angle_gamma 90.000000
_cell_volume 1201.847102
_symmetry_space_group_name_H-M "C C"
_symmetry_group_IT_number 9
_symmetry_cell_setting 'monoclinic'
loop_
_space_group_symop_operation_xyz
x,y,z
x,-y,1/2+z
1/2+x,1/2+y,z
1/2+x,1/2-y,1/2+z
loop_
_atom_site_type_symbol
_atom_site_label
_atom_site_fract_x
_atom_site_fract_y
_atom_site_fract_z
Si Si1 0.958250 0.051905 0.777810
Si Si2 0.103099 0.660354 0.658478
Si Si3 0.901626 0.092461 0.117696
Si Si4 0.641013 0.298849 0.826815
Si Si5 0.886273 0.290841 0.431815
Si Si6 0.246551 0.332371 0.938426
Si Si7 0.261148 0.131726 0.114753
O O1 0.825720 0.094005 0.497377
O O2 0.933242 0.973866 0.766224
O O3 0.930089 0.075994 0.944530
O O4 0.149933 0.066416 0.949011
O O5 0.051775 0.727866 0.699478
O O6 0.217809 0.679572 0.619779
O O7 0.945302 0.616980 0.409750
O O8 0.212332 0.615973 0.925326
O O9 0.023925 0.153127 0.309092
O O10 0.668927 0.323727 0.654845
O O11 0.810838 0.292289 0.140427
O O12 0.883807 0.217542 0.517740
O O13 0.774832 0.333976 0.436078
O O14 0.071828 0.319661 0.630080
#
# Coordination Sequence:
#
# PCOD8054991 Si02
#       7
#     4   4   4   4   4   4   4
#     4  10  23  45  63  90 133 179 216 263 328 392
#     4  10  21  41  67  94 129 168 213 274 334 377
#     4  10  24  42  66  92 130 178 212 269 331 386
#     4  11  23  39  65  98 127 162 218 267 331 383
#     4  11  23  37  66  98 125 170 210 272 326 379
#     4  10  22  40  63  94 131 171 211 265 331 383
#     4  10  22  42  62  90 133 168 210 272 317 390
#
# _framework density 23.297471999999999
#
# number of rings (size 3 to 8) (size 9 to 14) (size 15 to 20)
#    0.000    1.714    1.429    1.714   14.000    1.143 
#    2.571    2.857    0.000    0.000    0.000    0.000 
#    0.000    0.000    0.000    0.000    0.000    0.000 
#
# Total GULP energy -173494.851633 kJ/mol
# GULP energy per Si atom -12392.489402 kJ/mol
# Density = 2.324445 g / cm^3
# Si number density = 23.297472 Si / 1000 Ang^3
#
#
#
# Elastic Constant Matrix: (Units=GPa)
#
#
# Indices 1 2 3 4 5 6 
#
# 1 54.9825 28.9582 18.8633 0.0000 23.7418 0.0000
# 2 28.9582 143.8460 49.0260 0.0000 22.2789 0.0000
# 3 18.8633 49.0260 111.9635 0.0000 21.5261 0.0000
# 4 0.0000 0.0000 0.0000 18.8181 0.0000 24.8748
# 5 23.7418 22.2789 21.5261 0.0000 29.7103 0.0000
# 6 0.0000 0.0000 0.0000 24.8748 0.0000 5.1243
#
#
#
# Elastic Compliance Matrix: (Units=1/GPa)
#
#
# Indices 1 2 3 4 5 6 
#
# 1 0.028560 -0.002609 0.000398 0.000000 -0.021154 0.000000
# 2 -0.002609 0.008865 -0.002980 0.000000 -0.002404 0.000000
# 3 0.000398 -0.002980 0.011387 0.000000 -0.006333 0.000000
# 4 0.000000 0.000000 0.000000 -0.009810 0.000000 0.047623
# 5 -0.021154 -0.002404 -0.006333 0.000000 0.056954 0.000000
# 6 0.000000 0.000000 0.000000 0.047623 0.000000 -0.036027
#
#
# Mechanical properties :
#
#
# Convention : Reuss Voigt Hill
#
# Bulk Modulus (GPa) = 26.02160 56.05412 41.03786
# Shear Modulus (GPa) = 60.15402 24.99351 42.57377
#
# Velocity S-wave (km/s) = 5.08685 3.27891 4.27945
# Velocity P-wave (km/s) = 6.75980 6.20060 6.48623
#
# Compressibility (1/GPa) = 0.03842961
#
# Stress axis : x y z
#
# Youngs Moduli (GPa) = 35.01455 112.80278 87.81910
#
# Poissons Ratio (x) = 0.29426 -0.03493
# Poissons Ratio (y) = 0.09134 0.26171
# Poissons Ratio (z) = -0.01393 0.33616
#
# Static dielectric constant tensor:
#      x y z
#    x 4.169310 0.000000 0.169360 
#    y 0.000000 9.692650 0.000000 
#    z 0.169360 0.000000 4.419020 
# 
# 
# High freq. dielectric constant tensor:
#      x y z
#    x 1.925780 0.000000 0.001640 
#    y 0.000000 1.894010 0.000000 
#    z 0.001640 0.000000 1.927590 
# 
# From -- ./inp_files/5557.got.cif
#   From: 2010.06.25/outbox.cif.g09.slc.cpg/sg9_3_cif.got.tgz:5557.got - 2010.06.27 21:40:51.
