data_PCOD8054858
_publ_section_title
;
Structure prediction by ZEFSAII (Michael W. Deem and Ramdas Pophale) SiO2 
 PCOD8054858
Probable space group: C C
;
_chemical_formula_sum "Si O2"
_cell_formula_units_Z 32
_cell_length_a 5.256724
_cell_length_b 8.894045
_cell_length_c 27.583973
_cell_angle_alpha 90.000000
_cell_angle_beta 111.121635
_cell_angle_gamma 90.000000
_cell_volume 1203.006620
_symmetry_space_group_name_H-M "C C"
_symmetry_group_IT_number 9
_symmetry_cell_setting 'monoclinic'
loop_
_space_group_symop_operation_xyz
x,y,z
x,-y,1/2+z
1/2+x,1/2+y,z
1/2+x,1/2-y,1/2+z
loop_
_atom_site_type_symbol
_atom_site_label
_atom_site_fract_x
_atom_site_fract_y
_atom_site_fract_z
Si Si1 0.997630 0.896815 0.367150
Si Si2 0.463156 0.787034 0.349264
Si Si3 0.123022 0.089036 0.461537
Si Si4 0.693809 0.076088 0.998865
Si Si5 0.801505 0.036231 0.264549
Si Si6 0.765481 0.572421 0.745921
Si Si7 0.962015 0.260166 0.656238
Si Si8 0.892190 0.082087 0.119630
O O1 0.787277 0.792409 0.383134
O O2 0.903259 0.892174 0.304102
O O3 0.295438 0.816838 0.387680
O O4 0.029919 0.058909 0.398178
O O5 0.349328 0.655644 0.309139
O O6 0.411119 0.929082 0.308555
O O7 0.398279 0.994997 0.489435
O O8 0.881906 0.034006 0.479986
O O9 0.174580 0.263838 0.471380
O O10 0.843932 0.102435 0.059697
O O11 0.489102 0.005085 0.225320
O O12 0.996935 0.035679 0.230226
O O13 0.662947 0.738965 0.718471
O O14 0.666079 0.322925 0.650331
O O15 0.121832 0.361256 0.628779
O O16 0.943247 0.091428 0.634996
#
# Coordination Sequence:
#
# PCOD8054858 Si02
#       8
#     4   4   4   4   4   4   4   4
#     4  10  23  37  58  94 118 174 220 272 334 395
#     4  10  21  39  60  85 131 169 217 276 330 399
#     4  12  26  44  74 100 138 177 234 285 342 429
#     4  12  26  49  71 105 138 184 225 296 358 417
#     4  10  21  39  60  85 131 173 213 280 324 405
#     4  10  23  37  60  94 126 174 228 266 342 387
#     4  12  26  44  74 106 138 185 232 293 334 437
#     4  12  26  47  73 103 142 180 231 290 364 409
#
# _framework density 26.600017999999999
#
# number of rings (size 3 to 8) (size 9 to 14) (size 15 to 20)
#    0.000    1.000    0.000    6.000    7.000    0.000 
#    0.000    0.000    0.000    0.000    0.000    0.000 
#    0.000    0.000    0.000    0.000    0.000    0.000 
#
# Total GULP energy -198311.543141 kJ/mol
# GULP energy per Si atom -12394.471446 kJ/mol
# Density = 2.653947 g / cm^3
# Si number density = 26.600018 Si / 1000 Ang^3
#
#
#
# Elastic Constant Matrix: (Units=GPa)
#
#
# Indices 1 2 3 4 5 6 
#
# 1 214.5125 34.9174 1.7596 0.0000 -8.4845 0.0000
# 2 34.9174 87.4469 -11.7766 0.0000 8.1237 0.0000
# 3 1.7596 -11.7766 93.0110 0.0000 8.2849 0.0000
# 4 0.0000 0.0000 0.0000 31.3544 0.0000 -4.6190
# 5 -8.4845 8.1237 8.2849 0.0000 30.6515 0.0000
# 6 0.0000 0.0000 0.0000 -4.6190 0.0000 32.0238
#
#
#
# Elastic Compliance Matrix: (Units=1/GPa)
#
#
# Indices 1 2 3 4 5 6 
#
# 1 0.005133 -0.002333 -0.000588 0.000000 0.002198 0.000000
# 2 -0.002333 0.013088 0.002119 0.000000 -0.004687 0.000000
# 3 -0.000588 0.002119 0.011369 0.000000 -0.003797 0.000000
# 4 0.000000 0.000000 0.000000 0.032586 0.000000 0.004700
# 5 0.002198 -0.004687 -0.003797 0.000000 0.035502 0.000000
# 6 0.000000 0.000000 0.000000 0.004700 0.000000 0.031905
#
#
# Mechanical properties :
#
#
# Convention : Reuss Voigt Hill
#
# Bulk Modulus (GPa) = 35.73361 49.41900 42.57631
# Shear Modulus (GPa) = 35.58301 43.47729 39.53015
#
# Velocity S-wave (km/s) = 3.66143 4.04726 3.85917
# Velocity P-wave (km/s) = 5.59800 6.36076 5.99153
#
# Compressibility (1/GPa) = 0.02798486
#
# Stress axis : x y z
#
# Youngs Moduli (GPa) = 194.80674 76.40624 87.95793
#
# Poissons Ratio (x) = 0.17827 0.05175
# Poissons Ratio (y) = 0.45452 -0.18636
# Poissons Ratio (z) = 0.11461 -0.16189
#
# Static dielectric constant tensor:
#      x y z
#    x 5.834060 0.000000 0.413020 
#    y 0.000000 4.863320 0.000000 
#    z 0.413020 0.000000 6.927730 
# 
# 
# High freq. dielectric constant tensor:
#      x y z
#    x 2.097420 0.000000 0.003490 
#    y 0.000000 2.080720 0.000000 
#    z 0.003490 0.000000 2.076390 
# 
# From -- ./inp_files/37095.got.cif
#   From: 2010.06.25/outbox.cif.g09.slc.cpg/sg9_19_cif.got.tgz:37095.got - 2010.06.27 21:40:51.
