data_PCOD8054939
_publ_section_title
;
Structure prediction by ZEFSAII (Michael W. Deem and Ramdas Pophale) SiO2 
 PCOD8054939
Probable space group: C C
;
_chemical_formula_sum "Si O2"
_cell_formula_units_Z 32
_cell_length_a 25.614158
_cell_length_b 7.494207
_cell_length_c 9.316793
_cell_angle_alpha 90.000000
_cell_angle_beta 126.126395
_cell_angle_gamma 90.000000
_cell_volume 1444.548654
_symmetry_space_group_name_H-M "C C"
_symmetry_group_IT_number 9
_symmetry_cell_setting 'monoclinic'
loop_
_space_group_symop_operation_xyz
x,y,z
x,-y,1/2+z
1/2+x,1/2+y,z
1/2+x,1/2-y,1/2+z
loop_
_atom_site_type_symbol
_atom_site_label
_atom_site_fract_x
_atom_site_fract_y
_atom_site_fract_z
Si Si1 0.647910 0.390304 0.097540
Si Si2 0.224498 0.572505 0.079769
Si Si3 0.504796 0.340082 0.853799
Si Si4 0.415358 0.183467 0.499907
Si Si5 0.489244 0.827244 0.614699
Si Si6 0.135017 0.230129 0.898831
Si Si7 0.806796 0.888833 0.448704
Si Si8 0.418471 0.631064 0.724777
O O1 0.697085 0.245573 0.115849
O O2 0.646891 0.374884 0.268474
O O3 0.577965 0.342897 0.919989
O O4 0.661000 0.594978 0.066009
O O5 0.281584 0.490570 0.267390
O O6 0.249290 0.650757 0.967531
O O7 0.172696 0.416720 0.966826
O O8 0.458917 0.338203 0.640110
O O9 0.480079 0.521804 0.890426
O O10 0.493301 0.180809 0.949056
O O11 0.344234 0.205919 0.460293
O O12 0.407021 0.205216 0.315980
O O13 0.458575 0.014571 0.610238
O O14 0.559853 0.785346 0.796957
O O15 0.436617 0.693911 0.594631
O O16 0.853367 0.018953 0.612466
#
# Coordination Sequence:
#
# PCOD8054939 Si02
#       8
#     4   4   4   4   4   4   4   4
#     4  11  25  44  73 103 143 192 237 301 361 429
#     4  12  25  51  71 101 146 194 248 297 361 432
#     4  10  21  40  66  99 135 174 223 287 359 422
#     4  11  23  40  67 100 133 184 225 293 355 419
#     4  11  23  42  67 106 136 171 237 295 363 429
#     4  11  26  46  73 113 142 192 245 300 366 441
#     4  11  25  47  69  96 139 192 240 294 354 429
#     4  11  22  42  68  96 136 179 225 285 361 425
#
# _framework density 22.152249000000001
#
# number of rings (size 3 to 8) (size 9 to 14) (size 15 to 20)
#    0.000    1.000    3.750    3.000    5.250    1.000 
#    4.500    0.000    0.000    0.000    0.000    0.000 
#    0.000    0.000    0.000    0.000    0.000    0.000 
#
# Total GULP energy -198239.748528 kJ/mol
# GULP energy per Si atom -12389.984283 kJ/mol
# Density = 2.210183 g / cm^3
# Si number density = 22.152249 Si / 1000 Ang^3
#
#
#
# Elastic Constant Matrix: (Units=GPa)
#
#
# Indices 1 2 3 4 5 6 
#
# 1 112.8005 39.8361 14.9700 0.0000 -9.6833 0.0000
# 2 39.8361 97.9599 11.9686 0.0000 -0.8106 0.0000
# 3 14.9700 11.9686 61.8462 0.0000 -3.8038 0.0000
# 4 0.0000 0.0000 0.0000 25.7152 0.0000 0.3131
# 5 -9.6833 -0.8106 -3.8038 0.0000 28.7162 0.0000
# 6 0.0000 0.0000 0.0000 0.3131 0.0000 43.4359
#
#
#
# Elastic Compliance Matrix: (Units=1/GPa)
#
#
# Indices 1 2 3 4 5 6 
#
# 1 0.010842 -0.004185 -0.001610 0.000000 0.003325 0.000000
# 2 -0.004185 0.012071 -0.001400 0.000000 -0.001256 0.000000
# 3 -0.001610 -0.001400 0.016932 0.000000 0.001660 0.000000
# 4 0.000000 0.000000 0.000000 0.038891 0.000000 -0.000280
# 5 0.003325 -0.001256 0.001660 0.000000 0.036129 0.000000
# 6 0.000000 0.000000 0.000000 -0.000280 0.000000 0.023024
#
#
# Mechanical properties :
#
#
# Convention : Reuss Voigt Hill
#
# Bulk Modulus (GPa) = 39.28554 45.12843 42.20699
# Shear Modulus (GPa) = 31.10139 33.29559 32.19849
#
# Velocity S-wave (km/s) = 3.75104 3.88110 3.81663
# Velocity P-wave (km/s) = 6.04427 6.36397 6.20618
#
# Compressibility (1/GPa) = 0.02545466
#
# Stress axis : x y z
#
# Youngs Moduli (GPa) = 92.23240 82.84504 59.05989
#
# Poissons Ratio (x) = 0.34669 0.09509
# Poissons Ratio (y) = 0.38598 0.08270
# Poissons Ratio (z) = 0.14850 0.11600
#
# Static dielectric constant tensor:
#      x y z
#    x 4.079810 0.000000 0.032900 
#    y 0.000000 3.983370 0.000000 
#    z 0.032900 0.000000 3.824540 
# 
# 
# High freq. dielectric constant tensor:
#      x y z
#    x 1.884830 0.000000 -0.007250 
#    y 0.000000 1.861470 0.000000 
#    z -0.007250 0.000000 1.869320 
# 
# From -- ./inp_files/12070.got.cif
#   From: 2010.06.25/outbox.cif.g09.slc.cpg/sg9_7_cif.got.tgz:12070.got - 2010.06.27 21:40:51.
