data_PCOD8054594
_publ_section_title
;
Structure prediction by ZEFSAII (Michael W. Deem and Ramdas Pophale) SiO2 
 PCOD8054594
Probable space group: C C
;
_chemical_formula_sum "Si O2"
_cell_formula_units_Z 28
_cell_length_a 17.871255
_cell_length_b 9.472438
_cell_length_c 14.375278
_cell_angle_alpha 90.000000
_cell_angle_beta 147.414288
_cell_angle_gamma 90.000000
_cell_volume 1310.592628
_symmetry_space_group_name_H-M "C C"
_symmetry_group_IT_number 9
_symmetry_cell_setting 'monoclinic'
loop_
_space_group_symop_operation_xyz
x,y,z
x,-y,1/2+z
1/2+x,1/2+y,z
1/2+x,1/2-y,1/2+z
loop_
_atom_site_type_symbol
_atom_site_label
_atom_site_fract_x
_atom_site_fract_y
_atom_site_fract_z
Si Si1 0.799100 0.380400 0.197620
Si Si2 0.634115 0.864558 0.954303
Si Si3 0.571869 0.821006 0.384485
Si Si4 0.752681 0.506840 0.839975
Si Si5 0.828502 0.637428 0.102701
Si Si6 0.734175 0.207353 0.761092
Si Si7 0.006315 0.834754 0.633815
O O1 0.758286 0.378505 0.263601
O O2 0.764573 0.529581 0.111762
O O3 0.961466 0.343026 0.352340
O O4 0.707766 0.259594 0.057054
O O5 0.477284 0.804539 0.793638
O O6 0.627611 0.025203 0.911177
O O7 0.724624 0.769011 0.978846
O O8 0.711805 0.849925 0.134541
O O9 0.493475 0.731578 0.222832
O O10 0.805868 0.363273 0.845732
O O11 0.599211 0.478101 0.723820
O O12 0.850103 0.556898 0.026901
O O13 0.585019 0.211896 0.655979
O O14 0.854638 0.116068 0.937956
#
# Coordination Sequence:
#
# PCOD8054594 Si02
#       7
#     4   4   4   4   4   4   4
#     4  11  23  44  68  94 135 178 228 277 344 403
#     4  11  24  40  65  98 137 173 222 285 338 400
#     4  11  24  42  67  99 136 174 223 289 339 402
#     4  10  23  40  71  91 136 183 221 279 345 405
#     4  11  22  46  65  95 134 182 221 281 338 408
#     4  10  20  38  66  95 130 177 232 268 339 408
#     4  10  20  40  66  96 128 183 227 273 341 408
#
# _framework density 21.364380000000001
#
# number of rings (size 3 to 8) (size 9 to 14) (size 15 to 20)
#    0.857    0.571    2.857    3.429    2.000    3.429 
#    5.143    0.000    0.000    0.000    0.000    0.000 
#    0.000    0.000    0.000    0.000    0.000    0.000 
#
# Total GULP energy -173469.422927 kJ/mol
# GULP energy per Si atom -12390.673066 kJ/mol
# Density = 2.131575 g / cm^3
# Si number density = 21.364380 Si / 1000 Ang^3
#
#
#
# Elastic Constant Matrix: (Units=GPa)
#
#
# Indices 1 2 3 4 5 6 
#
# 1 81.9891 34.5486 37.3400 0.0000 -8.6799 0.0000
# 2 34.5486 75.9165 42.1059 0.0000 14.0477 0.0000
# 3 37.3400 42.1059 116.4701 0.0000 1.8616 0.0000
# 4 0.0000 0.0000 0.0000 27.4375 0.0000 3.5643
# 5 -8.6799 14.0477 1.8616 0.0000 44.8442 0.0000
# 6 0.0000 0.0000 0.0000 3.5643 0.0000 37.9349
#
#
#
# Elastic Compliance Matrix: (Units=1/GPa)
#
#
# Indices 1 2 3 4 5 6 
#
# 1 0.017214 -0.007231 -0.002996 0.000000 0.005721 0.000000
# 2 -0.007231 0.020673 -0.005033 0.000000 -0.007667 0.000000
# 3 -0.002996 -0.005033 0.011358 0.000000 0.000525 0.000000
# 4 0.000000 0.000000 0.000000 0.036897 0.000000 -0.003467
# 5 0.005721 -0.007667 0.000525 0.000000 0.025787 0.000000
# 6 0.000000 0.000000 0.000000 -0.003467 0.000000 0.026687
#
#
# Mechanical properties :
#
#
# Convention : Reuss Voigt Hill
#
# Bulk Modulus (GPa) = 53.40504 55.81829 54.61166
# Shear Modulus (GPa) = 28.51020 32.73540 30.62280
#
# Velocity S-wave (km/s) = 3.65701 3.91863 3.79008
# Velocity P-wave (km/s) = 6.54852 6.83065 6.69107
#
# Compressibility (1/GPa) = 0.01872483
#
# Stress axis : x y z
#
# Youngs Moduli (GPa) = 58.09290 48.37209 88.04703
#
# Poissons Ratio (x) = 0.34976 0.26380
# Poissons Ratio (y) = 0.42005 0.44314
# Poissons Ratio (z) = 0.17405 0.24346
#
# Static dielectric constant tensor:
#      x y z
#    x 3.688850 0.000000 0.018200 
#    y 0.000000 3.661070 0.000000 
#    z 0.018200 0.000000 3.918400 
# 
# 
# High freq. dielectric constant tensor:
#      x y z
#    x 1.827150 0.000000 0.003050 
#    y 0.000000 1.811510 0.000000 
#    z 0.003050 0.000000 1.843970 
# 
# From -- ./inp_files/27352.got.cif
#   From: 2010.06.25/outbox.cif.g09.slc.cpg/sg9_14_cif.got.tgz:27352.got - 2010.06.27 21:40:51.
