data_PCOD8054039
_publ_section_title
;
Structure prediction by ZEFSAII (Michael W. Deem and Ramdas Pophale) SiO2 
 PCOD8054039
Probable space group: C M
;
_chemical_formula_sum "Si O2"
_cell_formula_units_Z 32
_cell_length_a 7.430093
_cell_length_b 24.011234
_cell_length_c 10.669887
_cell_angle_alpha 90.000000
_cell_angle_beta 52.000103
_cell_angle_gamma 90.000000
_cell_volume 1500.034694
_symmetry_space_group_name_H-M "C M"
_symmetry_group_IT_number 8
_symmetry_cell_setting 'monoclinic'
loop_
_space_group_symop_operation_xyz
x,y,z
x,-y,z
1/2+x,1/2+y,z
1/2+x,1/2-y,z
loop_
_atom_site_type_symbol
_atom_site_label
_atom_site_fract_x
_atom_site_fract_y
_atom_site_fract_z
Si Si1 0.509600 0.135258 0.245200
Si Si2 0.256688 0.357454 0.733099
Si Si3 0.391276 0.062901 0.782415
Si Si4 0.648547 0.937297 0.414178
Si Si5 0.510191 0.749287 0.934108
Si Si6 0.516487 0.636865 0.363912
Si Si7 0.466990 0.628023 0.893572
Si Si8 0.539216 0.256143 0.188384
O O1 0.525225 0.098890 0.362138
O O2 0.278537 0.119587 0.269978
O O3 0.503232 0.200460 0.286255
O O4 0.721522 0.124141 0.063819
O O5 0.396731 0.348908 0.546393
O O6 0.426877 0.384031 0.763310
O O7 0.040159 0.397933 0.809211
O O8 0.180482 0.297122 0.816776
O O9 0.484277 0.065645 0.602716
O O10 0.129034 0.082612 0.888951
O O11 0.400076 0.000000 0.831500
O O12 0.897697 0.914681 0.345050
O O13 0.679948 0.000000 0.351575
O O14 0.377855 0.751402 0.133054
O O15 0.253166 0.760577 0.989445
O O16 0.590567 0.688105 0.857089
O O17 0.477560 0.689448 0.290953
#
# Coordination Sequence:
#
# PCOD8054039 Si02
#       8
#     4   4   4   4   4   4   4   4
#     4  11  23  40  64  93 128 167 209 260 319 379
#     4  11  23  39  63  97 127 165 215 263 315 382
#     4  10  24  45  65  89 126 169 216 269 317 370
#     4  10  24  45  64  89 126 169 217 266 317 372
#     4  11  20  39  60  88 129 170 198 256 321 376
#     4  11  23  39  65  95 127 169 214 258 317 386
#     4  11  23  40  65  94 130 167 210 258 323 381
#     4  11  20  39  60  87 129 170 201 252 323 374
#
# _framework density 21.332837999999999
#
# number of rings (size 3 to 8) (size 9 to 14) (size 15 to 20)
#    0.000    1.250    3.750    3.000    0.000    4.500 
#    0.000    2.500    0.000    0.000    0.000    0.000 
#    0.000    0.000    0.000    0.000    0.000    0.000 
#
# Total GULP energy -198317.278169 kJ/mol
# GULP energy per Si atom -12394.829886 kJ/mol
# Density = 2.128428 g / cm^3
# Si number density = 21.332838 Si / 1000 Ang^3
#
#
#
# Elastic Constant Matrix: (Units=GPa)
#
#
# Indices 1 2 3 4 5 6 
#
# 1 106.4995 70.9697 36.5317 0.0000 -0.6334 0.0000
# 2 70.9697 131.5306 45.3787 0.0000 7.4978 0.0000
# 3 36.5317 45.3787 61.7135 0.0000 3.4092 0.0000
# 4 0.0000 0.0000 0.0000 29.9220 0.0000 -1.0797
# 5 -0.6334 7.4978 3.4092 0.0000 42.5562 0.0000
# 6 0.0000 0.0000 0.0000 -1.0797 0.0000 29.1545
#
#
#
# Elastic Compliance Matrix: (Units=1/GPa)
#
#
# Indices 1 2 3 4 5 6 
#
# 1 0.015507 -0.007059 -0.004088 0.000000 0.001802 0.000000
# 2 -0.007059 0.013462 -0.005608 0.000000 -0.002028 0.000000
# 3 -0.004088 -0.005608 0.022797 0.000000 -0.000899 0.000000
# 4 0.000000 0.000000 0.000000 0.033465 0.000000 0.001239
# 5 0.001802 -0.002028 -0.000899 0.000000 0.023954 0.000000
# 6 0.000000 0.000000 0.000000 0.001239 0.000000 0.034346
#
#
# Mechanical properties :
#
#
# Convention : Reuss Voigt Hill
#
# Bulk Modulus (GPa) = 54.77875 67.27821 61.02848
# Shear Modulus (GPa) = 27.30328 30.11745 28.71036
#
# Velocity S-wave (km/s) = 3.58141 3.76145 3.67253
# Velocity P-wave (km/s) = 6.54491 7.10426 6.83032
#
# Compressibility (1/GPa) = 0.01825525
#
# Stress axis : x y z
#
# Youngs Moduli (GPa) = 64.48686 74.28200 43.86482
#
# Poissons Ratio (x) = 0.52438 0.17933
# Poissons Ratio (y) = 0.45524 0.24600
# Poissons Ratio (z) = 0.26363 0.41658
#
# Static dielectric constant tensor:
#      x y z
#    x 4.469320 0.000000 0.075570 
#    y 0.000000 3.814310 0.000000 
#    z 0.075570 0.000000 3.665790 
# 
# 
# High freq. dielectric constant tensor:
#      x y z
#    x 1.879880 0.000000 0.002120 
#    y 0.000000 1.826610 0.000000 
#    z 0.002120 0.000000 1.824690 
# 
# From -- ./inp_files/19254.got.cif
#   From: 2010.03.12/outbox.cif.g09.slc.cpg/sg8_10_cif.got.tgz:19254.got - 2010.03.31 10:45:26.
