data_PCOD8054218
_publ_section_title
;
Structure prediction by ZEFSAII (Michael W. Deem and Ramdas Pophale) SiO2 
 PCOD8054218
Probable space group: C C
;
_chemical_formula_sum "Si O2"
_cell_formula_units_Z 32
_cell_length_a 18.948550
_cell_length_b 9.942435
_cell_length_c 8.673666
_cell_angle_alpha 90.000000
_cell_angle_beta 71.124934
_cell_angle_gamma 90.000000
_cell_volume 1546.202676
_symmetry_space_group_name_H-M "C C"
_symmetry_group_IT_number 9
_symmetry_cell_setting 'monoclinic'
loop_
_space_group_symop_operation_xyz
x,y,z
x,-y,1/2+z
1/2+x,1/2+y,z
1/2+x,1/2-y,1/2+z
loop_
_atom_site_type_symbol
_atom_site_label
_atom_site_fract_x
_atom_site_fract_y
_atom_site_fract_z
Si Si1 0.691500 0.616261 0.689200
Si Si2 0.597929 0.959076 0.262737
Si Si3 0.141247 0.329928 0.513798
Si Si4 0.988767 0.826469 0.115203
Si Si5 0.520876 0.593214 0.910837
Si Si6 0.879214 0.597001 0.109673
Si Si7 0.503018 0.874080 0.063583
Si Si8 0.282103 0.952029 0.402448
O O1 0.699816 0.732173 0.553490
O O2 0.608676 0.597232 0.810401
O O3 0.717611 0.488323 0.571364
O O4 0.745696 0.645517 0.797413
O O5 0.650801 0.855831 0.323097
O O6 0.649320 0.030549 0.100507
O O7 0.565797 0.069016 0.404125
O O8 0.529599 0.885044 0.223437
O O9 0.057329 0.274906 0.589952
O O10 0.920314 0.736360 0.110027
O O11 0.971558 0.892958 0.292077
O O12 0.004696 0.946409 0.987113
O O13 0.494654 0.714510 0.040762
O O14 0.815108 0.580115 0.284901
O O15 0.928160 0.459773 0.087806
O O16 0.847690 0.614233 0.957851
#
# Coordination Sequence:
#
# PCOD8054218 Si02
#       8
#     4   4   4   4   4   4   4   4
#     4  10  20  42  55  87 123 156 210 241 297 365
#     4  10  18  33  58  93 116 155 184 245 320 360
#     4  10  20  35  58  87 125 149 196 254 308 357
#     4  11  22  35  57  92 125 150 193 253 321 350
#     4  11  23  36  59  95 124 153 181 263 324 361
#     4  11  21  39  64  90 117 156 215 245 292 367
#     4  11  19  36  60  94 122 148 196 250 318 358
#     4  10  23  38  63  82 116 175 207 247 272 356
#
# _framework density 20.695862000000002
#
# number of rings (size 3 to 8) (size 9 to 14) (size 15 to 20)
#    0.000    1.500    5.000    3.000    1.750    0.000 
#    4.500    0.000    0.000   10.500    0.000    0.000 
#    0.000    0.000    0.000    0.000    0.000    0.000 
#
# Total GULP energy -198227.938640 kJ/mol
# GULP energy per Si atom -12389.246165 kJ/mol
# Density = 2.064876 g / cm^3
# Si number density = 20.695862 Si / 1000 Ang^3
#
#
#
# Elastic Constant Matrix: (Units=GPa)
#
#
# Indices 1 2 3 4 5 6 
#
# 1 102.9285 53.5155 55.6448 0.0000 39.7974 0.0000
# 2 53.5155 101.3028 49.3825 0.0000 17.4655 0.0000
# 3 55.6448 49.3825 112.0332 0.0000 46.8079 0.0000
# 4 0.0000 0.0000 0.0000 34.8154 0.0000 11.6581
# 5 39.7974 17.4655 46.8079 0.0000 50.8110 0.0000
# 6 0.0000 0.0000 0.0000 11.6581 0.0000 28.8112
#
#
#
# Elastic Compliance Matrix: (Units=1/GPa)
#
#
# Indices 1 2 3 4 5 6 
#
# 1 0.018296 -0.007082 -0.001618 0.000000 -0.010405 0.000000
# 2 -0.007082 0.015366 -0.005472 0.000000 0.005307 0.000000
# 3 -0.001618 -0.005472 0.017601 0.000000 -0.013066 0.000000
# 4 0.000000 0.000000 0.000000 0.033225 0.000000 -0.013444
# 5 -0.010405 0.005307 -0.013066 0.000000 0.038042 0.000000
# 6 0.000000 0.000000 0.000000 -0.013444 0.000000 0.040149
#
#
# Mechanical properties :
#
#
# Convention : Reuss Voigt Hill
#
# Bulk Modulus (GPa) = 43.63781 70.37224 57.00502
# Shear Modulus (GPa) = 25.16837 33.40230 29.28533
#
# Velocity S-wave (km/s) = 3.49105 4.02177 3.76577
# Velocity P-wave (km/s) = 6.11400 7.45943 6.81997
#
# Compressibility (1/GPa) = 0.02291591
#
# Stress axis : x y z
#
# Youngs Moduli (GPa) = 54.65773 65.08056 56.81628
#
# Poissons Ratio (x) = 0.46093 0.09193
# Poissons Ratio (y) = 0.38711 0.31092
# Poissons Ratio (z) = 0.08844 0.35615
#
# Static dielectric constant tensor:
#      x y z
#    x 3.686440 0.000000 0.452040 
#    y 0.000000 3.692560 0.000000 
#    z 0.452040 0.000000 4.181850 
# 
# 
# High freq. dielectric constant tensor:
#      x y z
#    x 1.782820 0.000000 0.031490 
#    y 0.000000 1.788320 0.000000 
#    z 0.031490 0.000000 1.830010 
# 
# From -- ./inp_files/11322.got.cif
#   From: 2010.06.25/outbox.cif.g09.slc.cpg/sg9_6_cif.got.tgz:11322.got - 2010.06.27 21:40:51.
