data_PCOD8054862
_publ_section_title
;
Structure prediction by ZEFSAII (Michael W. Deem and Ramdas Pophale) SiO2 
 PCOD8054862
Probable space group: C C
;
_chemical_formula_sum "Si O2"
_cell_formula_units_Z 20
_cell_length_a 26.067618
_cell_length_b 7.162006
_cell_length_c 5.244285
_cell_angle_alpha 90.000000
_cell_angle_beta 112.799106
_cell_angle_gamma 90.000000
_cell_volume 902.592288
_symmetry_space_group_name_H-M "C C"
_symmetry_group_IT_number 9
_symmetry_cell_setting 'monoclinic'
loop_
_space_group_symop_operation_xyz
x,y,z
x,-y,1/2+z
1/2+x,1/2+y,z
1/2+x,1/2-y,1/2+z
loop_
_atom_site_type_symbol
_atom_site_label
_atom_site_fract_x
_atom_site_fract_y
_atom_site_fract_z
Si Si1 0.498180 0.380055 0.800510
Si Si2 0.336144 0.207019 0.977977
Si Si3 0.384005 0.210609 0.570693
Si Si4 0.599841 0.119265 0.002581
Si Si5 0.224632 0.381080 0.700691
O O1 0.491121 0.530532 0.564613
O O2 0.450926 0.219806 0.681133
O O3 0.558603 0.290735 0.887094
O O4 0.356312 0.312621 0.273374
O O5 0.360504 0.999050 0.046039
O O6 0.363334 0.313375 0.788541
O O7 0.268994 0.213694 0.827017
O O8 0.662390 0.201363 0.104634
O O9 0.589280 0.030098 0.258951
O O10 0.233686 0.463557 0.435964
#
# Coordination Sequence:
#
# PCOD8054862 Si02
#       5
#     4   4   4   4   4
#     4  12  26  43  64 100 132 166 220 275 314 373
#     4  10  21  39  60  93 120 173 209 256 318 388
#     4  10  23  38  60  90 126 168 210 257 324 376
#     4  10  23  43  70  94 128 178 212 259 325 388
#     4  10  21  39  64  95 128 163 213 265 313 375
#
# _framework density 22.158396
#
# number of rings (size 3 to 8) (size 9 to 14) (size 15 to 20)
#    0.000    1.600    0.000    3.600    5.600    4.800 
#    7.200    0.000    0.000    0.000    0.000    0.000 
#    0.000    0.000    0.000    0.000    0.000    0.000 
#
# Total GULP energy -123951.233165 kJ/mol
# GULP energy per Si atom -12395.123316 kJ/mol
# Density = 2.210796 g / cm^3
# Si number density = 22.158396 Si / 1000 Ang^3
#
#
#
# Elastic Constant Matrix: (Units=GPa)
#
#
# Indices 1 2 3 4 5 6 
#
# 1 127.2422 35.1003 59.7557 0.0000 21.8357 0.0000
# 2 35.1003 57.3680 15.4844 0.0000 29.9045 0.0000
# 3 59.7557 15.4844 154.1008 0.0000 -7.2772 0.0000
# 4 0.0000 0.0000 0.0000 21.5110 0.0000 19.3430
# 5 21.8357 29.9045 -7.2772 0.0000 65.5632 0.0000
# 6 0.0000 0.0000 0.0000 19.3430 0.0000 32.3618
#
#
#
# Elastic Compliance Matrix: (Units=1/GPa)
#
#
# Indices 1 2 3 4 5 6 
#
# 1 0.011449 -0.004841 -0.004050 0.000000 -0.002055 0.000000
# 2 -0.004841 0.026189 -0.001249 0.000000 -0.010472 0.000000
# 3 -0.004050 -0.001249 0.008320 0.000000 0.002842 0.000000
# 4 0.000000 0.000000 0.000000 0.100508 0.000000 -0.060075
# 5 -0.002055 -0.010472 0.002842 0.000000 0.021028 0.000000
# 6 0.000000 0.000000 0.000000 -0.060075 0.000000 0.066808
#
#
# Mechanical properties :
#
#
# Convention : Reuss Voigt Hill
#
# Bulk Modulus (GPa) = 38.94454 62.15465 50.54959
# Shear Modulus (GPa) = 19.00124 39.11189 29.05657
#
# Velocity S-wave (km/s) = 2.93152 4.20587 3.62513
# Velocity P-wave (km/s) = 5.39185 7.19005 6.35488
#
# Compressibility (1/GPa) = 0.02567754
#
# Stress axis : x y z
#
# Youngs Moduli (GPa) = 87.34346 38.18428 120.19927
#
# Poissons Ratio (x) = 0.18484 0.48683
# Poissons Ratio (y) = 0.42281 0.15012
# Poissons Ratio (z) = 0.35376 0.04769
#
# Static dielectric constant tensor:
#      x y z
#    x 4.987820 0.000000 -1.187850 
#    y 0.000000 3.520770 0.000000 
#    z -1.187850 0.000000 6.196190 
# 
# 
# High freq. dielectric constant tensor:
#      x y z
#    x 1.890540 0.000000 -0.010570 
#    y 0.000000 1.829520 0.000000 
#    z -0.010570 0.000000 1.909960 
# 
# From -- ./inp_files/2835.got.cif
#   From: 2010.06.25/outbox.cif.g09.slc.cpg/sg9_2_cif.got.tgz:2835.got - 2010.06.27 21:40:51.
