data_PCOD8054107
_publ_section_title
;
Structure prediction by ZEFSAII (Michael W. Deem and Ramdas Pophale) SiO2 
 PCOD8054107
Probable space group: C M
;
_chemical_formula_sum "Si O2"
_cell_formula_units_Z 20
_cell_length_a 8.907471
_cell_length_b 22.697470
_cell_length_c 5.826663
_cell_angle_alpha 90.000000
_cell_angle_beta 130.788337
_cell_angle_gamma 90.000000
_cell_volume 891.910145
_symmetry_space_group_name_H-M "C M"
_symmetry_group_IT_number 8
_symmetry_cell_setting 'monoclinic'
loop_
_space_group_symop_operation_xyz
x,y,z
x,-y,z
1/2+x,1/2+y,z
1/2+x,1/2-y,z
loop_
_atom_site_type_symbol
_atom_site_label
_atom_site_fract_x
_atom_site_fract_y
_atom_site_fract_z
Si Si1 0.002770 0.884344 0.045160
Si Si2 0.287060 0.188809 0.600915
Si Si3 0.451345 0.697372 0.600614
Si Si4 0.438181 0.000000 0.873926
Si Si5 0.210648 0.000000 0.139095
Si Si6 0.169240 0.617380 0.048949
O O1 0.174298 0.869296 0.399196
O O2 0.780611 0.893747 0.918751
O O3 0.070549 0.943011 0.983387
O O4 0.004127 0.823475 0.906949
O O5 0.314871 0.244308 0.458212
O O6 0.159809 0.212292 0.687890
O O7 0.506199 0.168307 0.884165
O O8 0.338478 0.640629 0.386980
O O9 0.326602 0.000000 0.507901
O O10 0.577619 0.943636 0.038066
O O11 0.319448 0.000000 0.999176
#
# Coordination Sequence:
#
# PCOD8054107 Si02
#       6
#     4   4   4   2   2   4
#     4  11  25  44  70  99 140 182 236 292 352 424
#     4  11  23  44  65 101 141 179 237 287 358 418
#     4  11  25  40  69 100 137 185 232 297 345 429
#     4  12  27  47  76 105 142 192 234 298 357 424
#     4  12  27  47  76 103 146 186 240 294 359 422
#     4  11  25  44  70 101 138 183 238 286 360 418
#
# _framework density 22.423784000000001
#
# number of rings (size 3 to 8) (size 9 to 14) (size 15 to 20)
#    0.000    0.800    2.000    4.200    5.600    8.800 
#    0.000    0.000    0.000    0.000    0.000    0.000 
#    0.000    0.000    0.000    0.000    0.000    0.000 
#
# Total GULP energy -123887.685470 kJ/mol
# GULP energy per Si atom -12388.768547 kJ/mol
# Density = 2.237275 g / cm^3
# Si number density = 22.423784 Si / 1000 Ang^3
#
#
#
# Elastic Constant Matrix: (Units=GPa)
#
#
# Indices 1 2 3 4 5 6 
#
# 1 225.7557 78.3427 38.6437 0.0000 2.6013 0.0000
# 2 78.3427 147.9873 12.0499 0.0000 7.1571 0.0000
# 3 38.6437 12.0499 56.6164 0.0000 4.6110 0.0000
# 4 0.0000 0.0000 0.0000 27.4733 0.0000 2.0517
# 5 2.6013 7.1571 4.6110 0.0000 34.2034 0.0000
# 6 0.0000 0.0000 0.0000 2.0517 0.0000 49.9623
#
#
#
# Elastic Compliance Matrix: (Units=1/GPa)
#
#
# Indices 1 2 3 4 5 6 
#
# 1 0.006053 -0.002946 -0.003556 0.000000 0.000635 0.000000
# 2 -0.002946 0.008364 0.000359 0.000000 -0.001574 0.000000
# 3 -0.003556 0.000359 0.020220 0.000000 -0.002530 0.000000
# 4 0.000000 0.000000 0.000000 0.036511 0.000000 -0.001499
# 5 0.000635 -0.001574 -0.002530 0.000000 0.029859 0.000000
# 6 0.000000 0.000000 0.000000 -0.001499 0.000000 0.020077
#
#
# Mechanical properties :
#
#
# Convention : Reuss Voigt Hill
#
# Bulk Modulus (GPa) = 44.74266 76.49244 60.61755
# Shear Modulus (GPa) = 35.50620 42.41599 38.96109
#
# Velocity S-wave (km/s) = 3.98353 4.35393 4.17284
# Velocity P-wave (km/s) = 6.41518 7.71115 7.09283
#
# Compressibility (1/GPa) = 0.02235003
#
# Stress axis : x y z
#
# Youngs Moduli (GPa) = 165.20085 119.56484 49.45610
#
# Poissons Ratio (x) = 0.35220 0.17589
# Poissons Ratio (y) = 0.48662 -0.01774
# Poissons Ratio (z) = 0.58753 -0.04289
#
# Static dielectric constant tensor:
#      x y z
#    x 4.335580 0.000000 -0.056540 
#    y 0.000000 4.063560 0.000000 
#    z -0.056540 0.000000 3.808480 
# 
# 
# High freq. dielectric constant tensor:
#      x y z
#    x 1.903670 0.000000 0.007700 
#    y 0.000000 1.902490 0.000000 
#    z 0.007700 0.000000 1.867320 
# 
# From -- ./inp_files/1375.got.cif
#   From: 2010.03.12/outbox.cif.g09.slc.cpg/sg8_1_cif.got.tgz:1375.got - 2010.03.31 10:45:26.
