data_PCOD8054369
_publ_section_title
;
Structure prediction by ZEFSAII (Michael W. Deem and Ramdas Pophale) SiO2 
 PCOD8054369
Probable space group: C C
;
_chemical_formula_sum "Si O2"
_cell_formula_units_Z 32
_cell_length_a 8.521149
_cell_length_b 18.173543
_cell_length_c 15.684230
_cell_angle_alpha 90.000000
_cell_angle_beta 39.374473
_cell_angle_gamma 90.000000
_cell_volume 1540.829817
_symmetry_space_group_name_H-M "C C"
_symmetry_group_IT_number 9
_symmetry_cell_setting 'monoclinic'
loop_
_space_group_symop_operation_xyz
x,y,z
x,-y,1/2+z
1/2+x,1/2+y,z
1/2+x,1/2-y,1/2+z
loop_
_atom_site_type_symbol
_atom_site_label
_atom_site_fract_x
_atom_site_fract_y
_atom_site_fract_z
Si Si1 0.200830 0.614281 0.623110
Si Si2 0.965981 0.401368 0.396059
Si Si3 0.738002 0.885722 0.538805
Si Si4 0.456152 0.246255 0.985226
Si Si5 0.472852 0.598635 0.765856
Si Si6 0.081122 0.997066 0.476587
Si Si7 0.357721 0.997063 0.185317
Si Si8 0.482673 0.253741 0.176692
O O1 0.270322 0.687430 0.540512
O O2 0.444970 0.572865 0.559879
O O3 0.021901 0.631270 0.778044
O O4 0.067575 0.564650 0.608768
O O5 0.854404 0.333184 0.497260
O O6 0.770732 0.468629 0.470101
O O7 0.219418 0.432282 0.330957
O O8 0.916934 0.868728 0.383871
O O9 0.871260 0.935354 0.553144
O O10 0.668492 0.812576 0.621416
O O11 0.493875 0.927139 0.602024
O O12 0.469427 0.249997 0.080952
O O13 0.719408 0.260140 0.830958
O O14 0.668109 0.531375 0.691806
O O15 0.584422 0.666820 0.664657
O O16 0.219419 0.013184 0.330953
#
# Coordination Sequence:
#
# PCOD8054369 Si02
#       8
#     4   4   4   4   4   4   4   4
#     4  10  19  37  60  85 117 158 198 239 299 358
#     4  10  20  36  57  88 117 154 197 249 292 347
#     4  10  19  37  60  85 117 158 198 239 299 358
#     4  11  20  36  59  86 116 158 195 241 295 349
#     4  10  20  36  57  88 117 154 197 249 292 347
#     4   9  20  36  59  87 118 156 196 245 299 357
#     4   9  20  36  59  87 118 156 196 245 299 357
#     4  11  20  36  59  86 116 158 195 241 295 349
#
# _framework density 20.76803
#
# number of rings (size 3 to 8) (size 9 to 14) (size 15 to 20)
#    0.000    2.000    5.000    0.750    0.000    2.000 
#    0.000    0.000    0.000    0.000    0.000    0.000 
#    0.000    0.000    0.000    0.000    0.000    0.000 
#
# Total GULP energy -198298.573942 kJ/mol
# GULP energy per Si atom -12393.660871 kJ/mol
# Density = 2.072076 g / cm^3
# Si number density = 20.768030 Si / 1000 Ang^3
#
#
#
# Elastic Constant Matrix: (Units=GPa)
#
#
# Indices 1 2 3 4 5 6 
#
# 1 87.0385 40.4121 7.1462 -0.0005 -10.0556 -0.0003
# 2 40.4121 87.7219 19.7237 -0.0006 -1.1094 0.0005
# 3 7.1462 19.7237 72.9418 0.0003 10.1275 0.0027
# 4 -0.0005 -0.0006 0.0003 35.0172 0.0005 0.9207
# 5 -10.0556 -1.1094 10.1275 0.0005 29.6131 -0.0004
# 6 -0.0003 0.0005 0.0027 0.9207 -0.0004 27.6902
#
#
#
# Elastic Compliance Matrix: (Units=1/GPa)
#
#
# Indices 1 2 3 4 5 6 
#
# 1 0.015311 -0.006915 -0.000332 0.000000 0.005054 0.000000
# 2 -0.006915 0.015339 -0.003385 0.000000 -0.000616 0.000000
# 3 -0.000332 -0.003385 0.015423 0.000000 -0.005514 -0.000002
# 4 0.000000 0.000000 0.000000 0.028582 0.000000 -0.000950
# 5 0.005054 -0.000616 -0.005514 0.000000 0.037348 0.000001
# 6 0.000000 0.000000 -0.000002 -0.000950 0.000001 0.036145
#
#
# Mechanical properties :
#
#
# Convention : Reuss Voigt Hill
#
# Bulk Modulus (GPa) = 40.30725 42.47403 41.39064
# Shear Modulus (GPa) = 28.14045 30.49211 29.31628
#
# Velocity S-wave (km/s) = 3.68501 3.83590 3.76121
# Velocity P-wave (km/s) = 6.12831 6.33363 6.23182
#
# Compressibility (1/GPa) = 0.02480943
#
# Stress axis : x y z
#
# Youngs Moduli (GPa) = 65.31300 65.19542 64.83885
#
# Poissons Ratio (x) = 0.45082 0.02152
# Poissons Ratio (y) = 0.45164 0.21945
# Poissons Ratio (z) = 0.02167 0.22066
#
# Static dielectric constant tensor:
#      x y z
#    x 3.671100 0.000000 -0.151380 
#    y 0.000000 4.289160 0.000020 
#    z -0.151380 0.000020 4.051950 
# 
# 
# High freq. dielectric constant tensor:
#      x y z
#    x 1.789080 0.000000 0.001900 
#    y 0.000000 1.811210 0.000000 
#    z 0.001900 0.000000 1.811760 
# 
# From -- ./inp_files/15180.got.cif
#   From: 2010.06.25/outbox.cif.g09.slc.cpg/sg9_8_cif.got.tgz:15180.got - 2010.06.27 21:40:51.
