data_PCOD8054723
_publ_section_title
;
Structure prediction by ZEFSAII (Michael W. Deem and Ramdas Pophale) SiO2 
 PCOD8054723
Probable space group: C C
;
_chemical_formula_sum "Si O2"
_cell_formula_units_Z 20
_cell_length_a 7.523266
_cell_length_b 21.767744
_cell_length_c 5.320254
_cell_angle_alpha 90.000000
_cell_angle_beta 59.145550
_cell_angle_gamma 90.000000
_cell_volume 747.960727
_symmetry_space_group_name_H-M "C C"
_symmetry_group_IT_number 9
_symmetry_cell_setting 'monoclinic'
loop_
_space_group_symop_operation_xyz
x,y,z
x,-y,1/2+z
1/2+x,1/2+y,z
1/2+x,1/2-y,1/2+z
loop_
_atom_site_type_symbol
_atom_site_label
_atom_site_fract_x
_atom_site_fract_y
_atom_site_fract_z
Si Si1 0.886200 0.292948 0.008100
Si Si2 0.220222 0.846038 0.619844
Si Si3 0.350198 0.023074 0.884704
Si Si4 0.815675 0.026832 0.981176
Si Si5 0.829861 0.840520 0.625752
O O1 0.778249 0.296936 0.359526
O O2 0.912407 0.220680 0.920615
O O3 0.758044 0.323148 0.873583
O O4 0.099769 0.328500 0.886711
O O5 0.354584 0.906680 0.468927
O O6 0.974055 0.856701 0.762352
O O7 0.238994 0.016623 0.690225
O O8 0.578982 0.997209 0.657801
O O9 0.829326 0.100553 0.942676
O O10 0.926760 0.004049 0.158494
#
# Coordination Sequence:
#
# PCOD8054723 Si02
#       5
#     4   4   4   4   4
#     4  12  28  48  73 111 153 200 254 309 369 445
#     4  12  28  49  77 109 155 200 252 309 374 450
#     4  10  20  42  70 105 141 189 238 304 369 432
#     4  10  22  42  70 105 142 190 241 302 369 434
#     4  12  28  49  80 110 155 201 251 310 379 451
#
# _framework density 26.739370999999998
#
# number of rings (size 3 to 8) (size 9 to 14) (size 15 to 20)
#    0.000    0.800    2.000    6.000    2.800    6.400 
#    0.000    0.000    0.000    0.000    0.000    0.000 
#    0.000    0.000    0.000    0.000    0.000    0.000 
#
# Total GULP energy -123963.050985 kJ/mol
# GULP energy per Si atom -12396.305098 kJ/mol
# Density = 2.667851 g / cm^3
# Si number density = 26.739371 Si / 1000 Ang^3
#
#
#
# Elastic Constant Matrix: (Units=GPa)
#
#
# Indices 1 2 3 4 5 6 
#
# 1 130.7938 9.8759 24.4865 0.0000 15.0951 0.0000
# 2 9.8759 153.0205 3.5436 0.0000 20.0819 0.0000
# 3 24.4865 3.5436 120.7023 0.0000 38.0484 0.0000
# 4 0.0000 0.0000 0.0000 39.8976 0.0000 0.7355
# 5 15.0951 20.0819 38.0484 0.0000 32.9722 0.0000
# 6 0.0000 0.0000 0.0000 0.7355 0.0000 41.1298
#
#
#
# Elastic Compliance Matrix: (Units=1/GPa)
#
#
# Indices 1 2 3 4 5 6 
#
# 1 0.008118 -0.000149 -0.000785 0.000000 -0.002720 0.000000
# 2 -0.000149 0.007368 0.001897 0.000000 -0.006609 0.000000
# 3 -0.000785 0.001897 0.013579 0.000000 -0.016465 0.000000
# 4 0.000000 0.000000 0.000000 0.025072 0.000000 -0.000448
# 5 -0.002720 -0.006609 -0.016465 0.000000 0.054599 0.000000
# 6 0.000000 0.000000 0.000000 -0.000448 0.000000 0.024321
#
#
# Mechanical properties :
#
#
# Convention : Reuss Voigt Hill
#
# Bulk Modulus (GPa) = 32.26772 53.36983 42.81878
# Shear Modulus (GPa) = 35.34550 47.24063 41.29307
#
# Velocity S-wave (km/s) = 3.63967 4.20778 3.93400
# Velocity P-wave (km/s) = 5.45497 6.60377 6.05667
#
# Compressibility (1/GPa) = 0.03099072
#
# Stress axis : x y z
#
# Youngs Moduli (GPa) = 123.18706 135.72164 73.64506
#
# Poissons Ratio (x) = 0.02019 0.05782
# Poissons Ratio (y) = 0.01833 -0.13971
# Poissons Ratio (z) = 0.09671 -0.25747
#
# Static dielectric constant tensor:
#      x y z
#    x 5.848250 0.000000 0.682450 
#    y 0.000000 4.866670 0.000000 
#    z 0.682450 0.000000 5.244480 
# 
# 
# High freq. dielectric constant tensor:
#      x y z
#    x 2.105710 0.000000 -0.004320 
#    y 0.000000 2.077280 0.000000 
#    z -0.004320 0.000000 2.068800 
# 
# From -- ./inp_files/589.got.cif
#   From: 2010.06.25/outbox.cif.g09.slc.cpg/sg9_1_cif.got.tgz:589.got - 2010.06.27 21:40:51.
