data_PCOD8054114
_publ_section_title
;
Structure prediction by ZEFSAII (Michael W. Deem and Ramdas Pophale) SiO2 
 PCOD8054114
Probable space group: C M
;
_chemical_formula_sum "Si O2"
_cell_formula_units_Z 24
_cell_length_a 9.786259
_cell_length_b 26.181109
_cell_length_c 8.365089
_cell_angle_alpha 90.000000
_cell_angle_beta 30.721145
_cell_angle_gamma 90.000000
_cell_volume 1094.907395
_symmetry_space_group_name_H-M "C M"
_symmetry_group_IT_number 8
_symmetry_cell_setting 'monoclinic'
loop_
_space_group_symop_operation_xyz
x,y,z
x,-y,z
1/2+x,1/2+y,z
1/2+x,1/2-y,z
loop_
_atom_site_type_symbol
_atom_site_label
_atom_site_fract_x
_atom_site_fract_y
_atom_site_fract_z
Si Si1 0.640650 0.940977 0.466690
Si Si2 0.577425 0.279388 0.406157
Si Si3 0.572921 0.941966 0.903325
Si Si4 0.646647 0.613969 0.834891
Si Si5 0.078821 0.775481 0.032930
Si Si6 0.576913 0.388879 0.534235
O O1 0.931605 0.916233 0.156824
O O2 0.661137 0.000000 0.397902
O O3 0.541866 0.932998 0.746135
O O4 0.431725 0.913906 0.559101
O O5 0.812353 0.239559 0.206183
O O6 0.507371 0.278187 0.290479
O O7 0.672069 0.335332 0.364315
O O8 0.311314 0.265628 0.771501
O O9 0.287516 0.931828 0.270834
O O10 0.659343 0.000000 0.853330
O O11 0.787113 0.903335 0.759990
O O12 0.683696 0.670692 0.863542
O O13 0.552997 0.615239 0.747490
#
# Coordination Sequence:
#
# PCOD8054114 Si02
#       6
#     4   4   4   4   4   4
#     4  11  24  43  66  93 127 168 212 259 314 373
#     4  12  25  44  67  94 128 166 210 259 314 373
#     4  11  24  43  66  93 127 168 212 259 314 373
#     4  12  25  42  65  95 129 166 210 259 314 373
#     4  12  25  44  67  94 128 166 210 259 314 373
#     4  12  25  42  65  95 129 166 210 259 314 373
#
# _framework density 21.919661999999999
#
# number of rings (size 3 to 8) (size 9 to 14) (size 15 to 20)
#    0.000    0.333    0.000   10.000    0.000    6.667 
#    0.000    0.000    0.000    0.000    0.000    0.000 
#    0.000    0.000    0.000    0.000    0.000    0.000 
#
# Total GULP energy -148945.343446 kJ/mol
# GULP energy per Si atom -12412.111954 kJ/mol
# Density = 2.186977 g / cm^3
# Si number density = 21.919662 Si / 1000 Ang^3
#
#
#
# Elastic Constant Matrix: (Units=GPa)
#
#
# Indices 1 2 3 4 5 6 
#
# 1 92.9353 37.7845 14.8140 0.0000 -2.3755 0.0000
# 2 37.7845 103.5780 14.5296 0.0000 3.8252 0.0000
# 3 14.8140 14.5296 85.3114 0.0000 -0.8287 0.0000
# 4 0.0000 0.0000 0.0000 29.1659 0.0000 -6.1041
# 5 -2.3755 3.8252 -0.8287 0.0000 41.9011 0.0000
# 6 0.0000 0.0000 0.0000 -6.1041 0.0000 31.0003
#
#
#
# Elastic Compliance Matrix: (Units=1/GPa)
#
#
# Indices 1 2 3 4 5 6 
#
# 1 0.012861 -0.004529 -0.001451 0.000000 0.001114 0.000000
# 2 -0.004529 0.011523 -0.001189 0.000000 -0.001332 0.000000
# 3 -0.001451 -0.001189 0.012179 0.000000 0.000267 0.000000
# 4 0.000000 0.000000 0.000000 0.035760 0.000000 0.007041
# 5 0.001114 -0.001332 0.000267 0.000000 0.024056 0.000000
# 6 0.000000 0.000000 0.000000 0.007041 0.000000 0.033644
#
#
# Mechanical properties :
#
#
# Convention : Reuss Voigt Hill
#
# Bulk Modulus (GPa) = 44.99572 46.23120 45.61346
# Shear Modulus (GPa) = 32.94453 34.72656 33.83555
#
# Velocity S-wave (km/s) = 3.88102 3.98460 3.93315
# Velocity P-wave (km/s) = 6.37614 6.50434 6.44056
#
# Compressibility (1/GPa) = 0.02222433
#
# Stress axis : x y z
#
# Youngs Moduli (GPa) = 77.75178 86.78440 82.10968
#
# Poissons Ratio (x) = 0.39308 0.11915
# Poissons Ratio (y) = 0.35216 0.09762
# Poissons Ratio (z) = 0.11283 0.10318
#
# Static dielectric constant tensor:
#      x y z
#    x 3.955960 0.000000 0.035380 
#    y 0.000000 4.090450 0.000000 
#    z 0.035380 0.000000 3.881700 
# 
# 
# High freq. dielectric constant tensor:
#      x y z
#    x 1.874360 0.000000 0.000250 
#    y 0.000000 1.875500 0.000000 
#    z 0.000250 0.000000 1.872100 
# 
# From -- ./inp_files/9314.got.cif
#   From: 2010.03.12/outbox.cif.g09.slc.cpg/sg8_5_cif.got.tgz:9314.got - 2010.03.31 10:45:26.
