data_PCOD8054910
_publ_section_title
;
Structure prediction by ZEFSAII (Michael W. Deem and Ramdas Pophale) SiO2 
 PCOD8054910
Probable space group: C C
;
_chemical_formula_sum "Si O2"
_cell_formula_units_Z 32
_cell_length_a 26.160071
_cell_length_b 6.603626
_cell_length_c 13.716129
_cell_angle_alpha 90.000000
_cell_angle_beta 139.566484
_cell_angle_gamma 90.000000
_cell_volume 1536.762069
_symmetry_space_group_name_H-M "C C"
_symmetry_group_IT_number 9
_symmetry_cell_setting 'monoclinic'
loop_
_space_group_symop_operation_xyz
x,y,z
x,-y,1/2+z
1/2+x,1/2+y,z
1/2+x,1/2-y,1/2+z
loop_
_atom_site_type_symbol
_atom_site_label
_atom_site_fract_x
_atom_site_fract_y
_atom_site_fract_z
Si Si1 0.953320 0.768873 0.045180
Si Si2 0.368580 0.872474 0.931269
Si Si3 0.118269 0.067861 0.785459
Si Si4 0.086787 0.768873 0.906865
Si Si5 0.346256 0.473975 0.256862
Si Si6 0.921837 0.067861 0.166586
Si Si7 0.193851 0.026025 0.195184
Si Si8 0.671527 0.127526 0.520777
O O1 0.040283 0.820232 0.130686
O O2 0.945742 0.869648 0.140385
O O3 0.941804 0.527485 0.039000
O O4 0.887490 0.845484 0.874813
O O5 0.373891 0.743309 0.839253
O O6 0.287583 0.997769 0.819565
O O7 0.372246 0.722295 0.028466
O O8 0.094365 0.869648 0.811659
O O9 0.172367 0.989588 0.776940
O O10 0.167860 0.222295 0.923579
O O11 0.999824 0.820232 0.821359
O O12 0.098303 0.527486 0.913046
O O13 0.152616 0.845486 0.077231
O O14 0.367740 0.489588 0.175105
O O15 0.252524 0.497769 0.132481
O O16 0.166216 0.243310 0.112793
#
# Coordination Sequence:
#
# PCOD8054910 Si02
#       8
#     4   4   4   4   4   4   4   4
#     4  10  21  40  60  87 126 157 201 256 299 365
#     4  10  22  39  62  89 122 160 203 252 307 367
#     4  10  22  38  61  90 121 159 206 251 301 366
#     4  10  21  40  60  87 126 157 201 256 299 365
#     4  10  22  39  60  90 124 158 202 255 303 365
#     4  10  22  38  61  90 121 159 206 251 301 366
#     4  10  22  39  60  90 124 158 202 255 303 365
#     4  10  22  39  62  89 122 160 203 252 307 367
#
# _framework density 20.823004000000001
#
# number of rings (size 3 to 8) (size 9 to 14) (size 15 to 20)
#    0.000    2.000    0.000    2.250    3.500    2.000 
#    0.000    7.500    0.000    0.000    0.000    0.000 
#    0.000    0.000    0.000    0.000    0.000    0.000 
#
# Total GULP energy -198471.848529 kJ/mol
# GULP energy per Si atom -12404.490533 kJ/mol
# Density = 2.077561 g / cm^3
# Si number density = 20.823004 Si / 1000 Ang^3
#
#
#
# Elastic Constant Matrix: (Units=GPa)
#
#
# Indices 1 2 3 4 5 6 
#
# 1 73.0596 26.3634 19.1462 0.0000 -13.1179 0.0000
# 2 26.3634 86.0395 22.3468 0.0000 -2.4602 0.0000
# 3 19.1462 22.3468 89.3166 0.0000 3.6050 0.0000
# 4 0.0000 0.0000 0.0000 32.5360 0.0000 7.3580
# 5 -13.1179 -2.4602 3.6050 0.0000 28.7698 0.0000
# 6 0.0000 0.0000 0.0000 7.3580 0.0000 24.5104
#
#
#
# Elastic Compliance Matrix: (Units=1/GPa)
#
#
# Indices 1 2 3 4 5 6 
#
# 1 0.017468 -0.004351 -0.002977 0.000000 0.007966 0.000000
# 2 -0.004351 0.013576 -0.002443 0.000000 -0.000517 0.000000
# 3 -0.002977 -0.002443 0.012572 0.000000 -0.003142 0.000000
# 4 0.000000 0.000000 0.000000 0.032974 0.000000 -0.009899
# 5 0.007966 -0.000517 -0.003142 0.000000 0.038740 0.000000
# 6 0.000000 0.000000 0.000000 -0.009899 0.000000 0.043771
#
#
# Mechanical properties :
#
#
# Convention : Reuss Voigt Hill
#
# Bulk Modulus (GPa) = 41.54061 42.68096 42.11078
# Shear Modulus (GPa) = 26.78549 29.20053 27.99301
#
# Velocity S-wave (km/s) = 3.59045 3.74882 3.67049
# Velocity P-wave (km/s) = 6.09763 6.26735 6.18308
#
# Compressibility (1/GPa) = 0.02407283
#
# Stress axis : x y z
#
# Youngs Moduli (GPa) = 57.24710 73.66167 79.53938
#
# Poissons Ratio (x) = 0.32053 0.23682
# Poissons Ratio (y) = 0.24910 0.19431
# Poissons Ratio (z) = 0.17044 0.17995
#
# Static dielectric constant tensor:
#      x y z
#    x 3.516770 0.000000 0.096760 
#    y 0.000000 3.632760 0.000000 
#    z 0.096760 0.000000 3.894320 
# 
# 
# High freq. dielectric constant tensor:
#      x y z
#    x 1.799100 0.000000 0.004820 
#    y 0.000000 1.813080 0.000000 
#    z 0.004820 0.000000 1.829810 
# 
# From -- ./inp_files/19807.got.cif
#   From: 2010.06.25/outbox.cif.g09.slc.cpg/sg9_10_cif.got.tgz:19807.got - 2010.06.27 21:40:51.
