data_PCOD8054819
_publ_section_title
;
Structure prediction by ZEFSAII (Michael W. Deem and Ramdas Pophale) SiO2 
 PCOD8054819
Probable space group: C C
;
_chemical_formula_sum "Si O2"
_cell_formula_units_Z 24
_cell_length_a 7.308102
_cell_length_b 24.808374
_cell_length_c 5.461245
_cell_angle_alpha 90.000000
_cell_angle_beta 124.057765
_cell_angle_gamma 90.000000
_cell_volume 820.300769
_symmetry_space_group_name_H-M "C C"
_symmetry_group_IT_number 9
_symmetry_cell_setting 'monoclinic'
loop_
_space_group_symop_operation_xyz
x,y,z
x,-y,1/2+z
1/2+x,1/2+y,z
1/2+x,1/2-y,1/2+z
loop_
_atom_site_type_symbol
_atom_site_label
_atom_site_fract_x
_atom_site_fract_y
_atom_site_fract_z
Si Si1 0.045450 0.474048 0.826580
Si Si2 0.937576 0.351681 0.859144
Si Si3 0.438588 0.634989 0.983385
Si Si4 0.399588 0.680171 0.443780
Si Si5 0.524796 0.486856 0.635854
Si Si6 0.396867 0.195121 0.834491
O O1 0.957071 0.487697 0.484876
O O2 0.963254 0.415896 0.859869
O O3 0.310742 0.475722 0.016573
O O4 0.677169 0.336788 0.654563
O O5 0.038378 0.323089 0.685113
O O6 0.019419 0.323865 0.175846
O O7 0.310115 0.649108 0.137293
O O8 0.449440 0.571359 0.995366
O O9 0.301035 0.656051 0.634365
O O10 0.356650 0.741796 0.336755
O O11 0.659096 0.666218 0.665451
O O12 0.659000 0.510384 0.497665
#
# Coordination Sequence:
#
# PCOD8054819 Si02
#       6
#     4   4   4   4   4   4
#     4  10  21  38  56  84 123 151 201 246 292 357
#     4  10  21  38  62  84 120 163 199 242 305 356
#     4  10  21  38  62  84 120 163 199 242 305 356
#     4  10  21  40  60  90 120 154 204 252 298 361
#     4  10  21  38  56  84 123 151 201 246 292 357
#     4  10  21  40  60  90 120 154 204 252 298 361
#
# _framework density 29.257563000000001
#
# number of rings (size 3 to 8) (size 9 to 14) (size 15 to 20)
#    0.000    2.000    0.000    3.000    0.000    1.333 
#   18.000    0.000    0.000    0.000    0.000    0.000 
#    0.000    0.000    0.000    0.000    0.000    0.000 
#
# Total GULP energy -148754.911976 kJ/mol
# GULP energy per Si atom -12396.242665 kJ/mol
# Density = 2.919097 g / cm^3
# Si number density = 29.257563 Si / 1000 Ang^3
#
#
#
# Elastic Constant Matrix: (Units=GPa)
#
#
# Indices 1 2 3 4 5 6 
#
# 1 131.6177 -5.2781 88.6309 0.0000 -47.3860 0.0000
# 2 -5.2781 144.9732 76.8119 0.0000 -38.5831 0.0000
# 3 88.6309 76.8119 288.6600 0.0000 -53.4336 0.0000
# 4 0.0000 0.0000 0.0000 75.3395 0.0000 -7.9947
# 5 -47.3860 -38.5831 -53.4336 0.0000 62.9177 0.0000
# 6 0.0000 0.0000 0.0000 -7.9947 0.0000 44.8221
#
#
#
# Elastic Compliance Matrix: (Units=1/GPa)
#
#
# Indices 1 2 3 4 5 6 
#
# 1 0.014303 0.005439 -0.003829 0.000000 0.010855 0.000000
# 2 0.005439 0.010891 -0.003053 0.000000 0.008182 0.000000
# 3 -0.003829 -0.003053 0.005425 0.000000 -0.000149 0.000000
# 4 0.000000 0.000000 0.000000 0.013529 0.000000 0.002413
# 5 0.010855 0.008182 -0.000149 0.000000 0.028959 0.000000
# 6 0.000000 0.000000 0.000000 0.002413 0.000000 0.022741
#
#
# Mechanical properties :
#
#
# Convention : Reuss Voigt Hill
#
# Bulk Modulus (GPa) = 36.06194 98.39781 67.22988
# Shear Modulus (GPa) = 46.30479 63.62159 54.96319
#
# Velocity S-wave (km/s) = 3.98258 4.66825 4.33898
# Velocity P-wave (km/s) = 5.78795 7.92221 6.93764
#
# Compressibility (1/GPa) = 0.02773006
#
# Stress axis : x y z
#
# Youngs Moduli (GPa) = 69.91739 91.81796 184.33373
#
# Poissons Ratio (x) = -0.49936 0.70588
# Poissons Ratio (y) = -0.38025 0.56286
# Poissons Ratio (z) = 0.26774 0.28037
#
# Static dielectric constant tensor:
#      x y z
#    x 6.555550 0.000000 -0.154170 
#    y 0.000000 4.604280 0.000000 
#    z -0.154170 0.000000 6.685920 
# 
# 
# High freq. dielectric constant tensor:
#      x y z
#    x 2.265500 0.000000 0.011620 
#    y 0.000000 2.151180 0.000000 
#    z 0.011620 0.000000 2.259260 
# 
# From -- ./inp_files/609.got.cif
#   From: 2010.06.25/outbox.cif.g09.slc.cpg/sg9_1_cif.got.tgz:609.got - 2010.06.27 21:40:51.
