data_PCOD8054082
_publ_section_title
;
Structure prediction by ZEFSAII (Michael W. Deem and Ramdas Pophale) SiO2 
 PCOD8054082
Probable space group: C M
;
_chemical_formula_sum "Si O2"
_cell_formula_units_Z 32
_cell_length_a 33.448522
_cell_length_b 8.471841
_cell_length_c 12.623798
_cell_angle_alpha 90.000000
_cell_angle_beta 25.875496
_cell_angle_gamma 90.000000
_cell_volume 1561.156545
_symmetry_space_group_name_H-M "C M"
_symmetry_group_IT_number 8
_symmetry_cell_setting 'monoclinic'
loop_
_space_group_symop_operation_xyz
x,y,z
x,-y,z
1/2+x,1/2+y,z
1/2+x,1/2-y,z
loop_
_atom_site_type_symbol
_atom_site_label
_atom_site_fract_x
_atom_site_fract_y
_atom_site_fract_z
Si Si1 0.714990 0.816426 0.862030
Si Si2 0.406582 0.687844 0.701500
Si Si3 0.147782 0.312962 0.477687
Si Si4 0.460014 0.685638 0.000514
Si Si5 0.211350 0.314588 0.104712
Si Si6 0.408789 0.182082 0.345449
Si Si7 0.538556 0.315500 0.208951
Si Si8 0.850488 0.813196 0.058935
O O1 0.804546 0.717268 0.623330
O O2 0.740908 0.000000 0.793683
O O3 0.675892 0.768991 0.072330
O O4 0.635618 0.773995 0.967687
O O5 0.407783 0.500000 0.692821
O O6 0.489039 0.752974 0.432785
O O7 0.313381 0.755505 0.872535
O O8 0.409735 0.747126 0.816019
O O9 0.131839 0.500000 0.526668
O O10 0.066981 0.220428 0.728193
O O11 0.148032 0.255641 0.353264
O O12 0.244038 0.261446 0.302866
O O13 0.445391 0.500000 0.051465
O O14 0.424058 0.777817 0.187242
O O15 0.398793 0.752984 0.049109
O O16 0.219334 0.500000 0.100626
O O17 0.478107 0.285145 0.249809
O O18 0.430106 0.000000 0.315566
O O19 0.558104 0.500000 0.171437
O O20 0.854119 0.000000 0.051230
#
# Coordination Sequence:
#
# PCOD8054082 Si02
#       8
#     4   4   4   4   4   4   4   4
#     4  11  22  39  62  92 126 163 205 250 305 367
#     4   8  14  30  57  87 120 156 192 239 296 358
#     4   9  18  36  60  87 119 158 201 242 293 359
#     4  11  23  39  61  88 119 157 202 253 308 365
#     4   8  15  31  58  87 121 160 195 241 299 359
#     4  12  26  45  63  84 119 164 215 264 309 360
#     4  11  22  38  63  93 124 160 203 253 310 368
#     4   8  17  34  58  86 118 156 195 236 294 360
#
# _framework density 20.497624999999999
#
# number of rings (size 3 to 8) (size 9 to 14) (size 15 to 20)
#    0.000    2.250    1.250    3.750    1.750    1.000 
#    0.000    5.625    0.000    0.000    0.000    0.000 
#    0.000    0.000    0.000    0.000    0.000    0.000 
#
# Total GULP energy -198330.825509 kJ/mol
# GULP energy per Si atom -12395.676594 kJ/mol
# Density = 2.045097 g / cm^3
# Si number density = 20.497625 Si / 1000 Ang^3
#
#
#
# Elastic Constant Matrix: (Units=GPa)
#
#
# Indices 1 2 3 4 5 6 
#
# 1 120.2238 7.0868 53.7347 0.0000 0.5185 0.0000
# 2 7.0868 41.0157 24.8782 0.0000 4.4605 0.0000
# 3 53.7347 24.8782 47.9780 0.0000 -0.8927 0.0000
# 4 0.0000 0.0000 0.0000 28.9824 0.0000 -1.4485
# 5 0.5185 4.4605 -0.8927 0.0000 33.3970 0.0000
# 6 0.0000 0.0000 0.0000 -1.4485 0.0000 20.0127
#
#
#
# Elastic Compliance Matrix: (Units=1/GPa)
#
#
# Indices 1 2 3 4 5 6 
#
# 1 0.022794 0.017477 -0.034659 0.000000 -0.003615 0.000000
# 2 0.017477 0.049911 -0.045606 0.000000 -0.008156 0.000000
# 3 -0.034659 -0.045606 0.083474 0.000000 0.008861 0.000000
# 4 0.000000 0.000000 0.000000 0.034629 0.000000 0.002506
# 5 -0.003615 -0.008156 0.008861 0.000000 0.031325 0.000000
# 6 0.000000 0.000000 0.000000 0.002506 0.000000 0.050150
#
#
# Mechanical properties :
#
#
# Convention : Reuss Voigt Hill
#
# Bulk Modulus (GPa) = 32.67713 42.29075 37.48394
# Shear Modulus (GPa) = 12.25311 24.71295 18.48303
#
# Velocity S-wave (km/s) = 2.44761 3.47601 3.00612
# Velocity P-wave (km/s) = 4.89533 6.06523 5.51141
#
# Compressibility (1/GPa) = 0.03060244
#
# Stress axis : x y z
#
# Youngs Moduli (GPa) = 43.87085 20.03569 11.97981
#
# Poissons Ratio (x) = -0.35017 0.41521
# Poissons Ratio (y) = -0.76674 0.54636
# Poissons Ratio (z) = 1.52052 0.91376
#
# Static dielectric constant tensor:
#      x y z
#    x 3.948580 0.000000 0.112080 
#    y 0.000000 3.278780 0.000000 
#    z 0.112080 0.000000 3.732530 
# 
# 
# High freq. dielectric constant tensor:
#      x y z
#    x 1.806370 0.000000 0.000310 
#    y 0.000000 1.766580 0.000000 
#    z 0.000310 0.000000 1.803140 
# 
# From -- ./inp_files/24784.got.cif
#   From: 2010.03.12/outbox.cif.g09.slc.cpg/sg8_13_cif.got.tgz:24784.got - 2010.03.31 10:45:26.
