data_PCOD8054605
_publ_section_title
;
Structure prediction by ZEFSAII (Michael W. Deem and Ramdas Pophale) SiO2 
 PCOD8054605
Probable space group: C C
;
_chemical_formula_sum "Si O2"
_cell_formula_units_Z 32
_cell_length_a 7.059224
_cell_length_b 18.115431
_cell_length_c 13.253186
_cell_angle_alpha 90.000000
_cell_angle_beta 87.586628
_cell_angle_gamma 90.000000
_cell_volume 1693.325895
_symmetry_space_group_name_H-M "C C"
_symmetry_group_IT_number 9
_symmetry_cell_setting 'monoclinic'
loop_
_space_group_symop_operation_xyz
x,y,z
x,-y,1/2+z
1/2+x,1/2+y,z
1/2+x,1/2-y,1/2+z
loop_
_atom_site_type_symbol
_atom_site_label
_atom_site_fract_x
_atom_site_fract_y
_atom_site_fract_z
Si Si1 0.387720 0.931441 0.309620
Si Si2 0.168282 0.529384 0.194290
Si Si3 0.484887 0.817715 0.756915
Si Si4 0.011706 0.724879 0.032028
Si Si5 0.178120 0.424448 0.474165
Si Si6 0.301216 0.229065 0.847700
Si Si7 0.983832 0.998626 0.839768
Si Si8 0.597720 0.660198 0.380955
O O1 0.492876 0.946834 0.413775
O O2 0.354719 0.845227 0.286613
O O3 0.518953 0.964754 0.219859
O O4 0.187437 0.970402 0.310444
O O5 0.100447 0.607572 0.239325
O O6 0.373065 0.512978 0.237431
O O7 0.183202 0.527074 0.074236
O O8 0.450780 0.777177 0.650047
O O9 0.594132 0.758821 0.824356
O O10 0.294988 0.840607 0.817832
O O11 0.167517 0.661936 0.002440
O O12 0.108932 0.802217 0.993101
O O13 0.820291 0.712864 0.968399
O O14 0.370809 0.442307 0.410147
O O15 0.456426 0.291077 0.814207
O O16 0.011695 0.921168 0.897092
#
# Coordination Sequence:
#
# PCOD8054605 Si02
#       8
#     4   4   4   4   4   4   4   4
#     4  10  21  38  59  82 117 150 191 238 289 337
#     4  10  20  39  59  85 113 152 195 234 285 347
#     4  11  19  39  65  79 118 159 183 241 290 333
#     4   8  20  41  56  88 113 147 201 226 281 357
#     4   9  21  39  59  81 118 151 190 238 285 345
#     4   9  21  40  54  87 116 144 196 238 279 344
#     4  11  21  38  60  85 114 152 192 239 287 335
#     4  10  21  40  58  87 115 147 196 236 280 346
#
# _framework density 18.897721000000001
#
# number of rings (size 3 to 8) (size 9 to 14) (size 15 to 20)
#    0.750    1.500    2.500    0.000    1.750    1.000 
#   11.250    0.000    0.000    0.000    0.000    0.000 
#    0.000    0.000    0.000    0.000    0.000    0.000 
#
# Total GULP energy -198278.980492 kJ/mol
# GULP energy per Si atom -12392.436281 kJ/mol
# Density = 1.885471 g / cm^3
# Si number density = 18.897721 Si / 1000 Ang^3
#
#
#
# Elastic Constant Matrix: (Units=GPa)
#
#
# Indices 1 2 3 4 5 6 
#
# 1 91.2215 14.5448 14.8676 0.0000 10.6013 0.0000
# 2 14.5448 70.5040 -8.5942 0.0000 7.7391 0.0000
# 3 14.8676 -8.5942 54.0635 0.0000 8.4868 0.0000
# 4 0.0000 0.0000 0.0000 24.5726 0.0000 0.7480
# 5 10.6013 7.7391 8.4868 0.0000 15.9830 0.0000
# 6 0.0000 0.0000 0.0000 0.7480 0.0000 30.7693
#
#
#
# Elastic Compliance Matrix: (Units=1/GPa)
#
#
# Indices 1 2 3 4 5 6 
#
# 1 0.012456 -0.002311 -0.002914 0.000000 -0.005596 0.000000
# 2 -0.002311 0.016177 0.004578 0.000000 -0.008731 0.000000
# 3 -0.002914 0.004578 0.021895 0.000000 -0.011910 0.000000
# 4 0.000000 0.000000 0.000000 0.040726 0.000000 -0.000990
# 5 -0.005596 -0.008731 -0.011910 0.000000 0.076829 0.000000
# 6 0.000000 0.000000 0.000000 -0.000990 0.000000 0.032524
#
#
# Mechanical properties :
#
#
# Convention : Reuss Voigt Hill
#
# Bulk Modulus (GPa) = 20.31156 28.60283 24.45719
# Shear Modulus (GPa) = 22.90283 27.26302 25.08293
#
# Velocity S-wave (km/s) = 3.48506 3.80236 3.64716
# Velocity P-wave (km/s) = 5.19285 5.86905 5.54127
#
# Compressibility (1/GPa) = 0.04923306
#
# Stress axis : x y z
#
# Youngs Moduli (GPa) = 80.28228 61.81753 45.67156
#
# Poissons Ratio (x) = 0.14284 0.13310
# Poissons Ratio (y) = 0.18551 -0.20906
# Poissons Ratio (z) = 0.23397 -0.28297
#
# Static dielectric constant tensor:
#      x y z
#    x 3.325380 0.000000 0.166330 
#    y 0.000000 3.636890 0.000000 
#    z 0.166330 0.000000 3.299600 
# 
# 
# High freq. dielectric constant tensor:
#      x y z
#    x 1.728470 0.000000 0.011320 
#    y 0.000000 1.743970 0.000000 
#    z 0.011320 0.000000 1.714180 
# 
# From -- ./inp_files/21961.got.cif
#   From: 2010.06.25/outbox.cif.g09.slc.cpg/sg9_11_cif.got.tgz:21961.got - 2010.06.27 21:40:51.
