data_PCOD8054204
_publ_section_title
;
Structure prediction by ZEFSAII (Michael W. Deem and Ramdas Pophale) SiO2 
 PCOD8054204
Probable space group: C C
;
_chemical_formula_sum "Si O2"
_cell_formula_units_Z 28
_cell_length_a 16.296117
_cell_length_b 18.802343
_cell_length_c 15.425117
_cell_angle_alpha 90.000000
_cell_angle_beta 162.043415
_cell_angle_gamma 90.000000
_cell_volume 1457.111629
_symmetry_space_group_name_H-M "C C"
_symmetry_group_IT_number 9
_symmetry_cell_setting 'monoclinic'
loop_
_space_group_symop_operation_xyz
x,y,z
x,-y,1/2+z
1/2+x,1/2+y,z
1/2+x,1/2-y,1/2+z
loop_
_atom_site_type_symbol
_atom_site_label
_atom_site_fract_x
_atom_site_fract_y
_atom_site_fract_z
Si Si1 0.226550 0.061826 0.566170
Si Si2 0.930644 0.428176 0.088754
Si Si3 0.152961 0.903733 0.429356
Si Si4 0.551775 0.798029 0.091825
Si Si5 0.657835 0.122162 0.525687
Si Si6 0.730050 0.038845 0.162137
Si Si7 0.430974 0.482733 0.052859
O O1 0.321665 0.098999 0.572482
O O2 0.938393 0.084468 0.312700
O O3 0.190665 0.978941 0.513050
O O4 0.445395 0.076198 0.860945
O O5 0.052965 0.364447 0.157287
O O6 0.179773 0.482655 0.352424
O O7 0.677458 0.462831 0.784166
O O8 0.443652 0.868936 0.731905
O O9 0.049759 0.916679 0.227688
O O10 0.940450 0.855599 0.268369
O O11 0.797051 0.747923 0.357662
O O12 0.565539 0.824566 0.007394
O O13 0.695381 0.043469 0.602224
O O14 0.821175 0.046253 0.352400
#
# Coordination Sequence:
#
# PCOD8054204 Si02
#       7
#     4   4   4   4   4   4   4
#     4   9  18  30  46  71  98 134 165 197 251 319
#     4  11  21  35  48  69 105 138 171 215 254 290
#     4   9  18  30  49  71  98 133 166 198 254 321
#     4  12  25  37  52  73  99 142 193 219 242 288
#     4  10  19  34  48  67 102 136 168 213 252 287
#     4  10  18  29  50  75 101 131 163 197 253 321
#     4  11  19  31  51  78 103 134 166 199 258 324
#
# _framework density 19.216097999999999
#
# number of rings (size 3 to 8) (size 9 to 14) (size 15 to 20)
#    0.000    1.714    1.429    6.857    4.000    0.000 
#    0.000    0.000    0.000    0.000    0.000    0.000 
#    0.000   22.857    0.000    0.000    0.000    0.000 
#
# Total GULP energy -173461.103688 kJ/mol
# GULP energy per Si atom -12390.078835 kJ/mol
# Density = 1.917236 g / cm^3
# Si number density = 19.216098 Si / 1000 Ang^3
#
#
#
# Elastic Constant Matrix: (Units=GPa)
#
#
# Indices 1 2 3 4 5 6 
#
# 1 96.0171 13.6687 28.3063 -0.0035 -10.5134 -0.0009
# 2 13.6687 19.0038 2.8763 -0.0092 2.8705 -0.0013
# 3 28.3063 2.8763 109.9030 -0.0159 -4.2601 -0.0059
# 4 -0.0035 -0.0092 -0.0159 15.8906 -0.0012 6.3896
# 5 -10.5134 2.8705 -4.2601 -0.0012 44.4273 -0.0014
# 6 -0.0009 -0.0013 -0.0059 6.3896 -0.0014 21.4213
#
#
#
# Elastic Compliance Matrix: (Units=1/GPa)
#
#
# Indices 1 2 3 4 5 6 
#
# 1 0.013004 -0.009417 -0.002971 -0.000006 0.003401 0.000001
# 2 -0.009417 0.060217 0.000615 0.000036 -0.006060 -0.000008
# 3 -0.002971 0.000615 0.009856 0.000010 0.000202 0.000000
# 4 -0.000006 0.000036 0.000010 0.071507 -0.000002 -0.021329
# 5 0.003401 -0.006060 0.000202 -0.000002 0.023724 0.000002
# 6 0.000001 -0.000008 0.000000 -0.021329 0.000002 0.053045
#
#
# Mechanical properties :
#
#
# Convention : Reuss Voigt Hill
#
# Bulk Modulus (GPa) = 16.79841 34.95851 25.87846
# Shear Modulus (GPa) = 18.19891 28.35267 23.27579
#
# Velocity S-wave (km/s) = 3.08078 3.84534 3.48410
# Velocity P-wave (km/s) = 4.62772 6.16014 5.44808
#
# Compressibility (1/GPa) = 0.05952943
#
# Stress axis : x y z
#
# Youngs Moduli (GPa) = 76.90182 16.60671 101.46236
#
# Poissons Ratio (x) = 0.15639 0.30143
# Poissons Ratio (y) = 0.72419 -0.06236
# Poissons Ratio (z) = 0.22847 -0.01021
#
# Static dielectric constant tensor:
#      x y z
#    x 3.566790 0.000000 0.187080 
#    y 0.000000 2.910020 0.000010 
#    z 0.187080 0.000010 4.176740 
# 
# 
# High freq. dielectric constant tensor:
#      x y z
#    x 1.746850 0.000000 0.007170 
#    y 0.000000 1.660540 0.000000 
#    z 0.007170 0.000000 1.785790 
# 
# From -- ./inp_files/26107.got.cif
#   From: 2010.06.25/outbox.cif.g09.slc.cpg/sg9_14_cif.got.tgz:26107.got - 2010.06.27 21:40:51.
