data_PCOD8054579
_publ_section_title
;
Structure prediction by ZEFSAII (Michael W. Deem and Ramdas Pophale) SiO2 
 PCOD8054579
Probable space group: C C
;
_chemical_formula_sum "Si O2"
_cell_formula_units_Z 32
_cell_length_a 16.226638
_cell_length_b 19.099728
_cell_length_c 8.928064
_cell_angle_alpha 90.000000
_cell_angle_beta 147.880218
_cell_angle_gamma 90.000000
_cell_volume 1471.202164
_symmetry_space_group_name_H-M "C C"
_symmetry_group_IT_number 9
_symmetry_cell_setting 'monoclinic'
loop_
_space_group_symop_operation_xyz
x,y,z
x,-y,1/2+z
1/2+x,1/2+y,z
1/2+x,1/2-y,1/2+z
loop_
_atom_site_type_symbol
_atom_site_label
_atom_site_fract_x
_atom_site_fract_y
_atom_site_fract_z
Si Si1 0.026880 0.045421 0.834490
Si Si2 0.624935 0.419565 0.821655
Si Si3 0.104900 0.586945 0.811021
Si Si4 0.833198 0.323542 0.991516
Si Si5 0.721601 0.184479 0.494531
Si Si6 0.042847 0.803237 0.336914
Si Si7 0.353578 0.330776 0.521738
Si Si8 0.177938 0.455569 0.756436
O O1 0.038332 0.118623 0.759860
O O2 0.854023 0.016051 0.543101
O O3 0.150061 0.990523 0.956158
O O4 0.053612 0.059744 0.050737
O O5 0.788561 0.378414 0.055524
O O6 0.514224 0.370006 0.746758
O O7 0.254402 0.632358 0.997920
O O8 0.074105 0.519601 0.658515
O O9 0.955563 0.637829 0.571765
O O10 0.130461 0.557861 0.015202
O O11 0.672879 0.304106 0.664762
O O12 0.897760 0.248349 0.144129
O O13 0.589688 0.245221 0.285393
O O14 0.755550 0.165733 0.718152
O O15 0.653175 0.115981 0.310156
O O16 0.876103 0.214239 0.652805
#
# Coordination Sequence:
#
# PCOD8054579 Si02
#       8
#     4   4   4   4   4   4   4   4
#     4  10  20  38  61  90 115 156 206 247 297 364
#     4  11  20  39  63  87 117 154 204 249 306 357
#     4  12  25  38  64  88 128 161 211 247 308 361
#     4  10  23  39  57  93 122 157 202 250 309 356
#     4  10  20  41  67  90 121 156 217 244 313 358
#     4   9  20  38  65  91 118 160 203 259 293 377
#     4  11  20  39  65  89 111 166 202 258 288 374
#     4  11  22  42  60  94 120 166 205 256 300 371
#
# _framework density 21.750920000000001
#
# number of rings (size 3 to 8) (size 9 to 14) (size 15 to 20)
#    0.000    1.500    5.000    2.250    5.250    2.000 
#    6.750    1.250    0.000    0.000    0.000    0.000 
#    0.000    0.000    0.000    0.000    0.000    0.000 
#
# Total GULP energy -198339.521234 kJ/mol
# GULP energy per Si atom -12396.220077 kJ/mol
# Density = 2.170141 g / cm^3
# Si number density = 21.750920 Si / 1000 Ang^3
#
#
#
# Elastic Constant Matrix: (Units=GPa)
#
#
# Indices 1 2 3 4 5 6 
#
# 1 118.5472 90.0376 23.6231 0.0000 13.0171 0.0000
# 2 90.0376 178.8017 14.4146 0.0000 11.0534 0.0000
# 3 23.6231 14.4146 24.5651 0.0000 2.1132 0.0000
# 4 0.0000 0.0000 0.0000 16.8954 0.0000 6.7422
# 5 13.0171 11.0534 2.1132 0.0000 30.1900 0.0000
# 6 0.0000 0.0000 0.0000 6.7422 0.0000 53.8779
#
#
#
# Elastic Compliance Matrix: (Units=1/GPa)
#
#
# Indices 1 2 3 4 5 6 
#
# 1 0.016587 -0.007204 -0.011405 0.000000 -0.003716 0.000000
# 2 -0.007204 0.009112 0.001610 0.000000 -0.000343 0.000000
# 3 -0.011405 0.001610 0.050663 0.000000 0.000782 0.000000
# 4 0.000000 0.000000 0.000000 0.062299 0.000000 -0.007796
# 5 -0.003716 -0.000343 0.000782 0.000000 0.034797 0.000000
# 6 0.000000 0.000000 0.000000 -0.007796 0.000000 0.019536
#
#
# Mechanical properties :
#
#
# Convention : Reuss Voigt Hill
#
# Bulk Modulus (GPa) = 23.60360 64.22937 43.91648
# Shear Modulus (GPa) = 20.73727 33.11523 26.92625
#
# Velocity S-wave (km/s) = 3.09106 3.90612 3.52225
# Velocity P-wave (km/s) = 4.85952 7.06664 6.06433
#
# Compressibility (1/GPa) = 0.04236642
#
# Stress axis : x y z
#
# Youngs Moduli (GPa) = 60.28706 109.75010 19.73815
#
# Poissons Ratio (x) = 0.79059 0.22510
# Poissons Ratio (y) = 0.43428 -0.03178
# Poissons Ratio (z) = 0.68755 -0.17672
#
# Static dielectric constant tensor:
#      x y z
#    x 4.086350 0.000000 0.266950 
#    y 0.000000 4.893080 0.000000 
#    z 0.266950 0.000000 3.445080 
# 
# 
# High freq. dielectric constant tensor:
#      x y z
#    x 1.850920 0.000000 0.015450 
#    y 0.000000 1.883320 0.000000 
#    z 0.015450 0.000000 1.810140 
# 
# From -- ./inp_files/10023.got.cif
#   From: 2010.06.25/outbox.cif.g09.slc.cpg/sg9_6_cif.got.tgz:10023.got - 2010.06.27 21:40:51.
