data_PCOD8054468
_publ_section_title
;
Structure prediction by ZEFSAII (Michael W. Deem and Ramdas Pophale) SiO2 
 PCOD8054468
Probable space group: C C
;
_chemical_formula_sum "Si O2"
_cell_formula_units_Z 28
_cell_length_a 16.580810
_cell_length_b 16.073063
_cell_length_c 4.992541
_cell_angle_alpha 90.000000
_cell_angle_beta 77.457838
_cell_angle_gamma 90.000000
_cell_volume 1298.782923
_symmetry_space_group_name_H-M "C C"
_symmetry_group_IT_number 9
_symmetry_cell_setting 'monoclinic'
loop_
_space_group_symop_operation_xyz
x,y,z
x,-y,1/2+z
1/2+x,1/2+y,z
1/2+x,1/2-y,1/2+z
loop_
_atom_site_type_symbol
_atom_site_label
_atom_site_fract_x
_atom_site_fract_y
_atom_site_fract_z
Si Si1 0.622860 0.801520 0.856550
Si Si2 0.063041 0.961034 0.681876
Si Si3 0.505828 0.942872 0.848106
Si Si4 0.788361 0.725047 0.863733
Si Si5 0.893570 0.289678 0.799072
Si Si6 0.050732 0.778186 0.916410
Si Si7 0.248637 0.959476 0.407025
O O1 0.593348 0.892158 0.770939
O O2 0.717123 0.795737 0.894611
O O3 0.616169 0.738632 0.607949
O O4 0.562030 0.781881 0.151182
O O5 0.062267 0.869046 0.792458
O O6 0.155680 0.990420 0.538110
O O7 0.018486 0.976277 0.427765
O O8 0.430609 0.880438 0.836760
O O9 0.501121 0.019398 0.647758
O O10 0.861599 0.748439 0.604169
O O11 0.750331 0.635808 0.811261
O O12 0.817809 0.712537 0.146398
O O13 0.961617 0.231066 0.615148
O O14 0.294406 0.982266 0.652469
#
# Coordination Sequence:
#
# PCOD8054468 Si02
#       7
#     4   4   4   4   4   4   4
#     4  11  23  39  67  89 119 171 218 268 317 372
#     4  10  20  33  57  85 113 152 197 245 296 356
#     4  11  23  43  66  91 124 167 224 270 321 387
#     4  12  23  39  58  91 127 164 204 257 320 391
#     4  11  25  38  61  89 124 165 205 256 335 382
#     4  11  21  41  60  87 121 163 215 263 300 392
#     4  10  21  33  51  84 120 154 189 233 295 368
#
# _framework density 21.558643
#
# number of rings (size 3 to 8) (size 9 to 14) (size 15 to 20)
#    0.000    1.143    1.429    6.857    4.000    3.429 
#    0.000    0.000    0.000    5.143    0.000    0.000 
#    0.000    0.000    0.000    0.000    0.000    0.000 
#
# Total GULP energy -173468.251165 kJ/mol
# GULP energy per Si atom -12390.589369 kJ/mol
# Density = 2.150957 g / cm^3
# Si number density = 21.558643 Si / 1000 Ang^3
#
#
#
# Elastic Constant Matrix: (Units=GPa)
#
#
# Indices 1 2 3 4 5 6 
#
# 1 77.2468 22.5450 11.2057 0.0000 7.9795 0.0000
# 2 22.5450 29.2413 14.5765 0.0000 7.9812 0.0000
# 3 11.2057 14.5765 136.6450 0.0000 10.2410 0.0000
# 4 0.0000 0.0000 0.0000 40.5954 0.0000 0.9315
# 5 7.9795 7.9812 10.2410 0.0000 32.4172 0.0000
# 6 0.0000 0.0000 0.0000 0.9315 0.0000 23.0797
#
#
#
# Elastic Compliance Matrix: (Units=1/GPa)
#
#
# Indices 1 2 3 4 5 6 
#
# 1 0.016736 -0.012651 0.000054 0.000000 -0.001022 0.000000
# 2 -0.012651 0.047750 -0.003491 0.000000 -0.007539 0.000000
# 3 0.000054 -0.003491 0.007808 0.000000 -0.001620 0.000000
# 4 0.000000 0.000000 0.000000 0.024656 0.000000 -0.000995
# 5 -0.001022 -0.007539 -0.001620 0.000000 0.033467 0.000000
# 6 0.000000 0.000000 0.000000 -0.000995 0.000000 0.043368
#
#
# Mechanical properties :
#
#
# Convention : Reuss Voigt Hill
#
# Bulk Modulus (GPa) = 24.92744 37.75417 31.34081
# Shear Modulus (GPa) = 22.79622 32.20553 27.50087
#
# Velocity S-wave (km/s) = 3.25530 3.86924 3.57547
# Velocity P-wave (km/s) = 5.07120 6.12468 5.62267
#
# Compressibility (1/GPa) = 0.04011643
#
# Stress axis : x y z
#
# Youngs Moduli (GPa) = 59.75292 20.94225 128.07900
#
# Poissons Ratio (x) = 0.26494 -0.00688
# Poissons Ratio (y) = 0.75594 0.44715
# Poissons Ratio (z) = -0.00321 0.07311
#
# Static dielectric constant tensor:
#      x y z
#    x 3.794410 0.000000 0.351880 
#    y 0.000000 3.521820 0.000000 
#    z 0.351880 0.000000 4.650000 
# 
# 
# High freq. dielectric constant tensor:
#      x y z
#    x 1.817420 0.000000 0.019530 
#    y 0.000000 1.816460 0.000000 
#    z 0.019530 0.000000 1.884430 
# 
# From -- ./inp_files/2914.got.cif
#   From: 2010.06.25/outbox.cif.g09.slc.cpg/sg9_2_cif.got.tgz:2914.got - 2010.06.27 21:40:51.
