data_PCOD8054034
_publ_section_title
;
Structure prediction by ZEFSAII (Michael W. Deem and Ramdas Pophale) SiO2 
 PCOD8054034
Probable space group: C M
;
_chemical_formula_sum "Si O2"
_cell_formula_units_Z 26
_cell_length_a 10.366505
_cell_length_b 15.239739
_cell_length_c 15.138047
_cell_angle_alpha 90.000000
_cell_angle_beta 148.878262
_cell_angle_gamma 90.000000
_cell_volume 1236.092913
_symmetry_space_group_name_H-M "C M"
_symmetry_group_IT_number 8
_symmetry_cell_setting 'monoclinic'
loop_
_space_group_symop_operation_xyz
x,y,z
x,-y,z
1/2+x,1/2+y,z
1/2+x,1/2-y,z
loop_
_atom_site_type_symbol
_atom_site_label
_atom_site_fract_x
_atom_site_fract_y
_atom_site_fract_z
Si Si1 0.195400 0.500000 0.029871
Si Si2 0.745524 0.236487 0.652597
Si Si3 0.760311 0.000000 0.271568
Si Si4 0.101005 0.000000 0.641459
Si Si5 0.429080 0.851491 0.151517
Si Si6 0.837819 0.826771 0.517323
Si Si7 0.377340 0.400714 0.859673
Si Si8 0.743730 0.175407 0.964588
O O1 0.305010 0.500000 0.193149
O O2 0.316380 0.586689 0.058049
O O3 0.898161 0.500000 0.832961
O O4 0.810121 0.232241 0.587484
O O5 0.477970 0.276841 0.519079
O O6 0.755613 0.139238 0.699981
O O7 0.955564 0.300933 0.816596
O O8 0.601078 0.087411 0.192333
O O9 0.008060 0.000000 0.482043
O O10 0.985346 0.083552 0.624035
O O11 0.556541 0.843220 0.321702
O O12 0.410287 0.757155 0.093575
O O13 0.172443 0.900065 0.020071
O O14 0.282011 0.500000 0.817554
O O15 0.292389 0.338683 0.889749
#
# Coordination Sequence:
#
# PCOD8054034 Si02
#       8
#     2   4   2   2   4   4   4   4
#     4  12  24  41  70  93 134 176 214 270 330 388
#     4  11  24  41  65  96 123 172 211 267 322 388
#     4  10  24  43  65  99 125 172 224 269 326 387
#     4  10  24  42  65 100 127 168 222 273 312 401
#     4  10  25  41  66  91 128 168 213 272 318 395
#     4  11  24  43  66  94 130 164 217 267 330 377
#     4  11  23  42  63  91 129 164 214 266 317 390
#     4  11  24  41  63  96 129 170 215 261 330 393
#
# _framework density 21.034019000000001
#
# number of rings (size 3 to 8) (size 9 to 14) (size 15 to 20)
#    0.000    1.231    4.615    0.000   11.846    1.231 
#    0.000    0.000    1.692    0.000    0.000    0.000 
#    0.000    0.000    0.000    0.000    0.000    0.000 
#
# Total GULP energy -161164.367288 kJ/mol
# GULP energy per Si atom -12397.259022 kJ/mol
# Density = 2.098614 g / cm^3
# Si number density = 21.034019 Si / 1000 Ang^3
#
#
#
# Elastic Constant Matrix: (Units=GPa)
#
#
# Indices 1 2 3 4 5 6 
#
# 1 91.4544 24.1074 -0.4958 -0.0002 -16.6276 -0.0003
# 2 24.1074 127.8500 4.1098 -0.0009 -6.9480 -0.0002
# 3 -0.4958 4.1098 41.8474 -0.0034 -6.1953 -0.0029
# 4 -0.0002 -0.0009 -0.0034 18.3155 -0.0033 -7.8972
# 5 -16.6276 -6.9480 -6.1953 -0.0033 23.7681 -0.0025
# 6 -0.0003 -0.0002 -0.0029 -7.8972 -0.0025 31.0283
#
#
#
# Elastic Compliance Matrix: (Units=1/GPa)
#
#
# Indices 1 2 3 4 5 6 
#
# 1 0.013122 -0.002038 0.001692 0.000003 0.009025 0.000002
# 2 -0.002038 0.008273 -0.000717 0.000000 0.000806 0.000000
# 3 0.001692 -0.000717 0.025100 0.000008 0.007516 0.000005
# 4 0.000003 0.000000 0.000008 0.061329 0.000014 0.015609
# 5 0.009025 0.000806 0.007516 0.000014 0.050581 0.000009
# 6 0.000002 0.000000 0.000005 0.015609 0.000009 0.036201
#
#
# Mechanical properties :
#
#
# Convention : Reuss Voigt Hill
#
# Bulk Modulus (GPa) = 22.53962 35.17720 28.85841
# Shear Modulus (GPa) = 23.63821 30.18440 26.91131
#
# Velocity S-wave (km/s) = 3.35596 3.79229 3.58078
# Velocity P-wave (km/s) = 5.07501 5.99462 5.55388
#
# Compressibility (1/GPa) = 0.04436631
#
# Stress axis : x y z
#
# Youngs Moduli (GPa) = 76.21001 120.87785 39.84136
#
# Poissons Ratio (x) = 0.24637 -0.06740
# Poissons Ratio (y) = 0.15533 0.02858
# Poissons Ratio (z) = -0.12892 0.08671
#
# Static dielectric constant tensor:
#      x y z
#    x 3.582230 0.000000 -0.045630 
#    y 0.000000 3.946400 0.000000 
#    z -0.045630 0.000000 3.777360 
# 
# 
# High freq. dielectric constant tensor:
#      x y z
#    x 1.815510 0.000000 -0.003270 
#    y 0.000000 1.842330 0.000000 
#    z -0.003270 0.000000 1.813610 
# 
# From -- ./inp_files/8313.got.cif
#   From: 2010.03.12/outbox.cif.g09.slc.cpg/sg8_5_cif.got.tgz:8313.got - 2010.03.31 10:45:26.
