data_PCOD8054060
_publ_section_title
;
Structure prediction by ZEFSAII (Michael W. Deem and Ramdas Pophale) SiO2 
 PCOD8054060
Probable space group: C M
;
_chemical_formula_sum "Si O2"
_cell_formula_units_Z 32
_cell_length_a 17.912298
_cell_length_b 8.788867
_cell_length_c 29.700446
_cell_angle_alpha 90.000000
_cell_angle_beta 159.764662
_cell_angle_gamma 90.000000
_cell_volume 1617.218890
_symmetry_space_group_name_H-M "C M"
_symmetry_group_IT_number 8
_symmetry_cell_setting 'monoclinic'
loop_
_space_group_symop_operation_xyz
x,y,z
x,-y,z
1/2+x,1/2+y,z
1/2+x,1/2-y,z
loop_
_atom_site_type_symbol
_atom_site_label
_atom_site_fract_x
_atom_site_fract_y
_atom_site_fract_z
Si Si1 0.152410 0.178351 0.779630
Si Si2 0.154367 0.674190 0.613739
Si Si3 0.093838 0.321933 0.842244
Si Si4 0.515146 0.322977 0.287828
Si Si5 0.245637 0.821507 0.330512
Si Si6 0.373662 0.820793 0.074744
Si Si7 0.618700 0.821811 0.012710
Si Si8 0.389395 0.175414 0.555413
O O1 0.101051 0.270855 0.794982
O O2 0.968559 0.214708 0.639424
O O3 0.156697 0.000000 0.792931
O O4 0.379026 0.235605 0.887189
O O5 0.232454 0.500000 0.653343
O O6 0.359771 0.783001 0.730137
O O7 0.999013 0.714163 0.482730
O O8 0.029453 0.697937 0.589681
O O9 0.131682 0.500000 0.867585
O O10 0.283750 0.238346 0.976507
O O11 0.571114 0.500000 0.317836
O O12 0.620716 0.253300 0.302887
O O13 0.259103 0.289632 0.138282
O O14 0.642174 0.266638 0.404422
O O15 0.124015 0.736172 0.220618
O O16 0.208818 0.000000 0.302673
O O17 0.214318 0.763894 0.023943
O O18 0.372106 0.000000 0.073456
O O19 0.624924 0.000000 0.004536
O O20 0.398490 0.000000 0.576827
#
# Coordination Sequence:
#
# PCOD8054060 Si02
#       8
#     4   4   4   4   4   4   4   4
#     4  11  23  37  53  75 105 140 179 225 271 317
#     4   9  18  35  60  86 111 139 175 221 268 317
#     4  12  25  39  54  73 105 147 187 227 271 320
#     4   7  12  27  52  79 104 131 166 206 252 308
#     4   8  15  31  55  82 111 140 171 214 268 318
#     4  11  21  34  56  84 112 141 178 222 264 316
#     4   9  18  35  58  81 105 137 177 220 267 316
#     4   9  17  32  56  82 107 137 169 207 261 322
#
# _framework density 19.787056
#
# number of rings (size 3 to 8) (size 9 to 14) (size 15 to 20)
#    0.000    2.500    0.000    5.625    0.000    4.000 
#    0.000    6.250    0.000    4.500    0.000    0.000 
#    0.000    0.000    0.000    0.000    0.000    0.000 
#
# Total GULP energy -198261.087464 kJ/mol
# GULP energy per Si atom -12391.317967 kJ/mol
# Density = 1.974202 g / cm^3
# Si number density = 19.787056 Si / 1000 Ang^3
#
#
#
# Elastic Constant Matrix: (Units=GPa)
#
#
# Indices 1 2 3 4 5 6 
#
# 1 45.1687 18.9711 24.7105 -0.0001 -18.4298 0.0017
# 2 18.9711 84.1711 32.4592 0.0033 -8.3424 0.0043
# 3 24.7105 32.4592 113.1021 0.0223 -39.7323 0.0053
# 4 -0.0001 0.0033 0.0223 30.2494 -0.0027 1.0636
# 5 -18.4298 -8.3424 -39.7323 -0.0027 21.3729 -0.0014
# 6 0.0017 0.0043 0.0053 1.0636 -0.0014 16.2772
#
#
#
# Elastic Compliance Matrix: (Units=1/GPa)
#
#
# Indices 1 2 3 4 5 6 
#
# 1 0.042525 -0.009189 0.014320 -0.000004 0.059703 -0.000001
# 2 -0.009189 0.015574 -0.008964 0.000003 -0.018510 -0.000002
# 3 0.014320 -0.008964 0.032842 -0.000017 0.069902 -0.000003
# 4 -0.000004 0.000003 -0.000017 0.033135 -0.000029 -0.002165
# 5 0.059703 -0.018510 0.069902 -0.000029 0.220994 -0.000003
# 6 -0.000001 -0.000002 -0.000003 -0.002165 -0.000003 0.061577
#
#
# Mechanical properties :
#
#
# Convention : Reuss Voigt Hill
#
# Bulk Modulus (GPa) = 12.00869 43.85817 27.93343
# Shear Modulus (GPa) = 11.31037 24.66665 17.98851
#
# Velocity S-wave (km/s) = 2.39342 3.53456 3.01841
# Velocity P-wave (km/s) = 3.70406 6.23464 5.12790
#
# Compressibility (1/GPa) = 0.08327301
#
# Stress axis : x y z
#
# Youngs Moduli (GPa) = 23.51562 64.20898 30.44875
#
# Poissons Ratio (x) = 0.59005 -0.43602
# Poissons Ratio (y) = 0.21610 0.27295
# Poissons Ratio (z) = -0.33674 0.57559
#
# Static dielectric constant tensor:
#      x y z
#    x 3.223470 0.000000 -0.193390 
#    y 0.000000 3.357390 -0.000010 
#    z -0.193390 -0.000010 4.152600 
# 
# 
# High freq. dielectric constant tensor:
#      x y z
#    x 1.730700 0.000000 -0.019200 
#    y 0.000000 1.752060 0.000000 
#    z -0.019200 0.000000 1.797990 
# 
# From -- ./inp_files/33423.got.cif
#   From: 2010.03.12/outbox.cif.g09.slc.cpg/sg8_17_cif.got.tgz:33423.got - 2010.03.31 10:45:26.
