data_PCOD8054507
_publ_section_title
;
Structure prediction by ZEFSAII (Michael W. Deem and Ramdas Pophale) SiO2 
 PCOD8054507
Probable space group: C C
;
_chemical_formula_sum "Si O2"
_cell_formula_units_Z 32
_cell_length_a 21.656302
_cell_length_b 13.343849
_cell_length_c 16.161033
_cell_angle_alpha 90.000000
_cell_angle_beta 18.315609
_cell_angle_gamma 90.000000
_cell_volume 1467.612271
_symmetry_space_group_name_H-M "C C"
_symmetry_group_IT_number 9
_symmetry_cell_setting 'monoclinic'
loop_
_space_group_symop_operation_xyz
x,y,z
x,-y,1/2+z
1/2+x,1/2+y,z
1/2+x,1/2-y,1/2+z
loop_
_atom_site_type_symbol
_atom_site_label
_atom_site_fract_x
_atom_site_fract_y
_atom_site_fract_z
Si Si1 0.975590 0.429190 0.812730
Si Si2 0.170878 0.201723 0.786838
Si Si3 0.140603 0.983916 0.629450
Si Si4 0.638519 0.117936 0.685353
Si Si5 0.809988 0.926104 0.263739
Si Si6 0.528212 0.565400 0.098300
Si Si7 0.829772 0.900062 0.621705
Si Si8 0.410334 0.312121 0.981737
O O1 0.035506 0.508860 0.808207
O O2 0.161528 0.390072 0.523833
O O3 0.870533 0.335062 0.988123
O O4 0.838511 0.477401 0.917269
O O5 0.168141 0.322805 0.792627
O O6 0.977263 0.169236 0.985654
O O7 0.160500 0.153259 0.891267
O O8 0.151749 0.981749 0.516304
O O9 0.106210 0.873004 0.708904
O O10 0.947862 0.049404 0.896625
O O11 0.464479 0.198073 0.889328
O O12 0.723731 0.145841 0.667318
O O13 0.819236 0.115629 0.390392
O O14 0.867638 0.829976 0.134218
O O15 0.999299 0.975413 0.068380
O O16 0.727465 0.014837 0.308606
#
# Coordination Sequence:
#
# PCOD8054507 Si02
#       8
#     4   4   4   4   4   4   4   4
#     4  10  21  38  56  80 112 145 182 226 272 329
#     4  10  21  36  55  81 110 142 180 223 269 322
#     4   9  19  36  57  79 109 144 181 225 275 324
#     4  10  21  36  58  83 110 144 184 229 278 326
#     4   9  20  38  55  79 112 144 182 225 271 326
#     4   9  20  36  57  83 110 144 183 226 275 322
#     4   9  20  36  55  79 108 140 179 223 269 320
#     4  10  20  36  57  84 111 143 183 231 277 323
#
# _framework density 21.804124000000002
#
# number of rings (size 3 to 8) (size 9 to 14) (size 15 to 20)
#    0.000    2.500    0.000    1.500    0.000   13.000 
#    0.000    5.000    0.000    0.000    0.000    0.000 
#    0.000    0.000    0.000    0.000    0.000    0.000 
#
# Total GULP energy -198300.570069 kJ/mol
# GULP energy per Si atom -12393.785629 kJ/mol
# Density = 2.175450 g / cm^3
# Si number density = 21.804124 Si / 1000 Ang^3
#
#
#
# Elastic Constant Matrix: (Units=GPa)
#
#
# Indices 1 2 3 4 5 6 
#
# 1 76.4902 9.9564 6.8365 0.0033 12.5662 -0.0013
# 2 9.9564 52.6493 9.9498 -0.0003 7.4991 0.0017
# 3 6.8365 9.9498 49.3237 0.0032 10.6357 -0.0023
# 4 0.0033 -0.0003 0.0032 29.0589 -0.0041 -0.0170
# 5 12.5662 7.4991 10.6357 -0.0041 29.7492 0.0010
# 6 -0.0013 0.0017 -0.0023 -0.0170 0.0010 26.7592
#
#
#
# Elastic Compliance Matrix: (Units=1/GPa)
#
#
# Indices 1 2 3 4 5 6 
#
# 1 0.014239 -0.001841 -0.000439 -0.000002 -0.005393 0.000001
# 2 -0.001841 0.020400 -0.003163 0.000000 -0.003234 -0.000002
# 3 -0.000439 -0.003163 0.022495 -0.000003 -0.007060 0.000002
# 4 -0.000002 0.000000 -0.000003 0.034413 0.000007 0.000022
# 5 -0.005393 -0.003234 -0.007060 0.000007 0.039232 -0.000002
# 6 0.000001 -0.000002 0.000002 0.000022 -0.000002 0.037370
#
#
# Mechanical properties :
#
#
# Convention : Reuss Voigt Hill
#
# Bulk Modulus (GPa) = 21.62277 25.77209 23.69743
# Shear Modulus (GPa) = 25.71342 27.22818 26.47080
#
# Velocity S-wave (km/s) = 3.43781 3.53762 3.48807
# Velocity P-wave (km/s) = 5.06916 5.34152 5.20712
#
# Compressibility (1/GPa) = 0.04624755
#
# Stress axis : x y z
#
# Youngs Moduli (GPa) = 70.23199 49.01928 44.45367
#
# Poissons Ratio (x) = 0.09027 0.01952
# Poissons Ratio (y) = 0.12933 0.14059
# Poissons Ratio (z) = 0.03084 0.15503
#
# Static dielectric constant tensor:
#      x y z
#    x 3.978700 0.000010 0.100770 
#    y 0.000010 3.891400 0.000000 
#    z 0.100770 0.000000 3.713430 
# 
# 
# High freq. dielectric constant tensor:
#      x y z
#    x 1.860530 0.000000 0.005550 
#    y 0.000000 1.840680 0.000000 
#    z 0.005550 0.000000 1.839940 
# 
# From -- ./inp_files/7600.got.cif
#   From: 2010.06.25/outbox.cif.g09.slc.cpg/sg9_4_cif.got.tgz:7600.got - 2010.06.27 21:40:51.
