data_PCOD8054610
_publ_section_title
;
Structure prediction by ZEFSAII (Michael W. Deem and Ramdas Pophale) SiO2 
 PCOD8054610
Probable space group: C C
;
_chemical_formula_sum "Si O2"
_cell_formula_units_Z 20
_cell_length_a 7.008273
_cell_length_b 12.437423
_cell_length_c 13.431242
_cell_angle_alpha 90.000000
_cell_angle_beta 117.597302
_cell_angle_gamma 90.000000
_cell_volume 1037.532670
_symmetry_space_group_name_H-M "C C"
_symmetry_group_IT_number 9
_symmetry_cell_setting 'monoclinic'
loop_
_space_group_symop_operation_xyz
x,y,z
x,-y,1/2+z
1/2+x,1/2+y,z
1/2+x,1/2-y,1/2+z
loop_
_atom_site_type_symbol
_atom_site_label
_atom_site_fract_x
_atom_site_fract_y
_atom_site_fract_z
Si Si1 0.556960 0.584286 0.761790
Si Si2 0.352392 0.393695 0.620366
Si Si3 0.473897 0.199875 0.147313
Si Si4 0.296572 0.880163 0.801067
Si Si5 0.498593 0.308397 0.454494
O O1 0.371967 0.518866 0.656955
O O2 0.595655 0.689870 0.705397
O O3 0.770133 0.507276 0.823060
O O4 0.476722 0.618430 0.851240
O O5 0.123201 0.355196 0.602396
O O6 0.557886 0.331680 0.719124
O O7 0.368296 0.375144 0.505902
O O8 0.448559 0.127715 0.240410
O O9 0.244403 0.216291 0.040604
O O10 0.391572 0.809239 0.913578
#
# Coordination Sequence:
#
# PCOD8054610 Si02
#       5
#     4   4   4   4   4
#     4   9  21  42  57  86 123 154 196 236 296 353
#     4   9  21  40  57  88 119 157 192 239 296 344
#     4  10  20  40  58  86 119 151 200 244 281 347
#     4   8  20  41  54  86 122 149 196 242 285 348
#     4  10  20  39  62  88 121 151 198 247 282 346
#
# _framework density 19.276502000000001
#
# number of rings (size 3 to 8) (size 9 to 14) (size 15 to 20)
#    1.200    1.600    0.000    0.000    0.000    6.400 
#   21.600    0.000    0.000    0.000    0.000    0.000 
#    0.000    0.000    0.000    0.000    0.000    0.000 
#
# Total GULP energy -123885.113054 kJ/mol
# GULP energy per Si atom -12388.511305 kJ/mol
# Density = 1.923263 g / cm^3
# Si number density = 19.276502 Si / 1000 Ang^3
#
#
#
# Elastic Constant Matrix: (Units=GPa)
#
#
# Indices 1 2 3 4 5 6 
#
# 1 85.0384 29.6445 13.1969 0.0000 -15.8265 0.0000
# 2 29.6445 105.2888 19.0875 0.0000 -16.2994 0.0000
# 3 13.1969 19.0875 57.3426 0.0000 -17.4977 0.0000
# 4 0.0000 0.0000 0.0000 36.4194 0.0000 8.5143
# 5 -15.8265 -16.2994 -17.4977 0.0000 22.0859 0.0000
# 6 0.0000 0.0000 0.0000 8.5143 0.0000 28.8819
#
#
#
# Elastic Compliance Matrix: (Units=1/GPa)
#
#
# Indices 1 2 3 4 5 6 
#
# 1 0.014239 -0.002754 0.000176 0.000000 0.008310 0.000000
# 2 -0.002754 0.011357 -0.001571 0.000000 0.005163 0.000000
# 3 0.000176 -0.001571 0.023219 0.000000 0.017362 0.000000
# 4 0.000000 0.000000 0.000000 0.029490 0.000000 -0.008694
# 5 0.008310 0.005163 0.017362 0.000000 0.068798 0.000000
# 6 0.000000 0.000000 0.000000 -0.008694 0.000000 0.037187
#
#
# Mechanical properties :
#
#
# Convention : Reuss Voigt Hill
#
# Bulk Modulus (GPa) = 24.68170 41.28083 32.98127
# Shear Modulus (GPa) = 24.26056 29.86018 27.06037
#
# Velocity S-wave (km/s) = 3.55146 3.94006 3.75080
# Velocity P-wave (km/s) = 5.44509 6.49310 5.99205
#
# Compressibility (1/GPa) = 0.04051585
#
# Stress axis : x y z
#
# Youngs Moduli (GPa) = 70.23029 88.04886 43.06727
#
# Poissons Ratio (x) = 0.24253 -0.00756
# Poissons Ratio (y) = 0.19345 0.06766
# Poissons Ratio (z) = -0.01233 0.13833
#
# Static dielectric constant tensor:
#      x y z
#    x 3.280570 0.000000 -0.045710 
#    y 0.000000 3.452240 0.000000 
#    z -0.045710 0.000000 3.491820 
# 
# 
# High freq. dielectric constant tensor:
#      x y z
#    x 1.737210 0.000000 -0.005100 
#    y 0.000000 1.739800 0.000000 
#    z -0.005100 0.000000 1.750380 
# 
# From -- ./inp_files/12825.got.cif
#   From: 2010.06.25/outbox.cif.g09.slc.cpg/sg9_7_cif.got.tgz:12825.got - 2010.06.27 21:40:51.
