data_PCOD8054446
_publ_section_title
;
Structure prediction by ZEFSAII (Michael W. Deem and Ramdas Pophale) SiO2 
 PCOD8054446
Probable space group: C C
;
_chemical_formula_sum "Si O2"
_cell_formula_units_Z 20
_cell_length_a 25.882245
_cell_length_b 7.222206
_cell_length_c 9.756865
_cell_angle_alpha 90.000000
_cell_angle_beta 151.935081
_cell_angle_gamma 90.000000
_cell_volume 858.055941
_symmetry_space_group_name_H-M "C C"
_symmetry_group_IT_number 9
_symmetry_cell_setting 'monoclinic'
loop_
_space_group_symop_operation_xyz
x,y,z
x,-y,1/2+z
1/2+x,1/2+y,z
1/2+x,1/2-y,1/2+z
loop_
_atom_site_type_symbol
_atom_site_label
_atom_site_fract_x
_atom_site_fract_y
_atom_site_fract_z
Si Si1 0.524610 0.298607 0.618950
Si Si2 0.758173 0.118187 0.149104
Si Si3 0.268408 0.713413 0.870313
Si Si4 0.828836 0.605000 0.029948
Si Si5 0.098881 0.993220 0.538820
O O1 0.533931 0.459866 0.526575
O O2 0.630314 0.167214 0.863422
O O3 0.514343 0.406413 0.738712
O O4 0.417646 0.175105 0.346173
O O5 0.830670 0.276815 0.393637
O O6 0.781637 0.922016 0.273850
O O7 0.793788 0.106644 0.073254
O O8 0.143609 0.796179 0.583554
O O9 0.351719 0.888376 0.047145
O O10 0.707852 0.621331 0.818367
#
# Coordination Sequence:
#
# PCOD8054446 Si02
#       5
#     4   4   4   4   4
#     4  10  19  42  66  97 136 180 222 278 348 395
#     4  10  21  41  64  95 135 175 220 279 337 397
#     4   9  21  40  64  91 133 171 219 280 329 394
#     4   9  21  40  65  93 136 174 226 279 332 406
#     4   8  20  39  65  98 136 170 229 280 324 418
#
# _framework density 23.308502000000001
#
# number of rings (size 3 to 8) (size 9 to 14) (size 15 to 20)
#    1.200    1.600    0.000    0.000    0.000    6.400 
#   10.800    0.000    0.000    0.000    0.000    0.000 
#    0.000    0.000    0.000    0.000    0.000    0.000 
#
# Total GULP energy -123941.102124 kJ/mol
# GULP energy per Si atom -12394.110212 kJ/mol
# Density = 2.325545 g / cm^3
# Si number density = 23.308502 Si / 1000 Ang^3
#
#
#
# Elastic Constant Matrix: (Units=GPa)
#
#
# Indices 1 2 3 4 5 6 
#
# 1 38.1593 34.9937 37.9787 0.0000 -5.2563 0.0000
# 2 34.9937 134.1143 92.7489 0.0000 -16.9233 0.0000
# 3 37.9787 92.7489 158.9060 0.0000 -16.3571 0.0000
# 4 0.0000 0.0000 0.0000 48.9670 0.0000 -12.5731
# 5 -5.2563 -16.9233 -16.3571 0.0000 12.2631 0.0000
# 6 0.0000 0.0000 0.0000 -12.5731 0.0000 18.5674
#
#
#
# Elastic Compliance Matrix: (Units=1/GPa)
#
#
# Indices 1 2 3 4 5 6 
#
# 1 0.037006 -0.005878 -0.005350 0.000000 0.000613 0.000000
# 2 -0.005878 0.014296 -0.005990 0.000000 0.009219 0.000000
# 3 -0.005350 -0.005990 0.011570 0.000000 0.004872 0.000000
# 4 0.000000 0.000000 0.000000 0.024720 0.000000 0.016739
# 5 0.000613 0.009219 0.004872 0.000000 0.101029 0.000000
# 6 0.000000 0.000000 0.000000 0.016739 0.000000 0.065193
#
#
# Mechanical properties :
#
#
# Convention : Reuss Voigt Hill
#
# Bulk Modulus (GPa) = 35.16932 73.62471 54.39702
# Shear Modulus (GPa) = 16.79371 26.99005 21.89188
#
# Velocity S-wave (km/s) = 2.68712 3.40656 3.06800
# Velocity P-wave (km/s) = 4.97482 6.86502 5.99489
#
# Compressibility (1/GPa) = 0.02843387
#
# Stress axis : x y z
#
# Youngs Moduli (GPa) = 27.02256 69.94871 86.43262
#
# Poissons Ratio (x) = 0.41118 0.46245
# Poissons Ratio (y) = 0.15885 0.51776
# Poissons Ratio (z) = 0.14458 0.41902
#
# Static dielectric constant tensor:
#      x y z
#    x 3.687450 0.000000 -0.112980 
#    y 0.000000 4.039820 0.000000 
#    z -0.112980 0.000000 4.199960 
# 
# 
# High freq. dielectric constant tensor:
#      x y z
#    x 1.893830 0.000000 -0.008020 
#    y 0.000000 1.914490 0.000000 
#    z -0.008020 0.000000 1.922790 
# 
# From -- ./inp_files/8671.got.cif
#   From: 2010.06.25/outbox.cif.g09.slc.cpg/sg9_5_cif.got.tgz:8671.got - 2010.06.27 21:40:51.
