data_PCOD8054061
_publ_section_title
;
Structure prediction by ZEFSAII (Michael W. Deem and Ramdas Pophale) SiO2 
 PCOD8054061
Probable space group: C M
;
_chemical_formula_sum "Si O2"
_cell_formula_units_Z 32
_cell_length_a 19.982677
_cell_length_b 8.613377
_cell_length_c 24.652060
_cell_angle_alpha 90.000000
_cell_angle_beta 156.787030
_cell_angle_gamma 90.000000
_cell_volume 1672.406441
_symmetry_space_group_name_H-M "C M"
_symmetry_group_IT_number 8
_symmetry_cell_setting 'monoclinic'
loop_
_space_group_symop_operation_xyz
x,y,z
x,-y,z
1/2+x,1/2+y,z
1/2+x,1/2-y,z
loop_
_atom_site_type_symbol
_atom_site_label
_atom_site_fract_x
_atom_site_fract_y
_atom_site_fract_z
Si Si1 0.761160 0.319262 0.708300
Si Si2 0.975111 0.319952 0.561229
Si Si3 0.477320 0.319026 0.060029
Si Si4 0.623035 0.816801 0.273424
Si Si5 0.474743 0.680855 0.779173
Si Si6 0.791331 0.318400 0.082425
Si Si7 0.119762 0.820392 0.775061
Si Si8 0.054130 0.819915 0.996987
O O1 0.722293 0.500000 0.680734
O O2 0.587911 0.230507 0.593965
O O3 0.816971 0.269776 0.689143
O O4 0.903535 0.280047 0.858947
O O5 0.933107 0.500000 0.525476
O O6 0.801023 0.225075 0.432946
O O7 0.076770 0.286694 0.692219
O O8 0.434270 0.500000 0.033620
O O9 0.304722 0.221445 0.935726
O O10 0.605767 0.265187 0.202302
O O11 0.571467 0.283107 0.073286
O O12 0.475289 0.749954 0.203517
O O13 0.610775 0.000000 0.256081
O O14 0.454269 0.500000 0.777596
O O15 0.481997 0.710164 0.720096
O O16 0.647969 0.746855 0.934847
O O17 0.805380 0.500000 0.084371
O O18 0.733213 0.277612 0.100806
O O19 0.117464 0.000000 0.755622
O O20 0.008246 0.000000 0.952256
#
# Coordination Sequence:
#
# PCOD8054061 Si02
#       8
#     4   4   4   4   4   4   4   4
#     4  11  21  34  56  86 116 150 193 241 290 345
#     4  12  25  41  58  82 118 158 196 244 298 353
#     4  11  21  34  57  88 120 153 191 241 289 339
#     4  11  22  39  60  83 114 155 198 244 289 348
#     4   9  18  35  58  85 116 150 187 236 292 345
#     4   8  15  32  56  81 109 146 189 230 281 339
#     4  11  21  37  61  88 116 152 198 243 288 344
#     4   9  18  34  56  83 115 152 190 233 285 341
#
# _framework density 19.134105999999999
#
# number of rings (size 3 to 8) (size 9 to 14) (size 15 to 20)
#    0.000    1.750    2.500    4.125    0.000    1.500 
#    0.000    1.875    0.000    6.000    0.000    0.000 
#    0.000    0.000    0.000    0.000    0.000    0.000 
#
# Total GULP energy -198399.725729 kJ/mol
# GULP energy per Si atom -12399.982858 kJ/mol
# Density = 1.909056 g / cm^3
# Si number density = 19.134106 Si / 1000 Ang^3
#
#
#
# Elastic Constant Matrix: (Units=GPa)
#
#
# Indices 1 2 3 4 5 6 
#
# 1 118.3589 38.9061 25.3686 0.0084 20.4948 -0.0001
# 2 38.9061 64.1741 11.9505 -0.0120 6.8493 0.0006
# 3 25.3686 11.9505 62.0701 -0.0029 16.6169 0.0008
# 4 0.0084 -0.0120 -0.0029 28.1708 0.0021 -1.1460
# 5 20.4948 6.8493 16.6169 0.0021 29.5270 0.0005
# 6 -0.0001 0.0006 0.0008 -1.1460 0.0005 27.2290
#
#
#
# Elastic Compliance Matrix: (Units=1/GPa)
#
#
# Indices 1 2 3 4 5 6 
#
# 1 0.011936 -0.006232 -0.002175 -0.000006 -0.005615 0.000000
# 2 -0.006232 0.019556 -0.001368 0.000010 0.000559 0.000000
# 3 -0.002175 -0.001368 0.019750 0.000003 -0.009287 0.000000
# 4 -0.000006 0.000010 0.000003 0.035559 -0.000002 0.001497
# 5 -0.005615 0.000559 -0.009287 -0.000002 0.042862 -0.000001
# 6 0.000000 0.000000 0.000000 0.001497 -0.000001 0.036789
#
#
# Mechanical properties :
#
#
# Convention : Reuss Voigt Hill
#
# Bulk Modulus (GPa) = 31.55432 44.11706 37.83569
# Shear Modulus (GPa) = 25.43706 28.21055 26.82380
#
# Velocity S-wave (km/s) = 3.65006 3.84390 3.74824
# Velocity P-wave (km/s) = 5.85584 6.54275 6.20880
#
# Compressibility (1/GPa) = 0.03169138
#
# Stress axis : x y z
#
# Youngs Moduli (GPa) = 83.78085 51.13578 50.63414
#
# Poissons Ratio (x) = 0.31867 0.11014
# Poissons Ratio (y) = 0.52211 0.06925
# Poissons Ratio (z) = 0.18225 0.06994
#
# Static dielectric constant tensor:
#      x y z
#    x 3.821830 0.000000 0.275830 
#    y 0.000000 3.345460 0.000000 
#    z 0.275830 0.000000 3.223950 
# 
# 
# High freq. dielectric constant tensor:
#      x y z
#    x 1.761090 0.000000 0.017360 
#    y 0.000000 1.737230 0.000000 
#    z 0.017360 0.000000 1.709390 
# 
# From -- ./inp_files/31317.got.cif
#   From: 2010.03.12/outbox.cif.g09.slc.cpg/sg8_16_cif.got.tgz:31317.got - 2010.03.31 10:45:26.
