data_PCOD8054411
_publ_section_title
;
Structure prediction by ZEFSAII (Michael W. Deem and Ramdas Pophale) SiO2 
 PCOD8054411
Probable space group: C C
;
_chemical_formula_sum "Si O2"
_cell_formula_units_Z 28
_cell_length_a 11.307352
_cell_length_b 8.806278
_cell_length_c 21.754973
_cell_angle_alpha 90.000000
_cell_angle_beta 37.181594
_cell_angle_gamma 90.000000
_cell_volume 1309.168338
_symmetry_space_group_name_H-M "C C"
_symmetry_group_IT_number 9
_symmetry_cell_setting 'monoclinic'
loop_
_space_group_symop_operation_xyz
x,y,z
x,-y,1/2+z
1/2+x,1/2+y,z
1/2+x,1/2-y,1/2+z
loop_
_atom_site_type_symbol
_atom_site_label
_atom_site_fract_x
_atom_site_fract_y
_atom_site_fract_z
Si Si1 0.830280 0.427894 0.872710
Si Si2 0.184568 0.917894 0.799307
Si Si3 0.325435 0.371696 0.021115
Si Si4 0.446764 0.893043 0.108124
Si Si5 0.622032 0.869712 0.443103
Si Si6 0.210632 0.430621 0.274568
Si Si7 0.948178 0.933807 0.577335
O O1 0.823968 0.439379 0.801149
O O2 0.768746 0.253100 0.913548
O O3 0.037776 0.471917 0.814375
O O4 0.675722 0.543835 0.967351
O O5 0.199333 0.748704 0.764917
O O6 0.253901 0.036074 0.718947
O O7 0.958721 0.949827 0.911995
O O8 0.105698 0.337399 0.092144
O O9 0.310433 0.481046 0.085790
O O10 0.431083 0.214853 0.995194
O O11 0.385454 0.742474 0.097177
O O12 0.556092 0.012190 0.020515
O O13 0.719314 0.957256 0.344602
O O14 0.406800 0.498179 0.162550
#
# Coordination Sequence:
#
# PCOD8054411 Si02
#       7
#     4   4   4   4   4   4   4
#     4   9  19  39  61  81 112 153 187 234 283 325
#     4   9  20  36  59  85 111 149 194 228 280 341
#     4   9  21  42  57  78 116 152 186 235 280 326
#     4  12  22  37  59  86 117 148 184 236 283 332
#     4   9  22  38  58  85 112 149 195 227 276 343
#     4  10  19  39  59  81 117 150 185 237 280 328
#     4  10  21  35  59  88 111 147 195 227 280 345
#
# _framework density 21.387623000000001
#
# number of rings (size 3 to 8) (size 9 to 14) (size 15 to 20)
#    0.000    2.857    0.000    4.286    0.000    4.571 
#    0.000   12.857    0.000    0.000    0.000    0.000 
#    0.000    0.000    0.000    0.000    0.000    0.000 
#
# Total GULP energy -173539.663314 kJ/mol
# GULP energy per Si atom -12395.690237 kJ/mol
# Density = 2.133894 g / cm^3
# Si number density = 21.387623 Si / 1000 Ang^3
#
#
#
# Elastic Constant Matrix: (Units=GPa)
#
#
# Indices 1 2 3 4 5 6 
#
# 1 41.3135 11.2146 5.9845 0.0000 -3.9958 0.0000
# 2 11.2146 114.7112 51.2730 0.0000 21.5151 0.0000
# 3 5.9845 51.2730 88.8344 0.0000 18.5020 0.0000
# 4 0.0000 0.0000 0.0000 32.5976 0.0000 4.7289
# 5 -3.9958 21.5151 18.5020 0.0000 26.0211 0.0000
# 6 0.0000 0.0000 0.0000 4.7289 0.0000 21.0413
#
#
#
# Elastic Compliance Matrix: (Units=1/GPa)
#
#
# Indices 1 2 3 4 5 6 
#
# 1 0.026085 -0.003374 -0.001438 0.000000 0.007818 0.000000
# 2 -0.003374 0.012964 -0.005769 0.000000 -0.007135 0.000000
# 3 -0.001438 -0.005769 0.016124 0.000000 -0.006915 0.000000
# 4 0.000000 0.000000 0.000000 0.031711 0.000000 -0.007127
# 5 0.007818 -0.007135 -0.006915 0.000000 0.050448 0.000000
# 6 0.000000 0.000000 0.000000 -0.007127 0.000000 0.049127
#
#
# Mechanical properties :
#
#
# Convention : Reuss Voigt Hill
#
# Bulk Modulus (GPa) = 29.40213 42.42259 35.91236
# Shear Modulus (GPa) = 22.83526 27.69113 25.26320
#
# Velocity S-wave (km/s) = 3.27109 3.60214 3.44060
# Velocity P-wave (km/s) = 5.29564 6.09743 5.71063
#
# Compressibility (1/GPa) = 0.03401114
#
# Stress axis : x y z
#
# Youngs Moduli (GPa) = 38.33555 77.13436 62.01921
#
# Poissons Ratio (x) = 0.26022 0.08921
# Poissons Ratio (y) = 0.12933 0.35781
# Poissons Ratio (z) = 0.05514 0.44502
#
# Static dielectric constant tensor:
#      x y z
#    x 3.537350 0.000000 0.150980 
#    y 0.000000 3.769320 0.000000 
#    z 0.150980 0.000000 3.988390 
# 
# 
# High freq. dielectric constant tensor:
#      x y z
#    x 1.809150 0.000000 0.007300 
#    y 0.000000 1.835900 0.000000 
#    z 0.007300 0.000000 1.851530 
# 
# From -- ./inp_files/24030.got.cif
#   From: 2010.06.25/outbox.cif.g09.slc.cpg/sg9_13_cif.got.tgz:24030.got - 2010.06.27 21:40:51.
