data_PCOD8054058
_publ_section_title
;
Structure prediction by ZEFSAII (Michael W. Deem and Ramdas Pophale) SiO2 
 PCOD8054058
Probable space group: C M
;
_chemical_formula_sum "Si O2"
_cell_formula_units_Z 32
_cell_length_a 14.204586
_cell_length_b 19.758523
_cell_length_c 8.957023
_cell_angle_alpha 90.000000
_cell_angle_beta 40.413025
_cell_angle_gamma 90.000000
_cell_volume 1629.739088
_symmetry_space_group_name_H-M "C M"
_symmetry_group_IT_number 8
_symmetry_cell_setting 'monoclinic'
loop_
_space_group_symop_operation_xyz
x,y,z
x,-y,z
1/2+x,1/2+y,z
1/2+x,1/2-y,z
loop_
_atom_site_type_symbol
_atom_site_label
_atom_site_fract_x
_atom_site_fract_y
_atom_site_fract_z
Si Si1 0.012300 0.923049 0.322670
Si Si2 0.248194 0.815264 0.969267
Si Si3 0.866334 0.076770 0.797900
Si Si4 0.314983 0.330242 0.398137
Si Si5 0.106330 0.677860 0.056764
Si Si6 0.009147 0.157593 0.873131
Si Si7 0.516468 0.803394 0.821418
Si Si8 0.326794 0.814081 0.549358
O O1 0.140766 0.878407 0.100639
O O2 0.996264 0.917068 0.520562
O O3 0.862148 0.895800 0.434935
O O4 0.038289 0.000000 0.240106
O O5 0.155217 0.745889 0.086416
O O6 0.355782 0.830833 0.979046
O O7 0.347876 0.811096 0.701689
O O8 0.935480 0.096616 0.873086
O O9 0.809778 0.000000 0.876970
O O10 0.731322 0.122539 0.913516
O O11 0.324007 0.261658 0.485386
O O12 0.142847 0.340335 0.571500
O O13 0.414464 0.325252 0.133182
O O14 0.964615 0.647698 0.311596
O O15 0.060514 0.693414 0.942361
O O16 0.007281 0.225556 0.776879
O O17 0.178500 0.142896 0.703164
#
# Coordination Sequence:
#
# PCOD8054058 Si02
#       8
#     4   4   4   4   4   4   4   4
#     4  11  23  43  66  88 129 180 219 263 329 399
#     4  12  23  39  64  98 131 166 217 276 325 388
#     4  11  26  45  66  95 133 183 222 261 329 400
#     4  11  20  41  62  95 128 164 215 266 330 384
#     4  12  22  41  64  96 135 167 217 275 325 388
#     4  11  22  38  63  99 130 162 216 269 322 391
#     4  11  23  35  65  98 124 164 215 273 326 373
#     4  11  21  38  64  99 128 158 215 277 326 375
#
# _framework density 19.635045000000002
#
# number of rings (size 3 to 8) (size 9 to 14) (size 15 to 20)
#    0.000    0.750    8.750    0.000    3.500    0.500 
#    0.000    2.500    0.000    0.000    0.000    0.000 
#    0.000    0.000    0.000    0.000    0.000    0.000 
#
# Total GULP energy -198294.064958 kJ/mol
# GULP energy per Si atom -12393.379060 kJ/mol
# Density = 1.959036 g / cm^3
# Si number density = 19.635045 Si / 1000 Ang^3
#
#
#
# Elastic Constant Matrix: (Units=GPa)
#
#
# Indices 1 2 3 4 5 6 
#
# 1 119.1034 46.0068 42.9542 0.0000 -14.6738 0.0000
# 2 46.0068 115.7596 41.0392 0.0000 -3.1464 0.0000
# 3 42.9542 41.0392 134.7046 -0.0001 -13.0564 0.0000
# 4 0.0000 0.0000 -0.0001 25.1754 0.0000 -1.4935
# 5 -14.6738 -3.1464 -13.0564 0.0000 30.2923 0.0000
# 6 0.0000 0.0000 0.0000 -1.4935 0.0000 23.4557
#
#
#
# Elastic Compliance Matrix: (Units=1/GPa)
#
#
# Indices 1 2 3 4 5 6 
#
# 1 0.011000 -0.003540 -0.002033 0.000000 0.004084 0.000000
# 2 -0.003540 0.010826 -0.002324 0.000000 -0.001592 0.000000
# 3 -0.002033 -0.002324 0.009039 0.000000 0.002670 0.000000
# 4 0.000000 0.000000 0.000000 0.039872 0.000000 0.002539
# 5 0.004084 -0.001592 0.002670 0.000000 0.035975 0.000000
# 6 0.000000 0.000000 0.000000 0.002539 0.000000 0.042795
#
#
# Mechanical properties :
#
#
# Convention : Reuss Voigt Hill
#
# Bulk Modulus (GPa) = 66.35342 69.95201 68.15272
# Shear Modulus (GPa) = 29.35566 31.75583 30.55575
#
# Velocity S-wave (km/s) = 3.87080 4.02593 3.94913
# Velocity P-wave (km/s) = 7.33786 7.57062 7.45515
#
# Compressibility (1/GPa) = 0.01507081
#
# Stress axis : x y z
#
# Youngs Moduli (GPa) = 90.90954 92.36992 110.63511
#
# Poissons Ratio (x) = 0.32698 0.22495
# Poissons Ratio (y) = 0.32181 0.25709
# Poissons Ratio (z) = 0.18484 0.21465
#
# Static dielectric constant tensor:
#      x y z
#    x 3.696270 0.000000 -0.186480 
#    y 0.000000 3.309530 0.000000 
#    z -0.186480 0.000000 3.934470 
# 
# 
# High freq. dielectric constant tensor:
#      x y z
#    x 1.766110 0.000000 -0.006420 
#    y 0.000000 1.728170 0.000000 
#    z -0.006420 0.000000 1.780890 
# 
# From -- ./inp_files/13707.got.cif
#   From: 2010.03.12/outbox.cif.g09.slc.cpg/sg8_7_cif.got.tgz:13707.got - 2010.03.31 10:45:26.
