data_PCOD8054072
_publ_section_title
;
Structure prediction by ZEFSAII (Michael W. Deem and Ramdas Pophale) SiO2 
 PCOD8054072
Probable space group: C M
;
_chemical_formula_sum "Si O2"
_cell_formula_units_Z 32
_cell_length_a 11.944728
_cell_length_b 14.734291
_cell_length_c 18.339107
_cell_angle_alpha 90.000000
_cell_angle_beta 152.709319
_cell_angle_gamma 90.000000
_cell_volume 1479.884373
_symmetry_space_group_name_H-M "C M"
_symmetry_group_IT_number 8
_symmetry_cell_setting 'monoclinic'
loop_
_space_group_symop_operation_xyz
x,y,z
x,-y,z
1/2+x,1/2+y,z
1/2+x,1/2-y,z
loop_
_atom_site_type_symbol
_atom_site_label
_atom_site_fract_x
_atom_site_fract_y
_atom_site_fract_z
Si Si1 0.797970 0.895229 0.445110
Si Si2 0.972213 0.826925 0.700924
Si Si3 0.965368 0.770072 0.235860
Si Si4 0.365439 0.600236 0.784248
Si Si5 0.299575 0.144496 0.657732
Si Si6 0.294936 0.394730 0.007036
Si Si7 0.330381 0.901969 0.516044
Si Si8 0.456352 0.284733 0.967281
O O1 0.854726 0.869520 0.561327
O O2 0.586159 0.829070 0.290752
O O3 0.037653 0.885095 0.534886
O O4 0.708135 0.000000 0.389402
O O5 0.979972 0.901392 0.769447
O O6 0.798438 0.750273 0.635883
O O7 0.241881 0.789320 0.840894
O O8 0.137694 0.824023 0.390251
O O9 0.926856 0.828413 0.140572
O O10 0.712639 0.762336 0.134300
O O11 0.398304 0.500000 0.836322
O O12 0.502395 0.673225 0.913718
O O13 0.078661 0.626154 0.619134
O O14 0.501962 0.121137 0.836913
O O15 0.373357 0.089970 0.627616
O O16 0.356177 0.500000 0.059365
O O17 0.399098 0.366598 0.988774
O O18 0.239299 0.000000 0.434498
#
# Coordination Sequence:
#
# PCOD8054072 Si02
#       8
#     4   4   4   4   4   4   4   4
#     4  12  26  43  66  98 137 181 224 274 335 396
#     4  11  21  42  69 100 129 173 223 279 330 393
#     4  12  26  42  61  98 139 176 215 270 335 395
#     4  11  22  41  69  99 128 167 226 278 324 388
#     4  11  22  43  72  97 127 172 229 278 327 392
#     4  11  23  42  70  97 128 172 223 275 329 393
#     4  11  22  42  70  98 128 171 225 277 330 390
#     4  11  23  41  65  95 134 178 215 267 334 395
#
# _framework density 21.623311999999999
#
# number of rings (size 3 to 8) (size 9 to 14) (size 15 to 20)
#    0.000    0.750    3.750    6.000    1.750    2.000 
#    0.000    1.875    0.000    0.000    0.000    0.000 
#    0.000    0.000    0.000    0.000    0.000    0.000 
#
# Total GULP energy -198392.402137 kJ/mol
# GULP energy per Si atom -12399.525134 kJ/mol
# Density = 2.157410 g / cm^3
# Si number density = 21.623312 Si / 1000 Ang^3
#
#
#
# Elastic Constant Matrix: (Units=GPa)
#
#
# Indices 1 2 3 4 5 6 
#
# 1 92.7131 30.3226 26.0418 0.0017 -5.9585 0.0003
# 2 30.3226 142.2672 57.3963 0.0152 4.9428 0.0032
# 3 26.0418 57.3963 85.9222 0.0130 -3.3375 0.0047
# 4 0.0017 0.0152 0.0130 28.9697 0.0006 -8.4262
# 5 -5.9585 4.9428 -3.3375 0.0006 24.3886 0.0002
# 6 0.0003 0.0032 0.0047 -8.4262 0.0002 23.7856
#
#
#
# Elastic Compliance Matrix: (Units=1/GPa)
#
#
# Indices 1 2 3 4 5 6 
#
# 1 0.012228 -0.001728 -0.002435 0.000002 0.003005 0.000001
# 2 -0.001728 0.010067 -0.006330 -0.000003 -0.003329 -0.000001
# 3 -0.002435 -0.006330 0.016721 -0.000005 0.002976 -0.000004
# 4 0.000002 -0.000003 -0.000005 0.038484 -0.000001 0.013633
# 5 0.003005 -0.003329 0.002976 -0.000001 0.042819 -0.000001
# 6 0.000001 -0.000001 -0.000004 0.013633 -0.000001 0.046872
#
#
# Mechanical properties :
#
#
# Convention : Reuss Voigt Hill
#
# Bulk Modulus (GPa) = 55.46677 60.93600 58.20139
# Shear Modulus (GPa) = 25.74834 29.23825 27.49329
#
# Velocity S-wave (km/s) = 3.45449 3.68117 3.56963
# Velocity P-wave (km/s) = 6.45123 6.80513 6.63055
#
# Compressibility (1/GPa) = 0.01802881
#
# Stress axis : x y z
#
# Youngs Moduli (GPa) = 81.77768 99.33533 59.80629
#
# Poissons Ratio (x) = 0.17168 0.14563
# Poissons Ratio (y) = 0.14134 0.37859
# Poissons Ratio (z) = 0.19913 0.62881
#
# Static dielectric constant tensor:
#      x y z
#    x 3.863610 0.000000 -0.002310 
#    y 0.000000 4.074470 -0.000010 
#    z -0.002310 -0.000010 3.818600 
# 
# 
# High freq. dielectric constant tensor:
#      x y z
#    x 1.849360 0.000000 -0.001400 
#    y 0.000000 1.861970 0.000000 
#    z -0.001400 0.000000 1.836270 
# 
# From -- ./inp_files/28878.got.cif
#   From: 2010.03.12/outbox.cif.g09.slc.cpg/sg8_15_cif.got.tgz:28878.got - 2010.03.31 10:45:26.
