data_PCOD8054967
_publ_section_title
;
Structure prediction by ZEFSAII (Michael W. Deem and Ramdas Pophale) SiO2 
 PCOD8054967
Probable space group: C C
;
_chemical_formula_sum "Si O2"
_cell_formula_units_Z 32
_cell_length_a 25.904765
_cell_length_b 6.733562
_cell_length_c 12.873760
_cell_angle_alpha 90.000000
_cell_angle_beta 137.533471
_cell_angle_gamma 90.000000
_cell_volume 1516.129301
_symmetry_space_group_name_H-M "C C"
_symmetry_group_IT_number 9
_symmetry_cell_setting 'monoclinic'
loop_
_space_group_symop_operation_xyz
x,y,z
x,-y,1/2+z
1/2+x,1/2+y,z
1/2+x,1/2-y,1/2+z
loop_
_atom_site_type_symbol
_atom_site_label
_atom_site_fract_x
_atom_site_fract_y
_atom_site_fract_z
Si Si1 0.620310 0.950117 0.888790
Si Si2 0.838886 0.714410 0.764727
Si Si3 0.497238 0.257894 0.714634
Si Si4 0.606380 0.539264 0.749764
Si Si5 0.976593 0.050367 0.404650
Si Si6 0.885948 0.731062 0.365791
Si Si7 0.251064 0.474941 0.235237
Si Si8 0.227054 0.276307 0.416188
O O1 0.615921 0.734536 0.832330
O O2 0.536609 0.041723 0.790417
O O3 0.663302 0.084050 0.869850
O O4 0.665591 0.945873 0.065166
O O5 0.857473 0.485458 0.797310
O O6 0.801115 0.754691 0.597075
O O7 0.919820 0.825767 0.894640
O O8 0.780466 0.793816 0.769097
O O9 0.558422 0.393028 0.749239
O O10 0.472746 0.367355 0.783352
O O11 0.421555 0.230715 0.533988
O O12 0.562119 0.579851 0.575932
O O13 0.688070 0.440528 0.841063
O O14 0.947566 0.819729 0.373234
O O15 0.809634 0.862068 0.246171
O O16 0.256091 0.383455 0.355928
#
# Coordination Sequence:
#
# PCOD8054967 Si02
#       8
#     4   4   4   4   4   4   4   4
#     4  10  22  38  59  88 124 162 204 254 313 377
#     4  10  21  41  63  88 124 165 211 262 315 377
#     4  10  22  39  59  91 124 157 213 258 305 384
#     4  10  22  38  59  88 124 162 204 254 313 377
#     4  10  22  38  62  90 123 160 208 264 310 378
#     4  10  21  41  63  88 124 165 211 262 315 377
#     4  10  22  38  62  90 123 160 208 264 310 378
#     4  10  22  39  59  91 124 157 213 258 305 384
#
# _framework density 21.106377999999999
#
# number of rings (size 3 to 8) (size 9 to 14) (size 15 to 20)
#    0.000    2.000    0.000    2.250    3.500    2.000 
#    0.000    7.500    0.000    0.000    0.000    0.000 
#    0.000    0.000    0.000    0.000    0.000    0.000 
#
# Total GULP energy -198340.536858 kJ/mol
# GULP energy per Si atom -12396.283554 kJ/mol
# Density = 2.105834 g / cm^3
# Si number density = 21.106378 Si / 1000 Ang^3
#
#
#
# Elastic Constant Matrix: (Units=GPa)
#
#
# Indices 1 2 3 4 5 6 
#
# 1 67.8076 19.2864 27.3686 0.0000 -17.7673 0.0000
# 2 19.2864 84.1140 20.2024 0.0000 -1.7596 0.0000
# 3 27.3686 20.2024 80.0659 0.0000 2.5824 0.0000
# 4 0.0000 0.0000 0.0000 30.5929 0.0000 6.4307
# 5 -17.7673 -1.7596 2.5824 0.0000 31.0299 0.0000
# 6 0.0000 0.0000 0.0000 6.4307 0.0000 31.7968
#
#
#
# Elastic Compliance Matrix: (Units=1/GPa)
#
#
# Indices 1 2 3 4 5 6 
#
# 1 0.021883 -0.003033 -0.007132 0.000000 0.012951 0.000000
# 2 -0.003033 0.013106 -0.002244 0.000000 -0.000807 0.000000
# 3 -0.007132 -0.002244 0.015672 0.000000 -0.005515 0.000000
# 4 0.000000 0.000000 0.000000 0.034139 0.000000 -0.006904
# 5 0.012951 -0.000807 -0.005515 0.000000 0.040056 0.000000
# 6 0.000000 0.000000 0.000000 -0.006904 0.000000 0.032846
#
#
# Mechanical properties :
#
#
# Convention : Reuss Voigt Hill
#
# Bulk Modulus (GPa) = 38.69816 40.63358 39.66587
# Shear Modulus (GPa) = 26.15948 29.69258 27.92603
#
# Velocity S-wave (km/s) = 3.52435 3.75481 3.64140
# Velocity P-wave (km/s) = 5.91067 6.17185 6.04267
#
# Compressibility (1/GPa) = 0.02584102
#
# Stress axis : x y z
#
# Youngs Moduli (GPa) = 45.69798 76.29942 63.80861
#
# Poissons Ratio (x) = 0.23145 0.45511
# Poissons Ratio (y) = 0.13862 0.14319
# Poissons Ratio (z) = 0.32594 0.17122
#
# Static dielectric constant tensor:
#      x y z
#    x 3.654080 0.000000 0.208260 
#    y 0.000000 4.137850 0.000000 
#    z 0.208260 0.000000 4.034920 
# 
# 
# High freq. dielectric constant tensor:
#      x y z
#    x 1.809320 0.000000 0.012340 
#    y 0.000000 1.833400 0.000000 
#    z 0.012340 0.000000 1.839510 
# 
# From -- ./inp_files/19795.got.cif
#   From: 2010.06.25/outbox.cif.g09.slc.cpg/sg9_10_cif.got.tgz:19795.got - 2010.06.27 21:40:51.
