data_PCOD8054752
_publ_section_title
;
Structure prediction by ZEFSAII (Michael W. Deem and Ramdas Pophale) SiO2 
 PCOD8054752
Probable space group: C C
;
_chemical_formula_sum "Si O2"
_cell_formula_units_Z 28
_cell_length_a 25.307799
_cell_length_b 11.809213
_cell_length_c 9.020282
_cell_angle_alpha 90.000000
_cell_angle_beta 31.058899
_cell_angle_gamma 90.000000
_cell_volume 1390.839229
_symmetry_space_group_name_H-M "C C"
_symmetry_group_IT_number 9
_symmetry_cell_setting 'monoclinic'
loop_
_space_group_symop_operation_xyz
x,y,z
x,-y,1/2+z
1/2+x,1/2+y,z
1/2+x,1/2-y,1/2+z
loop_
_atom_site_type_symbol
_atom_site_label
_atom_site_fract_x
_atom_site_fract_y
_atom_site_fract_z
Si Si1 0.916310 0.433571 0.612860
Si Si2 0.796439 0.231256 0.985733
Si Si3 0.450279 0.189964 0.619201
Si Si4 0.574834 0.777755 0.110317
Si Si5 0.484265 0.586376 0.528893
Si Si6 0.274372 0.825768 0.738279
Si Si7 0.045332 0.873342 0.209586
O O1 0.935894 0.557639 0.623322
O O2 0.845730 0.428825 0.632915
O O3 0.029321 0.384406 0.307682
O O4 0.859515 0.348654 0.867783
O O5 0.697607 0.220249 0.327279
O O6 0.866898 0.121596 0.840699
O O7 0.761029 0.231321 0.898167
O O8 0.537454 0.217971 0.530434
O O9 0.486470 0.254535 0.382878
O O10 0.338320 0.229932 0.948135
O O11 0.536213 0.663449 0.279280
O O12 0.489422 0.459817 0.454810
O O13 0.541225 0.593051 0.548519
O O14 0.165944 0.872603 0.949887
#
# Coordination Sequence:
#
# PCOD8054752 Si02
#       7
#     4   4   4   4   4   4   4
#     4   8  20  35  65 101 122 158 208 262 317 370
#     4   9  20  45  66  91 130 168 204 267 317 374
#     4  11  20  41  66  98 126 161 218 265 313 376
#     4  10  20  44  67  90 132 164 213 265 316 377
#     4  11  26  42  64  96 130 166 221 259 323 373
#     4   9  22  39  69  95 118 173 209 259 319 371
#     4  12  26  42  65  95 130 172 209 271 311 391
#
# _framework density 20.131730999999998
#
# number of rings (size 3 to 8) (size 9 to 14) (size 15 to 20)
#    0.857    1.143    2.857    0.857    4.000    5.714 
#    5.143    0.000    0.000    0.000    0.000    0.000 
#    0.000    0.000    0.000    0.000    0.000    0.000 
#
# Total GULP energy -173469.740980 kJ/mol
# GULP energy per Si atom -12390.695784 kJ/mol
# Density = 2.008591 g / cm^3
# Si number density = 20.131731 Si / 1000 Ang^3
#
#
#
# Elastic Constant Matrix: (Units=GPa)
#
#
# Indices 1 2 3 4 5 6 
#
# 1 84.9446 39.1123 25.5262 0.0000 -4.2773 0.0000
# 2 39.1123 77.7516 46.8199 0.0000 -17.0164 0.0000
# 3 25.5262 46.8199 138.7406 0.0000 -27.1648 0.0000
# 4 0.0000 0.0000 0.0000 17.3755 0.0000 7.1343
# 5 -4.2773 -17.0164 -27.1648 0.0000 28.0172 0.0000
# 6 0.0000 0.0000 0.0000 7.1343 0.0000 26.5239
#
#
#
# Elastic Compliance Matrix: (Units=1/GPa)
#
#
# Indices 1 2 3 4 5 6 
#
# 1 0.015560 -0.008077 -0.000781 0.000000 -0.003287 0.000000
# 2 -0.008077 0.021073 -0.004149 0.000000 0.007544 0.000000
# 3 -0.000781 -0.004149 0.010164 0.000000 0.007216 0.000000
# 4 0.000000 0.000000 0.000000 0.064698 0.000000 -0.017402
# 5 -0.003287 0.007544 0.007216 0.000000 0.046769 0.000000
# 6 0.000000 0.000000 0.000000 -0.017402 0.000000 0.042383
#
#
# Mechanical properties :
#
#
# Convention : Reuss Voigt Hill
#
# Bulk Modulus (GPa) = 48.10934 58.26151 53.18543
# Shear Modulus (GPa) = 21.40520 27.04854 24.22687
#
# Velocity S-wave (km/s) = 3.26430 3.66946 3.47279
# Velocity P-wave (km/s) = 6.17711 6.85246 6.52353
#
# Compressibility (1/GPa) = 0.02078599
#
# Stress axis : x y z
#
# Youngs Moduli (GPa) = 64.26581 47.45300 98.38415
#
# Poissons Ratio (x) = 0.38326 0.07683
# Poissons Ratio (y) = 0.51905 0.40815
# Poissons Ratio (z) = 0.05018 0.19686
#
# Static dielectric constant tensor:
#      x y z
#    x 3.499980 0.000000 -0.011610 
#    y 0.000000 3.408730 0.000000 
#    z -0.011610 0.000000 3.776500 
# 
# 
# High freq. dielectric constant tensor:
#      x y z
#    x 1.770690 0.000000 0.000080 
#    y 0.000000 1.763910 0.000000 
#    z 0.000080 0.000000 1.799810 
# 
# From -- ./inp_files/8998.got.cif
#   From: 2010.06.25/outbox.cif.g09.slc.cpg/sg9_5_cif.got.tgz:8998.got - 2010.06.27 21:40:51.
