data_PCOD8054228
_publ_section_title
;
Structure prediction by ZEFSAII (Michael W. Deem and Ramdas Pophale) SiO2 
 PCOD8054228
Probable space group: C C
;
_chemical_formula_sum "Si O2"
_cell_formula_units_Z 32
_cell_length_a 12.662814
_cell_length_b 12.912887
_cell_length_c 20.353220
_cell_angle_alpha 90.000000
_cell_angle_beta 28.312123
_cell_angle_gamma 90.000000
_cell_volume 1578.397832
_symmetry_space_group_name_H-M "C C"
_symmetry_group_IT_number 9
_symmetry_cell_setting 'monoclinic'
loop_
_space_group_symop_operation_xyz
x,y,z
x,-y,1/2+z
1/2+x,1/2+y,z
1/2+x,1/2-y,1/2+z
loop_
_atom_site_type_symbol
_atom_site_label
_atom_site_fract_x
_atom_site_fract_y
_atom_site_fract_z
Si Si1 0.737960 0.575937 0.065990
Si Si2 0.413929 0.377419 0.848406
Si Si3 0.817503 0.922553 0.127959
Si Si4 0.016952 0.404939 0.848244
Si Si5 0.060947 0.429461 0.135177
Si Si6 0.849521 0.786244 0.750865
Si Si7 0.802206 0.616456 0.332184
Si Si8 0.129092 0.726571 0.829995
O O1 0.615998 0.557399 0.203623
O O2 0.562106 0.639112 0.115715
O O3 0.810330 0.465983 0.995525
O O4 0.959574 0.643961 0.954312
O O5 0.306358 0.300345 0.852841
O O6 0.493180 0.315326 0.868267
O O7 0.223034 0.450693 0.983934
O O8 0.687557 0.897445 0.132368
O O9 0.798443 0.822935 0.185340
O O10 0.717902 0.019075 0.220759
O O11 0.074070 0.943059 0.973117
O O12 0.929452 0.353525 0.829289
O O13 0.122984 0.318035 0.837177
O O14 0.897829 0.333385 0.207693
O O15 0.935054 0.536976 0.213611
O O16 0.769223 0.724189 0.312515
#
# Coordination Sequence:
#
# PCOD8054228 Si02
#       8
#     4   4   4   4   4   4   4   4
#     4   9  20  36  66  87 114 163 211 250 286 364
#     4  10  18  34  61  88 114 149 210 252 289 340
#     4  10  20  39  65  85 116 163 211 244 288 375
#     4  10  22  37  59  93 121 162 199 245 317 354
#     4  11  21  38  63  95 115 164 206 249 300 360
#     4  10  20  37  60  88 123 159 201 252 292 364
#     4  11  23  37  63  91 125 154 202 255 304 367
#     4  11  18  38  65  91 110 154 216 255 294 348
#
# _framework density 20.273721999999999
#
# number of rings (size 3 to 8) (size 9 to 14) (size 15 to 20)
#    0.750    1.000    3.750    1.500    0.000    2.000 
#    0.000    3.750    5.500    0.000    0.000    0.000 
#    0.000    0.000    0.000    0.000    0.000    0.000 
#
# Total GULP energy -198316.780403 kJ/mol
# GULP energy per Si atom -12394.798775 kJ/mol
# Density = 2.022758 g / cm^3
# Si number density = 20.273722 Si / 1000 Ang^3
#
#
#
# Elastic Constant Matrix: (Units=GPa)
#
#
# Indices 1 2 3 4 5 6 
#
# 1 82.8258 41.8266 30.6362 -0.0161 -3.2461 0.0000
# 2 41.8266 53.0819 28.7790 -0.0182 -0.9431 -0.0052
# 3 30.6362 28.7790 122.5380 -0.0961 21.5212 -0.0018
# 4 -0.0161 -0.0182 -0.0961 22.1241 0.0192 -6.6769
# 5 -3.2461 -0.9431 21.5212 0.0192 33.7055 -0.0033
# 6 0.0000 -0.0052 -0.0018 -6.6769 -0.0033 22.6095
#
#
#
# Elastic Compliance Matrix: (Units=1/GPa)
#
#
# Indices 1 2 3 4 5 6 
#
# 1 0.020539 -0.014978 -0.002130 -0.000011 0.002919 -0.000006
# 2 -0.014978 0.033084 -0.004432 -0.000003 0.002313 0.000007
# 3 -0.002130 -0.004432 0.011029 0.000054 -0.007371 0.000015
# 4 -0.000011 -0.000003 0.000054 0.049623 -0.000062 0.014654
# 5 0.002919 0.002313 -0.007371 -0.000062 0.034721 -0.000013
# 6 -0.000006 0.000007 0.000015 0.014654 -0.000013 0.048557
#
#
# Mechanical properties :
#
#
# Convention : Reuss Voigt Hill
#
# Bulk Modulus (GPa) = 46.35309 51.21434 48.78372
# Shear Modulus (GPa) = 20.17564 26.16807 23.17186
#
# Velocity S-wave (km/s) = 3.15804 3.59658 3.38442
# Velocity P-wave (km/s) = 6.01755 6.52407 6.27592
#
# Compressibility (1/GPa) = 0.02157353
#
# Stress axis : x y z
#
# Youngs Moduli (GPa) = 48.68671 30.22571 90.67184
#
# Poissons Ratio (x) = 0.45271 0.19316
# Poissons Ratio (y) = 0.72921 0.40184
# Poissons Ratio (z) = 0.10372 0.13395
#
# Static dielectric constant tensor:
#      x y z
#    x 3.549820 -0.000010 0.104130 
#    y -0.000010 3.328800 0.000010 
#    z 0.104130 0.000010 3.810290 
# 
# 
# High freq. dielectric constant tensor:
#      x y z
#    x 1.783660 0.000000 0.010220 
#    y 0.000000 1.759240 0.000000 
#    z 0.010220 0.000000 1.798530 
# 
# From -- ./inp_files/33391.got.cif
#   From: 2010.06.25/outbox.cif.g09.slc.cpg/sg9_17_cif.got.tgz:33391.got - 2010.06.27 21:40:51.
