data_PCOD8054431
_publ_section_title
;
Structure prediction by ZEFSAII (Michael W. Deem and Ramdas Pophale) SiO2 
 PCOD8054431
Probable space group: C C
;
_chemical_formula_sum "Si O2"
_cell_formula_units_Z 32
_cell_length_a 17.219573
_cell_length_b 19.925112
_cell_length_c 10.257931
_cell_angle_alpha 90.000000
_cell_angle_beta 24.739507
_cell_angle_gamma 90.000000
_cell_volume 1472.894200
_symmetry_space_group_name_H-M "C C"
_symmetry_group_IT_number 9
_symmetry_cell_setting 'monoclinic'
loop_
_space_group_symop_operation_xyz
x,y,z
x,-y,1/2+z
1/2+x,1/2+y,z
1/2+x,1/2-y,1/2+z
loop_
_atom_site_type_symbol
_atom_site_label
_atom_site_fract_x
_atom_site_fract_y
_atom_site_fract_z
Si Si1 0.000000 0.324997 0.728250
Si Si2 0.144318 0.466622 0.434811
Si Si3 0.675043 0.059194 0.610346
Si Si4 0.754819 0.538082 0.988873
Si Si5 0.729324 0.439881 0.809875
Si Si6 0.403053 0.312785 0.702199
Si Si7 0.748176 0.323974 0.357996
Si Si8 0.658117 0.310850 0.066965
O O1 0.119712 0.390023 0.515356
O O2 0.133438 0.260910 0.536091
O O3 0.897451 0.339118 0.019425
O O4 0.858338 0.311842 0.827590
O O5 0.249901 0.505816 0.389342
O O6 0.256284 0.464751 0.127220
O O7 0.956637 0.507436 0.699756
O O8 0.746951 0.131813 0.460803
O O9 0.452655 0.063039 0.962375
O O10 0.655163 0.493163 0.030499
O O11 0.758015 0.615060 0.942577
O O12 0.651605 0.536286 0.287061
O O13 0.646115 0.367722 0.974643
O O14 0.546871 0.314866 0.601640
O O15 0.300528 0.241547 0.860419
O O16 0.499128 0.324419 0.416046
#
# Coordination Sequence:
#
# PCOD8054431 Si02
#       8
#     4   4   4   4   4   4   4   4
#     4  10  19  40  64  93 123 169 211 256 313 384
#     4  10  20  39  66  90 124 166 211 253 321 379
#     4  10  21  41  62  93 123 168 207 265 309 378
#     4  10  20  37  65  93 120 167 214 251 310 384
#     4  10  21  39  68  92 122 169 215 255 314 377
#     4  10  24  41  63  93 134 162 213 261 317 376
#     4  10  22  40  63  93 126 173 207 256 320 380
#     4  10  21  41  63  91 126 166 208 261 314 380
#
# _framework density 21.725932
#
# number of rings (size 3 to 8) (size 9 to 14) (size 15 to 20)
#    0.000    2.000    2.500    2.250    5.250    1.000 
#    6.750    0.000    0.000    0.000    0.000    0.000 
#    0.000    0.000    0.000    0.000    0.000    0.000 
#
# Total GULP energy -198373.842652 kJ/mol
# GULP energy per Si atom -12398.365166 kJ/mol
# Density = 2.167648 g / cm^3
# Si number density = 21.725932 Si / 1000 Ang^3
#
#
#
# Elastic Constant Matrix: (Units=GPa)
#
#
# Indices 1 2 3 4 5 6 
#
# 1 185.9781 93.3173 68.1448 0.1113 10.4961 -0.1158
# 2 93.3173 186.6097 41.7069 0.0372 23.3787 -0.0009
# 3 68.1448 41.7069 47.7054 0.1989 -11.0981 -0.0811
# 4 0.1113 0.0372 0.1989 33.2481 -0.0626 6.4204
# 5 10.4961 23.3787 -11.0981 -0.0626 44.2227 0.0751
# 6 -0.1158 -0.0009 -0.0811 6.4204 0.0751 48.8218
#
#
#
# Elastic Compliance Matrix: (Units=1/GPa)
#
#
# Indices 1 2 3 4 5 6 
#
# 1 0.014157 -0.001464 -0.020756 0.000063 -0.007795 0.000003
# 2 -0.001464 0.008225 -0.006404 0.000025 -0.005608 -0.000009
# 3 -0.020756 -0.006404 0.061749 -0.000258 0.023808 0.000050
# 4 0.000063 0.000025 -0.000258 0.030862 -0.000042 -0.004059
# 5 -0.007795 -0.005608 0.023808 -0.000042 0.033402 -0.000025
# 6 0.000003 -0.000009 0.000050 -0.004059 -0.000025 0.021017
#
#
# Mechanical properties :
#
#
# Convention : Reuss Voigt Hill
#
# Bulk Modulus (GPa) = 37.19833 91.84792 64.52313
# Shear Modulus (GPa) = 21.22057 39.73345 30.47701
#
# Velocity S-wave (km/s) = 3.12867 4.28114 3.74945
# Velocity P-wave (km/s) = 5.49639 8.17344 6.96474
#
# Compressibility (1/GPa) = 0.02688292
#
# Stress axis : x y z
#
# Youngs Moduli (GPa) = 70.63859 121.58582 16.19446
#
# Poissons Ratio (x) = 0.17797 0.33613
# Poissons Ratio (y) = 0.10340 0.10371
# Poissons Ratio (z) = 1.46617 0.77866
#
# Static dielectric constant tensor:
#      x y z
#    x 4.126510 0.000330 0.200060 
#    y 0.000330 4.068510 0.000300 
#    z 0.200060 0.000300 3.539900 
# 
# 
# High freq. dielectric constant tensor:
#      x y z
#    x 1.862540 0.000000 0.018850 
#    y 0.000000 1.866430 0.000010 
#    z 0.018850 0.000010 1.828900 
# 
# From -- ./inp_files/20405.got.cif
#   From: 2010.06.25/outbox.cif.g09.slc.cpg/sg9_11_cif.got.tgz:20405.got - 2010.06.27 21:40:51.
