data_PCOD8054718
_publ_section_title
;
Structure prediction by ZEFSAII (Michael W. Deem and Ramdas Pophale) SiO2 
 PCOD8054718
Probable space group: C C
;
_chemical_formula_sum "Si O2"
_cell_formula_units_Z 32
_cell_length_a 8.051540
_cell_length_b 17.993944
_cell_length_c 14.793339
_cell_angle_alpha 90.000000
_cell_angle_beta 142.245410
_cell_angle_gamma 90.000000
_cell_volume 1312.266502
_symmetry_space_group_name_H-M "C C"
_symmetry_group_IT_number 9
_symmetry_cell_setting 'monoclinic'
loop_
_space_group_symop_operation_xyz
x,y,z
x,-y,1/2+z
1/2+x,1/2+y,z
1/2+x,1/2-y,1/2+z
loop_
_atom_site_type_symbol
_atom_site_label
_atom_site_fract_x
_atom_site_fract_y
_atom_site_fract_z
Si Si1 0.088110 0.954861 0.482020
Si Si2 0.343612 0.410326 0.641932
Si Si3 0.346816 0.735893 0.033086
Si Si4 0.112195 0.904136 0.123080
Si Si5 0.835912 0.774423 0.926662
Si Si6 0.990578 0.337546 0.636411
Si Si7 0.788495 0.481647 0.369994
Si Si8 0.652040 0.163667 0.781993
O O1 0.302006 0.894268 0.610622
O O2 0.203030 0.979411 0.436250
O O3 0.802043 0.915251 0.337315
O O4 0.067663 0.021051 0.544994
O O5 0.382320 0.346934 0.585649
O O6 0.651056 0.441367 0.779278
O O7 0.244212 0.378979 0.696702
O O8 0.117904 0.471371 0.507887
O O9 0.595350 0.792505 0.163203
O O10 0.314581 0.725141 0.911797
O O11 0.084566 0.771508 0.965068
O O12 0.146963 0.920254 0.244557
O O13 0.371890 0.855755 0.209142
O O14 0.856569 0.850106 0.995112
O O15 0.578259 0.778181 0.749526
O O16 0.814546 0.702411 0.981749
#
# Coordination Sequence:
#
# PCOD8054718 Si02
#       8
#     4   4   4   4   4   4   4   4
#     4  11  27  42  65 103 145 173 232 301 358 415
#     4  10  21  40  67  97 138 176 240 279 362 420
#     4  10  20  42  67  95 132 180 234 281 342 433
#     4  11  24  42  73  95 136 187 234 282 354 433
#     4  10  21  39  71  95 125 187 236 278 346 432
#     4  10  23  40  66  97 139 176 235 289 350 423
#     4  11  24  42  69  99 140 187 228 297 349 441
#     4  11  24  43  68  99 135 182 237 283 355 419
#
# _framework density 24.385290999999999
#
# number of rings (size 3 to 8) (size 9 to 14) (size 15 to 20)
#    0.000    1.500    1.250    3.750    8.750    2.000 
#    0.000    0.000    0.000    0.000    0.000    0.000 
#    0.000    0.000    0.000    0.000    0.000    0.000 
#
# Total GULP energy -198232.750311 kJ/mol
# GULP energy per Si atom -12389.546894 kJ/mol
# Density = 2.432979 g / cm^3
# Si number density = 24.385291 Si / 1000 Ang^3
#
#
#
# Elastic Constant Matrix: (Units=GPa)
#
#
# Indices 1 2 3 4 5 6 
#
# 1 15.0527 -2.6359 0.5421 -0.0006 -3.4830 0.0004
# 2 -2.6359 88.8325 34.8847 -0.0009 5.8306 0.0002
# 3 0.5421 34.8847 114.5154 -0.0043 -6.0903 -0.0015
# 4 -0.0006 -0.0009 -0.0043 43.8495 -0.0005 7.1996
# 5 -3.4830 5.8306 -6.0903 -0.0005 18.3305 0.0009
# 6 0.0004 0.0002 -0.0015 7.1996 0.0009 22.2604
#
#
#
# Elastic Compliance Matrix: (Units=1/GPa)
#
#
# Indices 1 2 3 4 5 6 
#
# 1 0.069618 0.001233 -0.000023 0.000002 0.012829 -0.000002
# 2 0.001233 0.013368 -0.004369 0.000000 -0.005470 0.000000
# 3 -0.000023 -0.004369 0.010320 0.000001 0.004814 0.000000
# 4 0.000002 0.000000 0.000001 0.024084 0.000002 -0.007790
# 5 0.012829 -0.005470 0.004814 0.000002 0.060331 -0.000003
# 6 -0.000002 0.000000 0.000000 -0.007790 -0.000003 0.047442
#
#
# Mechanical properties :
#
#
# Convention : Reuss Voigt Hill
#
# Bulk Modulus (GPa) = 11.49585 31.55360 21.52473
# Shear Modulus (GPa) = 19.19545 29.26204 24.22875
#
# Velocity S-wave (km/s) = 2.80870 3.46784 3.15553
# Velocity P-wave (km/s) = 3.90422 5.38537 4.70347
#
# Compressibility (1/GPa) = 0.08698789
#
# Stress axis : x y z
#
# Youngs Moduli (GPa) = 14.36402 74.80273 96.90330
#
# Poissons Ratio (x) = -0.09221 0.00221
# Poissons Ratio (y) = -0.01771 0.42339
# Poissons Ratio (z) = 0.00033 0.32683
#
# Static dielectric constant tensor:
#      x y z
#    x 4.217770 0.000000 0.081580 
#    y 0.000000 4.751640 -0.000010 
#    z 0.081580 -0.000010 4.954240 
# 
# 
# High freq. dielectric constant tensor:
#      x y z
#    x 1.940880 0.000000 -0.009800 
#    y 0.000000 1.970240 0.000000 
#    z -0.009800 0.000000 1.979420 
# 
# From -- ./inp_files/23690.got.cif
#   From: 2010.06.25/outbox.cif.g09.slc.cpg/sg9_12_cif.got.tgz:23690.got - 2010.06.27 21:40:51.
