data_PCOD8054863
_publ_section_title
;
Structure prediction by ZEFSAII (Michael W. Deem and Ramdas Pophale) SiO2 
 PCOD8054863
Probable space group: C C
;
_chemical_formula_sum "Si O2"
_cell_formula_units_Z 32
_cell_length_a 13.244758
_cell_length_b 17.849828
_cell_length_c 13.113680
_cell_angle_alpha 90.000000
_cell_angle_beta 157.860259
_cell_angle_gamma 90.000000
_cell_volume 1168.397319
_symmetry_space_group_name_H-M "C C"
_symmetry_group_IT_number 9
_symmetry_cell_setting 'monoclinic'
loop_
_space_group_symop_operation_xyz
x,y,z
x,-y,1/2+z
1/2+x,1/2+y,z
1/2+x,1/2-y,1/2+z
loop_
_atom_site_type_symbol
_atom_site_label
_atom_site_fract_x
_atom_site_fract_y
_atom_site_fract_z
Si Si1 0.501110 0.795993 0.399720
Si Si2 0.241044 0.958947 0.398776
Si Si3 0.974627 0.787334 0.356295
Si Si4 0.457538 0.117247 0.663674
Si Si5 0.033323 0.158760 0.118223
Si Si6 0.299429 0.549446 0.630858
Si Si7 0.890215 0.298482 0.531089
Si Si8 0.731665 0.517225 0.181051
O O1 0.454870 0.868058 0.283274
O O2 0.432106 0.814734 0.451185
O O3 0.808254 0.770191 0.678644
O O4 0.368269 0.881364 0.562311
O O5 0.924320 0.962153 0.134540
O O6 0.395778 0.030155 0.588124
O O7 0.258655 0.953705 0.292557
O O8 0.847131 0.866048 0.210984
O O9 0.290307 0.775238 0.625082
O O10 0.975606 0.774964 0.481896
O O11 0.242400 0.173934 0.407214
O O12 0.753110 0.131715 0.899953
O O13 0.183978 0.094449 0.195318
O O14 0.993370 0.525040 0.353930
O O15 0.481527 0.496859 0.875007
O O16 0.616794 0.252638 0.293672
#
# Coordination Sequence:
#
# PCOD8054863 Si02
#       8
#     4   4   4   4   4   4   4   4
#     4  10  22  43  66 100 145 187 234 294 359 429
#     4  11  26  46  75 105 138 188 241 301 359 422
#     4  11  21  36  59  88 129 178 219 266 331 416
#     4  11  23  39  68 106 135 177 240 295 353 419
#     4  10  21  39  60  93 139 171 219 281 352 417
#     4  11  25  43  66  99 136 176 229 287 359 406
#     4  10  25  47  70  99 142 193 237 291 360 426
#     4  10  23  45  64  96 140 170 219 299 347 417
#
# _framework density 27.387943
#
# number of rings (size 3 to 8) (size 9 to 14) (size 15 to 20)
#    0.000    1.500    0.000    6.000    1.750   11.000 
#    4.500    0.000    0.000    0.000    0.000    0.000 
#    0.000    0.000    0.000    0.000    0.000    0.000 
#
# Total GULP energy -198324.989495 kJ/mol
# GULP energy per Si atom -12395.311843 kJ/mol
# Density = 2.732561 g / cm^3
# Si number density = 27.387943 Si / 1000 Ang^3
#
#
#
# Elastic Constant Matrix: (Units=GPa)
#
#
# Indices 1 2 3 4 5 6 
#
# 1 101.8641 6.4467 36.4621 0.0028 24.0621 0.0013
# 2 6.4467 67.0281 17.2071 0.0013 -12.3008 0.0008
# 3 36.4621 17.2071 146.1996 0.0008 15.0397 -0.0003
# 4 0.0028 0.0013 0.0008 28.8986 0.0010 -10.2456
# 5 24.0621 -12.3008 15.0397 0.0010 53.1082 0.0003
# 6 0.0013 0.0008 -0.0003 -10.2456 0.0003 26.7893
#
#
#
# Elastic Compliance Matrix: (Units=1/GPa)
#
#
# Indices 1 2 3 4 5 6 
#
# 1 0.011933 -0.001502 -0.002274 -0.000001 -0.005111 -0.000001
# 2 -0.001502 0.016539 -0.002097 -0.000001 0.005105 -0.000001
# 3 -0.002274 -0.002097 0.007826 0.000000 -0.001672 0.000000
# 4 -0.000001 -0.000001 0.000000 0.040032 -0.000001 0.015310
# 5 -0.005111 0.005105 -0.001672 -0.000001 0.022801 0.000000
# 6 -0.000001 -0.000001 0.000000 0.015310 0.000000 0.043184
#
#
# Mechanical properties :
#
#
# Convention : Reuss Voigt Hill
#
# Bulk Modulus (GPa) = 40.72925 48.36930 44.54928
# Shear Modulus (GPa) = 30.81788 38.75762 34.78775
#
# Velocity S-wave (km/s) = 3.35809 3.76591 3.56783
# Velocity P-wave (km/s) = 5.47168 6.05050 5.76835
#
# Compressibility (1/GPa) = 0.02455238
#
# Stress axis : x y z
#
# Youngs Moduli (GPa) = 83.80052 60.46388 127.78238
#
# Poissons Ratio (x) = 0.09081 0.29053
# Poissons Ratio (y) = 0.12586 0.26798
# Poissons Ratio (z) = 0.19053 0.12680
#
# Static dielectric constant tensor:
#      x y z
#    x 5.745230 0.000000 -0.449900 
#    y 0.000000 4.788470 0.000000 
#    z -0.449900 0.000000 5.396220 
# 
# 
# High freq. dielectric constant tensor:
#      x y z
#    x 2.136500 0.000000 -0.006450 
#    y 0.000000 2.085940 0.000000 
#    z -0.006450 0.000000 2.112810 
# 
# From -- ./inp_files/26144.got.cif
#   From: 2010.06.25/outbox.cif.g09.slc.cpg/sg9_14_cif.got.tgz:26144.got - 2010.06.27 21:40:51.
