data_PCOD8054627
_publ_section_title
;
Structure prediction by ZEFSAII (Michael W. Deem and Ramdas Pophale) SiO2 
 PCOD8054627
Probable space group: C C
;
_chemical_formula_sum "Si O2"
_cell_formula_units_Z 28
_cell_length_a 8.631234
_cell_length_b 21.404975
_cell_length_c 9.502812
_cell_angle_alpha 90.000000
_cell_angle_beta 130.618570
_cell_angle_gamma 90.000000
_cell_volume 1332.649859
_symmetry_space_group_name_H-M "C C"
_symmetry_group_IT_number 9
_symmetry_cell_setting 'monoclinic'
loop_
_space_group_symop_operation_xyz
x,y,z
x,-y,1/2+z
1/2+x,1/2+y,z
1/2+x,1/2-y,1/2+z
loop_
_atom_site_type_symbol
_atom_site_label
_atom_site_fract_x
_atom_site_fract_y
_atom_site_fract_z
Si Si1 0.009160 0.557531 0.989700
Si Si2 0.940204 0.105140 0.342961
Si Si3 0.229509 0.687229 0.432331
Si Si4 0.873386 0.550812 0.605136
Si Si5 0.603537 0.173603 0.671182
Si Si6 0.342400 0.295722 0.577101
Si Si7 0.453537 0.809224 0.529376
O O1 0.989300 0.534375 0.818089
O O2 0.244789 0.564835 0.175699
O O3 0.895586 0.508600 0.019728
O O4 0.890627 0.624480 0.924191
O O5 0.895224 0.139792 0.464688
O O6 0.987766 0.156556 0.249277
O O7 0.131360 0.060487 0.481970
O O8 0.273871 0.759660 0.420130
O O9 0.218797 0.677834 0.591533
O O10 0.013876 0.675967 0.227467
O O11 0.970261 0.611397 0.590223
O O12 0.459455 0.232461 0.613704
O O13 0.776011 0.170893 0.893035
O O14 0.146407 0.280832 0.558174
#
# Coordination Sequence:
#
# PCOD8054627 Si02
#       7
#     4   4   4   4   4   4   4
#     4  10  26  45  67  96 129 176 229 276 315 406
#     4  10  24  46  69  96 130 177 217 277 341 401
#     4  10  22  35  65  96 135 163 209 278 331 390
#     4  12  25  46  71  90 135 182 224 271 337 385
#     4  12  21  38  65 102 133 172 216 280 327 394
#     4  10  20  39  65  98 131 169 220 270 337 396
#     4  10  20  41  60  92 131 169 211 268 336 392
#
# _framework density 21.010770000000001
#
# number of rings (size 3 to 8) (size 9 to 14) (size 15 to 20)
#    0.000    1.714    2.857    4.286    6.000    1.143 
#    0.000    0.000    0.000    0.000    0.000    0.000 
#    0.000    0.000    0.000    0.000    0.000    0.000 
#
# Total GULP energy -173587.474794 kJ/mol
# GULP energy per Si atom -12399.105342 kJ/mol
# Density = 2.096295 g / cm^3
# Si number density = 21.010770 Si / 1000 Ang^3
#
#
#
# Elastic Constant Matrix: (Units=GPa)
#
#
# Indices 1 2 3 4 5 6 
#
# 1 94.1280 69.9246 49.5792 0.0000 -22.2727 0.0000
# 2 69.9246 101.1859 27.5893 0.0000 5.6139 0.0000
# 3 49.5792 27.5893 87.5566 0.0000 -23.9369 0.0000
# 4 0.0000 0.0000 0.0000 26.5065 0.0000 -1.5200
# 5 -22.2727 5.6139 -23.9369 0.0000 36.8871 0.0000
# 6 0.0000 0.0000 0.0000 -1.5200 0.0000 34.0129
#
#
#
# Elastic Compliance Matrix: (Units=1/GPa)
#
#
# Indices 1 2 3 4 5 6 
#
# 1 0.040523 -0.027120 -0.008003 0.000000 0.023402 0.000000
# 2 -0.027120 0.029672 0.000359 0.000000 -0.020658 0.000000
# 3 -0.008003 0.000359 0.017632 0.000000 0.006555 0.000000
# 4 0.000000 0.000000 0.000000 0.037824 0.000000 0.001690
# 5 0.023402 -0.020658 0.006555 0.000000 0.048637 0.000000
# 6 0.000000 0.000000 0.000000 0.001690 0.000000 0.029476
#
#
# Mechanical properties :
#
#
# Convention : Reuss Voigt Hill
#
# Bulk Modulus (GPa) = 54.64484 64.11742 59.38113
# Shear Modulus (GPa) = 17.89616 28.53312 23.21464
#
# Velocity S-wave (km/s) = 2.92166 3.68913 3.32760
# Velocity P-wave (km/s) = 6.11931 6.98062 6.56410
#
# Compressibility (1/GPa) = 0.01829999
#
# Stress axis : x y z
#
# Youngs Moduli (GPa) = 24.67750 33.70190 56.71641
#
# Poissons Ratio (x) = 0.91398 0.45390
# Poissons Ratio (y) = 0.66924 -0.02038
# Poissons Ratio (z) = 0.19749 -0.01211
#
# Static dielectric constant tensor:
#      x y z
#    x 3.568080 0.000000 -0.189540 
#    y 0.000000 3.776560 0.000000 
#    z -0.189540 0.000000 3.977610 
# 
# 
# High freq. dielectric constant tensor:
#      x y z
#    x 1.801670 0.000000 -0.015130 
#    y 0.000000 1.819030 0.000000 
#    z -0.015130 0.000000 1.836650 
# 
# From -- ./inp_files/5555.got.cif
#   From: 2010.06.25/outbox.cif.g09.slc.cpg/sg9_3_cif.got.tgz:5555.got - 2010.06.27 21:40:51.
