data_PCOD8054425
_publ_section_title
;
Structure prediction by ZEFSAII (Michael W. Deem and Ramdas Pophale) SiO2 
 PCOD8054425
Probable space group: C C
;
_chemical_formula_sum "Si O2"
_cell_formula_units_Z 32
_cell_length_a 23.836750
_cell_length_b 14.052677
_cell_length_c 9.102607
_cell_angle_alpha 90.000000
_cell_angle_beta 150.815330
_cell_angle_gamma 90.000000
_cell_volume 1486.821480
_symmetry_space_group_name_H-M "C C"
_symmetry_group_IT_number 9
_symmetry_cell_setting 'monoclinic'
loop_
_space_group_symop_operation_xyz
x,y,z
x,-y,1/2+z
1/2+x,1/2+y,z
1/2+x,1/2-y,1/2+z
loop_
_atom_site_type_symbol
_atom_site_label
_atom_site_fract_x
_atom_site_fract_y
_atom_site_fract_z
Si Si1 0.072490 0.112099 0.342030
Si Si2 0.375976 0.215374 0.092900
Si Si3 0.250160 0.408964 0.803643
Si Si4 0.222831 0.914315 0.431337
Si Si5 0.295446 0.198452 0.338912
Si Si6 0.285533 0.889511 0.123927
Si Si7 0.025357 0.317819 0.200714
Si Si8 0.812487 0.090035 0.765659
O O1 0.108515 0.058483 0.576833
O O2 0.159622 0.090076 0.407738
O O3 0.081116 0.223743 0.396046
O O4 0.943097 0.084973 0.003486
O O5 0.493711 0.203881 0.455865
O O6 0.341624 0.324406 0.977817
O O7 0.275880 0.173820 0.964160
O O8 0.379763 0.153437 0.951428
O O9 0.125210 0.395951 0.442297
O O10 0.296916 0.507006 0.846274
O O11 0.233133 0.420556 0.940261
O O12 0.198374 0.868420 0.536845
O O13 0.314749 0.002610 0.640804
O O14 0.281885 0.183711 0.480948
O O15 0.414663 0.155167 0.546275
O O16 0.284441 0.310184 0.281261
#
# Coordination Sequence:
#
# PCOD8054425 Si02
#       8
#     4   4   4   4   4   4   4   4
#     4  10  20  40  65  99 131 173 220 276 357 386
#     4  10  21  42  68  89 137 177 220 286 343 403
#     4  12  23  47  69  94 140 183 232 280 351 418
#     4  10  19  39  67  92 129 169 222 292 339 395
#     4  10  21  43  65 101 138 174 234 283 342 409
#     4  11  22  37  70 103 125 168 234 290 335 409
#     4  10  20  44  70  85 138 191 209 274 363 399
#     4  11  26  42  68  99 140 187 225 289 340 419
#
# _framework density 21.522421000000001
#
# number of rings (size 3 to 8) (size 9 to 14) (size 15 to 20)
#    0.000    1.500    6.250    1.500    3.500    0.000 
#    9.000    3.750    0.000    0.000    0.000    0.000 
#    0.000    0.000    0.000    0.000    0.000    0.000 
#
# Total GULP energy -198254.145397 kJ/mol
# GULP energy per Si atom -12390.884087 kJ/mol
# Density = 2.147344 g / cm^3
# Si number density = 21.522421 Si / 1000 Ang^3
#
#
#
# Elastic Constant Matrix: (Units=GPa)
#
#
# Indices 1 2 3 4 5 6 
#
# 1 83.1641 39.3406 50.9292 0.0000 -28.0163 0.0000
# 2 39.3406 133.4216 45.4266 0.0000 -18.9126 0.0000
# 3 50.9292 45.4266 127.4820 0.0000 -32.1743 0.0000
# 4 0.0000 0.0000 0.0000 28.8461 0.0000 -9.4625
# 5 -28.0163 -18.9126 -32.1743 0.0000 40.9071 0.0000
# 6 0.0000 0.0000 0.0000 -9.4625 0.0000 34.9273
#
#
#
# Elastic Compliance Matrix: (Units=1/GPa)
#
#
# Indices 1 2 3 4 5 6 
#
# 1 0.018840 -0.002894 -0.004462 0.000000 0.008055 0.000000
# 2 -0.002894 0.009099 -0.001902 0.000000 0.000729 0.000000
# 3 -0.004462 -0.001902 0.011618 0.000000 0.005202 0.000000
# 4 0.000000 0.000000 0.000000 0.038048 0.000000 0.010308
# 5 0.008055 0.000729 0.005202 0.000000 0.034391 0.000000
# 6 0.000000 0.000000 0.000000 0.010308 0.000000 0.031423
#
#
# Mechanical properties :
#
#
# Convention : Reuss Voigt Hill
#
# Bulk Modulus (GPa) = 47.52954 68.38450 57.95702
# Shear Modulus (GPa) = 29.59463 34.82751 32.21107
#
# Velocity S-wave (km/s) = 3.71220 4.02705 3.87283
# Velocity P-wave (km/s) = 6.36440 7.31200 6.85460
#
# Compressibility (1/GPa) = 0.02103955
#
# Stress axis : x y z
#
# Youngs Moduli (GPa) = 53.07940 109.89798 86.07553
#
# Poissons Ratio (x) = 0.31804 0.38409
# Poissons Ratio (y) = 0.15361 0.16375
# Poissons Ratio (z) = 0.23685 0.20907
#
# Static dielectric constant tensor:
#      x y z
#    x 3.609790 0.000000 -0.386840 
#    y 0.000000 3.995560 0.000000 
#    z -0.386840 0.000000 4.497410 
# 
# 
# High freq. dielectric constant tensor:
#      x y z
#    x 1.810520 0.000000 -0.031960 
#    y 0.000000 1.854320 0.000000 
#    z -0.031960 0.000000 1.849210 
# 
# From -- ./inp_files/11709.got.cif
#   From: 2010.06.25/outbox.cif.g09.slc.cpg/sg9_6_cif.got.tgz:11709.got - 2010.06.27 21:40:51.
