data_PCOD8054528
_publ_section_title
;
Structure prediction by ZEFSAII (Michael W. Deem and Ramdas Pophale) SiO2 
 PCOD8054528
Probable space group: C C
;
_chemical_formula_sum "Si O2"
_cell_formula_units_Z 32
_cell_length_a 11.228388
_cell_length_b 16.291609
_cell_length_c 10.952840
_cell_angle_alpha 90.000000
_cell_angle_beta 50.364047
_cell_angle_gamma 90.000000
_cell_volume 1542.988358
_symmetry_space_group_name_H-M "C C"
_symmetry_group_IT_number 9
_symmetry_cell_setting 'monoclinic'
loop_
_space_group_symop_operation_xyz
x,y,z
x,-y,1/2+z
1/2+x,1/2+y,z
1/2+x,1/2-y,1/2+z
loop_
_atom_site_type_symbol
_atom_site_label
_atom_site_fract_x
_atom_site_fract_y
_atom_site_fract_z
Si Si1 0.833330 0.367824 0.744750
Si Si2 0.467663 0.607021 0.906491
Si Si3 0.018381 0.921902 0.888289
Si Si4 0.469680 0.238137 0.571533
Si Si5 0.160612 0.354064 0.489182
Si Si6 0.824988 0.193666 0.655930
Si Si7 0.302725 0.691641 0.401395
Si Si8 0.209376 0.177347 0.568408
O O1 0.698154 0.399444 0.742023
O O2 0.875293 0.272115 0.699604
O O3 0.002295 0.407224 0.609997
O O4 0.779243 0.382442 0.918885
O O5 0.514571 0.517384 0.922244
O O6 0.291409 0.598446 0.978551
O O7 0.564317 0.633858 0.725603
O O8 0.492016 0.670873 0.000665
O O9 0.899785 0.894487 0.856014
O O10 0.969630 0.868983 0.041213
O O11 0.408300 0.248202 0.750483
O O12 0.630098 0.186002 0.457279
O O13 0.344611 0.187488 0.578701
O O14 0.192139 0.351376 0.322214
O O15 0.151918 0.262781 0.550614
O O16 0.770185 0.226879 0.558898
#
# Coordination Sequence:
#
# PCOD8054528 Si02
#       8
#     4   4   4   4   4   4   4   4
#     4  11  20  38  67  94 118 160 219 266 314 381
#     4  11  23  42  61  95 131 168 210 272 331 371
#     4  10  24  41  61  97 130 170 202 274 332 372
#     4  11  21  40  65  92 124 173 219 253 318 398
#     4  10  20  36  67  93 119 160 218 269 311 379
#     4   9  20  38  61  90 123 161 209 260 315 381
#     4  10  23  39  58  93 127 169 213 255 317 393
#     4  10  21  38  66  92 122 163 216 265 312 381
#
# _framework density 20.738976999999998
#
# number of rings (size 3 to 8) (size 9 to 14) (size 15 to 20)
#    0.750    1.000    1.250    5.250    3.500    2.000 
#    2.250    1.250    0.000    0.000    0.000    0.000 
#    0.000    0.000    0.000    0.000    0.000    0.000 
#
# Total GULP energy -198211.919502 kJ/mol
# GULP energy per Si atom -12388.244969 kJ/mol
# Density = 2.069177 g / cm^3
# Si number density = 20.738977 Si / 1000 Ang^3
#
#
#
# Elastic Constant Matrix: (Units=GPa)
#
#
# Indices 1 2 3 4 5 6 
#
# 1 122.1252 27.2725 60.1353 -0.0002 -32.6171 0.0001
# 2 27.2725 68.6495 15.4540 -0.0001 -13.1418 0.0001
# 3 60.1353 15.4540 117.6845 -0.0004 -16.2101 0.0002
# 4 -0.0002 -0.0001 -0.0004 15.5320 0.0002 -1.7747
# 5 -32.6171 -13.1418 -16.2101 0.0002 48.8495 -0.0001
# 6 0.0001 0.0001 0.0002 -1.7747 -0.0001 13.4529
#
#
#
# Elastic Compliance Matrix: (Units=1/GPa)
#
#
# Indices 1 2 3 4 5 6 
#
# 1 0.013194 -0.002808 -0.005516 0.000000 0.006224 0.000000
# 2 -0.002808 0.016218 -0.000369 0.000000 0.002366 0.000000
# 3 -0.005516 -0.000369 0.011363 0.000000 -0.000012 0.000000
# 4 0.000000 0.000000 0.000000 0.065368 0.000000 0.008623
# 5 0.006224 0.002366 -0.000012 0.000000 0.025259 0.000000
# 6 0.000000 0.000000 0.000000 0.008623 0.000000 0.075471
#
#
# Mechanical properties :
#
#
# Convention : Reuss Voigt Hill
#
# Bulk Modulus (GPa) = 42.75580 57.13141 49.94360
# Shear Modulus (GPa) = 21.54659 29.27339 25.40999
#
# Velocity S-wave (km/s) = 3.22676 3.76109 3.50412
# Velocity P-wave (km/s) = 5.87738 6.81680 6.36444
#
# Compressibility (1/GPa) = 0.02338864
#
# Stress axis : x y z
#
# Youngs Moduli (GPa) = 75.79403 61.65862 88.00789
#
# Poissons Ratio (x) = 0.17316 0.48543
# Poissons Ratio (y) = 0.21286 0.03246
# Poissons Ratio (z) = 0.41806 0.02274
#
# Static dielectric constant tensor:
#      x y z
#    x 3.767440 0.000000 -0.162550 
#    y 0.000000 3.208610 0.000000 
#    z -0.162550 0.000000 4.057930 
# 
# 
# High freq. dielectric constant tensor:
#      x y z
#    x 1.820310 0.000000 -0.012500 
#    y 0.000000 1.752510 0.000000 
#    z -0.012500 0.000000 1.826810 
# 
# From -- ./inp_files/10954.got.cif
#   From: 2010.06.25/outbox.cif.g09.slc.cpg/sg9_6_cif.got.tgz:10954.got - 2010.06.27 21:40:51.
