data_PCOD8054490
_publ_section_title
;
Structure prediction by ZEFSAII (Michael W. Deem and Ramdas Pophale) SiO2 
 PCOD8054490
Probable space group: C C
;
_chemical_formula_sum "Si O2"
_cell_formula_units_Z 32
_cell_length_a 14.459714
_cell_length_b 14.768366
_cell_length_c 8.706901
_cell_angle_alpha 90.000000
_cell_angle_beta 116.073634
_cell_angle_gamma 90.000000
_cell_volume 1670.103084
_symmetry_space_group_name_H-M "C C"
_symmetry_group_IT_number 9
_symmetry_cell_setting 'monoclinic'
loop_
_space_group_symop_operation_xyz
x,y,z
x,-y,1/2+z
1/2+x,1/2+y,z
1/2+x,1/2-y,1/2+z
loop_
_atom_site_type_symbol
_atom_site_label
_atom_site_fract_x
_atom_site_fract_y
_atom_site_fract_z
Si Si1 0.458440 0.226037 0.265020
Si Si2 0.804435 0.882617 0.228885
Si Si3 0.547644 0.099624 0.911089
Si Si4 0.393567 0.477603 0.562234
Si Si5 0.476408 0.618389 0.398844
Si Si6 0.130764 0.236150 0.650232
Si Si7 0.576025 0.099073 0.569398
Si Si8 0.861890 0.296801 0.392823
O O1 0.389354 0.304860 0.285468
O O2 0.560538 0.263279 0.252771
O O3 0.488557 0.159702 0.425467
O O4 0.386471 0.175512 0.087238
O O5 0.828042 0.958830 0.122698
O O6 0.686478 0.854783 0.109746
O O7 0.809162 0.922606 0.403771
O O8 0.566386 0.097737 0.744500
O O9 0.429498 0.134636 0.839931
O O10 0.625858 0.166616 0.060560
O O11 0.565298 0.001853 0.997003
O O12 0.468620 0.531225 0.502729
O O13 0.463213 0.409074 0.712177
O O14 0.588632 0.661932 0.499146
O O15 0.391625 0.692030 0.387972
O O16 0.242048 0.198453 0.772268
#
# Coordination Sequence:
#
# PCOD8054490 Si02
#       8
#     4   4   4   4   4   4   4   4
#     4  10  22  38  58  90 122 152 196 248 295 354
#     4  11  22  36  62  91 117 155 188 254 292 352
#     4  10  24  40  61  91 117 157 203 254 280 367
#     4  10  20  35  58  85 123 143 198 242 293 340
#     4   9  20  36  56  87 115 153 191 249 287 348
#     4  10  21  40  62  84 121 160 196 237 310 344
#     4  12  24  39  63  89 119 157 204 242 305 347
#     4  10  21  40  62  81 124 159 194 242 306 342
#
# _framework density 19.160492999999999
#
# number of rings (size 3 to 8) (size 9 to 14) (size 15 to 20)
#    0.000    2.000    2.500    3.000    8.750    0.000 
#    0.000    2.500    2.750    0.000    0.000    0.000 
#    0.000    0.000    0.000    0.000    0.000    0.000 
#
# Total GULP energy -198318.273270 kJ/mol
# GULP energy per Si atom -12394.892079 kJ/mol
# Density = 1.911688 g / cm^3
# Si number density = 19.160493 Si / 1000 Ang^3
#
#
#
# Elastic Constant Matrix: (Units=GPa)
#
#
# Indices 1 2 3 4 5 6 
#
# 1 96.2348 40.4282 64.2738 0.0000 17.4881 0.0000
# 2 40.4282 86.8827 55.4833 0.0000 1.5738 0.0000
# 3 64.2738 55.4833 128.9823 0.0000 5.9097 0.0000
# 4 0.0000 0.0000 0.0000 32.7187 0.0000 -1.2904
# 5 17.4881 1.5738 5.9097 0.0000 40.6550 0.0000
# 6 0.0000 0.0000 0.0000 -1.2904 0.0000 15.6627
#
#
#
# Elastic Compliance Matrix: (Units=1/GPa)
#
#
# Indices 1 2 3 4 5 6 
#
# 1 0.017783 -0.003706 -0.006970 0.000000 -0.006493 0.000000
# 2 -0.003706 0.016647 -0.005394 0.000000 0.001734 0.000000
# 3 -0.006970 -0.005394 0.013489 0.000000 0.001246 0.000000
# 4 0.000000 0.000000 0.000000 0.030663 0.000000 0.002526
# 5 -0.006493 0.001734 0.001246 0.000000 0.027142 0.000000
# 6 0.000000 0.000000 0.000000 0.002526 0.000000 0.064054
#
#
# Mechanical properties :
#
#
# Convention : Reuss Voigt Hill
#
# Bulk Modulus (GPa) = 63.37024 70.27449 66.82236
# Shear Modulus (GPa) = 24.13375 27.93492 26.03433
#
# Velocity S-wave (km/s) = 3.55288 3.82244 3.69012
# Velocity P-wave (km/s) = 7.06935 7.49919 7.28744
#
# Compressibility (1/GPa) = 0.01578028
#
# Stress axis : x y z
#
# Youngs Moduli (GPa) = 56.23265 60.06974 74.13338
#
# Poissons Ratio (x) = 0.22264 0.51670
# Poissons Ratio (y) = 0.20842 0.39984
# Poissons Ratio (z) = 0.39193 0.32399
#
# Static dielectric constant tensor:
#      x y z
#    x 3.364730 0.000000 0.015410 
#    y 0.000000 3.527200 0.000000 
#    z 0.015410 0.000000 3.828590 
# 
# 
# High freq. dielectric constant tensor:
#      x y z
#    x 1.728130 0.000000 -0.003870 
#    y 0.000000 1.736890 0.000000 
#    z -0.003870 0.000000 1.764760 
# 
# From -- ./inp_files/9698.got.cif
#   From: 2010.06.25/outbox.cif.g09.slc.cpg/sg9_5_cif.got.tgz:9698.got - 2010.06.27 21:40:51.
