data_PCOD8054349
_publ_section_title
;
Structure prediction by ZEFSAII (Michael W. Deem and Ramdas Pophale) SiO2 
 PCOD8054349
Probable space group: C C
;
_chemical_formula_sum "Si O2"
_cell_formula_units_Z 32
_cell_length_a 14.080714
_cell_length_b 20.498775
_cell_length_c 8.871935
_cell_angle_alpha 90.000000
_cell_angle_beta 144.260186
_cell_angle_gamma 90.000000
_cell_volume 1495.760776
_symmetry_space_group_name_H-M "C C"
_symmetry_group_IT_number 9
_symmetry_cell_setting 'monoclinic'
loop_
_space_group_symop_operation_xyz
x,y,z
x,-y,1/2+z
1/2+x,1/2+y,z
1/2+x,1/2-y,1/2+z
loop_
_atom_site_type_symbol
_atom_site_label
_atom_site_fract_x
_atom_site_fract_y
_atom_site_fract_z
Si Si1 0.981680 0.075515 0.681630
Si Si2 0.597646 0.058037 0.217524
Si Si3 0.156859 0.700037 0.812481
Si Si4 0.607194 0.069322 0.893969
Si Si5 0.146712 0.799205 0.317200
Si Si6 0.530642 0.683706 0.332757
Si Si7 0.990455 0.047824 0.364819
Si Si8 0.017717 0.321225 0.809672
O O1 0.789327 0.070594 0.450176
O O2 0.059805 0.057013 0.621049
O O3 0.041368 0.149650 0.783107
O O4 0.053701 0.022280 0.889925
O O5 0.526893 0.107199 0.250100
O O6 0.537436 0.986873 0.194869
O O7 0.528059 0.066146 0.958842
O O8 0.062961 0.641278 0.776163
O O9 0.094874 0.771781 0.779616
O O10 0.131129 0.687696 0.602544
O O11 0.341222 0.698753 0.104275
O O12 0.797741 0.053636 0.137255
O O13 0.084480 0.727455 0.271052
O O14 0.331520 0.806645 0.608510
O O15 0.124814 0.803539 0.109673
O O16 0.550456 0.605618 0.328083
#
# Coordination Sequence:
#
# PCOD8054349 Si02
#       8
#     4   4   4   4   4   4   4   4
#     4   9  18  35  58  82 110 148 192 231 277 337
#     4  10  19  36  60  85 114 154 195 238 282 343
#     4  11  22  38  58  86 115 149 193 239 286 341
#     4   9  18  34  58  84 113 151 194 233 282 344
#     4  11  23  40  59  85 116 155 194 236 290 345
#     4  10  21  39  59  81 112 152 195 236 283 343
#     4   8  17  32  56  84 109 144 190 231 276 337
#     4  12  24  38  58  87 119 151 191 242 292 342
#
# _framework density 21.393795000000001
#
# number of rings (size 3 to 8) (size 9 to 14) (size 15 to 20)
#    0.000    2.000    0.000    4.500    0.000    4.000 
#    0.000    6.250    0.000    0.000    0.000    0.000 
#    0.000    0.000    0.000    0.000    0.000    0.000 
#
# Total GULP energy -198284.697399 kJ/mol
# GULP energy per Si atom -12392.793587 kJ/mol
# Density = 2.134510 g / cm^3
# Si number density = 21.393795 Si / 1000 Ang^3
#
#
#
# Elastic Constant Matrix: (Units=GPa)
#
#
# Indices 1 2 3 4 5 6 
#
# 1 54.7431 22.8224 9.1114 0.0000 -12.9293 0.0000
# 2 22.8224 72.1639 8.5528 0.0000 -4.4249 0.0000
# 3 9.1114 8.5528 49.3506 0.0000 -8.8410 0.0000
# 4 0.0000 0.0000 0.0000 25.3248 0.0000 -8.0605
# 5 -12.9293 -4.4249 -8.8410 0.0000 30.0105 0.0000
# 6 0.0000 0.0000 0.0000 -8.0605 0.0000 48.7982
#
#
#
# Elastic Compliance Matrix: (Units=1/GPa)
#
#
# Indices 1 2 3 4 5 6 
#
# 1 0.023345 -0.006665 -0.001615 0.000000 0.008600 0.000000
# 2 -0.006665 0.016110 -0.001742 0.000000 -0.001009 0.000000
# 3 -0.001615 -0.001742 0.021846 0.000000 0.005483 0.000000
# 4 0.000000 0.000000 0.000000 0.041678 0.000000 0.006884
# 5 0.008600 -0.001009 0.005483 0.000000 0.038493 0.000000
# 6 0.000000 0.000000 0.000000 0.006884 0.000000 0.021630
#
#
# Mechanical properties :
#
#
# Convention : Reuss Voigt Hill
#
# Bulk Modulus (GPa) = 24.23785 28.58121 26.40953
# Shear Modulus (GPa) = 25.39400 29.87809 27.63605
#
# Velocity S-wave (km/s) = 3.44899 3.74114 3.59803
# Velocity P-wave (km/s) = 5.21677 5.66128 5.44356
#
# Compressibility (1/GPa) = 0.04125779
#
# Stress axis : x y z
#
# Youngs Moduli (GPa) = 42.83506 62.07452 45.77598
#
# Poissons Ratio (x) = 0.41370 0.07391
# Poissons Ratio (y) = 0.28547 0.07976
# Poissons Ratio (z) = 0.06916 0.10815
#
# Static dielectric constant tensor:
#      x y z
#    x 3.621160 0.000000 -0.194320 
#    y 0.000000 4.265980 0.000000 
#    z -0.194320 0.000000 3.727020 
# 
# 
# High freq. dielectric constant tensor:
#      x y z
#    x 1.818660 0.000000 -0.015000 
#    y 0.000000 1.858830 0.000000 
#    z -0.015000 0.000000 1.819620 
# 
# From -- ./inp_files/9924.got.cif
#   From: 2010.06.25/outbox.cif.g09.slc.cpg/sg9_5_cif.got.tgz:9924.got - 2010.06.27 21:40:51.
