data_PCOD8054142
_publ_section_title
;
Structure prediction by ZEFSAII (Michael W. Deem and Ramdas Pophale) SiO2 
 PCOD8054142
Probable space group: C M
;
_chemical_formula_sum "Si O2"
_cell_formula_units_Z 20
_cell_length_a 7.208516
_cell_length_b 23.987088
_cell_length_c 7.990456
_cell_angle_alpha 90.000000
_cell_angle_beta 144.714594
_cell_angle_gamma 90.000000
_cell_volume 798.104078
_symmetry_space_group_name_H-M "C M"
_symmetry_group_IT_number 8
_symmetry_cell_setting 'monoclinic'
loop_
_space_group_symop_operation_xyz
x,y,z
x,-y,z
1/2+x,1/2+y,z
1/2+x,1/2-y,z
loop_
_atom_site_type_symbol
_atom_site_label
_atom_site_fract_x
_atom_site_fract_y
_atom_site_fract_z
Si Si1 0.488950 0.707855 0.833920
Si Si2 0.429434 0.500000 0.787415
Si Si3 0.730451 0.393710 0.837697
Si Si4 0.807377 0.293508 0.405170
Si Si5 0.215345 0.000000 0.335676
Si Si6 0.441535 0.607177 0.288101
O O1 0.743112 0.661099 0.963731
O O2 0.390849 0.752312 0.619682
O O3 0.150311 0.677448 0.623134
O O4 0.653388 0.735925 0.122892
O O5 0.612219 0.446591 0.852732
O O6 0.047679 0.500000 0.473384
O O7 0.436894 0.500000 0.992930
O O8 0.472623 0.379358 0.506280
O O9 0.065014 0.405037 0.987977
O O10 0.546482 0.339944 0.257186
O O11 0.165684 0.054429 0.411747
#
# Coordination Sequence:
#
# PCOD8054142 Si02
#       6
#     4   2   4   4   2   4
#     4  12  26  46  70 101 139 186 236 291 348 412
#     4  12  24  44  72 104 138 180 226 282 347 416
#     4  12  25  45  70 103 140 181 229 286 347 414
#     4  12  26  46  70 101 139 186 236 291 348 412
#     4  12  24  44  72 104 138 180 226 282 347 416
#     4  12  25  45  70 103 140 181 229 286 347 414
#
# _framework density 25.05939
#
# number of rings (size 3 to 8) (size 9 to 14) (size 15 to 20)
#    0.000    0.000    0.000   10.800    0.000    3.200 
#    0.000    0.000    0.000    0.000    0.000    0.000 
#    0.000    0.000    0.000    0.000    0.000    0.000 
#
# Total GULP energy -123971.263389 kJ/mol
# GULP energy per Si atom -12397.126339 kJ/mol
# Density = 2.500235 g / cm^3
# Si number density = 25.059390 Si / 1000 Ang^3
#
#
#
# Elastic Constant Matrix: (Units=GPa)
#
#
# Indices 1 2 3 4 5 6 
#
# 1 129.6343 70.3614 48.3176 0.0000 12.3516 0.0000
# 2 70.3614 143.0215 40.6775 0.0000 3.5401 0.0000
# 3 48.3176 40.6775 138.4446 0.0000 -19.4326 0.0000
# 4 0.0000 0.0000 0.0000 28.9127 0.0000 -3.1838
# 5 12.3516 3.5401 -19.4326 0.0000 72.1503 0.0000
# 6 0.0000 0.0000 0.0000 -3.1838 0.0000 -10.7641
#
#
#
# Elastic Compliance Matrix: (Units=1/GPa)
#
#
# Indices 1 2 3 4 5 6 
#
# 1 0.011715 -0.004838 -0.003030 0.000000 -0.002584 0.000000
# 2 -0.004838 0.009700 -0.001156 0.000000 0.000041 0.000000
# 3 -0.003030 -0.001156 0.009043 0.000000 0.003011 0.000000
# 4 0.000000 0.000000 0.000000 0.033496 0.000000 -0.009907
# 5 -0.002584 0.000041 0.003011 0.000000 0.015111 0.000000
# 6 0.000000 0.000000 0.000000 -0.009907 0.000000 -0.089971
#
#
# Mechanical properties :
#
#
# Convention : Reuss Voigt Hill
#
# Bulk Modulus (GPa) = 80.57569 81.09038 80.83304
# Shear Modulus (GPa) = 443.34802 34.84272 239.09537
#
# Velocity S-wave (km/s) = 13.31552 3.73286 9.77848
# Velocity P-wave (km/s) = 16.38987 7.14202 12.64192
#
# Compressibility (1/GPa) = 0.01241069
#
# Stress axis : x y z
#
# Youngs Moduli (GPa) = 85.35768 103.09610 110.58508
#
# Poissons Ratio (x) = 0.49876 0.33508
# Poissons Ratio (y) = 0.41294 0.12781
# Poissons Ratio (z) = 0.25864 0.11916
#
# Static dielectric constant tensor:
#      x y z
#    x 4.918670 0.000000 0.008190 
#    y 0.000000 4.189000 0.000000 
#    z 0.008190 0.000000 4.716310 
# 
# 
# High freq. dielectric constant tensor:
#      x y z
#    x 2.021510 0.000000 0.001710 
#    y 0.000000 1.984170 0.000000 
#    z 0.001710 0.000000 2.020470 
# 
# From -- ./inp_files/9053.got.cif
#   From: 2010.03.12/outbox.cif.g09.slc.cpg/sg8_5_cif.got.tgz:9053.got - 2010.03.31 10:45:26.
