data_PCOD8054340
_publ_section_title
;
Structure prediction by ZEFSAII (Michael W. Deem and Ramdas Pophale) SiO2 
 PCOD8054340
Probable space group: C C
;
_chemical_formula_sum "Si O2"
_cell_formula_units_Z 32
_cell_length_a 14.293767
_cell_length_b 9.462825
_cell_length_c 13.308329
_cell_angle_alpha 90.000000
_cell_angle_beta 103.977171
_cell_angle_gamma 90.000000
_cell_volume 1746.780204
_symmetry_space_group_name_H-M "C C"
_symmetry_group_IT_number 9
_symmetry_cell_setting 'monoclinic'
loop_
_space_group_symop_operation_xyz
x,y,z
x,-y,1/2+z
1/2+x,1/2+y,z
1/2+x,1/2-y,1/2+z
loop_
_atom_site_type_symbol
_atom_site_label
_atom_site_fract_x
_atom_site_fract_y
_atom_site_fract_z
Si Si1 0.879550 0.818558 0.875000
Si Si2 0.390888 0.885099 0.089257
Si Si3 0.359879 0.584249 0.141612
Si Si4 0.514472 0.514370 0.025929
Si Si5 0.230667 0.639485 0.511544
Si Si6 0.514109 0.823717 0.944780
Si Si7 0.731517 0.561138 0.108736
Si Si8 0.386090 0.981411 0.293101
O O1 0.865925 0.892918 0.763040
O O2 0.886032 0.647886 0.872285
O O3 0.789782 0.853231 0.923640
O O4 0.975944 0.882610 0.950579
O O5 0.342825 0.730749 0.079766
O O6 0.440495 0.921190 0.208825
O O7 0.300471 0.988645 0.042023
O O8 0.477448 0.902032 0.035007
O O9 0.458297 0.520624 0.118289
O O10 0.268712 0.486820 0.091446
O O11 0.626265 0.491349 0.080413
O O12 0.504561 0.655352 0.954877
O O13 0.120334 0.618547 0.449253
O O14 0.232368 0.774355 0.584812
O O15 0.441958 0.877633 0.840111
O O16 0.777571 0.529024 0.231300
#
# Coordination Sequence:
#
# PCOD8054340 Si02
#       8
#     4   4   4   4   4   4   4   4
#     4  10  20  38  55  80 108 143 186 221 266 327
#     4   8  18  35  55  72 113 140 175 217 272 319
#     4   9  19  37  54  78 110 145 174 230 266 321
#     4   9  20  37  56  79 109 142 185 220 273 318
#     4  10  21  34  57  81 111 139 183 224 272 315
#     4  10  19  36  55  79 108 145 177 225 265 328
#     4   9  19  38  54  82 109 142 176 227 272 319
#     4   9  20  35  56  79 108 142 180 220 272 319
#
# _framework density 18.319420999999998
#
# number of rings (size 3 to 8) (size 9 to 14) (size 15 to 20)
#    0.750    2.000    0.000    0.750    1.750    2.000 
#    6.750    0.000    0.000    0.000    0.000    0.000 
#    0.000    0.000    0.000    0.000    0.000    0.000 
#
# Total GULP energy -198212.920982 kJ/mol
# GULP energy per Si atom -12388.307561 kJ/mol
# Density = 1.827772 g / cm^3
# Si number density = 18.319421 Si / 1000 Ang^3
#
#
#
# Elastic Constant Matrix: (Units=GPa)
#
#
# Indices 1 2 3 4 5 6 
#
# 1 111.0955 35.3051 51.4310 0.0000 17.0367 0.0000
# 2 35.3051 67.6998 43.0871 0.0000 15.8444 0.0000
# 3 51.4310 43.0871 83.9286 0.0000 16.7526 0.0000
# 4 0.0000 0.0000 0.0000 35.3675 0.0000 4.9843
# 5 17.0367 15.8444 16.7526 0.0000 30.8794 0.0000
# 6 0.0000 0.0000 0.0000 4.9843 0.0000 25.6304
#
#
#
# Elastic Compliance Matrix: (Units=1/GPa)
#
#
# Indices 1 2 3 4 5 6 
#
# 1 0.013029 -0.002124 -0.006366 0.000000 -0.002645 0.000000
# 2 -0.002124 0.023243 -0.009515 0.000000 -0.005593 0.000000
# 3 -0.006366 -0.009515 0.021335 0.000000 -0.003181 0.000000
# 4 0.000000 0.000000 0.000000 0.029071 0.000000 -0.005653
# 5 -0.002645 -0.005593 -0.003181 0.000000 0.038438 0.000000
# 6 0.000000 0.000000 0.000000 -0.005653 0.000000 0.040116
#
#
# Mechanical properties :
#
#
# Convention : Reuss Voigt Hill
#
# Bulk Modulus (GPa) = 46.29938 58.04111 52.17025
# Shear Modulus (GPa) = 23.98766 27.23550 25.61158
#
# Velocity S-wave (km/s) = 3.62250 3.85996 3.74312
# Velocity P-wave (km/s) = 6.54408 7.18452 6.87176
#
# Compressibility (1/GPa) = 0.02159856
#
# Stress axis : x y z
#
# Youngs Moduli (GPa) = 76.75309 43.02334 46.87104
#
# Poissons Ratio (x) = 0.09139 0.29836
# Poissons Ratio (y) = 0.16303 0.44596
# Poissons Ratio (z) = 0.48858 0.40935
#
# Static dielectric constant tensor:
#      x y z
#    x 3.350080 0.000000 -0.087940 
#    y 0.000000 3.430840 0.000000 
#    z -0.087940 0.000000 3.242920 
# 
# 
# High freq. dielectric constant tensor:
#      x y z
#    x 1.703670 0.000000 -0.006840 
#    y 0.000000 1.715100 0.000000 
#    z -0.006840 0.000000 1.697830 
# 
# From -- ./inp_files/25584.got.cif
#   From: 2010.06.25/outbox.cif.g09.slc.cpg/sg9_13_cif.got.tgz:25584.got - 2010.06.27 21:40:51.
