data_PCOD8054371
_publ_section_title
;
Structure prediction by ZEFSAII (Michael W. Deem and Ramdas Pophale) SiO2 
 PCOD8054371
Probable space group: C C
;
_chemical_formula_sum "Si O2"
_cell_formula_units_Z 24
_cell_length_a 28.687268
_cell_length_b 7.650640
_cell_length_c 5.239800
_cell_angle_alpha 90.000000
_cell_angle_beta 89.825493
_cell_angle_gamma 90.000000
_cell_volume 1150.004801
_symmetry_space_group_name_H-M "C C"
_symmetry_group_IT_number 9
_symmetry_cell_setting 'monoclinic'
loop_
_space_group_symop_operation_xyz
x,y,z
x,-y,1/2+z
1/2+x,1/2+y,z
1/2+x,1/2-y,1/2+z
loop_
_atom_site_type_symbol
_atom_site_label
_atom_site_fract_x
_atom_site_fract_y
_atom_site_fract_z
Si Si1 0.466070 0.298686 0.152050
Si Si2 0.320067 0.604766 0.146924
Si Si3 0.745375 0.394522 0.153552
Si Si4 0.426135 0.309708 0.653006
Si Si5 0.138733 0.111805 0.683439
Si Si6 0.060132 0.616193 0.191755
O O1 0.439675 0.209312 0.392712
O O2 0.451499 0.501591 0.128997
O O3 0.521238 0.268681 0.174871
O O4 0.447305 0.205975 0.894154
O O5 0.314118 0.451583 0.353932
O O6 0.280320 0.740455 0.216765
O O7 0.371005 0.684285 0.187231
O O8 0.754839 0.541566 0.366265
O O9 0.692440 0.327931 0.180557
O O10 0.109888 0.290256 0.674387
O O11 0.126460 0.992647 0.440677
O O12 0.055009 0.518807 0.460701
#
# Coordination Sequence:
#
# PCOD8054371 Si02
#       6
#     4   4   4   4   4   4
#     4  10  20  36  59  82 122 158 197 256 288 359
#     4  12  21  38  65  95 119 163 214 260 297 365
#     4  10  23  43  62  93 130 159 203 259 318 371
#     4  10  19  37  61  85 114 156 223 240 275 366
#     4  10  23  43  68  90 119 170 214 244 303 391
#     4  12  26  41  61  97 132 156 203 267 325 354
#
# _framework density 20.869481
#
# number of rings (size 3 to 8) (size 9 to 14) (size 15 to 20)
#    0.000    1.333    3.333    3.000    4.667    1.333 
#    0.000    5.000    0.000    0.000    0.000    0.000 
#    0.000    0.000    0.000    0.000    0.000    0.000 
#
# Total GULP energy -148776.519931 kJ/mol
# GULP energy per Si atom -12398.043328 kJ/mol
# Density = 2.082198 g / cm^3
# Si number density = 20.869481 Si / 1000 Ang^3
#
#
#
# Elastic Constant Matrix: (Units=GPa)
#
#
# Indices 1 2 3 4 5 6 
#
# 1 121.2149 44.3288 23.5202 0.0000 1.6416 0.0000
# 2 44.3288 30.8754 7.4401 0.0000 4.1305 0.0000
# 3 23.5202 7.4401 146.2119 0.0000 3.8524 0.0000
# 4 0.0000 0.0000 0.0000 21.5915 0.0000 2.2236
# 5 1.6416 4.1305 3.8524 0.0000 29.2082 0.0000
# 6 0.0000 0.0000 0.0000 2.2236 0.0000 29.8073
#
#
#
# Elastic Compliance Matrix: (Units=1/GPa)
#
#
# Indices 1 2 3 4 5 6 
#
# 1 0.017951 -0.025756 -0.001652 0.000000 0.002851 0.000000
# 2 -0.025756 0.070327 0.000791 0.000000 -0.008602 0.000000
# 3 -0.001652 0.000791 0.007090 0.000000 -0.000954 0.000000
# 4 0.000000 0.000000 0.000000 0.046673 0.000000 -0.003482
# 5 0.002851 -0.008602 -0.000954 0.000000 0.035419 0.000000
# 6 0.000000 0.000000 0.000000 -0.003482 0.000000 0.033809
#
#
# Mechanical properties :
#
#
# Convention : Reuss Voigt Hill
#
# Bulk Modulus (GPa) = 23.73376 49.87561 36.80469
# Shear Modulus (GPa) = 17.95032 30.98894 24.46963
#
# Velocity S-wave (km/s) = 2.93597 3.85761 3.42790
# Velocity P-wave (km/s) = 4.78439 6.61757 5.77419
#
# Compressibility (1/GPa) = 0.04213407
#
# Stress axis : x y z
#
# Youngs Moduli (GPa) = 55.70785 14.21932 141.04294
#
# Poissons Ratio (x) = 0.36623 0.23302
# Poissons Ratio (y) = 1.43480 -0.11159
# Poissons Ratio (z) = 0.09204 -0.01125
#
# Static dielectric constant tensor:
#      x y z
#    x 3.849860 0.000000 0.040050 
#    y 0.000000 3.283330 0.000000 
#    z 0.040050 0.000000 5.167250 
# 
# 
# High freq. dielectric constant tensor:
#      x y z
#    x 1.826880 0.000000 0.000930 
#    y 0.000000 1.776970 0.000000 
#    z 0.000930 0.000000 1.856150 
# 
# From -- ./inp_files/3266.got.cif
#   From: 2010.06.25/outbox.cif.g09.slc.cpg/sg9_2_cif.got.tgz:3266.got - 2010.06.27 21:40:51.
