data_PCOD8054740
_publ_section_title
;
Structure prediction by ZEFSAII (Michael W. Deem and Ramdas Pophale) SiO2 
 PCOD8054740
Probable space group: C C
;
_chemical_formula_sum "Si O2"
_cell_formula_units_Z 32
_cell_length_a 26.232377
_cell_length_b 6.867497
_cell_length_c 9.307401
_cell_angle_alpha 90.000000
_cell_angle_beta 113.568319
_cell_angle_gamma 90.000000
_cell_volume 1536.868824
_symmetry_space_group_name_H-M "C C"
_symmetry_group_IT_number 9
_symmetry_cell_setting 'monoclinic'
loop_
_space_group_symop_operation_xyz
x,y,z
x,-y,1/2+z
1/2+x,1/2+y,z
1/2+x,1/2-y,1/2+z
loop_
_atom_site_type_symbol
_atom_site_label
_atom_site_fract_x
_atom_site_fract_y
_atom_site_fract_z
Si Si1 0.339010 0.421466 0.490230
Si Si2 0.261365 0.478440 0.157049
Si Si3 0.648010 0.111731 0.435306
Si Si4 0.666965 0.218141 0.141306
Si Si5 0.591732 0.564554 0.040267
Si Si6 0.018176 0.925330 0.719804
Si Si7 0.427436 0.862967 0.206546
Si Si8 0.930842 0.754675 0.043077
O O1 0.307314 0.372454 0.306419
O O2 0.289765 0.463359 0.542713
O O3 0.371412 0.233138 0.582130
O O4 0.377756 0.608079 0.507763
O O5 0.233492 0.674249 0.200226
O O6 0.210433 0.331308 0.062142
O O7 0.643383 0.122090 0.259965
O O8 0.602601 0.247756 0.456742
O O9 0.635532 0.890589 0.473189
O O10 0.649579 0.443565 0.118460
O O11 0.569376 0.620965 0.171522
O O12 0.542372 0.448832 0.906461
O O13 0.978113 0.740213 0.681618
O O14 0.986076 0.119090 0.631165
O O15 0.430207 0.837456 0.382335
O O16 0.428420 0.088638 0.162937
#
# Coordination Sequence:
#
# PCOD8054740 Si02
#       8
#     4   4   4   4   4   4   4   4
#     4  11  22  44  68  92 137 170 210 262 334 378
#     4  10  20  43  66  94 133 175 205 272 318 372
#     4  10  23  41  63  93 131 170 218 264 308 377
#     4  10  23  41  63  94 131 168 221 260 309 380
#     4  12  24  43  66  97 130 176 213 267 323 381
#     4  11  26  44  66  93 135 170 212 269 331 379
#     4  11  26  44  67 100 126 167 221 269 321 403
#     4  11  26  44  67 101 127 164 222 269 322 402
#
# _framework density 20.821555
#
# number of rings (size 3 to 8) (size 9 to 14) (size 15 to 20)
#    0.750    0.500    5.000    0.000    5.250    2.000 
#    4.500    0.000    0.000    0.000    0.000    0.000 
#    0.000    0.000    0.000    0.000    0.000    0.000 
#
# Total GULP energy -198306.393955 kJ/mol
# GULP energy per Si atom -12394.149622 kJ/mol
# Density = 2.077416 g / cm^3
# Si number density = 20.821555 Si / 1000 Ang^3
#
#
#
# Elastic Constant Matrix: (Units=GPa)
#
#
# Indices 1 2 3 4 5 6 
#
# 1 87.8897 25.4684 9.8422 0.0000 -12.8769 0.0000
# 2 25.4684 45.1980 11.1764 0.0000 -17.8899 0.0000
# 3 9.8422 11.1764 55.5425 0.0000 -5.5933 0.0000
# 4 0.0000 0.0000 0.0000 26.4824 0.0000 -3.8372
# 5 -12.8769 -17.8899 -5.5933 0.0000 40.1191 0.0000
# 6 0.0000 0.0000 0.0000 -3.8372 0.0000 21.0437
#
#
#
# Elastic Compliance Matrix: (Units=1/GPa)
#
#
# Indices 1 2 3 4 5 6 
#
# 1 0.013684 -0.007044 -0.000894 0.000000 0.001127 0.000000
# 2 -0.007044 0.031524 -0.003963 0.000000 0.011244 0.000000
# 3 -0.000894 -0.003963 0.019020 0.000000 0.000598 0.000000
# 4 0.000000 0.000000 0.000000 0.038786 0.000000 0.007072
# 5 0.001127 0.011244 0.000598 0.000000 0.030385 0.000000
# 6 0.000000 0.000000 0.000000 0.007072 0.000000 0.048810
#
#
# Mechanical properties :
#
#
# Convention : Reuss Voigt Hill
#
# Bulk Modulus (GPa) = 24.73579 31.28934 28.01257
# Shear Modulus (GPa) = 22.78043 27.00524 24.89284
#
# Velocity S-wave (km/s) = 3.31128 3.60527 3.46140
# Velocity P-wave (km/s) = 5.15025 5.69128 5.42751
#
# Compressibility (1/GPa) = 0.04042725
#
# Stress axis : x y z
#
# Youngs Moduli (GPa) = 73.07680 31.72140 52.57547
#
# Poissons Ratio (x) = 0.22344 0.04700
# Poissons Ratio (y) = 0.51475 0.20835
# Poissons Ratio (z) = 0.06533 0.12571
#
# Static dielectric constant tensor:
#      x y z
#    x 3.793710 0.000000 -0.030210 
#    y 0.000000 3.471100 0.000000 
#    z -0.030210 0.000000 3.864200 
# 
# 
# High freq. dielectric constant tensor:
#      x y z
#    x 1.825080 0.000000 -0.008180 
#    y 0.000000 1.786390 0.000000 
#    z -0.008180 0.000000 1.829100 
# 
# From -- ./inp_files/12579.got.cif
#   From: 2010.06.25/outbox.cif.g09.slc.cpg/sg9_7_cif.got.tgz:12579.got - 2010.06.27 21:40:51.
