data_PCOD8054567
_publ_section_title
;
Structure prediction by ZEFSAII (Michael W. Deem and Ramdas Pophale) SiO2 
 PCOD8054567
Probable space group: C C
;
_chemical_formula_sum "Si O2"
_cell_formula_units_Z 32
_cell_length_a 27.986834
_cell_length_b 8.700086
_cell_length_c 9.193713
_cell_angle_alpha 90.000000
_cell_angle_beta 37.435926
_cell_angle_gamma 90.000000
_cell_volume 1360.760560
_symmetry_space_group_name_H-M "C C"
_symmetry_group_IT_number 9
_symmetry_cell_setting 'monoclinic'
loop_
_space_group_symop_operation_xyz
x,y,z
x,-y,1/2+z
1/2+x,1/2+y,z
1/2+x,1/2-y,1/2+z
loop_
_atom_site_type_symbol
_atom_site_label
_atom_site_fract_x
_atom_site_fract_y
_atom_site_fract_z
Si Si1 0.906560 0.634876 0.422790
Si Si2 0.343209 0.707632 0.787256
Si Si3 0.681443 0.642540 0.311214
Si Si4 0.617824 0.925012 0.073186
Si Si5 0.257076 0.989373 0.887238
Si Si6 0.720336 0.047957 0.596327
Si Si7 0.977885 0.699041 0.760689
Si Si8 0.035486 0.257917 0.814779
O O1 0.883932 0.735997 0.337556
O O2 0.832495 0.601319 0.707319
O O3 0.949894 0.473335 0.279174
O O4 0.962500 0.741887 0.382506
O O5 0.273273 0.824943 0.920840
O O6 0.406821 0.706610 0.503847
O O7 0.305085 0.535935 0.881369
O O8 0.738735 0.533101 0.263100
O O9 0.722412 0.810521 0.205061
O O10 0.596857 0.639026 0.593428
O O11 0.682578 0.567066 0.148256
O O12 0.684417 0.883391 0.032266
O O13 0.546771 0.804853 0.217782
O O14 0.578637 0.080570 0.222384
O O15 0.658639 0.929996 0.816621
O O16 0.007065 0.788863 0.545485
#
# Coordination Sequence:
#
# PCOD8054567 Si02
#       8
#     4   4   4   4   4   4   4   4
#     4  10  21  39  69 101 138 191 247 279 341 434
#     4  11  23  39  67 107 142 184 236 292 361 415
#     4  11  26  45  76 101 142 178 245 295 356 423
#     4  10  20  38  65 100 137 186 247 284 333 422
#     4  11  23  46  71 101 135 195 236 291 342 434
#     4  11  24  41  66 112 141 178 230 310 355 412
#     4  10  20  37  69 101 139 191 248 286 340 436
#     4  10  21  41  67 103 136 181 239 295 340 412
#
# _framework density 23.516261
#
# number of rings (size 3 to 8) (size 9 to 14) (size 15 to 20)
#    0.000    1.500    2.500    3.750    7.000    0.000 
#    0.000    0.000    5.500    0.000    0.000    0.000 
#    0.000    0.000    0.000    0.000    0.000    0.000 
#
# Total GULP energy -198305.557633 kJ/mol
# GULP energy per Si atom -12394.097352 kJ/mol
# Density = 2.346274 g / cm^3
# Si number density = 23.516261 Si / 1000 Ang^3
#
#
#
# Elastic Constant Matrix: (Units=GPa)
#
#
# Indices 1 2 3 4 5 6 
#
# 1 128.6227 36.8268 49.8483 0.0000 4.1280 0.0000
# 2 36.8268 51.1692 52.3365 0.0000 -3.8138 0.0000
# 3 49.8483 52.3365 179.4881 0.0000 4.4951 0.0000
# 4 0.0000 0.0000 0.0000 37.7992 0.0000 2.5458
# 5 4.1280 -3.8138 4.4951 0.0000 31.9940 0.0000
# 6 0.0000 0.0000 0.0000 2.5458 0.0000 16.6385
#
#
#
# Elastic Compliance Matrix: (Units=1/GPa)
#
#
# Indices 1 2 3 4 5 6 
#
# 1 0.010024 -0.006501 -0.000839 0.000000 -0.001950 0.000000
# 2 -0.006501 0.032719 -0.007881 0.000000 0.005846 0.000000
# 3 -0.000839 -0.007881 0.008152 0.000000 -0.001977 0.000000
# 4 0.000000 0.000000 0.000000 0.026731 0.000000 -0.004090
# 5 -0.001950 0.005846 -0.001977 0.000000 0.032482 0.000000
# 6 0.000000 0.000000 0.000000 -0.004090 0.000000 0.060727
#
#
# Mechanical properties :
#
#
# Convention : Reuss Voigt Hill
#
# Bulk Modulus (GPa) = 48.89691 70.81146 59.85419
# Shear Modulus (GPa) = 24.02739 31.97090 27.99915
#
# Velocity S-wave (km/s) = 3.19993 3.69117 3.45429
# Velocity P-wave (km/s) = 5.87287 6.95294 6.43561
#
# Compressibility (1/GPa) = 0.02045119
#
# Stress axis : x y z
#
# Youngs Moduli (GPa) = 99.76096 30.56359 122.66778
#
# Poissons Ratio (x) = 0.19870 0.10297
# Poissons Ratio (y) = 0.64856 0.96678
# Poissons Ratio (z) = 0.08374 0.24088
#
# Static dielectric constant tensor:
#      x y z
#    x 4.212100 0.000000 -0.064760 
#    y 0.000000 3.795940 0.000000 
#    z -0.064760 0.000000 4.332310 
# 
# 
# High freq. dielectric constant tensor:
#      x y z
#    x 1.930170 0.000000 0.005260 
#    y 0.000000 1.886630 0.000000 
#    z 0.005260 0.000000 1.945910 
# 
# From -- ./inp_files/12691.got.cif
#   From: 2010.06.25/outbox.cif.g09.slc.cpg/sg9_7_cif.got.tgz:12691.got - 2010.06.27 21:40:51.
