data_PCOD8054707
_publ_section_title
;
Structure prediction by ZEFSAII (Michael W. Deem and Ramdas Pophale) SiO2 
 PCOD8054707
Probable space group: C C
;
_chemical_formula_sum "Si O2"
_cell_formula_units_Z 24
_cell_length_a 14.480457
_cell_length_b 12.187323
_cell_length_c 5.396650
_cell_angle_alpha 90.000000
_cell_angle_beta 109.306143
_cell_angle_gamma 90.000000
_cell_volume 898.832867
_symmetry_space_group_name_H-M "C C"
_symmetry_group_IT_number 9
_symmetry_cell_setting 'monoclinic'
loop_
_space_group_symop_operation_xyz
x,y,z
x,-y,1/2+z
1/2+x,1/2+y,z
1/2+x,1/2-y,1/2+z
loop_
_atom_site_type_symbol
_atom_site_label
_atom_site_fract_x
_atom_site_fract_y
_atom_site_fract_z
Si Si1 0.330710 0.400812 0.242010
Si Si2 0.630314 0.963139 0.585509
Si Si3 0.193365 0.933612 0.508470
Si Si4 0.405151 0.371735 0.808073
Si Si5 0.065725 0.250849 0.694969
Si Si6 0.919542 0.432946 0.692031
O O1 0.229840 0.467228 0.183351
O O2 0.352549 0.327840 0.506934
O O3 0.414037 0.495928 0.297503
O O4 0.338274 0.335619 0.989309
O O5 0.641683 0.832201 0.617691
O O6 0.572316 0.996210 0.283929
O O7 0.306311 0.897461 0.607159
O O8 0.168330 0.993546 0.744191
O O9 0.127189 0.823579 0.439021
O O10 0.512479 0.321141 0.935345
O O11 0.984748 0.321322 0.774449
O O12 0.941584 0.518110 0.935372
#
# Coordination Sequence:
#
# PCOD8054707 Si02
#       6
#     4   4   4   4   4   4
#     4  10  20  42  65  92 131 174 212 276 334 384
#     4  12  24  44  69 102 139 174 226 287 336 401
#     4  10  26  48  69  97 142 182 224 279 344 407
#     4  10  22  38  64  96 131 168 216 273 338 387
#     4  12  28  42  74 106 134 178 237 279 340 405
#     4  10  24  50  69  95 141 186 221 278 344 410
#
# _framework density 26.701291999999999
#
# number of rings (size 3 to 8) (size 9 to 14) (size 15 to 20)
#    0.000    1.333    3.333    1.000    7.000    5.333 
#    0.000    3.333    0.000    0.000    0.000    0.000 
#    0.000    0.000    0.000    0.000    0.000    0.000 
#
# Total GULP energy -148667.392875 kJ/mol
# GULP energy per Si atom -12388.949406 kJ/mol
# Density = 2.664052 g / cm^3
# Si number density = 26.701292 Si / 1000 Ang^3
#
#
#
# Elastic Constant Matrix: (Units=GPa)
#
#
# Indices 1 2 3 4 5 6 
#
# 1 100.6793 52.1176 59.2195 0.0000 18.1575 0.0000
# 2 52.1176 99.9869 36.8431 0.0000 17.8852 0.0000
# 3 59.2195 36.8431 209.7081 0.0000 -10.4020 0.0000
# 4 0.0000 0.0000 0.0000 15.0097 0.0000 21.9967
# 5 18.1575 17.8852 -10.4020 0.0000 47.1183 0.0000
# 6 0.0000 0.0000 0.0000 21.9967 0.0000 44.9433
#
#
#
# Elastic Compliance Matrix: (Units=1/GPa)
#
#
# Indices 1 2 3 4 5 6 
#
# 1 0.016185 -0.006231 -0.003709 0.000000 -0.004691 0.000000
# 2 -0.006231 0.014139 -0.000881 0.000000 -0.003160 0.000000
# 3 -0.003709 -0.000881 0.006125 0.000000 0.003116 0.000000
# 4 0.000000 0.000000 0.000000 0.235640 0.000000 -0.115330
# 5 -0.004691 -0.003160 0.003116 0.000000 0.024918 0.000000
# 6 0.000000 0.000000 0.000000 -0.115330 0.000000 0.078696
#
#
# Mechanical properties :
#
#
# Convention : Reuss Voigt Hill
#
# Bulk Modulus (GPa) = 67.53024 78.52606 73.02815
# Shear Modulus (GPa) = 12.42909 38.89385 25.66147
#
# Velocity S-wave (km/s) = 2.15985 3.82072 3.10346
# Velocity P-wave (km/s) = 5.61835 6.99548 6.34439
#
# Compressibility (1/GPa) = 0.01480818
#
# Stress axis : x y z
#
# Youngs Moduli (GPa) = 61.78404 70.72527 163.26040
#
# Poissons Ratio (x) = 0.44069 0.60546
# Poissons Ratio (y) = 0.38497 0.14388
# Poissons Ratio (z) = 0.22913 0.06233
#
# Static dielectric constant tensor:
#      x y z
#    x 5.238260 0.000000 -0.216030 
#    y 0.000000 4.655550 0.000000 
#    z -0.216030 0.000000 6.021040 
# 
# 
# High freq. dielectric constant tensor:
#      x y z
#    x 2.089790 0.000000 0.010290 
#    y 0.000000 2.041310 0.000000 
#    z 0.010290 0.000000 2.102240 
# 
# From -- ./inp_files/2335.got.cif
#   From: 2010.06.25/outbox.cif.g09.slc.cpg/sg9_2_cif.got.tgz:2335.got - 2010.06.27 21:40:51.
