data_PCOD8054461
_publ_section_title
;
Structure prediction by ZEFSAII (Michael W. Deem and Ramdas Pophale) SiO2 
 PCOD8054461
Probable space group: C C
;
_chemical_formula_sum "Si O2"
_cell_formula_units_Z 32
_cell_length_a 14.850324
_cell_length_b 15.077161
_cell_length_c 8.680864
_cell_angle_alpha 90.000000
_cell_angle_beta 118.641311
_cell_angle_gamma 90.000000
_cell_volume 1705.821866
_symmetry_space_group_name_H-M "C C"
_symmetry_group_IT_number 9
_symmetry_cell_setting 'monoclinic'
loop_
_space_group_symop_operation_xyz
x,y,z
x,-y,1/2+z
1/2+x,1/2+y,z
1/2+x,1/2-y,1/2+z
loop_
_atom_site_type_symbol
_atom_site_label
_atom_site_fract_x
_atom_site_fract_y
_atom_site_fract_z
Si Si1 0.172180 0.770274 0.477450
Si Si2 0.207496 0.927353 0.711141
Si Si3 0.632551 0.904607 0.128224
Si Si4 0.181232 0.893281 0.047124
Si Si5 0.058550 0.255293 0.575529
Si Si6 0.347690 0.839324 0.414897
Si Si7 0.114841 0.425082 0.452561
Si Si8 0.928081 0.483947 0.902521
O O1 0.147161 0.847472 0.579401
O O2 0.176999 0.678354 0.572876
O O3 0.085794 0.765350 0.275381
O O4 0.281527 0.796115 0.496109
O O5 0.202872 0.915342 0.889233
O O6 0.327506 0.933896 0.755859
O O7 0.151696 0.018100 0.617037
O O8 0.667993 0.899912 0.334883
O O9 0.676880 0.994011 0.084654
O O10 0.507053 0.909544 0.031842
O O11 0.085858 0.826762 0.987019
O O12 0.281868 0.847938 0.204077
O O13 0.121622 0.341711 0.572610
O O14 0.938143 0.269915 0.459705
O O15 0.390266 0.938670 0.493483
O O16 0.995440 0.458974 0.331667
#
# Coordination Sequence:
#
# PCOD8054461 Si02
#       8
#     4   4   4   4   4   4   4   4
#     4  11  23  34  55  88 121 155 192 244 297 352
#     4  11  21  35  57  87 123 143 199 242 300 349
#     4  10  20  32  53  88 113 151 186 241 298 342
#     4  10  21  37  59  86 116 153 192 248 295 350
#     4  10  20  38  56  80 120 153 196 243 295 354
#     4   9  20  36  58  85 113 153 193 244 293 338
#     4   9  19  32  57  82 113 150 193 235 298 340
#     4   8  20  30  59  84 115 144 189 249 284 337
#
# _framework density 18.759285999999999
#
# number of rings (size 3 to 8) (size 9 to 14) (size 15 to 20)
#    0.750    1.500    0.000    3.750    8.750    0.000 
#    0.000    0.000    0.000    9.000    0.000    0.000 
#    0.000    0.000    0.000    0.000    0.000    0.000 
#
# Total GULP energy -198226.244455 kJ/mol
# GULP energy per Si atom -12389.140278 kJ/mol
# Density = 1.871659 g / cm^3
# Si number density = 18.759286 Si / 1000 Ang^3
#
#
#
# Elastic Constant Matrix: (Units=GPa)
#
#
# Indices 1 2 3 4 5 6 
#
# 1 66.1445 49.8049 38.7401 0.0000 -14.9337 0.0000
# 2 49.8049 135.4256 51.8500 0.0000 -7.2590 0.0000
# 3 38.7401 51.8500 86.1831 0.0000 -23.7386 0.0000
# 4 0.0000 0.0000 0.0000 34.9335 0.0000 -2.9216
# 5 -14.9337 -7.2590 -23.7386 0.0000 28.7805 0.0000
# 6 0.0000 0.0000 0.0000 -2.9216 0.0000 38.2465
#
#
#
# Elastic Compliance Matrix: (Units=1/GPa)
#
#
# Indices 1 2 3 4 5 6 
#
# 1 0.024805 -0.006770 -0.005179 0.000000 0.006892 0.000000
# 2 -0.006770 0.011651 -0.005337 0.000000 -0.004976 0.000000
# 3 -0.005179 -0.005337 0.020744 0.000000 0.013077 0.000000
# 4 0.000000 0.000000 0.000000 0.028810 0.000000 0.002201
# 5 0.006892 -0.004976 0.013077 0.000000 0.047853 0.000000
# 6 0.000000 0.000000 0.000000 0.002201 0.000000 0.026314
#
#
# Mechanical properties :
#
#
# Convention : Reuss Voigt Hill
#
# Bulk Modulus (GPa) = 44.19257 63.17147 53.68202
# Shear Modulus (GPa) = 24.71695 30.21599 27.46647
#
# Velocity S-wave (km/s) = 3.63379 4.01773 3.83058
# Velocity P-wave (km/s) = 6.41987 7.43443 6.94570
#
# Compressibility (1/GPa) = 0.02262824
#
# Stress axis : x y z
#
# Youngs Moduli (GPa) = 40.31368 85.83284 48.20784
#
# Poissons Ratio (x) = 0.58113 0.24965
# Poissons Ratio (y) = 0.27294 0.25727
# Poissons Ratio (z) = 0.20877 0.45805
#
# Static dielectric constant tensor:
#      x y z
#    x 3.233010 0.000000 -0.123640 
#    y 0.000000 3.569310 0.000000 
#    z -0.123640 0.000000 3.230550 
# 
# 
# High freq. dielectric constant tensor:
#      x y z
#    x 1.699030 0.000000 -0.025330 
#    y 0.000000 1.734330 0.000000 
#    z -0.025330 0.000000 1.714290 
# 
# From -- ./inp_files/9703.got.cif
#   From: 2010.06.25/outbox.cif.g09.slc.cpg/sg9_5_cif.got.tgz:9703.got - 2010.06.27 21:40:51.
