data_PCOD8054275
_publ_section_title
;
Structure prediction by ZEFSAII (Michael W. Deem and Ramdas Pophale) SiO2 
 PCOD8054275
Probable space group: C C
;
_chemical_formula_sum "Si O2"
_cell_formula_units_Z 32
_cell_length_a 17.481118
_cell_length_b 16.169451
_cell_length_c 11.280770
_cell_angle_alpha 90.000000
_cell_angle_beta 149.108845
_cell_angle_gamma 90.000000
_cell_volume 1637.067238
_symmetry_space_group_name_H-M "C C"
_symmetry_group_IT_number 9
_symmetry_cell_setting 'monoclinic'
loop_
_space_group_symop_operation_xyz
x,y,z
x,-y,1/2+z
1/2+x,1/2+y,z
1/2+x,1/2-y,1/2+z
loop_
_atom_site_type_symbol
_atom_site_label
_atom_site_fract_x
_atom_site_fract_y
_atom_site_fract_z
Si Si1 0.170130 0.433738 0.780030
Si Si2 0.208829 0.245372 0.120491
Si Si3 0.260004 0.187487 0.786048
Si Si4 0.902022 0.642329 0.539530
Si Si5 0.996695 0.297681 0.409937
Si Si6 0.577900 0.907132 0.047854
Si Si7 0.391893 0.305206 0.147771
Si Si8 0.401877 0.960066 0.597624
O O1 0.105210 0.367532 0.603311
O O2 0.191217 0.518076 0.732917
O O3 0.058255 0.449471 0.738910
O O4 0.323049 0.397517 0.040199
O O5 0.267381 0.198351 0.313862
O O6 0.329819 0.253129 0.177208
O O7 0.167451 0.339215 0.094786
O O8 0.069807 0.190218 0.892002
O O9 0.084349 0.210518 0.547754
O O10 0.334381 0.193850 0.754356
O O11 0.358757 0.252152 0.988719
O O12 0.276564 0.098001 0.870644
O O13 0.842344 0.553723 0.507087
O O14 0.981039 0.692074 0.749167
O O15 0.019263 0.631938 0.590557
O O16 0.436381 0.939470 0.781474
#
# Coordination Sequence:
#
# PCOD8054275 Si02
#       8
#     4   4   4   4   4   4   4   4
#     4   9  19  35  60  87 111 153 198 248 283 350
#     4  12  22  38  63  89 118 157 198 251 293 354
#     4  10  20  36  63  87 113 154 195 247 287 350
#     4  11  24  36  59  89 121 157 199 241 299 358
#     4  10  21  36  58  89 119 149 193 241 298 346
#     4  11  20  37  62  86 113 161 202 239 294 354
#     4  11  20  38  64  90 116 151 208 244 293 351
#     4  10  18  38  61  85 113 156 207 233 289 363
#
# _framework density 19.547149999999998
#
# number of rings (size 3 to 8) (size 9 to 14) (size 15 to 20)
#    0.000    1.500    5.000    1.500    1.750    0.000 
#    0.000    1.250   11.000    0.000    0.000    0.000 
#    0.000    0.000    0.000    0.000    0.000    0.000 
#
# Total GULP energy -198363.616530 kJ/mol
# GULP energy per Si atom -12397.726033 kJ/mol
# Density = 1.950266 g / cm^3
# Si number density = 19.547150 Si / 1000 Ang^3
#
#
#
# Elastic Constant Matrix: (Units=GPa)
#
#
# Indices 1 2 3 4 5 6 
#
# 1 62.0349 0.2503 13.7371 0.0000 -23.0958 0.0000
# 2 0.2503 98.1741 34.7501 0.0000 -8.6718 0.0000
# 3 13.7371 34.7501 75.7963 0.0000 -17.7067 0.0000
# 4 0.0000 0.0000 0.0000 31.9222 0.0000 -7.6564
# 5 -23.0958 -8.6718 -17.7067 0.0000 28.1563 0.0000
# 6 0.0000 0.0000 0.0000 -7.6564 0.0000 21.9329
#
#
#
# Elastic Compliance Matrix: (Units=1/GPa)
#
#
# Indices 1 2 3 4 5 6 
#
# 1 0.023493 0.001859 -0.000556 0.000000 0.019493 0.000000
# 2 0.001859 0.012308 -0.005554 0.000000 0.001823 0.000000
# 3 -0.000556 -0.005554 0.017975 0.000000 0.009137 0.000000
# 4 0.000000 0.000000 0.000000 0.034189 0.000000 0.011935
# 5 0.019493 0.001823 0.009137 0.000000 0.057813 0.000000
# 6 0.000000 0.000000 0.000000 0.011935 0.000000 0.049760
#
#
# Mechanical properties :
#
#
# Convention : Reuss Voigt Hill
#
# Bulk Modulus (GPa) = 22.08801 37.05338 29.57069
# Shear Modulus (GPa) = 22.81733 28.88680 25.85206
#
# Velocity S-wave (km/s) = 3.42028 3.84839 3.64063
# Velocity P-wave (km/s) = 5.18866 6.22445 5.73001
#
# Compressibility (1/GPa) = 0.04527343
#
# Stress axis : x y z
#
# Youngs Moduli (GPa) = 42.56574 81.24692 55.63319
#
# Poissons Ratio (x) = -0.15102 0.03094
# Poissons Ratio (y) = -0.07912 0.30898
# Poissons Ratio (z) = 0.02368 0.45124
#
# Static dielectric constant tensor:
#      x y z
#    x 3.500800 0.000000 -0.231570 
#    y 0.000000 3.823010 0.000000 
#    z -0.231570 0.000000 3.496060 
# 
# 
# High freq. dielectric constant tensor:
#      x y z
#    x 1.760440 0.000000 -0.025830 
#    y 0.000000 1.760420 0.000000 
#    z -0.025830 0.000000 1.739340 
# 
# From -- ./inp_files/7899.got.cif
#   From: 2010.06.25/outbox.cif.g09.slc.cpg/sg9_4_cif.got.tgz:7899.got - 2010.06.27 21:40:51.
