data_PCOD8054632
_publ_section_title
;
Structure prediction by ZEFSAII (Michael W. Deem and Ramdas Pophale) SiO2 
 PCOD8054632
Probable space group: C C
;
_chemical_formula_sum "Si O2"
_cell_formula_units_Z 32
_cell_length_a 27.937811
_cell_length_b 7.852267
_cell_length_c 22.380815
_cell_angle_alpha 90.000000
_cell_angle_beta 18.144097
_cell_angle_gamma 90.000000
_cell_volume 1528.948803
_symmetry_space_group_name_H-M "C C"
_symmetry_group_IT_number 9
_symmetry_cell_setting 'monoclinic'
loop_
_space_group_symop_operation_xyz
x,y,z
x,-y,1/2+z
1/2+x,1/2+y,z
1/2+x,1/2-y,1/2+z
loop_
_atom_site_type_symbol
_atom_site_label
_atom_site_fract_x
_atom_site_fract_y
_atom_site_fract_z
Si Si1 0.173320 0.382506 0.595730
Si Si2 0.399296 0.211572 0.240093
Si Si3 0.345903 0.073752 0.883680
Si Si4 0.672772 0.614522 0.816330
Si Si5 0.727401 0.702325 0.326956
Si Si6 0.305450 0.591125 0.243051
Si Si7 0.325273 0.822836 0.009441
Si Si8 0.149394 0.304662 0.049367
O O1 0.255315 0.303799 0.440712
O O2 0.264960 0.348335 0.548257
O O3 0.159411 0.581343 0.597827
O O4 0.006335 0.299255 0.801972
O O5 0.344185 0.146245 0.240530
O O6 0.451277 0.059076 0.221708
O O7 0.549575 0.328617 0.056316
O O8 0.468964 0.224555 0.748959
O O9 0.281929 0.986865 0.019621
O O10 0.210120 0.123692 0.999874
O O11 0.746532 0.433396 0.750222
O O12 0.722297 0.766381 0.801837
O O13 0.744318 0.655257 0.667945
O O14 0.489315 0.609073 0.025707
O O15 0.759321 0.901849 0.272879
O O16 0.249094 0.616627 0.377658
#
# Coordination Sequence:
#
# PCOD8054632 Si02
#       8
#     4   4   4   4   4   4   4   4
#     4  10  20  39  68  84 128 158 212 273 324 391
#     4  11  20  41  65  96 125 166 212 276 343 389
#     4  10  22  37  63  89 129 159 211 274 325 394
#     4  12  27  44  66  95 137 184 223 270 324 404
#     4  12  23  43  65 100 136 173 219 274 338 401
#     4  12  25  42  68 100 132 173 225 274 338 396
#     4  10  23  44  58  92 122 175 219 255 325 397
#     4  11  20  38  59  98 119 156 209 274 335 378
#
# _framework density 20.929413
#
# number of rings (size 3 to 8) (size 9 to 14) (size 15 to 20)
#    0.000    1.000    3.750    3.750    1.750    3.000 
#    6.750    0.000    0.000    0.000    0.000    0.000 
#    0.000    0.000    0.000    0.000    0.000    0.000 
#
# Total GULP energy -198288.556384 kJ/mol
# GULP energy per Si atom -12393.034774 kJ/mol
# Density = 2.088178 g / cm^3
# Si number density = 20.929413 Si / 1000 Ang^3
#
#
#
# Elastic Constant Matrix: (Units=GPa)
#
#
# Indices 1 2 3 4 5 6 
#
# 1 88.5575 30.0311 41.0223 -0.0082 10.2736 -0.0031
# 2 30.0311 82.6531 17.8163 0.0038 4.7178 0.0002
# 3 41.0223 17.8163 86.3868 0.0129 -7.0656 0.0018
# 4 -0.0082 0.0038 0.0129 21.4455 -0.0015 -10.2281
# 5 10.2736 4.7178 -7.0656 -0.0015 32.3747 0.0015
# 6 -0.0031 0.0002 0.0018 -10.2281 0.0015 41.9711
#
#
#
# Elastic Compliance Matrix: (Units=1/GPa)
#
#
# Indices 1 2 3 4 5 6 
#
# 1 0.017056 -0.004150 -0.007775 0.000014 -0.006505 0.000005
# 2 -0.004150 0.013866 -0.000964 -0.000004 -0.000914 -0.000001
# 3 -0.007775 -0.000964 0.015965 -0.000014 0.006092 -0.000005
# 4 0.000014 -0.000004 -0.000014 0.052762 -0.000005 0.012858
# 5 -0.006505 -0.000914 0.006092 -0.000005 0.034415 -0.000003
# 6 0.000005 -0.000001 -0.000005 0.012858 -0.000003 0.026959
#
#
# Mechanical properties :
#
#
# Convention : Reuss Voigt Hill
#
# Bulk Modulus (GPa) = 47.37272 48.37076 47.87174
# Shear Modulus (GPa) = 25.79466 30.40679 28.10073
#
# Velocity S-wave (km/s) = 3.51445 3.81573 3.66818
# Velocity P-wave (km/s) = 6.25717 6.52492 6.39245
#
# Compressibility (1/GPa) = 0.02110920
#
# Stress axis : x y z
#
# Youngs Moduli (GPa) = 58.63153 72.11627 62.63622
#
# Poissons Ratio (x) = 0.29926 0.48702
# Poissons Ratio (y) = 0.24330 0.06038
# Poissons Ratio (z) = 0.45588 0.06952
#
# Static dielectric constant tensor:
#      x y z
#    x 3.871360 -0.000030 -0.173840 
#    y -0.000030 4.075230 0.000030 
#    z -0.173840 0.000030 3.759920 
# 
# 
# High freq. dielectric constant tensor:
#      x y z
#    x 1.825110 0.000000 -0.020500 
#    y 0.000000 1.812170 0.000000 
#    z -0.020500 0.000000 1.819830 
# 
# From -- ./inp_files/11235.got.cif
#   From: 2010.06.25/outbox.cif.g09.slc.cpg/sg9_6_cif.got.tgz:11235.got - 2010.06.27 21:40:51.
