data_PCOD8054940
_publ_section_title
;
Structure prediction by ZEFSAII (Michael W. Deem and Ramdas Pophale) SiO2 
 PCOD8054940
Probable space group: C C
;
_chemical_formula_sum "Si O2"
_cell_formula_units_Z 28
_cell_length_a 8.090711
_cell_length_b 28.888291
_cell_length_c 5.626051
_cell_angle_alpha 90.000000
_cell_angle_beta 62.153831
_cell_angle_gamma 90.000000
_cell_volume 1162.693133
_symmetry_space_group_name_H-M "C C"
_symmetry_group_IT_number 9
_symmetry_cell_setting 'monoclinic'
loop_
_space_group_symop_operation_xyz
x,y,z
x,-y,1/2+z
1/2+x,1/2+y,z
1/2+x,1/2-y,1/2+z
loop_
_atom_site_type_symbol
_atom_site_label
_atom_site_fract_x
_atom_site_fract_y
_atom_site_fract_z
Si Si1 0.868620 0.304926 0.504950
Si Si2 0.887806 0.879735 0.219110
Si Si3 0.329661 0.013197 0.824125
Si Si4 0.760145 0.200005 0.511397
Si Si5 0.257537 0.884821 0.280922
Si Si6 0.420325 0.478735 0.057164
Si Si7 0.075260 0.651032 0.254513
O O1 0.791229 0.253856 0.524959
O O2 0.727767 0.343313 0.492389
O O3 0.055432 0.311849 0.235320
O O4 0.917623 0.315243 0.744956
O O5 0.908216 0.832018 0.052949
O O6 0.869654 0.924486 0.062253
O O7 0.691817 0.880466 0.494465
O O8 0.072771 0.884875 0.248409
O O9 0.274075 0.066519 0.903811
O O10 0.436792 0.004308 0.495121
O O11 0.143198 0.982841 0.919600
O O12 0.741493 0.183627 0.251707
O O13 0.453886 0.881184 0.007875
O O14 0.339697 0.497462 0.368585
#
# Coordination Sequence:
#
# PCOD8054940 Si02
#       7
#     4   4   4   4   4   4   4
#     4  10  25  43  66 100 134 178 236 290 354 425
#     4  11  24  42  72  98 135 189 227 294 357 419
#     4  10  21  40  67 106 141 179 243 291 352 433
#     4  10  25  43  66 100 134 178 236 290 354 425
#     4  11  24  42  72  98 135 189 227 294 357 419
#     4  10  21  40  67 106 141 179 243 291 352 433
#     4  10  26  44  62  98 142 172 238 286 354 426
#
# _framework density 24.082018999999999
#
# number of rings (size 3 to 8) (size 9 to 14) (size 15 to 20)
#    0.000    1.714    2.857    0.000   10.000    2.286 
#    0.000    1.429    0.000    0.000    0.000    0.000 
#    0.000    0.000    0.000    0.000    0.000    0.000 
#
# Total GULP energy -173450.501627 kJ/mol
# GULP energy per Si atom -12389.321545 kJ/mol
# Density = 2.402721 g / cm^3
# Si number density = 24.082019 Si / 1000 Ang^3
#
#
#
# Elastic Constant Matrix: (Units=GPa)
#
#
# Indices 1 2 3 4 5 6 
#
# 1 78.3073 30.4992 24.8137 0.0000 12.0438 0.0000
# 2 30.4992 156.6421 27.7910 0.0000 19.1389 0.0000
# 3 24.8137 27.7910 90.0470 0.0000 29.8319 0.0000
# 4 0.0000 0.0000 0.0000 34.5508 0.0000 3.8241
# 5 12.0438 19.1389 29.8319 0.0000 33.1409 0.0000
# 6 0.0000 0.0000 0.0000 3.8241 0.0000 24.1503
#
#
#
# Elastic Compliance Matrix: (Units=1/GPa)
#
#
# Indices 1 2 3 4 5 6 
#
# 1 0.014768 -0.002178 -0.002901 0.000000 -0.001498 0.000000
# 2 -0.002178 0.007274 -0.000734 0.000000 -0.002748 0.000000
# 3 -0.002901 -0.000734 0.016589 0.000000 -0.013454 0.000000
# 4 0.000000 0.000000 0.000000 0.029459 0.000000 -0.004665
# 5 -0.001498 -0.002748 -0.013454 0.000000 0.044416 0.000000
# 6 0.000000 0.000000 0.000000 -0.004665 0.000000 0.042146
#
#
# Mechanical properties :
#
#
# Convention : Reuss Voigt Hill
#
# Bulk Modulus (GPa) = 37.03159 54.57826 45.80492
# Shear Modulus (GPa) = 28.52576 34.49457 31.51016
#
# Velocity S-wave (km/s) = 3.44543 3.78878 3.62118
# Velocity P-wave (km/s) = 5.58915 6.46935 6.04529
#
# Compressibility (1/GPa) = 0.02700397
#
# Stress axis : x y z
#
# Youngs Moduli (GPa) = 67.71368 137.47442 60.28232
#
# Poissons Ratio (x) = 0.29938 0.17490
# Poissons Ratio (y) = 0.14746 0.04427
# Poissons Ratio (z) = 0.19646 0.10096
#
# Static dielectric constant tensor:
#      x y z
#    x 4.782400 0.000000 0.742790 
#    y 0.000000 2.789710 0.000000 
#    z 0.742790 0.000000 5.080600 
# 
# 
# High freq. dielectric constant tensor:
#      x y z
#    x 1.945940 0.000000 0.014560 
#    y 0.000000 1.960470 0.000000 
#    z 0.014560 0.000000 1.956150 
# 
# From -- ./inp_files/1173.got.cif
#   From: 2010.06.25/outbox.cif.g09.slc.cpg/sg9_1_cif.got.tgz:1173.got - 2010.06.27 21:40:51.
