data_PCOD8054188
_publ_section_title
;
Structure prediction by ZEFSAII (Michael W. Deem and Ramdas Pophale) SiO2 
 PCOD8054188
Probable space group: C C
;
_chemical_formula_sum "Si O2"
_cell_formula_units_Z 32
_cell_length_a 22.525667
_cell_length_b 10.650535
_cell_length_c 7.813713
_cell_angle_alpha 90.000000
_cell_angle_beta 115.586466
_cell_angle_gamma 90.000000
_cell_volume 1690.758463
_symmetry_space_group_name_H-M "C C"
_symmetry_group_IT_number 9
_symmetry_cell_setting 'monoclinic'
loop_
_space_group_symop_operation_xyz
x,y,z
x,-y,1/2+z
1/2+x,1/2+y,z
1/2+x,1/2-y,1/2+z
loop_
_atom_site_type_symbol
_atom_site_label
_atom_site_fract_x
_atom_site_fract_y
_atom_site_fract_z
Si Si1 0.638120 0.828133 0.987830
Si Si2 0.242403 0.841459 0.482578
Si Si3 0.987322 0.355602 0.796685
Si Si4 0.900253 0.267078 0.385584
Si Si5 0.941026 0.613892 0.620352
Si Si6 0.702907 0.063740 0.887280
Si Si7 0.282701 0.378641 0.798778
Si Si8 0.813148 0.496413 0.841048
O O1 0.670564 0.697287 0.961739
O O2 0.561036 0.804553 0.879578
O O3 0.659451 0.946389 0.898257
O O4 0.658016 0.849562 0.210799
O O5 0.274127 0.718230 0.441648
O O6 0.292626 0.884781 0.691387
O O7 0.245389 0.956860 0.350874
O O8 0.943787 0.273930 0.611476
O O9 0.988365 0.501194 0.741688
O O10 0.960496 0.338429 0.956395
O O11 0.945653 0.276045 0.270382
O O12 0.858649 0.136384 0.332186
O O13 0.848292 0.381633 0.304567
O O14 0.866248 0.563843 0.534288
O O15 0.766170 0.015733 0.855236
O O16 0.731281 0.146256 0.078832
#
# Coordination Sequence:
#
# PCOD8054188 Si02
#       8
#     4   4   4   4   4   4   4   4
#     4  10  21  35  52  78 112 151 179 221 265 339
#     4  10  20  31  55  80 113 146 173 228 280 333
#     4  11  20  33  50  81 115 144 181 215 279 337
#     4  10  20  33  55  83 113 138 176 235 280 338
#     4  11  18  30  53  81 109 146 166 233 288 320
#     4   9  19  36  54  75 110 144 185 225 268 325
#     4   9  19  35  52  83 105 142 184 226 285 325
#     4  10  17  33  51  83 113 133 176 227 287 327
#
# _framework density 18.926418000000002
#
# number of rings (size 3 to 8) (size 9 to 14) (size 15 to 20)
#    0.000    2.000    3.750    2.250    1.750    0.000 
#    4.500    0.000    0.000    1.500    0.000    0.000 
#    0.000    0.000    0.000    0.000    0.000    0.000 
#
# Total GULP energy -198217.191157 kJ/mol
# GULP energy per Si atom -12388.574447 kJ/mol
# Density = 1.888334 g / cm^3
# Si number density = 18.926418 Si / 1000 Ang^3
#
#
#
# Elastic Constant Matrix: (Units=GPa)
#
#
# Indices 1 2 3 4 5 6 
#
# 1 102.4358 29.7499 62.1775 0.0000 3.8314 0.0000
# 2 29.7499 31.0030 32.6395 0.0000 8.1597 0.0000
# 3 62.1775 32.6395 101.3622 0.0000 -7.5370 0.0000
# 4 0.0000 0.0000 0.0000 21.9354 0.0000 2.6421
# 5 3.8314 8.1597 -7.5370 0.0000 34.7090 0.0000
# 6 0.0000 0.0000 0.0000 2.6421 0.0000 29.2580
#
#
#
# Elastic Compliance Matrix: (Units=1/GPa)
#
#
# Indices 1 2 3 4 5 6 
#
# 1 0.016873 -0.006968 -0.008257 0.000000 -0.002017 0.000000
# 2 -0.006968 0.060980 -0.016640 0.000000 -0.017180 0.000000
# 3 -0.008257 -0.016640 0.020986 0.000000 0.009380 0.000000
# 4 0.000000 0.000000 0.000000 0.046090 0.000000 -0.004162
# 5 -0.002017 -0.017180 0.009380 0.000000 0.035109 0.000000
# 6 0.000000 0.000000 0.000000 -0.004162 0.000000 0.034555
#
#
# Mechanical properties :
#
#
# Convention : Reuss Voigt Hill
#
# Bulk Modulus (GPa) = 28.48048 53.77053 41.12550
# Shear Modulus (GPa) = 17.23993 24.52942 20.88467
#
# Velocity S-wave (km/s) = 3.02137 3.60396 3.32545
# Velocity P-wave (km/s) = 5.22037 6.76683 6.04327
#
# Compressibility (1/GPa) = 0.03511177
#
# Stress axis : x y z
#
# Youngs Moduli (GPa) = 59.26671 16.39869 47.65090
#
# Poissons Ratio (x) = 0.11426 0.39343
# Poissons Ratio (y) = 0.41294 0.79290
# Poissons Ratio (z) = 0.48934 0.27287
#
# Static dielectric constant tensor:
#      x y z
#    x 3.691700 0.000000 -0.275400 
#    y 0.000000 3.240330 0.000000 
#    z -0.275400 0.000000 3.565840 
# 
# 
# High freq. dielectric constant tensor:
#      x y z
#    x 1.726440 0.000000 -0.024160 
#    y 0.000000 1.682840 0.000000 
#    z -0.024160 0.000000 1.746160 
# 
# From -- ./inp_files/10654.got.cif
#   From: 2010.06.25/outbox.cif.g09.slc.cpg/sg9_6_cif.got.tgz:10654.got - 2010.06.27 21:40:51.
