data_PCOD8054988
_publ_section_title
;
Structure prediction by ZEFSAII (Michael W. Deem and Ramdas Pophale) SiO2 
 PCOD8054988
Probable space group: C C
;
_chemical_formula_sum "Si O2"
_cell_formula_units_Z 32
_cell_length_a 18.819194
_cell_length_b 13.673324
_cell_length_c 12.721047
_cell_angle_alpha 90.000000
_cell_angle_beta 26.282111
_cell_angle_gamma 90.000000
_cell_volume 1449.429271
_symmetry_space_group_name_H-M "C C"
_symmetry_group_IT_number 9
_symmetry_cell_setting 'monoclinic'
loop_
_space_group_symop_operation_xyz
x,y,z
x,-y,1/2+z
1/2+x,1/2+y,z
1/2+x,1/2-y,1/2+z
loop_
_atom_site_type_symbol
_atom_site_label
_atom_site_fract_x
_atom_site_fract_y
_atom_site_fract_z
Si Si1 0.914180 0.439058 0.354350
Si Si2 0.010428 0.574381 0.391848
Si Si3 0.007037 0.143691 0.966774
Si Si4 0.604323 0.426684 0.895174
Si Si5 0.644822 0.824857 0.900356
Si Si6 0.367270 0.732635 0.742777
Si Si7 0.811719 0.555981 0.298254
Si Si8 0.521143 0.255699 0.246281
O O1 0.769606 0.395718 0.616929
O O2 0.821309 0.517435 0.403784
O O3 0.047943 0.494865 0.250155
O O4 0.007956 0.356765 0.165384
O O5 0.148653 0.601205 0.293420
O O6 0.946380 0.672045 0.420604
O O7 0.863875 0.530506 0.651646
O O8 0.817648 0.169695 0.224990
O O9 0.101021 0.215337 0.921819
O O10 0.067196 0.156342 0.765615
O O11 0.036371 0.032371 0.958432
O O12 0.635479 0.418146 0.981800
O O13 0.471381 0.345579 0.039312
O O14 0.418174 0.844389 0.648119
O O15 0.385977 0.714014 0.843066
O O16 0.177764 0.716562 0.975157
#
# Coordination Sequence:
#
# PCOD8054988 Si02
#       8
#     4   4   4   4   4   4   4   4
#     4  10  21  43  68  95 136 183 212 280 354 403
#     4   9  20  37  69  92 124 171 227 262 337 396
#     4  11  25  45  69 103 135 175 238 286 332 412
#     4  11  26  42  66 101 137 176 233 281 341 409
#     4  10  24  43  70 102 135 177 228 288 336 409
#     4  12  23  40  63 100 131 170 219 281 333 398
#     4  10  21  41  67  93 131 175 216 277 336 402
#     4  11  22  39  68  94 129 173 219 279 335 389
#
# _framework density 22.077653999999999
#
# number of rings (size 3 to 8) (size 9 to 14) (size 15 to 20)
#    0.000    1.500    2.500    2.250   12.250    0.000 
#    4.500    0.000    0.000    0.000    0.000    0.000 
#    0.000    0.000    0.000    0.000    0.000    0.000 
#
# Total GULP energy -198213.157080 kJ/mol
# GULP energy per Si atom -12388.322317 kJ/mol
# Density = 2.202740 g / cm^3
# Si number density = 22.077654 Si / 1000 Ang^3
#
#
#
# Elastic Constant Matrix: (Units=GPa)
#
#
# Indices 1 2 3 4 5 6 
#
# 1 75.5471 18.5658 16.9097 -0.0001 1.8484 0.0001
# 2 18.5658 95.5765 29.4523 -0.0001 -2.0796 0.0001
# 3 16.9097 29.4523 91.3049 -0.0003 -9.1107 0.0002
# 4 -0.0001 -0.0001 -0.0003 27.1610 0.0001 -5.7509
# 5 1.8484 -2.0796 -9.1107 0.0001 31.0256 -0.0001
# 6 0.0001 0.0001 0.0002 -5.7509 -0.0001 31.5713
#
#
#
# Elastic Compliance Matrix: (Units=1/GPa)
#
#
# Indices 1 2 3 4 5 6 
#
# 1 0.014279 -0.002159 -0.002109 0.000000 -0.001615 0.000000
# 2 -0.002159 0.011947 -0.003463 0.000000 -0.000087 0.000000
# 3 -0.002109 -0.003463 0.012825 0.000000 0.003660 0.000000
# 4 0.000000 0.000000 0.000000 0.038294 0.000000 0.006976
# 5 -0.001615 -0.000087 0.003660 0.000000 0.033396 0.000000
# 6 0.000000 0.000000 0.000000 0.006976 0.000000 0.032945
#
#
# Mechanical properties :
#
#
# Convention : Reuss Voigt Hill
#
# Bulk Modulus (GPa) = 42.39138 43.58714 42.98926
# Shear Modulus (GPa) = 29.93795 31.11829 30.52812
#
# Velocity S-wave (km/s) = 3.68643 3.75839 3.72258
# Velocity P-wave (km/s) = 6.11248 6.21446 6.16368
#
# Compressibility (1/GPa) = 0.02358970
#
# Stress axis : x y z
#
# Youngs Moduli (GPa) = 70.03322 83.70058 77.97214
#
# Poissons Ratio (x) = 0.18070 0.16446
# Poissons Ratio (y) = 0.15119 0.27000
# Poissons Ratio (z) = 0.14771 0.28984
#
# Static dielectric constant tensor:
#      x y z
#    x 4.329980 0.000000 0.082780 
#    y 0.000000 4.074010 0.000000 
#    z 0.082780 0.000000 3.757370 
# 
# 
# High freq. dielectric constant tensor:
#      x y z
#    x 1.880080 0.000000 0.000160 
#    y 0.000000 1.870960 0.000000 
#    z 0.000160 0.000000 1.844870 
# 
# From -- ./inp_files/19386.got.cif
#   From: 2010.06.25/outbox.cif.g09.slc.cpg/sg9_10_cif.got.tgz:19386.got - 2010.06.27 21:40:51.
