data_PCOD8054499
_publ_section_title
;
Structure prediction by ZEFSAII (Michael W. Deem and Ramdas Pophale) SiO2 
 PCOD8054499
Probable space group: C C
;
_chemical_formula_sum "Si O2"
_cell_formula_units_Z 32
_cell_length_a 25.862587
_cell_length_b 9.566039
_cell_length_c 8.440997
_cell_angle_alpha 90.000000
_cell_angle_beta 42.756096
_cell_angle_gamma 90.000000
_cell_volume 1417.718966
_symmetry_space_group_name_H-M "C C"
_symmetry_group_IT_number 9
_symmetry_cell_setting 'monoclinic'
loop_
_space_group_symop_operation_xyz
x,y,z
x,-y,1/2+z
1/2+x,1/2+y,z
1/2+x,1/2-y,1/2+z
loop_
_atom_site_type_symbol
_atom_site_label
_atom_site_fract_x
_atom_site_fract_y
_atom_site_fract_z
Si Si1 0.179390 0.940628 0.767190
Si Si2 0.667858 0.889392 0.733398
Si Si3 0.997591 0.337377 0.059151
Si Si4 0.151554 0.679487 0.640528
Si Si5 0.918954 0.438655 0.537383
Si Si6 0.011171 0.049955 0.161917
Si Si7 0.754639 0.647965 0.403981
Si Si8 0.988898 0.795749 0.035723
O O1 0.192973 0.820497 0.604162
O O2 0.190425 0.882999 0.917701
O O3 0.242525 0.056441 0.588423
O O4 0.099610 0.020158 0.931572
O O5 0.739118 0.808375 0.490460
O O6 0.685709 0.052663 0.667997
O O7 0.587497 0.859941 0.823179
O O8 0.662035 0.846629 0.930374
O O9 0.982187 0.407757 0.263888
O O10 0.982247 0.170789 0.105227
O O11 0.940524 0.407798 0.057686
O O12 0.063830 0.701178 0.887238
O O13 0.835942 0.404002 0.652200
O O14 0.923240 0.320168 0.666897
O O15 0.996488 0.098216 0.371826
O O16 0.969722 0.899943 0.224722
#
# Coordination Sequence:
#
# PCOD8054499 Si02
#       8
#     4   4   4   4   4   4   4   4
#     4  11  22  39  63  95 128 169 214 267 331 384
#     4  12  21  41  63 100 126 170 221 274 321 387
#     4  11  21  41  64  92 128 166 218 266 322 386
#     4  11  22  38  66  95 125 163 218 275 319 383
#     4  11  24  41  63  93 131 171 212 268 332 397
#     4  10  20  35  62  89 119 154 212 267 306 372
#     4  12  24  41  64  94 135 173 216 271 335 394
#     4  10  20  38  57  90 120 160 209 262 320 377
#
# _framework density 22.571469
#
# number of rings (size 3 to 8) (size 9 to 14) (size 15 to 20)
#    0.000    1.000    5.000    3.750    0.000    1.000 
#    0.000    6.250    0.000    0.000    0.000    0.000 
#    0.000    0.000    0.000    0.000    0.000    0.000 
#
# Total GULP energy -198255.981748 kJ/mol
# GULP energy per Si atom -12390.998859 kJ/mol
# Density = 2.252010 g / cm^3
# Si number density = 22.571469 Si / 1000 Ang^3
#
#
#
# Elastic Constant Matrix: (Units=GPa)
#
#
# Indices 1 2 3 4 5 6 
#
# 1 69.1823 40.9306 15.3419 0.0000 -1.1503 0.0000
# 2 40.9306 115.3198 14.8436 0.0000 4.1445 0.0000
# 3 15.3419 14.8436 37.0162 0.0000 -0.7391 0.0000
# 4 0.0000 0.0000 0.0000 31.8234 0.0000 5.4763
# 5 -1.1503 4.1445 -0.7391 0.0000 26.3072 0.0000
# 6 0.0000 0.0000 0.0000 5.4763 0.0000 44.7158
#
#
#
# Elastic Compliance Matrix: (Units=1/GPa)
#
#
# Indices 1 2 3 4 5 6 
#
# 1 0.019391 -0.006234 -0.005504 0.000000 0.001675 0.000000
# 2 -0.006234 0.011211 -0.001953 0.000000 -0.002094 0.000000
# 3 -0.005504 -0.001953 0.030098 0.000000 0.000913 0.000000
# 4 0.000000 0.000000 0.000000 0.032100 0.000000 -0.003931
# 5 0.001675 -0.002094 0.000913 0.000000 0.038441 0.000000
# 6 0.000000 0.000000 0.000000 -0.003931 0.000000 0.022845
#
#
# Mechanical properties :
#
#
# Convention : Reuss Voigt Hill
#
# Bulk Modulus (GPa) = 30.01450 40.41672 35.21561
# Shear Modulus (GPa) = 25.96391 30.59609 28.28000
#
# Velocity S-wave (km/s) = 3.39528 3.68573 3.54349
# Velocity P-wave (km/s) = 5.35696 6.00482 5.69012
#
# Compressibility (1/GPa) = 0.03331723
#
# Stress axis : x y z
#
# Youngs Moduli (GPa) = 51.56922 89.19787 33.22500
#
# Poissons Ratio (x) = 0.55610 0.18286
# Poissons Ratio (y) = 0.32150 0.06490
# Poissons Ratio (z) = 0.28382 0.17425
#
# Static dielectric constant tensor:
#      x y z
#    x 3.916100 0.000000 0.122990 
#    y 0.000000 4.588400 0.000000 
#    z 0.122990 0.000000 3.698590 
# 
# 
# High freq. dielectric constant tensor:
#      x y z
#    x 1.867830 0.000000 0.020940 
#    y 0.000000 1.912180 0.000000 
#    z 0.020940 0.000000 1.860520 
# 
# From -- ./inp_files/12373.got.cif
#   From: 2010.06.25/outbox.cif.g09.slc.cpg/sg9_7_cif.got.tgz:12373.got - 2010.06.27 21:40:51.
