data_PCOD8054641
_publ_section_title
;
Structure prediction by ZEFSAII (Michael W. Deem and Ramdas Pophale) SiO2 
 PCOD8054641
Probable space group: C C
;
_chemical_formula_sum "Si O2"
_cell_formula_units_Z 20
_cell_length_a 7.718044
_cell_length_b 10.441803
_cell_length_c 16.531221
_cell_angle_alpha 90.000000
_cell_angle_beta 130.644021
_cell_angle_gamma 90.000000
_cell_volume 1010.877315
_symmetry_space_group_name_H-M "C C"
_symmetry_group_IT_number 9
_symmetry_cell_setting 'monoclinic'
loop_
_space_group_symop_operation_xyz
x,y,z
x,-y,1/2+z
1/2+x,1/2+y,z
1/2+x,1/2-y,1/2+z
loop_
_atom_site_type_symbol
_atom_site_label
_atom_site_fract_x
_atom_site_fract_y
_atom_site_fract_z
Si Si1 0.118040 0.806652 0.958410
Si Si2 0.108305 0.605008 0.586054
Si Si3 0.981872 0.463636 0.398065
Si Si4 0.728017 0.791206 0.961428
Si Si5 0.519226 0.545544 0.821043
O O1 0.087850 0.671304 0.901511
O O2 0.981316 0.794713 0.001275
O O3 0.009838 0.917102 0.870719
O O4 0.385028 0.828426 0.057413
O O5 0.027792 0.480982 0.509725
O O6 0.236943 0.701694 0.562255
O O7 0.270383 0.564180 0.707867
O O8 0.093601 0.583184 0.384839
O O9 0.706130 0.466085 0.305334
O O10 0.582080 0.667241 0.894790
#
# Coordination Sequence:
#
# PCOD8054641 Si02
#       5
#     4   4   4   4   4
#     4  10  20  40  59  83 117 151 198 235 285 344
#     4   9  21  40  60  83 124 151 186 244 290 331
#     4   8  20  40  56  82 120 148 189 242 278 340
#     4   9  21  40  58  82 122 149 191 239 284 342
#     4  10  20  40  61  86 117 155 192 238 285 345
#
# _framework density 19.784794000000002
#
# number of rings (size 3 to 8) (size 9 to 14) (size 15 to 20)
#    1.200    1.600    0.000    0.000    2.800    1.600 
#   25.200    0.000    0.000    0.000    0.000    0.000 
#    0.000    0.000    0.000    0.000    0.000    0.000 
#
# Total GULP energy -123892.719746 kJ/mol
# GULP energy per Si atom -12389.271975 kJ/mol
# Density = 1.973976 g / cm^3
# Si number density = 19.784794 Si / 1000 Ang^3
#
#
#
# Elastic Constant Matrix: (Units=GPa)
#
#
# Indices 1 2 3 4 5 6 
#
# 1 90.2667 22.8616 20.4813 0.0000 16.1247 0.0000
# 2 22.8616 137.5626 6.5914 0.0000 1.9021 0.0000
# 3 20.4813 6.5914 57.7503 0.0000 12.6788 0.0000
# 4 0.0000 0.0000 0.0000 18.7434 0.0000 1.8811
# 5 16.1247 1.9021 12.6788 0.0000 24.9436 0.0000
# 6 0.0000 0.0000 0.0000 1.8811 0.0000 25.3114
#
#
#
# Elastic Compliance Matrix: (Units=1/GPa)
#
#
# Indices 1 2 3 4 5 6 
#
# 1 0.013533 -0.002007 -0.003021 0.000000 -0.007060 0.000000
# 2 -0.002007 0.007607 -0.000353 0.000000 0.000897 0.000000
# 3 -0.003021 -0.000353 0.020253 0.000000 -0.008315 0.000000
# 4 0.000000 0.000000 0.000000 0.053753 0.000000 -0.003995
# 5 -0.007060 0.000897 -0.008315 0.000000 0.048813 0.000000
# 6 0.000000 0.000000 0.000000 -0.003995 0.000000 0.039805
#
#
# Mechanical properties :
#
#
# Convention : Reuss Voigt Hill
#
# Bulk Modulus (GPa) = 32.64550 42.82760 37.73655
# Shear Modulus (GPa) = 24.42172 29.50937 26.96554
#
# Velocity S-wave (km/s) = 3.51717 3.86621 3.69581
# Velocity P-wave (km/s) = 5.74718 6.45165 6.10958
#
# Compressibility (1/GPa) = 0.03063209
#
# Stress axis : x y z
#
# Youngs Moduli (GPa) = 73.89339 131.45009 49.37534
#
# Poissons Ratio (x) = 0.26378 0.14914
# Poissons Ratio (y) = 0.14828 0.01745
# Poissons Ratio (z) = 0.22320 0.04647
#
# Static dielectric constant tensor:
#      x y z
#    x 3.542280 0.000000 0.248600 
#    y 0.000000 3.726340 0.000000 
#    z 0.248600 0.000000 3.054450 
# 
# 
# High freq. dielectric constant tensor:
#      x y z
#    x 1.772820 0.000000 0.026350 
#    y 0.000000 1.785370 0.000000 
#    z 0.026350 0.000000 1.724130 
# 
# From -- ./inp_files/13995.got.cif
#   From: 2010.06.25/outbox.cif.g09.slc.cpg/sg9_7_cif.got.tgz:13995.got - 2010.06.27 21:40:51.
