data_PCOD8054768
_publ_section_title
;
Structure prediction by ZEFSAII (Michael W. Deem and Ramdas Pophale) SiO2 
 PCOD8054768
Probable space group: C C
;
_chemical_formula_sum "Si O2"
_cell_formula_units_Z 32
_cell_length_a 10.780242
_cell_length_b 19.555274
_cell_length_c 8.783724
_cell_angle_alpha 90.000000
_cell_angle_beta 123.713934
_cell_angle_gamma 90.000000
_cell_volume 1540.281211
_symmetry_space_group_name_H-M "C C"
_symmetry_group_IT_number 9
_symmetry_cell_setting 'monoclinic'
loop_
_space_group_symop_operation_xyz
x,y,z
x,-y,1/2+z
1/2+x,1/2+y,z
1/2+x,1/2-y,1/2+z
loop_
_atom_site_type_symbol
_atom_site_label
_atom_site_fract_x
_atom_site_fract_y
_atom_site_fract_z
Si Si1 0.855890 0.839531 0.100340
Si Si2 0.292647 0.564785 0.814751
Si Si3 0.115664 0.523851 0.966779
Si Si4 0.433655 0.944983 0.619494
Si Si5 0.018587 0.959512 0.051687
Si Si6 0.698929 0.545501 0.387968
Si Si7 0.789415 0.660658 0.218437
Si Si8 0.073967 0.255526 0.901086
O O1 0.815566 0.863214 0.245791
O O2 0.898768 0.904265 0.027043
O O3 0.998910 0.788860 0.212879
O O4 0.708795 0.803414 0.927458
O O5 0.181429 0.574815 0.882574
O O6 0.241357 0.506445 0.661964
O O7 0.447694 0.534849 0.981830
O O8 0.049467 0.456472 0.837397
O O9 0.002992 0.566258 0.998604
O O10 0.332410 0.879943 0.592636
O O11 0.349093 0.017935 0.567316
O O12 0.144297 0.977071 0.261416
O O13 0.085399 0.930456 0.940951
O O14 0.733719 0.610317 0.309753
O O15 0.936718 0.700768 0.378100
O O16 0.650599 0.709705 0.084283
#
# Coordination Sequence:
#
# PCOD8054768 Si02
#       8
#     4   4   4   4   4   4   4   4
#     4  11  22  42  66  87 129 168 219 250 306 388
#     4  11  20  36  61  93 128 152 197 263 331 373
#     4  10  21  32  56 100 122 151 186 258 344 366
#     4  11  20  36  61  93 128 152 197 263 331 373
#     4  12  22  37  63 100 128 158 199 267 335 374
#     4  12  22  37  63 100 128 158 199 267 335 374
#     4  11  22  42  66  87 129 168 219 250 306 388
#     4  10  25  42  64  84 120 191 216 242 296 374
#
# _framework density 20.775427000000001
#
# number of rings (size 3 to 8) (size 9 to 14) (size 15 to 20)
#    0.000    1.000    5.000    2.250    3.500    0.000 
#    0.000    1.250   11.000    0.000    0.000    0.000 
#    0.000    0.000    0.000    0.000    0.000    0.000 
#
# Total GULP energy -198340.889759 kJ/mol
# GULP energy per Si atom -12396.305610 kJ/mol
# Density = 2.072814 g / cm^3
# Si number density = 20.775427 Si / 1000 Ang^3
#
#
#
# Elastic Constant Matrix: (Units=GPa)
#
#
# Indices 1 2 3 4 5 6 
#
# 1 134.1917 43.6381 48.4217 0.0000 -19.4886 0.0000
# 2 43.6381 78.6182 24.6264 0.0000 -5.6258 0.0000
# 3 48.4217 24.6264 71.3721 0.0000 -4.6114 0.0000
# 4 0.0000 0.0000 0.0000 24.3252 0.0000 7.4160
# 5 -19.4886 -5.6258 -4.6114 0.0000 46.3212 0.0000
# 6 0.0000 0.0000 0.0000 7.4160 0.0000 37.0292
#
#
#
# Elastic Compliance Matrix: (Units=1/GPa)
#
#
# Indices 1 2 3 4 5 6 
#
# 1 0.011600 -0.004239 -0.006165 0.000000 0.003752 0.000000
# 2 -0.004239 0.015883 -0.002612 0.000000 -0.000115 0.000000
# 3 -0.006165 -0.002612 0.019029 0.000000 -0.001016 0.000000
# 4 0.000000 0.000000 0.000000 0.043783 0.000000 -0.008769
# 5 0.003752 -0.000115 -0.001016 0.000000 0.023052 0.000000
# 6 0.000000 0.000000 0.000000 -0.008769 0.000000 0.028762
#
#
# Mechanical properties :
#
#
# Convention : Reuss Voigt Hill
#
# Bulk Modulus (GPa) = 48.82701 57.50605 53.16653
# Shear Modulus (GPa) = 28.57703 32.70151 30.63927
#
# Velocity S-wave (km/s) = 3.71282 3.97173 3.84446
# Velocity P-wave (km/s) = 6.47560 6.98375 6.73447
#
# Compressibility (1/GPa) = 0.02048047
#
# Stress axis : x y z
#
# Youngs Moduli (GPa) = 86.20731 62.96217 52.55162
#
# Poissons Ratio (x) = 0.26691 0.32397
# Poissons Ratio (y) = 0.36545 0.13724
# Poissons Ratio (z) = 0.53145 0.16443
#
# Static dielectric constant tensor:
#      x y z
#    x 3.943420 0.000000 0.142280 
#    y 0.000000 3.621800 0.000000 
#    z 0.142280 0.000000 3.784270 
# 
# 
# High freq. dielectric constant tensor:
#      x y z
#    x 1.820330 0.000000 0.021340 
#    y 0.000000 1.788520 0.000000 
#    z 0.021340 0.000000 1.814360 
# 
# From -- ./inp_files/8304.got.cif
#   From: 2010.06.25/outbox.cif.g09.slc.cpg/sg9_5_cif.got.tgz:8304.got - 2010.06.27 21:40:51.
