data_PCOD8054672
_publ_section_title
;
Structure prediction by ZEFSAII (Michael W. Deem and Ramdas Pophale) SiO2 
 PCOD8054672
Probable space group: C C
;
_chemical_formula_sum "Si O2"
_cell_formula_units_Z 32
_cell_length_a 11.500495
_cell_length_b 16.822799
_cell_length_c 7.871190
_cell_angle_alpha 90.000000
_cell_angle_beta 113.127665
_cell_angle_gamma 90.000000
_cell_volume 1400.455255
_symmetry_space_group_name_H-M "C C"
_symmetry_group_IT_number 9
_symmetry_cell_setting 'monoclinic'
loop_
_space_group_symop_operation_xyz
x,y,z
x,-y,1/2+z
1/2+x,1/2+y,z
1/2+x,1/2-y,1/2+z
loop_
_atom_site_type_symbol
_atom_site_label
_atom_site_fract_x
_atom_site_fract_y
_atom_site_fract_z
Si Si1 0.097130 0.928827 0.356400
Si Si2 0.554164 0.732662 0.016282
Si Si3 0.995524 0.525230 0.650030
Si Si4 0.217089 0.405493 0.472615
Si Si5 0.821104 0.052619 0.676383
Si Si6 0.757906 0.741223 0.429333
Si Si7 0.590277 0.887316 0.874871
Si Si8 0.724875 0.426094 0.088500
O O1 0.087639 0.856747 0.483813
O O2 0.202894 0.910282 0.275457
O O3 0.962252 0.938279 0.188331
O O4 0.119471 0.012376 0.463488
O O5 0.663632 0.755654 0.214685
O O6 0.408984 0.748291 0.989442
O O7 0.566337 0.792963 0.862299
O O8 0.853978 0.527479 0.634934
O O9 0.076378 0.568540 0.842663
O O10 0.041443 0.431318 0.674277
O O11 0.011288 0.569379 0.481527
O O12 0.274564 0.460705 0.653421
O O13 0.306784 0.412059 0.356227
O O14 0.220756 0.313560 0.535734
O O15 0.738469 0.098940 0.489208
O O16 0.722902 0.656821 0.488252
#
# Coordination Sequence:
#
# PCOD8054672 Si02
#       8
#     4   4   4   4   4   4   4   4
#     4  12  26  43  67 103 143 183 233 288 366 421
#     4  12  24  46  70 100 138 188 234 292 354 420
#     4  10  20  41  62  95 125 176 227 278 337 415
#     4  10  20  40  69  89 129 175 233 278 341 406
#     4  10  20  41  62  95 125 176 227 278 337 415
#     4  12  24  46  70 100 138 188 234 292 354 420
#     4  10  20  40  69  89 129 175 233 278 341 406
#     4  12  26  43  67 103 143 183 233 288 366 421
#
# _framework density 22.849715
#
# number of rings (size 3 to 8) (size 9 to 14) (size 15 to 20)
#    0.000    1.000    5.000    2.250    3.500    0.000 
#    9.000    2.500    0.000    0.000    0.000    0.000 
#    0.000    0.000    0.000    0.000    0.000    0.000 
#
# Total GULP energy -198252.730548 kJ/mol
# GULP energy per Si atom -12390.795659 kJ/mol
# Density = 2.279771 g / cm^3
# Si number density = 22.849715 Si / 1000 Ang^3
#
#
#
# Elastic Constant Matrix: (Units=GPa)
#
#
# Indices 1 2 3 4 5 6 
#
# 1 63.3137 -5.6224 8.9438 0.0000 22.5547 0.0000
# 2 -5.6224 173.1150 6.1851 0.0000 4.5662 0.0000
# 3 8.9438 6.1851 41.1397 0.0000 5.9475 0.0000
# 4 0.0000 0.0000 0.0000 22.9723 0.0000 -9.9965
# 5 22.5547 4.5662 5.9475 0.0000 36.3337 0.0000
# 6 0.0000 0.0000 0.0000 -9.9965 0.0000 33.7775
#
#
#
# Elastic Compliance Matrix: (Units=1/GPa)
#
#
# Indices 1 2 3 4 5 6 
#
# 1 0.020774 0.001109 -0.002866 0.000000 -0.012566 0.000000
# 2 0.001109 0.005880 -0.000941 0.000000 -0.001273 0.000000
# 3 -0.002866 -0.000941 0.025399 0.000000 -0.002260 0.000000
# 4 0.000000 0.000000 0.000000 0.049965 0.000000 0.014787
# 5 -0.012566 -0.001273 -0.002260 0.000000 0.035853 0.000000
# 6 0.000000 0.000000 0.000000 0.014787 0.000000 0.033982
#
#
# Mechanical properties :
#
#
# Convention : Reuss Voigt Hill
#
# Bulk Modulus (GPa) = 21.43384 32.95350 27.19367
# Shear Modulus (GPa) = 25.93330 36.48749 31.21039
#
# Velocity S-wave (km/s) = 3.37256 4.00039 3.69982
# Velocity P-wave (km/s) = 4.95643 5.98253 5.49349
#
# Compressibility (1/GPa) = 0.04665520
#
# Stress axis : x y z
#
# Youngs Moduli (GPa) = 48.13658 170.07639 39.37202
#
# Poissons Ratio (x) = -0.18854 0.11285
# Poissons Ratio (y) = -0.05336 0.03705
# Poissons Ratio (z) = 0.13798 0.16003
#
# Static dielectric constant tensor:
#      x y z
#    x 4.182840 0.000000 0.180960 
#    y 0.000000 4.427580 0.000000 
#    z 0.180960 0.000000 3.992350 
# 
# 
# High freq. dielectric constant tensor:
#      x y z
#    x 1.906630 0.000000 0.016720 
#    y 0.000000 1.914880 0.000000 
#    z 0.016720 0.000000 1.880090 
# 
# From -- ./inp_files/8057.got.cif
#   From: 2010.06.25/outbox.cif.g09.slc.cpg/sg9_5_cif.got.tgz:8057.got - 2010.06.27 21:40:51.
