data_PCOD8054569
_publ_section_title
;
Structure prediction by ZEFSAII (Michael W. Deem and Ramdas Pophale) SiO2 
 PCOD8054569
Probable space group: C C
;
_chemical_formula_sum "Si O2"
_cell_formula_units_Z 32
_cell_length_a 27.214614
_cell_length_b 7.094831
_cell_length_c 13.565578
_cell_angle_alpha 90.000000
_cell_angle_beta 139.720740
_cell_angle_gamma 90.000000
_cell_volume 1693.402692
_symmetry_space_group_name_H-M "C C"
_symmetry_group_IT_number 9
_symmetry_cell_setting 'monoclinic'
loop_
_space_group_symop_operation_xyz
x,y,z
x,-y,1/2+z
1/2+x,1/2+y,z
1/2+x,1/2-y,1/2+z
loop_
_atom_site_type_symbol
_atom_site_label
_atom_site_fract_x
_atom_site_fract_y
_atom_site_fract_z
Si Si1 0.156410 0.996015 0.024580
Si Si2 0.829909 0.517039 0.781241
Si Si3 0.663016 0.814360 0.693690
Si Si4 0.086561 0.715932 0.562777
Si Si5 0.920340 0.867925 0.912830
Si Si6 0.414139 0.731650 0.785863
Si Si7 0.333492 0.271786 0.956982
Si Si8 0.586478 0.541300 0.712723
O O1 0.140801 0.804322 0.061756
O O2 0.242182 0.998155 0.113017
O O3 0.139998 0.181376 0.064650
O O4 0.097647 0.002640 0.844805
O O5 0.877879 0.685289 0.801973
O O6 0.875548 0.332007 0.820913
O O7 0.829816 0.563124 0.898980
O O8 0.751203 0.867945 0.832816
O O9 0.650495 0.681428 0.769398
O O10 0.615500 0.005643 0.625575
O O11 0.999445 0.700627 0.393641
O O12 0.088105 0.835070 0.665852
O O13 0.883244 0.912447 0.963919
O O14 0.910240 0.015940 0.810525
O O15 0.009297 0.845017 0.071320
O O16 0.365847 0.761890 0.614112
#
# Coordination Sequence:
#
# PCOD8054569 Si02
#       8
#     4   4   4   4   4   4   4   4
#     4  10  21  37  59  84 119 152 192 245 291 341
#     4   9  21  37  57  85 114 149 197 234 283 354
#     4  10  21  39  56  86 121 148 197 244 283 358
#     4  10  23  36  58  88 116 154 198 236 295 352
#     4   9  21  38  55  84 117 144 200 235 281 352
#     4  11  20  40  59  82 118 154 189 242 292 338
#     4   9  21  39  56  85 115 149 193 236 287 341
#     4  10  20  38  58  82 118 154 192 242 290 344
#
# _framework density 18.896863
#
# number of rings (size 3 to 8) (size 9 to 14) (size 15 to 20)
#    0.750    1.500    0.000    2.250    1.750    2.000 
#    6.750    0.000    0.000    0.000    0.000    0.000 
#    0.000    0.000    0.000    0.000    0.000    0.000 
#
# Total GULP energy -198275.550555 kJ/mol
# GULP energy per Si atom -12392.221910 kJ/mol
# Density = 1.885385 g / cm^3
# Si number density = 18.896863 Si / 1000 Ang^3
#
#
#
# Elastic Constant Matrix: (Units=GPa)
#
#
# Indices 1 2 3 4 5 6 
#
# 1 71.2831 17.7568 28.7949 0.0000 8.0892 0.0000
# 2 17.7568 63.7263 28.8595 0.0000 5.1034 0.0000
# 3 28.7949 28.8595 93.4124 0.0000 -7.1951 0.0000
# 4 0.0000 0.0000 0.0000 17.7582 0.0000 8.1833
# 5 8.0892 5.1034 -7.1951 0.0000 34.2812 0.0000
# 6 0.0000 0.0000 0.0000 8.1833 0.0000 35.7702
#
#
#
# Elastic Compliance Matrix: (Units=1/GPa)
#
#
# Indices 1 2 3 4 5 6 
#
# 1 0.017114 -0.002129 -0.004985 0.000000 -0.004767 0.000000
# 2 -0.002129 0.019055 -0.005499 0.000000 -0.003489 0.000000
# 3 -0.004985 -0.005499 0.014326 0.000000 0.005002 0.000000
# 4 0.000000 0.000000 0.000000 0.062948 0.000000 -0.014401
# 5 -0.004767 -0.003489 0.005002 0.000000 0.031865 0.000000
# 6 0.000000 0.000000 0.000000 -0.014401 0.000000 0.031251
#
#
# Mechanical properties :
#
#
# Convention : Reuss Voigt Hill
#
# Bulk Modulus (GPa) = 39.57573 42.13824 40.85698
# Shear Modulus (GPa) = 23.78596 27.76264 25.77430
#
# Velocity S-wave (km/s) = 3.55170 3.83713 3.69717
# Velocity P-wave (km/s) = 6.14881 6.47911 6.31612
#
# Compressibility (1/GPa) = 0.02526801
#
# Stress axis : x y z
#
# Youngs Moduli (GPa) = 58.43316 52.47890 69.80290
#
# Poissons Ratio (x) = 0.11175 0.34795
# Poissons Ratio (y) = 0.12443 0.38387
# Poissons Ratio (z) = 0.29127 0.28860
#
# Static dielectric constant tensor:
#      x y z
#    x 3.552450 0.000000 0.184290 
#    y 0.000000 3.232080 0.000000 
#    z 0.184290 0.000000 3.304190 
# 
# 
# High freq. dielectric constant tensor:
#      x y z
#    x 1.745610 0.000000 0.015570 
#    y 0.000000 1.718990 0.000000 
#    z 0.015570 0.000000 1.729340 
# 
# From -- ./inp_files/27147.got.cif
#   From: 2010.06.25/outbox.cif.g09.slc.cpg/sg9_14_cif.got.tgz:27147.got - 2010.06.27 21:40:51.
