data_PCOD8054697
_publ_section_title
;
Structure prediction by ZEFSAII (Michael W. Deem and Ramdas Pophale) SiO2 
 PCOD8054697
Probable space group: C C
;
_chemical_formula_sum "Si O2"
_cell_formula_units_Z 28
_cell_length_a 29.590363
_cell_length_b 7.739610
_cell_length_c 9.191060
_cell_angle_alpha 90.000000
_cell_angle_beta 143.323246
_cell_angle_gamma 90.000000
_cell_volume 1257.266494
_symmetry_space_group_name_H-M "C C"
_symmetry_group_IT_number 9
_symmetry_cell_setting 'monoclinic'
loop_
_space_group_symop_operation_xyz
x,y,z
x,-y,1/2+z
1/2+x,1/2+y,z
1/2+x,1/2-y,1/2+z
loop_
_atom_site_type_symbol
_atom_site_label
_atom_site_fract_x
_atom_site_fract_y
_atom_site_fract_z
Si Si1 0.827600 0.060632 0.860380
Si Si2 0.131194 0.846692 0.051898
Si Si3 0.185094 0.146701 0.387732
Si Si4 0.219738 0.507353 0.832005
Si Si5 0.852028 0.319730 0.425188
Si Si6 0.979100 0.727621 0.742798
Si Si7 0.438428 0.983900 0.391588
O O1 0.756280 0.093719 0.782508
O O2 0.792179 0.059592 0.608751
O O3 0.865949 0.879117 0.999048
O O4 0.893745 0.201584 0.039657
O O5 0.164903 0.654286 0.162316
O O6 0.179979 0.995019 0.256212
O O7 0.125275 0.882131 0.863824
O O8 0.046714 0.864536 0.901396
O O9 0.173129 0.337008 0.287196
O O10 0.265033 0.137324 0.675096
O O11 0.896891 0.354249 0.393045
O O12 0.877040 0.427496 0.628928
O O13 0.985385 0.617339 0.610536
O O14 0.995715 0.618309 0.932626
#
# Coordination Sequence:
#
# PCOD8054697 Si02
#       7
#     4   4   4   4   4   4   4
#     4  11  23  42  69  98 133 181 238 295 348 420
#     4  12  28  46  69 105 146 191 236 293 369 430
#     4  11  26  43  71 104 137 186 235 297 354 425
#     4  11  24  46  70 101 140 183 243 299 352 418
#     4  10  20  41  68 101 130 172 238 294 347 409
#     4  11  26  44  66 103 139 188 227 294 365 429
#     4  10  23  40  69  96 137 173 227 294 351 421
#
# _framework density 22.270537999999998
#
# number of rings (size 3 to 8) (size 9 to 14) (size 15 to 20)
#    0.000    1.143    2.857    3.429    8.000    3.429 
#    2.571    0.000    0.000    0.000    0.000    0.000 
#    0.000    0.000    0.000    0.000    0.000    0.000 
#
# Total GULP energy -173579.330974 kJ/mol
# GULP energy per Si atom -12398.523641 kJ/mol
# Density = 2.221985 g / cm^3
# Si number density = 22.270538 Si / 1000 Ang^3
#
#
#
# Elastic Constant Matrix: (Units=GPa)
#
#
# Indices 1 2 3 4 5 6 
#
# 1 114.2431 45.7333 33.9929 0.0000 -20.4924 0.0000
# 2 45.7333 94.7419 20.6785 0.0000 -12.4514 0.0000
# 3 33.9929 20.6785 33.2332 0.0000 -5.0917 0.0000
# 4 0.0000 0.0000 0.0000 22.9220 0.0000 1.4027
# 5 -20.4924 -12.4514 -5.0917 0.0000 35.2688 0.0000
# 6 0.0000 0.0000 0.0000 1.4027 0.0000 37.3720
#
#
#
# Elastic Compliance Matrix: (Units=1/GPa)
#
#
# Indices 1 2 3 4 5 6 
#
# 1 0.014832 -0.003825 -0.011942 0.000000 0.005544 0.000000
# 2 -0.003825 0.013584 -0.004240 0.000000 0.001962 0.000000
# 3 -0.011942 -0.004240 0.044638 0.000000 -0.001991 0.000000
# 4 0.000000 0.000000 0.000000 0.043727 0.000000 -0.001641
# 5 0.005544 0.001962 -0.001991 0.000000 0.031980 0.000000
# 6 0.000000 0.000000 0.000000 -0.001641 0.000000 0.026820
#
#
# Mechanical properties :
#
#
# Convention : Reuss Voigt Hill
#
# Bulk Modulus (GPa) = 30.26473 49.22528 39.74500
# Shear Modulus (GPa) = 22.06455 28.56679 25.31567
#
# Velocity S-wave (km/s) = 3.15103 3.58539 3.37521
# Velocity P-wave (km/s) = 5.18245 6.26828 5.75105
#
# Compressibility (1/GPa) = 0.03304177
#
# Stress axis : x y z
#
# Youngs Moduli (GPa) = 67.42167 73.61385 22.40222
#
# Poissons Ratio (x) = 0.28154 0.26753
# Poissons Ratio (y) = 0.25786 0.09498
# Poissons Ratio (z) = 0.80515 0.31212
#
# Static dielectric constant tensor:
#      x y z
#    x 4.225390 0.000000 -0.253770 
#    y 0.000000 4.105070 0.000000 
#    z -0.253770 0.000000 3.822170 
# 
# 
# High freq. dielectric constant tensor:
#      x y z
#    x 1.895110 0.000000 -0.018490 
#    y 0.000000 1.877580 0.000000 
#    z -0.018490 0.000000 1.861360 
# 
# From -- ./inp_files/10433.got.cif
#   From: 2010.06.25/outbox.cif.g09.slc.cpg/sg9_6_cif.got.tgz:10433.got - 2010.06.27 21:40:51.
