data_PCOD8054395
_publ_section_title
;
Structure prediction by ZEFSAII (Michael W. Deem and Ramdas Pophale) SiO2 
 PCOD8054395
Probable space group: C C
;
_chemical_formula_sum "Si O2"
_cell_formula_units_Z 28
_cell_length_a 9.992552
_cell_length_b 17.409780
_cell_length_c 8.004455
_cell_angle_alpha 90.000000
_cell_angle_beta 81.453972
_cell_angle_gamma 90.000000
_cell_volume 1377.058659
_symmetry_space_group_name_H-M "C C"
_symmetry_group_IT_number 9
_symmetry_cell_setting 'monoclinic'
loop_
_space_group_symop_operation_xyz
x,y,z
x,-y,1/2+z
1/2+x,1/2+y,z
1/2+x,1/2-y,1/2+z
loop_
_atom_site_type_symbol
_atom_site_label
_atom_site_fract_x
_atom_site_fract_y
_atom_site_fract_z
Si Si1 0.934200 0.093474 0.821620
Si Si2 0.157384 0.205435 0.653610
Si Si3 0.721374 0.657945 0.294493
Si Si4 0.784936 0.804838 0.898882
Si Si5 0.470417 0.575691 0.198216
Si Si6 0.462467 0.812850 0.533381
Si Si7 0.665927 0.831199 0.244754
O O1 0.788000 0.132628 0.829045
O O2 0.044355 0.143023 0.707299
O O3 0.925693 0.010683 0.739165
O O4 0.986787 0.087947 0.999625
O O5 0.249616 0.167017 0.489106
O O6 0.238958 0.229082 0.804153
O O7 0.094126 0.288044 0.614635
O O8 0.610066 0.593552 0.270104
O O9 0.859704 0.637208 0.166885
O O10 0.661842 0.738821 0.247890
O O11 0.847086 0.870146 0.773586
O O12 0.897178 0.769511 0.000831
O O13 0.675075 0.847363 0.042690
O O14 0.523190 0.858231 0.358478
#
# Coordination Sequence:
#
# PCOD8054395 Si02
#       7
#     4   4   4   4   4   4   4
#     4  12  23  38  62  91 122 160 204 257 310 363
#     4  11  21  35  60  88 123 160 204 251 307 359
#     4  10  19  38  57  88 121 157 202 254 298 362
#     4  11  21  35  60  88 123 160 204 251 307 359
#     4  12  23  38  62  91 122 160 204 257 310 363
#     4  10  20  36  60  86 124 158 208 256 290 370
#     4  10  19  38  57  88 121 157 202 254 298 362
#
# _framework density 20.333192
#
# number of rings (size 3 to 8) (size 9 to 14) (size 15 to 20)
#    0.000    1.143    5.714    5.143    0.000    0.000 
#    0.000    0.000    0.000   15.429    0.000    0.000 
#    0.000    0.000    0.000    0.000    0.000    0.000 
#
# Total GULP energy -173461.490491 kJ/mol
# GULP energy per Si atom -12390.106464 kJ/mol
# Density = 2.028691 g / cm^3
# Si number density = 20.333192 Si / 1000 Ang^3
#
#
#
# Elastic Constant Matrix: (Units=GPa)
#
#
# Indices 1 2 3 4 5 6 
#
# 1 79.6828 25.2321 48.9939 0.0000 -33.7376 0.0000
# 2 25.2321 62.9310 10.1000 0.0000 -5.8054 0.0000
# 3 48.9939 10.1000 146.6649 0.0000 -27.8551 0.0000
# 4 0.0000 0.0000 0.0000 29.0678 0.0000 0.7151
# 5 -33.7376 -5.8054 -27.8551 0.0000 46.0679 0.0000
# 6 0.0000 0.0000 0.0000 0.7151 0.0000 25.1181
#
#
#
# Elastic Compliance Matrix: (Units=1/GPa)
#
#
# Indices 1 2 3 4 5 6 
#
# 1 0.023523 -0.007425 -0.004804 0.000000 0.013386 0.000000
# 2 -0.007425 0.018508 0.000696 0.000000 -0.002685 0.000000
# 3 -0.004804 0.000696 0.008726 0.000000 0.001845 0.000000
# 4 0.000000 0.000000 0.000000 0.034426 0.000000 -0.000980
# 5 0.013386 -0.002685 0.001845 0.000000 0.032288 0.000000
# 6 0.000000 0.000000 0.000000 -0.000980 0.000000 0.039840
#
#
# Mechanical properties :
#
#
# Convention : Reuss Voigt Hill
#
# Bulk Modulus (GPa) = 36.11484 50.88119 43.49802
# Shear Modulus (GPa) = 26.37025 33.71428 30.04226
#
# Velocity S-wave (km/s) = 3.60517 4.07638 3.84799
# Velocity P-wave (km/s) = 5.92703 6.87269 6.41731
#
# Compressibility (1/GPa) = 0.02768945
#
# Stress axis : x y z
#
# Youngs Moduli (GPa) = 42.51223 54.02986 114.60464
#
# Poissons Ratio (x) = 0.40120 0.55057
# Poissons Ratio (y) = 0.31567 -0.07977
# Poissons Ratio (z) = 0.20423 -0.03761
#
# Static dielectric constant tensor:
#      x y z
#    x 3.707780 0.000000 -0.491060 
#    y 0.000000 3.276930 0.000000 
#    z -0.491060 0.000000 4.332320 
# 
# 
# High freq. dielectric constant tensor:
#      x y z
#    x 1.779960 0.000000 -0.019940 
#    y 0.000000 1.749370 0.000000 
#    z -0.019940 0.000000 1.823700 
# 
# From -- ./inp_files/5256.got.cif
#   From: 2010.06.25/outbox.cif.g09.slc.cpg/sg9_3_cif.got.tgz:5256.got - 2010.06.27 21:40:51.
