data_PCOD8054435
_publ_section_title
;
Structure prediction by ZEFSAII (Michael W. Deem and Ramdas Pophale) SiO2 
 PCOD8054435
Probable space group: C C
;
_chemical_formula_sum "Si O2"
_cell_formula_units_Z 32
_cell_length_a 11.656154
_cell_length_b 9.051551
_cell_length_c 13.940585
_cell_angle_alpha 90.000000
_cell_angle_beta 77.340876
_cell_angle_gamma 90.000000
_cell_volume 1435.065219
_symmetry_space_group_name_H-M "C C"
_symmetry_group_IT_number 9
_symmetry_cell_setting 'monoclinic'
loop_
_space_group_symop_operation_xyz
x,y,z
x,-y,1/2+z
1/2+x,1/2+y,z
1/2+x,1/2-y,1/2+z
loop_
_atom_site_type_symbol
_atom_site_label
_atom_site_fract_x
_atom_site_fract_y
_atom_site_fract_z
Si Si1 0.712980 0.591487 0.448340
Si Si2 0.074269 0.351545 0.072463
Si Si3 0.794289 0.607000 0.233200
Si Si4 0.823390 0.188749 0.551790
Si Si5 0.952351 0.556052 0.947442
Si Si6 0.503387 0.529525 0.080845
Si Si7 0.669591 0.657592 0.661038
Si Si8 0.055504 0.447188 0.743881
O O1 0.720999 0.664977 0.340879
O O2 0.824189 0.484453 0.433573
O O3 0.594170 0.494093 0.475356
O O4 0.716913 0.697853 0.543072
O O5 0.207323 0.329582 0.005095
O O6 0.102866 0.421498 0.170123
O O7 0.996490 0.204253 0.099534
O O8 0.992427 0.465804 0.032292
O O9 0.770976 0.714610 0.148912
O O10 0.759698 0.439874 0.207576
O O11 0.930641 0.613286 0.232989
O O12 0.935171 0.271870 0.480567
O O13 0.874143 0.031284 0.577543
O O14 0.050110 0.521023 0.849940
O O15 0.552025 0.443303 0.166381
O O16 0.643465 0.806848 0.724449
#
# Coordination Sequence:
#
# PCOD8054435 Si02
#       8
#     4   4   4   4   4   4   4   4
#     4   9  20  38  68  94 127 176 218 264 340 388
#     4  12  24  44  66  97 133 175 220 289 327 410
#     4  11  19  39  70  92 133 179 216 272 338 405
#     4  12  22  45  66  94 138 178 219 280 337 402
#     4  11  23  44  68  97 133 175 221 281 342 400
#     4  10  22  41  67  93 131 170 222 273 330 394
#     4  10  19  40  65  93 129 176 216 270 329 403
#     4  11  25  39  70  98 132 175 228 275 347 396
#
# _framework density 22.298636999999999
#
# number of rings (size 3 to 8) (size 9 to 14) (size 15 to 20)
#    0.750    0.500    6.250    0.000    1.750    3.000 
#    0.000    0.000    0.000    0.000    0.000    0.000 
#    0.000    0.000    0.000    0.000    0.000    0.000 
#
# Total GULP energy -198219.584424 kJ/mol
# GULP energy per Si atom -12388.724027 kJ/mol
# Density = 2.224788 g / cm^3
# Si number density = 22.298637 Si / 1000 Ang^3
#
#
#
# Elastic Constant Matrix: (Units=GPa)
#
#
# Indices 1 2 3 4 5 6 
#
# 1 49.1313 36.9097 0.9442 0.0000 -1.3910 0.0000
# 2 36.9097 115.5152 15.4730 0.0000 -9.8531 0.0000
# 3 0.9442 15.4730 109.6671 0.0000 -9.2738 0.0000
# 4 0.0000 0.0000 0.0000 17.9599 0.0000 -4.6385
# 5 -1.3910 -9.8531 -9.2738 0.0000 20.2789 0.0000
# 6 0.0000 0.0000 0.0000 -4.6385 0.0000 39.5376
#
#
#
# Elastic Compliance Matrix: (Units=1/GPa)
#
#
# Indices 1 2 3 4 5 6 
#
# 1 0.026972 -0.008910 0.000848 0.000000 -0.002091 0.000000
# 2 -0.008910 0.012069 -0.001229 0.000000 0.004690 0.000000
# 3 0.000848 -0.001229 0.009611 0.000000 0.003856 0.000000
# 4 0.000000 0.000000 0.000000 0.057419 0.000000 0.006736
# 5 -0.002091 0.004690 0.003856 0.000000 0.053211 0.000000
# 6 0.000000 0.000000 0.000000 0.006736 0.000000 0.026083
#
#
# Mechanical properties :
#
#
# Convention : Reuss Voigt Hill
#
# Bulk Modulus (GPa) = 33.25763 42.32971 37.79367
# Shear Modulus (GPa) = 23.36774 30.28771 26.82773
#
# Velocity S-wave (km/s) = 3.24071 3.68948 3.47235
# Velocity P-wave (km/s) = 5.38052 6.09705 5.74995
#
# Compressibility (1/GPa) = 0.03006829
#
# Stress axis : x y z
#
# Youngs Moduli (GPa) = 37.07574 82.85959 104.05029
#
# Poissons Ratio (x) = 0.73829 -0.08824
# Poissons Ratio (y) = 0.33035 0.12792
# Poissons Ratio (z) = -0.03144 0.10187
#
# Static dielectric constant tensor:
#      x y z
#    x 3.811590 0.000000 -0.054240 
#    y 0.000000 3.721630 0.000000 
#    z -0.054240 0.000000 4.249110 
# 
# 
# High freq. dielectric constant tensor:
#      x y z
#    x 1.879440 0.000000 -0.004180 
#    y 0.000000 1.860170 0.000000 
#    z -0.004180 0.000000 1.859280 
# 
# From -- ./inp_files/24356.got.cif
#   From: 2010.06.25/outbox.cif.g09.slc.cpg/sg9_13_cif.got.tgz:24356.got - 2010.06.27 21:40:51.
