data_PCOD8054849
_publ_section_title
;
Structure prediction by ZEFSAII (Michael W. Deem and Ramdas Pophale) SiO2 
 PCOD8054849
Probable space group: C C
;
_chemical_formula_sum "Si O2"
_cell_formula_units_Z 32
_cell_length_a 10.901676
_cell_length_b 12.896885
_cell_length_c 17.976933
_cell_angle_alpha 90.000000
_cell_angle_beta 146.271575
_cell_angle_gamma 90.000000
_cell_volume 1403.420506
_symmetry_space_group_name_H-M "C C"
_symmetry_group_IT_number 9
_symmetry_cell_setting 'monoclinic'
loop_
_space_group_symop_operation_xyz
x,y,z
x,-y,1/2+z
1/2+x,1/2+y,z
1/2+x,1/2-y,1/2+z
loop_
_atom_site_type_symbol
_atom_site_label
_atom_site_fract_x
_atom_site_fract_y
_atom_site_fract_z
Si Si1 0.630640 0.041328 0.581410
Si Si2 0.780924 0.185163 0.116266
Si Si3 0.365066 0.251004 0.820852
Si Si4 0.551365 0.642756 0.937698
Si Si5 0.418069 0.118122 0.232532
Si Si6 0.772428 0.347522 0.812314
Si Si7 0.228061 0.518383 0.290187
Si Si8 0.555085 0.334477 0.279389
O O1 0.392788 0.085320 0.436653
O O2 0.817992 0.115370 0.637994
O O3 0.661553 0.922693 0.574086
O O4 0.636503 0.047546 0.673763
O O5 0.826181 0.257779 0.212017
O O6 0.014623 0.160495 0.197491
O O7 0.621472 0.242074 0.975790
O O8 0.278436 0.363900 0.797017
O O9 0.220324 0.162865 0.791905
O O10 0.371302 0.733682 0.851613
O O11 0.446803 0.541849 0.926077
O O12 0.628103 0.606750 0.892683
O O13 0.764098 0.669690 0.091955
O O14 0.299470 0.087266 0.249211
O O15 0.549111 0.018138 0.267036
O O16 0.571716 0.218092 0.322262
#
# Coordination Sequence:
#
# PCOD8054849 Si02
#       8
#     4   4   4   4   4   4   4   4
#     4  10  22  43  68 100 129 184 231 287 348 426
#     4  11  27  43  69  99 142 188 231 293 355 417
#     4  10  24  44  67 101 138 186 232 292 352 416
#     4  10  21  38  66  96 132 176 221 288 346 415
#     4  10  21  39  64  97 127 175 221 286 342 409
#     4  11  25  42  66  99 139 176 233 288 354 421
#     4   9  22  41  67  98 131 177 234 279 351 414
#     4   9  20  38  69  94 130 174 231 285 336 420
#
# _framework density 22.801434
#
# number of rings (size 3 to 8) (size 9 to 14) (size 15 to 20)
#    0.000    2.000    1.250    0.000    8.750    5.000 
#    2.250    0.000    0.000    0.000    0.000    0.000 
#    0.000    0.000    0.000    0.000    0.000    0.000 
#
# Total GULP energy -198241.835557 kJ/mol
# GULP energy per Si atom -12390.114722 kJ/mol
# Density = 2.274954 g / cm^3
# Si number density = 22.801434 Si / 1000 Ang^3
#
#
#
# Elastic Constant Matrix: (Units=GPa)
#
#
# Indices 1 2 3 4 5 6 
#
# 1 136.4375 30.6221 45.8090 0.0000 11.7198 -0.0001
# 2 30.6221 53.5705 18.1411 0.0002 -0.7050 0.0000
# 3 45.8090 18.1411 115.3921 0.0007 2.8286 -0.0001
# 4 0.0000 0.0002 0.0007 32.8750 -0.0001 4.9222
# 5 11.7198 -0.7050 2.8286 -0.0001 31.6268 -0.0002
# 6 -0.0001 0.0000 -0.0001 4.9222 -0.0002 33.7754
#
#
#
# Elastic Compliance Matrix: (Units=1/GPa)
#
#
# Indices 1 2 3 4 5 6 
#
# 1 0.009661 -0.004538 -0.003038 0.000000 -0.003409 0.000000
# 2 -0.004538 0.021865 -0.001693 0.000000 0.002321 0.000000
# 3 -0.003038 -0.001693 0.010134 0.000000 0.000182 0.000000
# 4 0.000000 0.000000 0.000000 0.031097 0.000000 -0.004532
# 5 -0.003409 0.002321 0.000182 0.000000 0.032918 0.000000
# 6 0.000000 0.000000 0.000000 -0.004532 0.000000 0.030268
#
#
# Mechanical properties :
#
#
# Convention : Reuss Voigt Hill
#
# Bulk Modulus (GPa) = 43.25020 54.94939 49.09979
# Shear Modulus (GPa) = 30.82853 33.71064 32.26958
#
# Velocity S-wave (km/s) = 3.68100 3.84923 3.76605
# Velocity P-wave (km/s) = 6.08899 6.62622 6.36328
#
# Compressibility (1/GPa) = 0.02312128
#
# Stress axis : x y z
#
# Youngs Moduli (GPa) = 103.51010 45.73530 98.67908
#
# Poissons Ratio (x) = 0.20756 0.29980
# Poissons Ratio (y) = 0.46977 0.16703
# Poissons Ratio (z) = 0.31448 0.07741
#
# Static dielectric constant tensor:
#      x y z
#    x 4.417070 0.000000 -0.099240 
#    y 0.000000 4.084550 0.000000 
#    z -0.099240 0.000000 4.003820 
# 
# 
# High freq. dielectric constant tensor:
#      x y z
#    x 1.898660 0.000000 -0.002630 
#    y 0.000000 1.890540 0.000000 
#    z -0.002630 0.000000 1.893510 
# 
# From -- ./inp_files/33373.got.cif
#   From: 2010.06.25/outbox.cif.g09.slc.cpg/sg9_17_cif.got.tgz:33373.got - 2010.06.27 21:40:51.
