data_PCOD8054450
_publ_section_title
;
Structure prediction by ZEFSAII (Michael W. Deem and Ramdas Pophale) SiO2 
 PCOD8054450
Probable space group: C C
;
_chemical_formula_sum "Si O2"
_cell_formula_units_Z 28
_cell_length_a 5.519896
_cell_length_b 13.705120
_cell_length_c 17.872782
_cell_angle_alpha 90.000000
_cell_angle_beta 114.322264
_cell_angle_gamma 90.000000
_cell_volume 1232.083793
_symmetry_space_group_name_H-M "C C"
_symmetry_group_IT_number 9
_symmetry_cell_setting 'monoclinic'
loop_
_space_group_symop_operation_xyz
x,y,z
x,-y,1/2+z
1/2+x,1/2+y,z
1/2+x,1/2-y,1/2+z
loop_
_atom_site_type_symbol
_atom_site_label
_atom_site_fract_x
_atom_site_fract_y
_atom_site_fract_z
Si Si1 0.524370 0.378712 0.427820
Si Si2 0.397899 0.857815 0.329802
Si Si3 0.617257 0.448720 0.042624
Si Si4 0.894881 0.757023 0.065239
Si Si5 0.093653 0.987318 0.708513
Si Si6 0.146762 0.620832 0.657028
Si Si7 0.388104 0.284778 0.711411
O O1 0.713032 0.371711 0.379351
O O2 0.527862 0.488131 0.460704
O O3 0.656056 0.307946 0.505746
O O4 0.215527 0.349399 0.383020
O O5 0.302515 0.751642 0.283713
O O6 0.349648 0.953911 0.271137
O O7 0.464643 0.344904 0.017164
O O8 0.568159 0.503974 0.115434
O O9 0.930070 0.427811 0.074967
O O10 0.823491 0.803294 0.134875
O O11 0.153266 0.691918 0.121625
O O12 0.094201 0.874697 0.735463
O O13 0.834282 0.036213 0.714145
O O14 0.022809 0.680959 0.708616
#
# Coordination Sequence:
#
# PCOD8054450 Si02
#       7
#     4   4   4   4   4   4   4
#     4  12  29  46  70 106 157 188 237 314 378 418
#     4  12  28  48  66 112 156 184 243 317 364 434
#     4  10  23  42  75 103 138 194 252 298 355 450
#     4  10  23  42  75 103 138 194 252 298 355 450
#     4  11  23  44  75 103 141 199 246 298 363 438
#     4  10  19  42  74 106 137 172 266 303 330 442
#     4  11  23  44  75 103 141 199 246 298 363 438
#
# _framework density 22.725726000000002
#
# number of rings (size 3 to 8) (size 9 to 14) (size 15 to 20)
#    0.000    1.143    4.286    2.571   10.000    2.286 
#    0.000    0.000    0.000    0.000    0.000    0.000 
#    0.000    0.000    0.000    0.000    0.000    0.000 
#
# Total GULP energy -173475.656708 kJ/mol
# GULP energy per Si atom -12391.118336 kJ/mol
# Density = 2.267400 g / cm^3
# Si number density = 22.725726 Si / 1000 Ang^3
#
#
#
# Elastic Constant Matrix: (Units=GPa)
#
#
# Indices 1 2 3 4 5 6 
#
# 1 115.4697 24.0144 32.1868 0.0000 18.0822 0.0000
# 2 24.0144 99.4922 33.8099 0.0000 19.4406 0.0000
# 3 32.1868 33.8099 68.0641 0.0000 21.8794 0.0000
# 4 0.0000 0.0000 0.0000 29.5871 0.0000 9.4671
# 5 18.0822 19.4406 21.8794 0.0000 40.9431 0.0000
# 6 0.0000 0.0000 0.0000 9.4671 0.0000 33.1437
#
#
#
# Elastic Compliance Matrix: (Units=1/GPa)
#
#
# Indices 1 2 3 4 5 6 
#
# 1 0.010201 -0.000769 -0.003757 0.000000 -0.002133 0.000000
# 2 -0.000769 0.012476 -0.004876 0.000000 -0.002978 0.000000
# 3 -0.003757 -0.004876 0.021266 0.000000 -0.007390 0.000000
# 4 0.000000 0.000000 0.000000 0.037198 0.000000 -0.010625
# 5 -0.002133 -0.002978 -0.007390 0.000000 0.030729 0.000000
# 6 0.000000 0.000000 0.000000 -0.010625 0.000000 0.033207
#
#
# Mechanical properties :
#
#
# Convention : Reuss Voigt Hill
#
# Bulk Modulus (GPa) = 39.77737 51.44980 45.61358
# Shear Modulus (GPa) = 29.02583 33.60245 31.31414
#
# Velocity S-wave (km/s) = 3.57770 3.84944 3.71606
# Velocity P-wave (km/s) = 5.88284 6.51507 6.20701
#
# Compressibility (1/GPa) = 0.02513992
#
# Stress axis : x y z
#
# Youngs Moduli (GPa) = 98.02660 80.15644 47.02319
#
# Poissons Ratio (x) = 0.06164 0.17664
# Poissons Ratio (y) = 0.07538 0.22929
# Poissons Ratio (z) = 0.36824 0.39084
#
# Static dielectric constant tensor:
#      x y z
#    x 4.425050 0.000000 0.082330 
#    y 0.000000 4.128600 0.000000 
#    z 0.082330 0.000000 3.968370 
# 
# 
# High freq. dielectric constant tensor:
#      x y z
#    x 1.908780 0.000000 0.003350 
#    y 0.000000 1.895090 0.000000 
#    z 0.003350 0.000000 1.881270 
# 
# From -- ./inp_files/21720.got.cif
#   From: 2010.06.25/outbox.cif.g09.slc.cpg/sg9_11_cif.got.tgz:21720.got - 2010.06.27 21:40:51.
