data_PCOD8054357
_publ_section_title
;
Structure prediction by ZEFSAII (Michael W. Deem and Ramdas Pophale) SiO2 
 PCOD8054357
Probable space group: C C
;
_chemical_formula_sum "Si O2"
_cell_formula_units_Z 32
_cell_length_a 15.165321
_cell_length_b 17.502472
_cell_length_c 5.575845
_cell_angle_alpha 90.000000
_cell_angle_beta 115.594614
_cell_angle_gamma 90.000000
_cell_volume 1334.772173
_symmetry_space_group_name_H-M "C C"
_symmetry_group_IT_number 9
_symmetry_cell_setting 'monoclinic'
loop_
_space_group_symop_operation_xyz
x,y,z
x,-y,1/2+z
1/2+x,1/2+y,z
1/2+x,1/2-y,1/2+z
loop_
_atom_site_type_symbol
_atom_site_label
_atom_site_fract_x
_atom_site_fract_y
_atom_site_fract_z
Si Si1 0.663360 0.305803 0.769380
Si Si2 0.328093 0.820488 0.319835
Si Si3 0.362370 0.536744 0.746682
Si Si4 0.989735 0.703987 0.661053
Si Si5 0.816113 0.211960 0.687364
Si Si6 0.301286 0.023607 0.977105
Si Si7 0.093647 0.961932 0.504166
Si Si8 0.016816 0.534875 0.669509
O O1 0.573475 0.266926 0.805740
O O2 0.714940 0.237330 0.687898
O O3 0.622399 0.372563 0.551457
O O4 0.743209 0.343959 0.036057
O O5 0.437380 0.817054 0.347915
O O6 0.305970 0.736332 0.397786
O O7 0.325608 0.886555 0.518315
O O8 0.321527 0.503429 0.444021
O O9 0.327661 0.622981 0.729693
O O10 0.477930 0.530023 0.874897
O O11 0.909311 0.740626 0.391409
O O12 0.036039 0.623797 0.626795
O O13 0.245753 0.997747 0.663195
O O14 0.400519 0.975034 0.071416
O O15 0.131884 0.990160 0.284598
O O16 0.060828 0.490454 0.484381
#
# Coordination Sequence:
#
# PCOD8054357 Si02
#       8
#     4   4   4   4   4   4   4   4
#     4  11  27  44  65 110 142 183 237 297 364 430
#     4  11  25  40  69  99 140 188 229 288 364 426
#     4  10  23  45  78 100 133 191 251 295 356 420
#     4  11  23  44  69  94 143 187 229 293 356 430
#     4  11  25  45  70 104 141 186 237 296 362 428
#     4  10  19  36  63  96 134 175 224 270 338 427
#     4  10  23  45  71 104 142 189 238 299 362 432
#     4  10  19  37  63  97 129 177 231 270 336 421
#
# _framework density 23.974126999999999
#
# number of rings (size 3 to 8) (size 9 to 14) (size 15 to 20)
#    0.000    1.500    3.750    1.500    7.000    3.000 
#    0.000    1.250    0.000    0.000    0.000    0.000 
#    0.000    0.000    0.000    0.000    0.000    0.000 
#
# Total GULP energy -198327.299281 kJ/mol
# GULP energy per Si atom -12395.456205 kJ/mol
# Density = 2.391956 g / cm^3
# Si number density = 23.974127 Si / 1000 Ang^3
#
#
#
# Elastic Constant Matrix: (Units=GPa)
#
#
# Indices 1 2 3 4 5 6 
#
# 1 66.0210 40.8630 31.8436 0.0000 -16.4949 0.0000
# 2 40.8630 178.3813 49.2066 0.0000 -27.7717 0.0000
# 3 31.8436 49.2066 98.5179 0.0000 -38.0306 0.0000
# 4 0.0000 0.0000 0.0000 42.3403 0.0000 -3.6916
# 5 -16.4949 -27.7717 -38.0306 0.0000 30.9138 0.0000
# 6 0.0000 0.0000 0.0000 -3.6916 0.0000 33.5489
#
#
#
# Elastic Compliance Matrix: (Units=1/GPa)
#
#
# Indices 1 2 3 4 5 6 
#
# 1 0.019536 -0.002973 -0.003498 0.000000 0.003450 0.000000
# 2 -0.002973 0.007161 -0.001418 0.000000 0.003102 0.000000
# 3 -0.003498 -0.001418 0.020524 0.000000 0.022108 0.000000
# 4 0.000000 0.000000 0.000000 0.023847 0.000000 0.002624
# 5 0.003450 0.003102 0.022108 0.000000 0.064173 0.000000
# 6 0.000000 0.000000 0.000000 0.002624 0.000000 0.030096
#
#
# Mechanical properties :
#
#
# Convention : Reuss Voigt Hill
#
# Bulk Modulus (GPa) = 31.80410 65.19407 48.49909
# Shear Modulus (GPa) = 26.09647 36.09440 31.09544
#
# Velocity S-wave (km/s) = 3.30286 3.88436 3.60535
# Velocity P-wave (km/s) = 5.27636 6.88260 6.13230
#
# Compressibility (1/GPa) = 0.03144248
#
# Stress axis : x y z
#
# Youngs Moduli (GPa) = 51.18763 139.64001 48.72399
#
# Poissons Ratio (x) = 0.41519 0.17042
# Poissons Ratio (y) = 0.15219 0.06910
# Poissons Ratio (z) = 0.17904 0.19805
#
# Static dielectric constant tensor:
#      x y z
#    x 4.354980 0.000000 -0.352590 
#    y 0.000000 4.188390 0.000000 
#    z -0.352590 0.000000 4.884100 
# 
# 
# High freq. dielectric constant tensor:
#      x y z
#    x 1.954920 0.000000 -0.012710 
#    y 0.000000 1.953870 0.000000 
#    z -0.012710 0.000000 1.958110 
# 
# From -- ./inp_files/2520.got.cif
#   From: 2010.06.25/outbox.cif.g09.slc.cpg/sg9_2_cif.got.tgz:2520.got - 2010.06.27 21:40:51.
