data_PCOD8054010
_publ_section_title
;
Structure prediction by ZEFSAII (Michael W. Deem and Ramdas Pophale) SiO2 
 PCOD8054010
Probable space group: C M
;
_chemical_formula_sum "Si O2"
_cell_formula_units_Z 32
_cell_length_a 24.611076
_cell_length_b 8.889811
_cell_length_c 16.795219
_cell_angle_alpha 90.000000
_cell_angle_beta 153.128673
_cell_angle_gamma 90.000000
_cell_volume 1660.871581
_symmetry_space_group_name_H-M "C M"
_symmetry_group_IT_number 8
_symmetry_cell_setting 'monoclinic'
loop_
_space_group_symop_operation_xyz
x,y,z
x,-y,z
1/2+x,1/2+y,z
1/2+x,1/2-y,z
loop_
_atom_site_type_symbol
_atom_site_label
_atom_site_fract_x
_atom_site_fract_y
_atom_site_fract_z
Si Si1 0.134070 0.671231 0.492330
Si Si2 0.905940 0.176503 0.224083
Si Si3 0.003567 0.674740 0.625449
Si Si4 0.058936 0.677003 0.877845
Si Si5 0.811940 0.324347 0.249835
Si Si6 0.812457 0.673358 0.822073
Si Si7 0.733269 0.326117 0.888095
Si Si8 0.387088 0.670607 0.774040
O O1 0.108192 0.500000 0.483327
O O2 0.178106 0.767989 0.626043
O O3 0.241814 0.677703 0.567087
O O4 0.009872 0.749697 0.304116
O O5 0.905626 0.247756 0.311395
O O6 0.921967 0.000000 0.249771
O O7 0.779140 0.220254 0.019243
O O8 0.036894 0.500000 0.660930
O O9 0.097177 0.772217 0.695400
O O10 0.869719 0.703009 0.413632
O O11 0.014668 0.727494 0.732155
O O12 0.079860 0.500000 0.908947
O O13 0.180129 0.753704 0.068299
O O14 0.951873 0.723169 0.796522
O O15 0.801246 0.500000 0.216877
O O16 0.827218 0.500000 0.818023
O O17 0.822629 0.698204 0.929720
O O18 0.907398 0.768873 0.892077
O O19 0.734413 0.500000 0.915197
O O20 0.435701 0.500000 0.831733
#
# Coordination Sequence:
#
# PCOD8054010 Si02
#       8
#     4   4   4   4   4   4   4   4
#     4   9  19  35  56  82 112 150 196 241 295 358
#     4  12  23  35  55  85 123 161 203 252 307 367
#     4  10  23  40  60  89 124 162 202 250 308 368
#     4  11  22  40  64  91 124 162 209 258 303 364
#     4  11  23  40  62  89 124 164 204 253 311 366
#     4   9  18  34  56  84 112 148 195 242 296 355
#     4  11  22  35  56  86 122 159 200 252 307 366
#     4   9  20  37  61  86 115 160 203 250 305 360
#
# _framework density 19.266991999999998
#
# number of rings (size 3 to 8) (size 9 to 14) (size 15 to 20)
#    0.750    1.000    1.250    3.750    0.000    5.500 
#    0.000    1.250    0.000    3.000    0.000    0.000 
#    0.000    0.000    0.000    0.000    0.000    0.000 
#
# Total GULP energy -198233.703248 kJ/mol
# GULP energy per Si atom -12389.606453 kJ/mol
# Density = 1.922314 g / cm^3
# Si number density = 19.266992 Si / 1000 Ang^3
#
#
#
# Elastic Constant Matrix: (Units=GPa)
#
#
# Indices 1 2 3 4 5 6 
#
# 1 98.4032 38.1243 37.7432 0.0000 -0.9379 0.0000
# 2 38.1243 94.5316 35.7811 0.0000 -2.1360 0.0000
# 3 37.7432 35.7811 99.4442 0.0000 -3.3740 0.0000
# 4 0.0000 0.0000 0.0000 30.4906 0.0000 5.6388
# 5 -0.9379 -2.1360 -3.3740 0.0000 25.9590 0.0000
# 6 0.0000 0.0000 0.0000 5.6388 0.0000 32.4705
#
#
#
# Elastic Compliance Matrix: (Units=1/GPa)
#
#
# Indices 1 2 3 4 5 6 
#
# 1 0.013040 -0.003923 -0.003548 0.000000 -0.000313 0.000000
# 2 -0.003923 0.013431 -0.003326 0.000000 0.000531 0.000000
# 3 -0.003548 -0.003326 0.012641 0.000000 0.001241 0.000000
# 4 0.000000 0.000000 0.000000 0.033885 0.000000 -0.005885
# 5 -0.000313 0.000531 0.001241 0.000000 0.038716 0.000000
# 6 0.000000 0.000000 0.000000 -0.005885 0.000000 0.031819
#
#
# Mechanical properties :
#
#
# Convention : Reuss Voigt Hill
#
# Bulk Modulus (GPa) = 57.08200 57.29736 57.18968
# Shear Modulus (GPa) = 29.24533 29.83270 29.53901
#
# Velocity S-wave (km/s) = 3.90025 3.93922 3.91978
# Velocity P-wave (km/s) = 7.06921 7.10585 7.08755
#
# Compressibility (1/GPa) = 0.01751866
#
# Stress axis : x y z
#
# Youngs Moduli (GPa) = 76.68592 74.45193 79.10505
#
# Poissons Ratio (x) = 0.29208 0.28069
# Poissons Ratio (y) = 0.30084 0.26309
# Poissons Ratio (z) = 0.27211 0.24761
#
# Static dielectric constant tensor:
#      x y z
#    x 3.364450 0.000000 -0.001850 
#    y 0.000000 3.530680 0.000000 
#    z -0.001850 0.000000 3.395010 
# 
# 
# High freq. dielectric constant tensor:
#      x y z
#    x 1.736260 0.000000 0.005140 
#    y 0.000000 1.764120 0.000000 
#    z 0.005140 0.000000 1.732260 
# 
# From -- ./inp_files/28216.got.cif
#   From: 2010.03.12/outbox.cif.g09.slc.cpg/sg8_15_cif.got.tgz:28216.got - 2010.03.31 10:45:26.
