data_PCOD8054647
_publ_section_title
;
Structure prediction by ZEFSAII (Michael W. Deem and Ramdas Pophale) SiO2 
 PCOD8054647
Probable space group: C C
;
_chemical_formula_sum "Si O2"
_cell_formula_units_Z 32
_cell_length_a 8.732431
_cell_length_b 11.472407
_cell_length_c 22.226522
_cell_angle_alpha 90.000000
_cell_angle_beta 135.871726
_cell_angle_gamma 90.000000
_cell_volume 1550.376174
_symmetry_space_group_name_H-M "C C"
_symmetry_group_IT_number 9
_symmetry_cell_setting 'monoclinic'
loop_
_space_group_symop_operation_xyz
x,y,z
x,-y,1/2+z
1/2+x,1/2+y,z
1/2+x,1/2-y,1/2+z
loop_
_atom_site_type_symbol
_atom_site_label
_atom_site_fract_x
_atom_site_fract_y
_atom_site_fract_z
Si Si1 0.140880 0.214481 0.902040
Si Si2 0.432600 0.393446 0.501356
Si Si3 0.830119 0.248653 0.585711
Si Si4 0.253299 0.044013 0.430575
Si Si5 0.538693 0.645574 0.483303
Si Si6 0.767954 0.782371 0.655670
Si Si7 0.715332 0.744055 0.336253
Si Si8 0.759168 0.010613 0.075567
O O1 0.311201 0.281283 0.905584
O O2 0.885539 0.253152 0.827536
O O3 0.122516 0.076108 0.889429
O O4 0.217629 0.252530 0.989417
O O5 0.660130 0.320910 0.579964
O O6 0.491233 0.515484 0.489167
O O7 0.280108 0.327282 0.410234
O O8 0.304070 0.418592 0.526622
O O9 0.073947 0.303477 0.650293
O O10 0.873733 0.114239 0.615855
O O11 0.176435 0.134592 0.460853
O O12 0.214656 0.110256 0.357450
O O13 0.502175 0.008345 0.511226
O O14 0.681142 0.707107 0.575051
O O15 0.844278 0.908794 0.653787
O O16 0.974697 0.718934 0.744825
#
# Coordination Sequence:
#
# PCOD8054647 Si02
#       8
#     4   4   4   4   4   4   4   4
#     4  10  20  40  61  90 124 159 212 250 298 380
#     4  11  20  40  69  89 119 171 211 245 306 382
#     4  10  20  40  61  90 124 159 212 250 298 380
#     4  12  21  40  68  91 117 170 216 246 304 384
#     4  11  20  40  69  89 119 171 211 245 306 382
#     4  11  24  43  60  94 133 153 205 273 312 355
#     4  11  24  43  60  94 133 153 205 273 312 355
#     4  12  21  40  68  91 117 170 216 246 304 384
#
# _framework density 20.640153000000002
#
# number of rings (size 3 to 8) (size 9 to 14) (size 15 to 20)
#    0.000    1.000   10.000    0.750    0.000    0.000 
#    9.000    1.250    0.000    0.000    0.000    0.000 
#    0.000    0.000    0.000    0.000    0.000    0.000 
#
# Total GULP energy -198280.855545 kJ/mol
# GULP energy per Si atom -12392.553472 kJ/mol
# Density = 2.059317 g / cm^3
# Si number density = 20.640153 Si / 1000 Ang^3
#
#
#
# Elastic Constant Matrix: (Units=GPa)
#
#
# Indices 1 2 3 4 5 6 
#
# 1 117.4714 30.2091 24.4263 0.0000 20.8279 0.0000
# 2 30.2091 127.6943 21.3824 0.0000 -4.3665 0.0000
# 3 24.4263 21.3824 62.5566 0.0000 22.6656 0.0000
# 4 0.0000 0.0000 0.0000 14.7023 0.0000 3.2969
# 5 20.8279 -4.3665 22.6656 0.0000 24.4077 0.0000
# 6 0.0000 0.0000 0.0000 3.2969 0.0000 45.1014
#
#
#
# Elastic Compliance Matrix: (Units=1/GPa)
#
#
# Indices 1 2 3 4 5 6 
#
# 1 0.011044 -0.003058 0.000521 0.000000 -0.010455 0.000000
# 2 -0.003058 0.009829 -0.005649 0.000000 0.009613 0.000000
# 3 0.000521 -0.005649 0.027489 0.000000 -0.026982 0.000000
# 4 0.000000 0.000000 0.000000 0.069150 0.000000 -0.005055
# 5 -0.010455 0.009613 -0.026982 0.000000 0.076669 0.000000
# 6 0.000000 0.000000 0.000000 -0.005055 0.000000 0.022542
#
#
# Mechanical properties :
#
#
# Convention : Reuss Voigt Hill
#
# Bulk Modulus (GPa) = 31.25840 51.08423 41.17131
# Shear Modulus (GPa) = 20.51210 32.28923 26.40067
#
# Velocity S-wave (km/s) = 3.15587 3.95953 3.58032
# Velocity P-wave (km/s) = 5.33448 6.76073 6.08951
#
# Compressibility (1/GPa) = 0.03199140
#
# Stress axis : x y z
#
# Youngs Moduli (GPa) = 90.54351 101.73809 36.37781
#
# Poissons Ratio (x) = 0.31107 -0.01894
# Poissons Ratio (y) = 0.27684 0.20550
# Poissons Ratio (z) = -0.04715 0.57471
#
# Static dielectric constant tensor:
#      x y z
#    x 4.424710 0.000000 0.348290 
#    y 0.000000 4.472810 0.000000 
#    z 0.348290 0.000000 3.356940 
# 
# 
# High freq. dielectric constant tensor:
#      x y z
#    x 1.824100 0.000000 0.024760 
#    y 0.000000 1.826410 0.000000 
#    z 0.024760 0.000000 1.755130 
# 
# From -- ./inp_files/22753.got.cif
#   From: 2010.06.25/outbox.cif.g09.slc.cpg/sg9_12_cif.got.tgz:22753.got - 2010.06.27 21:40:51.
