data_PCOD8054545
_publ_section_title
;
Structure prediction by ZEFSAII (Michael W. Deem and Ramdas Pophale) SiO2 
 PCOD8054545
Probable space group: C C
;
_chemical_formula_sum "Si O2"
_cell_formula_units_Z 32
_cell_length_a 13.758857
_cell_length_b 11.820849
_cell_length_c 27.181039
_cell_angle_alpha 90.000000
_cell_angle_beta 160.992734
_cell_angle_gamma 90.000000
_cell_volume 1439.789213
_symmetry_space_group_name_H-M "C C"
_symmetry_group_IT_number 9
_symmetry_cell_setting 'monoclinic'
loop_
_space_group_symop_operation_xyz
x,y,z
x,-y,1/2+z
1/2+x,1/2+y,z
1/2+x,1/2-y,1/2+z
loop_
_atom_site_type_symbol
_atom_site_label
_atom_site_fract_x
_atom_site_fract_y
_atom_site_fract_z
Si Si1 0.308410 0.737359 0.529910
Si Si2 0.732107 0.972733 0.054506
Si Si3 0.960311 0.081533 0.525297
Si Si4 0.333314 0.651278 0.860340
Si Si5 0.212003 0.052081 0.547530
Si Si6 0.544319 0.087298 0.865590
Si Si7 0.934566 0.840255 0.820114
Si Si8 0.663639 0.618924 0.325411
O O1 0.387716 0.643734 0.610223
O O2 0.263938 0.682888 0.454417
O O3 0.577909 0.828604 0.657493
O O4 0.982813 0.789608 0.384384
O O5 0.569576 0.026388 0.929730
O O6 0.484712 0.941917 0.977311
O O7 0.960055 0.062701 0.185935
O O8 0.075870 0.124728 0.527764
O O9 0.219414 0.063172 0.689079
O O10 0.772645 0.964476 0.434102
O O11 0.610789 0.575842 0.013914
O O12 0.203725 0.746102 0.835105
O O13 0.067999 0.567178 0.716392
O O14 0.069573 0.084241 0.427742
O O15 0.602032 0.219916 0.900405
O O16 0.008203 0.900653 0.803626
#
# Coordination Sequence:
#
# PCOD8054545 Si02
#       8
#     4   4   4   4   4   4   4   4
#     4   9  21  41  62  89 121 154 204 262 305 357
#     4  10  21  40  66  91 119 156 203 258 312 360
#     4  10  20  37  61  89 119 155 202 256 306 358
#     4  11  24  42  63  88 123 164 206 251 302 360
#     4  12  24  40  61  88 124 168 204 245 299 361
#     4  10  20  37  62  91 120 156 204 258 308 358
#     4  11  23  39  60  90 127 165 204 247 298 364
#     4  11  23  42  65  92 123 160 203 253 306 362
#
# _framework density 22.225476
#
# number of rings (size 3 to 8) (size 9 to 14) (size 15 to 20)
#    0.000    1.500    0.000    6.750    0.000    4.000 
#    0.000    5.000    0.000    0.000    0.000    0.000 
#    0.000    0.000    0.000    0.000    0.000    0.000 
#
# Total GULP energy -198333.123822 kJ/mol
# GULP energy per Si atom -12395.820239 kJ/mol
# Density = 2.217489 g / cm^3
# Si number density = 22.225476 Si / 1000 Ang^3
#
#
#
# Elastic Constant Matrix: (Units=GPa)
#
#
# Indices 1 2 3 4 5 6 
#
# 1 143.2953 15.9736 44.5358 -0.0054 15.2922 0.0151
# 2 15.9736 73.3256 34.8998 -0.0186 7.7021 0.0143
# 3 44.5358 34.8998 72.4643 -0.1159 13.1887 0.0425
# 4 -0.0054 -0.0186 -0.1159 43.1267 -0.0105 9.6874
# 5 15.2922 7.7021 13.1887 -0.0105 28.9758 -0.0551
# 6 0.0151 0.0143 0.0425 9.6874 -0.0551 23.2569
#
#
#
# Elastic Compliance Matrix: (Units=1/GPa)
#
#
# Indices 1 2 3 4 5 6 
#
# 1 0.008820 0.000913 -0.005418 -0.000015 -0.002432 0.000004
# 2 0.000913 0.017810 -0.008929 -0.000019 -0.001152 0.000010
# 3 -0.005418 -0.008929 0.022327 0.000071 -0.004930 -0.000073
# 4 -0.000015 -0.000019 0.000071 0.025581 -0.000031 -0.010656
# 5 -0.002432 -0.001152 -0.004930 -0.000031 0.038345 0.000115
# 6 0.000004 0.000010 -0.000073 -0.010656 0.000115 0.047437
#
#
# Mechanical properties :
#
#
# Convention : Reuss Voigt Hill
#
# Bulk Modulus (GPa) = 45.27080 53.32263 49.29672
# Shear Modulus (GPa) = 25.70021 31.98363 28.84192
#
# Velocity S-wave (km/s) = 3.40419 3.79760 3.60626
# Velocity P-wave (km/s) = 5.98869 6.57820 6.29036
#
# Compressibility (1/GPa) = 0.02208929
#
# Stress axis : x y z
#
# Youngs Moduli (GPa) = 113.37622 56.14953 44.78843
#
# Poissons Ratio (x) = -0.05124 0.24265
# Poissons Ratio (y) = -0.10347 0.39990
# Poissons Ratio (z) = 0.61425 0.50134
#
# Static dielectric constant tensor:
#      x y z
#    x 4.199190 0.000040 0.381710 
#    y 0.000040 4.168300 -0.000140 
#    z 0.381710 -0.000140 3.788900 
# 
# 
# High freq. dielectric constant tensor:
#      x y z
#    x 1.889440 0.000000 0.027590 
#    y 0.000000 1.869790 -0.000010 
#    z 0.027590 -0.000010 1.858790 
# 
# From -- ./inp_files/37440.got.cif
#   From: 2010.06.25/outbox.cif.g09.slc.cpg/sg9_19_cif.got.tgz:37440.got - 2010.06.27 21:40:51.
