data_PCOD8054445
_publ_section_title
;
Structure prediction by ZEFSAII (Michael W. Deem and Ramdas Pophale) SiO2 
 PCOD8054445
Probable space group: C C
;
_chemical_formula_sum "Si O2"
_cell_formula_units_Z 32
_cell_length_a 27.182919
_cell_length_b 8.779837
_cell_length_c 15.446829
_cell_angle_alpha 90.000000
_cell_angle_beta 157.727031
_cell_angle_gamma 90.000000
_cell_volume 1397.280432
_symmetry_space_group_name_H-M "C C"
_symmetry_group_IT_number 9
_symmetry_cell_setting 'monoclinic'
loop_
_space_group_symop_operation_xyz
x,y,z
x,-y,1/2+z
1/2+x,1/2+y,z
1/2+x,1/2-y,1/2+z
loop_
_atom_site_type_symbol
_atom_site_label
_atom_site_fract_x
_atom_site_fract_y
_atom_site_fract_z
Si Si1 0.413540 0.416645 0.391110
Si Si2 0.543860 0.840521 0.371348
Si Si3 0.652400 0.960520 0.901098
Si Si4 0.139513 0.301832 0.244731
Si Si5 0.807719 0.734942 0.371625
Si Si6 0.605778 0.384218 0.305582
Si Si7 0.328282 0.916152 0.149474
Si Si8 0.208830 0.944811 0.125246
O O1 0.517164 0.301351 0.520467
O O2 0.320625 0.318605 0.302450
O O3 0.483838 0.559859 0.549884
O O4 0.310564 0.469082 0.150611
O O5 0.471136 0.910479 0.338206
O O6 0.645282 0.706990 0.564536
O O7 0.615361 0.973002 0.434956
O O8 0.443730 0.765195 0.141966
O O9 0.592114 0.794273 0.794991
O O10 0.592907 0.049988 0.721579
O O11 0.206701 0.335854 0.262658
O O12 0.240895 0.221803 0.473506
O O13 0.759310 0.559086 0.282100
O O14 0.746423 0.429465 0.491304
O O15 0.599517 0.468867 0.388895
O O16 0.329773 0.901077 0.257239
#
# Coordination Sequence:
#
# PCOD8054445 Si02
#       8
#     4   4   4   4   4   4   4   4
#     4  11  21  45  63  91 138 177 222 280 331 413
#     4  11  21  40  70  97 140 174 231 288 335 411
#     4  12  22  41  67  97 134 182 222 288 344 398
#     4  10  22  41  65  98 132 174 229 277 340 407
#     4  11  21  41  72  95 132 184 226 277 352 404
#     4   9  20  40  64  94 136 173 227 279 338 405
#     4   8  18  41  64  90 136 174 218 281 332 398
#     4  10  19  41  69  96 130 186 221 278 348 398
#
# _framework density 22.901630999999998
#
# number of rings (size 3 to 8) (size 9 to 14) (size 15 to 20)
#    0.750    1.000    5.000    0.000    0.000    3.000 
#    6.750    0.000    5.500    0.000    0.000    0.000 
#    0.000    0.000    0.000    0.000    0.000    0.000 
#
# Total GULP energy -198261.235523 kJ/mol
# GULP energy per Si atom -12391.327220 kJ/mol
# Density = 2.284951 g / cm^3
# Si number density = 22.901631 Si / 1000 Ang^3
#
#
#
# Elastic Constant Matrix: (Units=GPa)
#
#
# Indices 1 2 3 4 5 6 
#
# 1 75.2377 20.1414 5.9670 0.0000 26.0139 0.0000
# 2 20.1414 124.6764 21.7144 0.0000 22.4679 0.0000
# 3 5.9670 21.7144 74.0235 0.0000 17.0251 0.0000
# 4 0.0000 0.0000 0.0000 28.8301 0.0000 2.3602
# 5 26.0139 22.4679 17.0251 0.0000 25.6865 0.0000
# 6 0.0000 0.0000 0.0000 2.3602 0.0000 20.2717
#
#
#
# Elastic Compliance Matrix: (Units=1/GPa)
#
#
# Indices 1 2 3 4 5 6 
#
# 1 0.021346 0.000284 0.003805 0.000000 -0.024388 0.000000
# 2 0.000284 0.009593 -0.000992 0.000000 -0.008021 0.000000
# 3 0.003805 -0.000992 0.016731 0.000000 -0.014075 0.000000
# 4 0.000000 0.000000 0.000000 0.035020 0.000000 -0.004077
# 5 -0.024388 -0.008021 -0.014075 0.000000 0.079975 0.000000
# 6 0.000000 0.000000 0.000000 -0.004077 0.000000 0.049804
#
#
# Mechanical properties :
#
#
# Convention : Reuss Voigt Hill
#
# Bulk Modulus (GPa) = 18.56534 41.06480 29.81507
# Shear Modulus (GPa) = 22.29851 30.03197 26.16524
#
# Velocity S-wave (km/s) = 3.12375 3.62518 3.38376
# Velocity P-wave (km/s) = 4.59723 5.95755 5.32104
#
# Compressibility (1/GPa) = 0.05386380
#
# Stress axis : x y z
#
# Youngs Moduli (GPa) = 46.84745 104.24079 59.77005
#
# Poissons Ratio (x) = -0.02959 -0.22744
# Poissons Ratio (y) = -0.01330 0.05930
# Poissons Ratio (z) = -0.17827 0.10343
#
# Static dielectric constant tensor:
#      x y z
#    x 4.045870 0.000000 0.226840 
#    y 0.000000 3.952320 0.000000 
#    z 0.226840 0.000000 4.009490 
# 
# 
# High freq. dielectric constant tensor:
#      x y z
#    x 1.879850 0.000000 0.008560 
#    y 0.000000 1.899460 0.000000 
#    z 0.008560 0.000000 1.897270 
# 
# From -- ./inp_files/31872.got.cif
#   From: 2010.06.25/outbox.cif.g09.slc.cpg/sg9_16_cif.got.tgz:31872.got - 2010.06.27 21:40:51.
