data_PCOD8054572
_publ_section_title
;
Structure prediction by ZEFSAII (Michael W. Deem and Ramdas Pophale) SiO2 
 PCOD8054572
Probable space group: C C
;
_chemical_formula_sum "Si O2"
_cell_formula_units_Z 28
_cell_length_a 12.506845
_cell_length_b 25.297393
_cell_length_c 9.925762
_cell_angle_alpha 90.000000
_cell_angle_beta 155.706051
_cell_angle_gamma 90.000000
_cell_volume 1292.024622
_symmetry_space_group_name_H-M "C C"
_symmetry_group_IT_number 9
_symmetry_cell_setting 'monoclinic'
loop_
_space_group_symop_operation_xyz
x,y,z
x,-y,1/2+z
1/2+x,1/2+y,z
1/2+x,1/2-y,1/2+z
loop_
_atom_site_type_symbol
_atom_site_label
_atom_site_fract_x
_atom_site_fract_y
_atom_site_fract_z
Si Si1 0.006160 0.428032 0.388210
Si Si2 0.636480 0.227093 0.741090
Si Si3 0.073752 0.071499 0.607877
Si Si4 0.288025 0.470653 0.244716
Si Si5 0.553539 0.390395 0.373205
Si Si6 0.446615 0.270977 0.237275
Si Si7 0.023067 0.608803 0.618416
O O1 0.040311 0.492082 0.423951
O O2 0.911593 0.406399 0.136214
O O3 0.790570 0.411202 0.249354
O O4 0.290182 0.402619 0.748966
O O5 0.418428 0.247205 0.597104
O O6 0.547417 0.245169 0.491226
O O7 0.671294 0.164388 0.790412
O O8 0.167071 0.092362 0.859576
O O9 0.038715 0.007416 0.567303
O O10 0.341910 0.433415 0.178063
O O11 0.228781 0.435497 0.308137
O O12 0.414294 0.333821 0.208161
O O13 0.785981 0.387465 0.744590
O O14 0.664477 0.254097 0.376679
#
# Coordination Sequence:
#
# PCOD8054572 Si02
#       7
#     4   4   4   4   4   4   4
#     4  10  26  46  60  91 144 173 208 261 324 388
#     4  10  20  38  58  98 125 151 202 285 313 362
#     4  10  26  46  60  91 144 173 208 261 324 388
#     4  10  24  40  66  98 132 168 220 266 314 380
#     4  12  24  38  74  97 125 173 222 263 325 377
#     4  10  20  38  58  98 125 151 202 285 313 362
#     4  12  24  38  74  97 125 173 222 263 325 377
#
# _framework density 21.671413000000001
#
# number of rings (size 3 to 8) (size 9 to 14) (size 15 to 20)
#    0.857    0.571    2.857    3.429    4.000    2.286 
#    0.000    0.000    0.000    5.143    0.000    0.000 
#    0.000    0.000    0.000    0.000    0.000    0.000 
#
# Total GULP energy -173553.665689 kJ/mol
# GULP energy per Si atom -12396.690406 kJ/mol
# Density = 2.162209 g / cm^3
# Si number density = 21.671413 Si / 1000 Ang^3
#
#
#
# Elastic Constant Matrix: (Units=GPa)
#
#
# Indices 1 2 3 4 5 6 
#
# 1 162.2857 34.6386 54.0661 0.0002 11.9071 -0.0005
# 2 34.6386 103.3732 20.4998 0.0002 -9.1940 -0.0006
# 3 54.0661 20.4998 78.3278 0.0001 18.9308 0.0005
# 4 0.0002 0.0002 0.0001 10.3449 0.0002 8.0780
# 5 11.9071 -9.1940 18.9308 0.0002 44.3859 0.0004
# 6 -0.0005 -0.0006 0.0005 8.0780 0.0004 14.1769
#
#
#
# Elastic Compliance Matrix: (Units=1/GPa)
#
#
# Indices 1 2 3 4 5 6 
#
# 1 0.008292 -0.001790 -0.005160 -0.000001 -0.000395 0.000001
# 2 -0.001790 0.011142 -0.002625 -0.000001 0.003908 0.000001
# 3 -0.005160 -0.002625 0.018744 0.000001 -0.007154 -0.000001
# 4 -0.000001 -0.000001 0.000001 0.174152 -0.000001 -0.099232
# 5 -0.000395 0.003908 -0.007154 -0.000001 0.026496 0.000000
# 6 0.000001 0.000001 -0.000001 -0.099232 0.000000 0.127080
#
#
# Mechanical properties :
#
#
# Convention : Reuss Voigt Hill
#
# Bulk Modulus (GPa) = 52.55208 62.48841 57.52024
# Shear Modulus (GPa) = 12.77472 29.43370 21.10421
#
# Velocity S-wave (km/s) = 2.43054 3.68935 3.12401
# Velocity P-wave (km/s) = 5.67264 6.85897 6.29382
#
# Compressibility (1/GPa) = 0.01902874
#
# Stress axis : x y z
#
# Youngs Moduli (GPa) = 120.59762 89.75349 53.34984
#
# Poissons Ratio (x) = 0.16070 0.27527
# Poissons Ratio (y) = 0.21592 0.14002
# Poissons Ratio (z) = 0.62224 0.23556
#
# Static dielectric constant tensor:
#      x y z
#    x 4.576250 0.000000 0.921460 
#    y 0.000000 3.908040 0.000000 
#    z 0.921460 0.000000 4.374120 
# 
# 
# High freq. dielectric constant tensor:
#      x y z
#    x 1.848110 0.000000 0.032800 
#    y 0.000000 1.848870 0.000000 
#    z 0.032800 0.000000 1.819020 
# 
# From -- ./inp_files/8551.got.cif
#   From: 2010.06.25/outbox.cif.g09.slc.cpg/sg9_5_cif.got.tgz:8551.got - 2010.06.27 21:40:51.
