data_PCOD8054576
_publ_section_title
;
Structure prediction by ZEFSAII (Michael W. Deem and Ramdas Pophale) SiO2 
 PCOD8054576
Probable space group: C C
;
_chemical_formula_sum "Si O2"
_cell_formula_units_Z 32
_cell_length_a 21.368704
_cell_length_b 13.203711
_cell_length_c 16.032478
_cell_angle_alpha 90.000000
_cell_angle_beta 161.547965
_cell_angle_gamma 90.000000
_cell_volume 1431.736794
_symmetry_space_group_name_H-M "C C"
_symmetry_group_IT_number 9
_symmetry_cell_setting 'monoclinic'
loop_
_space_group_symop_operation_xyz
x,y,z
x,-y,1/2+z
1/2+x,1/2+y,z
1/2+x,1/2-y,1/2+z
loop_
_atom_site_type_symbol
_atom_site_label
_atom_site_fract_x
_atom_site_fract_y
_atom_site_fract_z
Si Si1 0.427160 0.188150 0.232300
Si Si2 0.838628 0.580836 0.958999
Si Si3 0.010700 0.078833 0.414270
Si Si4 0.204060 0.488791 0.817475
Si Si5 0.554805 0.396936 0.355676
Si Si6 0.395999 0.320622 0.611027
Si Si7 0.170024 0.121007 0.312529
Si Si8 0.779905 0.053618 0.735321
O O1 0.447198 0.308398 0.272506
O O2 0.630623 0.136470 0.514244
O O3 0.387343 0.171480 0.083442
O O4 0.253557 0.146229 0.068918
O O5 0.018860 0.566371 0.123595
O O6 0.654072 0.615365 0.669163
O O7 0.793306 0.482694 0.959328
O O8 0.953981 0.173640 0.282817
O O9 0.112401 0.989236 0.489080
O O10 0.813548 0.030512 0.206056
O O11 0.188994 0.492908 0.698745
O O12 0.409082 0.432913 0.098308
O O13 0.213492 0.603009 0.865334
O O14 0.324286 0.211317 0.488283
O O15 0.587052 0.358786 0.800423
O O16 0.983954 0.113626 0.014435
#
# Coordination Sequence:
#
# PCOD8054576 Si02
#       8
#     4   4   4   4   4   4   4   4
#     4  12  23  39  61  89 121 158 198 247 300 357
#     4  11  22  40  62  87 120 159 197 246 301 356
#     4  10  21  40  61  87 120 157 199 246 297 356
#     4  10  21  39  61  86 118 156 199 249 300 354
#     4  11  23  40  61  87 119 156 200 248 299 356
#     4  10  20  38  60  89 121 155 198 250 297 351
#     4  10  22  38  61  90 121 157 200 248 298 353
#     4  10  22  38  61  89 120 158 201 246 298 353
#
# _framework density 22.350477000000001
#
# number of rings (size 3 to 8) (size 9 to 14) (size 15 to 20)
#    0.000    1.500    0.000    7.500    0.000    7.000 
#    0.000    5.000    0.000    0.000    0.000    0.000 
#    0.000    0.000    0.000    0.000    0.000    0.000 
#
# Total GULP energy -198404.939713 kJ/mol
# GULP energy per Si atom -12400.308732 kJ/mol
# Density = 2.229961 g / cm^3
# Si number density = 22.350477 Si / 1000 Ang^3
#
#
#
# Elastic Constant Matrix: (Units=GPa)
#
#
# Indices 1 2 3 4 5 6 
#
# 1 94.9615 4.3907 14.6089 0.0060 -5.5111 0.0074
# 2 4.3907 42.4698 26.5129 0.0071 2.2562 0.0087
# 3 14.6089 26.5129 71.2059 0.0032 -6.6539 0.0029
# 4 0.0060 0.0071 0.0032 22.1562 0.0040 5.0129
# 5 -5.5111 2.2562 -6.6539 0.0040 35.3835 0.0069
# 6 0.0074 0.0087 0.0029 5.0129 0.0069 28.4353
#
#
#
# Elastic Compliance Matrix: (Units=1/GPa)
#
#
# Indices 1 2 3 4 5 6 
#
# 1 0.010933 0.000166 -0.002185 -0.000002 0.001281 -0.000003
# 2 0.000166 0.031298 -0.012084 -0.000006 -0.004242 -0.000006
# 3 -0.002185 -0.012084 0.019372 0.000001 0.004073 0.000001
# 4 -0.000002 -0.000006 0.000001 0.047009 -0.000004 -0.008287
# 5 0.001281 -0.004242 0.004073 -0.000004 0.029498 -0.000006
# 6 -0.000003 -0.000006 0.000001 -0.008287 -0.000006 0.036628
#
#
# Mechanical properties :
#
#
# Convention : Reuss Voigt Hill
#
# Bulk Modulus (GPa) = 29.94297 33.29580 31.61938
# Shear Modulus (GPa) = 23.35595 28.06999 25.71297
#
# Velocity S-wave (km/s) = 3.23613 3.54771 3.39550
# Velocity P-wave (km/s) = 5.23350 5.63127 5.43602
#
# Compressibility (1/GPa) = 0.03339683
#
# Stress axis : x y z
#
# Youngs Moduli (GPa) = 91.46252 31.95074 51.62070
#
# Poissons Ratio (x) = -0.00529 0.11280
# Poissons Ratio (y) = -0.01515 0.62379
# Poissons Ratio (z) = 0.19985 0.38609
#
# Static dielectric constant tensor:
#      x y z
#    x 4.126650 -0.000010 -0.029760 
#    y -0.000010 4.046030 -0.000010 
#    z -0.029760 -0.000010 3.939980 
# 
# 
# High freq. dielectric constant tensor:
#      x y z
#    x 1.893860 0.000000 0.002690 
#    y 0.000000 1.863150 0.000000 
#    z 0.002690 0.000000 1.874880 
# 
# From -- ./inp_files/27470.got.cif
#   From: 2010.06.25/outbox.cif.g09.slc.cpg/sg9_14_cif.got.tgz:27470.got - 2010.06.27 21:40:51.
