data_PCOD8054809
_publ_section_title
;
Structure prediction by ZEFSAII (Michael W. Deem and Ramdas Pophale) SiO2 
 PCOD8054809
Probable space group: C C
;
_chemical_formula_sum "Si O2"
_cell_formula_units_Z 32
_cell_length_a 26.488576
_cell_length_b 9.493095
_cell_length_c 8.354185
_cell_angle_alpha 90.000000
_cell_angle_beta 138.827916
_cell_angle_gamma 90.000000
_cell_volume 1382.959347
_symmetry_space_group_name_H-M "C C"
_symmetry_group_IT_number 9
_symmetry_cell_setting 'monoclinic'
loop_
_space_group_symop_operation_xyz
x,y,z
x,-y,1/2+z
1/2+x,1/2+y,z
1/2+x,1/2-y,1/2+z
loop_
_atom_site_type_symbol
_atom_site_label
_atom_site_fract_x
_atom_site_fract_y
_atom_site_fract_z
Si Si1 0.395590 0.330971 0.844910
Si Si2 0.247145 0.319571 0.983688
Si Si3 0.973768 0.057280 0.835522
Si Si4 0.887056 0.445055 0.490394
Si Si5 0.137952 0.851642 0.700482
Si Si6 0.912856 0.291784 0.865847
Si Si7 0.716037 0.431170 0.192657
Si Si8 0.728251 0.110987 0.804675
O O1 0.454270 0.400411 0.854889
O O2 0.411839 0.163816 0.907712
O O3 0.307836 0.348883 0.582436
O O4 0.407953 0.403966 0.048787
O O5 0.211692 0.175591 0.832157
O O6 0.217277 0.444216 0.797746
O O7 0.338029 0.305163 0.187111
O O8 0.224189 0.348500 0.110016
O O9 0.976142 0.169416 0.992535
O O10 0.056509 0.081249 0.951737
O O11 0.922154 0.399900 0.741551
O O12 0.916552 0.605366 0.528209
O O13 0.795193 0.439090 0.284521
O O14 0.154510 0.685482 0.714134
O O15 0.201798 0.917260 0.735040
O O16 0.149099 0.890062 0.911563
#
# Coordination Sequence:
#
# PCOD8054809 Si02
#       8
#     4   4   4   4   4   4   4   4
#     4  11  23  41  65  95 135 169 229 269 329 393
#     4  11  24  38  68  98 128 164 227 281 332 383
#     4  11  25  43  62  99 135 178 214 276 339 402
#     4  10  21  37  62  94 121 163 215 279 310 383
#     4  12  24  42  68  93 142 175 222 271 342 401
#     4  10  22  38  61  91 129 162 218 266 335 386
#     4  11  22  42  62 100 129 175 219 275 331 398
#     4  12  23  41  66 100 127 176 220 287 320 396
#
# _framework density 23.138786
#
# number of rings (size 3 to 8) (size 9 to 14) (size 15 to 20)
#    0.000    1.000    2.500    5.250    3.500    0.000 
#    0.000    6.250    0.000    0.000    0.000    0.000 
#    0.000    0.000    0.000    0.000    0.000    0.000 
#
# Total GULP energy -198293.640976 kJ/mol
# GULP energy per Si atom -12393.352561 kJ/mol
# Density = 2.308612 g / cm^3
# Si number density = 23.138786 Si / 1000 Ang^3
#
#
#
# Elastic Constant Matrix: (Units=GPa)
#
#
# Indices 1 2 3 4 5 6 
#
# 1 84.7243 35.1593 23.6165 0.0000 -2.5084 0.0000
# 2 35.1593 103.3746 -4.2475 0.0000 9.7921 0.0000
# 3 23.6165 -4.2475 50.7179 0.0000 -1.5635 0.0000
# 4 0.0000 0.0000 0.0000 26.1060 0.0000 -3.3124
# 5 -2.5084 9.7921 -1.5635 0.0000 31.6663 0.0000
# 6 0.0000 0.0000 0.0000 -3.3124 0.0000 50.3109
#
#
#
# Elastic Compliance Matrix: (Units=1/GPa)
#
#
# Indices 1 2 3 4 5 6 
#
# 1 0.016824 -0.006335 -0.008276 0.000000 0.002883 0.000000
# 2 -0.006335 0.012379 0.003859 0.000000 -0.004139 0.000000
# 3 -0.008276 0.003859 0.023873 0.000000 -0.000670 0.000000
# 4 0.000000 0.000000 0.000000 0.038628 0.000000 0.002543
# 5 0.002883 -0.004139 -0.000670 0.000000 0.033055 0.000000
# 6 0.000000 0.000000 0.000000 0.002543 0.000000 0.020044
#
#
# Mechanical properties :
#
#
# Convention : Reuss Voigt Hill
#
# Bulk Modulus (GPa) = 31.67345 38.65260 35.16302
# Shear Modulus (GPa) = 28.27560 33.90254 31.08907
#
# Velocity S-wave (km/s) = 3.49950 3.83192 3.66948
# Velocity P-wave (km/s) = 5.48150 6.02653 5.76047
#
# Compressibility (1/GPa) = 0.03157218
#
# Stress axis : x y z
#
# Youngs Moduli (GPa) = 59.43791 80.78221 41.88830
#
# Poissons Ratio (x) = 0.51178 0.34666
# Poissons Ratio (y) = 0.37656 -0.16165
# Poissons Ratio (z) = 0.49190 -0.31175
#
# Static dielectric constant tensor:
#      x y z
#    x 4.052080 0.000000 -0.247970 
#    y 0.000000 4.559830 0.000000 
#    z -0.247970 0.000000 3.907260 
# 
# 
# High freq. dielectric constant tensor:
#      x y z
#    x 1.905980 0.000000 -0.028190 
#    y 0.000000 1.930410 0.000000 
#    z -0.028190 0.000000 1.884350 
# 
# From -- ./inp_files/12405.got.cif
#   From: 2010.06.25/outbox.cif.g09.slc.cpg/sg9_7_cif.got.tgz:12405.got - 2010.06.27 21:40:51.
