data_PCOD8054089
_publ_section_title
;
Structure prediction by ZEFSAII (Michael W. Deem and Ramdas Pophale) SiO2 
 PCOD8054089
Probable space group: C M
;
_chemical_formula_sum "Si O2"
_cell_formula_units_Z 24
_cell_length_a 5.117009
_cell_length_b 22.969451
_cell_length_c 11.018196
_cell_angle_alpha 90.000000
_cell_angle_beta 117.626655
_cell_angle_gamma 90.000000
_cell_volume 1147.374265
_symmetry_space_group_name_H-M "C M"
_symmetry_group_IT_number 8
_symmetry_cell_setting 'monoclinic'
loop_
_space_group_symop_operation_xyz
x,y,z
x,-y,z
1/2+x,1/2+y,z
1/2+x,1/2-y,z
loop_
_atom_site_type_symbol
_atom_site_label
_atom_site_fract_x
_atom_site_fract_y
_atom_site_fract_z
Si Si1 0.166490 0.633586 0.132430
Si Si2 0.727914 0.431804 0.196693
Si Si3 0.139758 0.132403 0.621087
Si Si4 0.879837 0.213782 0.380078
Si Si5 0.435131 0.210502 0.872542
Si Si6 0.034584 0.568366 0.516861
O O1 0.388543 0.587787 0.119408
O O2 0.339675 0.659706 0.283299
O O3 0.879834 0.599405 0.115611
O O4 0.079469 0.686629 0.026697
O O5 0.743537 0.500000 0.178659
O O6 0.888496 0.414656 0.356952
O O7 0.322137 0.153365 0.777182
O O8 0.323301 0.086832 0.580951
O O9 0.072309 0.191703 0.534150
O O10 0.841149 0.101568 0.599128
O O11 0.558056 0.234863 0.352702
O O12 0.675633 0.244508 0.845622
O O13 0.091357 0.500000 0.537611
#
# Coordination Sequence:
#
# PCOD8054089 Si02
#       6
#     4   4   4   4   4   4
#     4  12  23  42  64  95 125 169 213 258 319 374
#     4  11  22  41  67  97 128 164 208 266 324 371
#     4  12  23  42  64  95 125 169 213 258 319 374
#     4  12  22  36  59  90 119 154 212 264 298 360
#     4  12  26  46  65  90 133 176 208 256 322 380
#     4  11  22  41  67  97 128 164 208 266 324 371
#
# _framework density 20.917324000000001
#
# number of rings (size 3 to 8) (size 9 to 14) (size 15 to 20)
#    0.000    0.333    3.333    7.000    0.000    2.667 
#    0.000    5.000    0.000    0.000    0.000    0.000 
#    0.000    0.000    0.000    0.000    0.000    0.000 
#
# Total GULP energy -148896.252213 kJ/mol
# GULP energy per Si atom -12408.021018 kJ/mol
# Density = 2.086972 g / cm^3
# Si number density = 20.917324 Si / 1000 Ang^3
#
#
#
# Elastic Constant Matrix: (Units=GPa)
#
#
# Indices 1 2 3 4 5 6 
#
# 1 89.6927 20.8676 19.7272 0.0000 -1.6927 0.0000
# 2 20.8676 82.0467 22.0376 0.0000 -0.1402 0.0000
# 3 19.7272 22.0376 54.5274 0.0000 3.3007 0.0000
# 4 0.0000 0.0000 0.0000 36.0978 0.0000 4.9590
# 5 -1.6927 -0.1402 3.3007 0.0000 22.0630 0.0000
# 6 0.0000 0.0000 0.0000 4.9590 0.0000 41.4125
#
#
#
# Elastic Compliance Matrix: (Units=1/GPa)
#
#
# Indices 1 2 3 4 5 6 
#
# 1 0.012505 -0.002174 -0.003737 0.000000 0.001505 0.000000
# 2 -0.002174 0.014069 -0.004940 0.000000 0.000662 0.000000
# 3 -0.003737 -0.004940 0.021905 0.000000 -0.003595 0.000000
# 4 0.000000 0.000000 0.000000 0.028166 0.000000 -0.003373
# 5 0.001505 0.000662 -0.003595 0.000000 0.045982 0.000000
# 6 0.000000 0.000000 0.000000 -0.003373 0.000000 0.024551
#
#
# Mechanical properties :
#
#
# Convention : Reuss Voigt Hill
#
# Bulk Modulus (GPa) = 37.34306 39.05908 38.20107
# Shear Modulus (GPa) = 28.12056 30.82361 29.47209
#
# Velocity S-wave (km/s) = 3.67054 3.84290 3.75771
# Velocity P-wave (km/s) = 5.98793 6.19711 6.09342
#
# Compressibility (1/GPa) = 0.02677874
#
# Stress axis : x y z
#
# Youngs Moduli (GPa) = 79.96623 71.07780 45.65134
#
# Poissons Ratio (x) = 0.15455 0.17058
# Poissons Ratio (y) = 0.17388 0.22549
# Poissons Ratio (z) = 0.29880 0.35109
#
# Static dielectric constant tensor:
#      x y z
#    x 3.946070 0.000000 -0.005610 
#    y 0.000000 3.718710 0.000000 
#    z -0.005610 0.000000 3.678530 
# 
# 
# High freq. dielectric constant tensor:
#      x y z
#    x 1.839850 0.000000 -0.000590 
#    y 0.000000 1.828910 0.000000 
#    z -0.000590 0.000000 1.804410 
# 
# From -- ./inp_files/18072.got.cif
#   From: 2010.03.12/outbox.cif.g09.slc.cpg/sg8_10_cif.got.tgz:18072.got - 2010.03.31 10:45:26.
