data_PCOD8054165
_publ_section_title
;
Structure prediction by ZEFSAII (Michael W. Deem and Ramdas Pophale) SiO2 
 PCOD8054165
Probable space group: C C
;
_chemical_formula_sum "Si O2"
_cell_formula_units_Z 32
_cell_length_a 14.787824
_cell_length_b 24.011383
_cell_length_c 8.683830
_cell_angle_alpha 90.000000
_cell_angle_beta 32.856797
_cell_angle_gamma 90.000000
_cell_volume 1672.882659
_symmetry_space_group_name_H-M "C C"
_symmetry_group_IT_number 9
_symmetry_cell_setting 'monoclinic'
loop_
_space_group_symop_operation_xyz
x,y,z
x,-y,1/2+z
1/2+x,1/2+y,z
1/2+x,1/2-y,1/2+z
loop_
_atom_site_type_symbol
_atom_site_label
_atom_site_fract_x
_atom_site_fract_y
_atom_site_fract_z
Si Si1 0.626720 0.753600 0.642130
Si Si2 0.325271 0.930535 0.879836
Si Si3 0.928786 0.069500 0.903374
Si Si4 0.956577 0.030706 0.181044
Si Si5 0.312281 0.175091 0.599308
Si Si6 0.297396 0.030697 0.102384
Si Si7 0.126695 0.116494 0.142175
Si Si8 0.441275 0.675140 0.684716
O O1 0.679840 0.715637 0.709049
O O2 0.573636 0.715754 0.574921
O O3 0.778175 0.791569 0.366268
O O4 0.475171 0.791525 0.918234
O O5 0.395060 0.940581 0.606323
O O6 0.372199 0.872281 0.892075
O O7 0.127043 0.933136 0.141376
O O8 0.401888 0.980852 0.873385
O O9 0.881698 0.127774 0.891602
O O10 0.852238 0.019262 0.909397
O O11 0.859069 0.059407 0.176766
O O12 0.987522 0.078836 0.260590
O O13 0.127278 0.000173 0.891394
O O14 0.223159 0.152565 0.878317
O O15 0.265743 0.078874 0.024189
O O16 0.030261 0.152666 0.405777
#
# Coordination Sequence:
#
# PCOD8054165 Si02
#       8
#     4   4   4   4   4   4   4   4
#     4  10  24  41  54  72 106 153 184 224 274 318
#     4  10  15  28  50  81 106 138 171 221 255 317
#     4  10  15  28  50  81 106 138 171 221 255 317
#     4  10  15  25  49  89 110 132 169 220 256 324
#     4  11  21  37  57  78 107 142 184 227 273 313
#     4  10  15  25  49  89 110 132 169 220 256 324
#     4  12  18  29  58  86 108 133 182 226 266 312
#     4  11  21  37  57  78 107 142 184 227 273 313
#
# _framework density 19.128658000000001
#
# number of rings (size 3 to 8) (size 9 to 14) (size 15 to 20)
#    0.000    1.500   10.000    0.000    0.000    1.000 
#    0.000    0.000    0.000    6.000    0.000    0.000 
#    0.000    0.000    0.000    0.000    0.000    0.000 
#
# Total GULP energy -198251.313644 kJ/mol
# GULP energy per Si atom -12390.707103 kJ/mol
# Density = 1.908512 g / cm^3
# Si number density = 19.128658 Si / 1000 Ang^3
#
#
#
# Elastic Constant Matrix: (Units=GPa)
#
#
# Indices 1 2 3 4 5 6 
#
# 1 111.0025 76.3483 42.9496 -0.0003 23.4250 0.0002
# 2 76.3483 153.9964 48.1014 0.0000 12.9687 -0.0001
# 3 42.9496 48.1014 35.3643 -0.0006 5.2491 0.0003
# 4 -0.0003 0.0000 -0.0006 11.5415 0.0007 10.7203
# 5 23.4250 12.9687 5.2491 0.0007 27.0780 -0.0003
# 6 0.0002 -0.0001 0.0003 10.7203 -0.0003 13.2955
#
#
#
# Elastic Compliance Matrix: (Units=1/GPa)
#
#
# Indices 1 2 3 4 5 6 
#
# 1 0.021982 -0.003564 -0.019851 0.000002 -0.013461 -0.000002
# 2 -0.003564 0.012035 -0.011989 -0.000004 -0.000357 0.000004
# 3 -0.019851 -0.011989 0.067226 0.000013 0.009883 -0.000011
# 4 0.000002 -0.000004 0.000013 0.345110 -0.000014 -0.278266
# 5 -0.013461 -0.000357 0.009883 -0.000014 0.046831 0.000012
# 6 -0.000002 0.000004 -0.000011 -0.278266 0.000012 0.299582
#
#
# Mechanical properties :
#
#
# Convention : Reuss Voigt Hill
#
# Bulk Modulus (GPa) = 32.85640 70.57352 51.71496
# Shear Modulus (GPa) = 5.72267 19.24726 12.48497
#
# Velocity S-wave (km/s) = 1.73152 3.17551 2.55754
# Velocity P-wave (km/s) = 4.60558 7.10066 5.98459
#
# Compressibility (1/GPa) = 0.03043547
#
# Stress axis : x y z
#
# Youngs Moduli (GPa) = 45.49255 83.08817 14.87523
#
# Poissons Ratio (x) = 0.29612 0.29529
# Poissons Ratio (y) = 0.16213 0.17834
# Poissons Ratio (z) = 0.90307 0.99613
#
# Static dielectric constant tensor:
#      x y z
#    x 4.512480 0.000000 0.833110 
#    y 0.000000 3.893540 0.000000 
#    z 0.833110 0.000000 3.297100 
# 
# 
# High freq. dielectric constant tensor:
#      x y z
#    x 1.748950 0.000000 0.032740 
#    y 0.000000 1.761840 0.000000 
#    z 0.032740 0.000000 1.685580 
# 
# From -- ./inp_files/10156.got.cif
#   From: 2010.06.25/outbox.cif.g09.slc.cpg/sg9_6_cif.got.tgz:10156.got - 2010.06.27 21:40:51.
