data_PCOD8054542
_publ_section_title
;
Structure prediction by ZEFSAII (Michael W. Deem and Ramdas Pophale) SiO2 
 PCOD8054542
Probable space group: C C
;
_chemical_formula_sum "Si O2"
_cell_formula_units_Z 28
_cell_length_a 9.959029
_cell_length_b 24.948593
_cell_length_c 9.364981
_cell_angle_alpha 90.000000
_cell_angle_beta 33.795836
_cell_angle_gamma 90.000000
_cell_volume 1294.280600
_symmetry_space_group_name_H-M "C C"
_symmetry_group_IT_number 9
_symmetry_cell_setting 'monoclinic'
loop_
_space_group_symop_operation_xyz
x,y,z
x,-y,1/2+z
1/2+x,1/2+y,z
1/2+x,1/2-y,1/2+z
loop_
_atom_site_type_symbol
_atom_site_label
_atom_site_fract_x
_atom_site_fract_y
_atom_site_fract_z
Si Si1 0.593750 0.233365 0.564080
Si Si2 0.240989 0.530039 0.190801
Si Si3 0.004699 0.385909 0.085823
Si Si4 0.075070 0.889237 0.245654
Si Si5 0.099740 0.956386 0.966080
Si Si6 0.445004 0.273395 0.390365
Si Si7 0.329026 0.963611 0.460070
O O1 0.631940 0.170568 0.501494
O O2 0.508888 0.264918 0.498589
O O3 0.860930 0.255958 0.377097
O O4 0.196356 0.570908 0.360038
O O5 0.003844 0.515922 0.310442
O O6 0.437912 0.557089 0.914443
O O7 0.323539 0.469931 0.166424
O O8 0.804292 0.377117 0.141245
O O9 0.916060 0.407513 0.316628
O O10 0.908036 0.836623 0.394421
O O11 0.141658 0.902877 0.022182
O O12 0.249619 0.949404 0.689243
O O13 0.142940 0.013157 0.009336
O O14 0.179121 0.247567 0.590419
#
# Coordination Sequence:
#
# PCOD8054542 Si02
#       7
#     4   4   4   4   4   4   4
#     4  10  20  37  60  95 122 156 211 272 314 369
#     4  12  22  38  62  90 128 166 204 252 314 378
#     4  12  23  37  65  92 123 164 205 259 320 370
#     4  12  23  37  65  92 123 164 205 259 320 370
#     4  12  24  41  57  89 129 165 208 252 305 382
#     4  10  20  37  60  95 122 156 211 272 314 369
#     4  12  24  41  57  89 129 165 208 252 305 382
#
# _framework density 21.63364
#
# number of rings (size 3 to 8) (size 9 to 14) (size 15 to 20)
#    0.000    0.571    8.571    2.571    0.000    0.000 
#    0.000    0.000    0.000    1.714    0.000    0.000 
#    0.000    0.000    0.000    0.000    0.000    0.000 
#
# Total GULP energy -173446.905299 kJ/mol
# GULP energy per Si atom -12389.064664 kJ/mol
# Density = 2.158440 g / cm^3
# Si number density = 21.633640 Si / 1000 Ang^3
#
#
#
# Elastic Constant Matrix: (Units=GPa)
#
#
# Indices 1 2 3 4 5 6 
#
# 1 40.6501 17.8874 36.4059 0.0000 16.0474 0.0000
# 2 17.8874 94.6597 20.7495 0.0000 9.1326 0.0000
# 3 36.4059 20.7495 111.1477 0.0000 -8.0266 0.0000
# 4 0.0000 0.0000 0.0000 38.4535 0.0000 2.7397
# 5 16.0474 9.1326 -8.0266 0.0000 39.1338 0.0000
# 6 0.0000 0.0000 0.0000 2.7397 0.0000 8.9002
#
#
#
# Elastic Compliance Matrix: (Units=1/GPa)
#
#
# Indices 1 2 3 4 5 6 
#
# 1 0.051877 -0.003508 -0.018082 0.000000 -0.024163 0.000000
# 2 -0.003508 0.011620 -0.001129 0.000000 -0.001505 0.000000
# 3 -0.018082 -0.001129 0.015921 0.000000 0.010944 0.000000
# 4 0.000000 0.000000 0.000000 0.026589 0.000000 -0.008185
# 5 -0.024163 -0.001505 0.010944 0.000000 0.038058 0.000000
# 6 0.000000 0.000000 0.000000 -0.008185 0.000000 0.114877
#
#
# Mechanical properties :
#
#
# Convention : Reuss Voigt Hill
#
# Bulk Modulus (GPa) = 29.42965 44.06034 36.74500
# Shear Modulus (GPa) = 15.83759 28.72514 22.28136
#
# Velocity S-wave (km/s) = 2.70864 3.64785 3.21275
# Velocity P-wave (km/s) = 4.83895 6.17683 5.54836
#
# Compressibility (1/GPa) = 0.03397933
#
# Stress axis : x y z
#
# Youngs Moduli (GPa) = 19.27643 86.06096 62.81107
#
# Poissons Ratio (x) = 0.30191 1.13575
# Poissons Ratio (y) = 0.06762 0.07090
# Poissons Ratio (z) = 0.34856 0.09715
#
# Static dielectric constant tensor:
#      x y z
#    x 3.662660 0.000000 -0.235080 
#    y 0.000000 3.805220 0.000000 
#    z -0.235080 0.000000 4.437700 
# 
# 
# High freq. dielectric constant tensor:
#      x y z
#    x 1.808660 0.000000 -0.018590 
#    y 0.000000 1.845990 0.000000 
#    z -0.018590 0.000000 1.859350 
# 
# From -- ./inp_files/835.got.cif
#   From: 2010.06.25/outbox.cif.g09.slc.cpg/sg9_1_cif.got.tgz:835.got - 2010.06.27 21:40:51.
