data_PCOD8054801
_publ_section_title
;
Structure prediction by ZEFSAII (Michael W. Deem and Ramdas Pophale) SiO2 
 PCOD8054801
Probable space group: C C
;
_chemical_formula_sum "Si O2"
_cell_formula_units_Z 32
_cell_length_a 6.585015
_cell_length_b 26.271533
_cell_length_c 8.739621
_cell_angle_alpha 90.000000
_cell_angle_beta 98.971841
_cell_angle_gamma 90.000000
_cell_volume 1493.442351
_symmetry_space_group_name_H-M "C C"
_symmetry_group_IT_number 9
_symmetry_cell_setting 'monoclinic'
loop_
_space_group_symop_operation_xyz
x,y,z
x,-y,1/2+z
1/2+x,1/2+y,z
1/2+x,1/2-y,1/2+z
loop_
_atom_site_type_symbol
_atom_site_label
_atom_site_fract_x
_atom_site_fract_y
_atom_site_fract_z
Si Si1 0.352180 0.154041 0.603530
Si Si2 0.766277 0.980593 0.421294
Si Si3 0.651682 0.219813 0.454775
Si Si4 0.476548 0.694073 0.728194
Si Si5 0.945109 0.435792 0.896987
Si Si6 0.729145 0.866098 0.735646
Si Si7 0.512299 0.545089 0.227166
Si Si8 0.169346 0.368115 0.382223
O O1 0.441680 0.195535 0.495474
O O2 0.373533 0.097859 0.532997
O O3 0.472062 0.156305 0.778456
O O4 0.119179 0.167657 0.617069
O O5 0.646005 0.928842 0.371489
O O6 0.966348 0.966176 0.545349
O O7 0.602546 0.020744 0.474514
O O8 0.861772 0.003895 0.282266
O O9 0.601087 0.272110 0.364147
O O10 0.810667 0.227972 0.614083
O O11 0.759097 0.182984 0.343874
O O12 0.370228 0.649157 0.811400
O O13 0.748843 0.462895 0.796564
O O14 0.046316 0.401368 0.777267
O O15 0.675826 0.848315 0.557349
O O16 0.943142 0.897482 0.763440
#
# Coordination Sequence:
#
# PCOD8054801 Si02
#       8
#     4   4   4   4   4   4   4   4
#     4  10  23  42  65  92 127 166 212 260 316 378
#     4  10  22  38  58  90 130 160 210 263 309 379
#     4  10  24  43  63  92 126 165 212 263 318 375
#     4  11  25  42  66  94 126 167 213 264 321 377
#     4  10  21  40  63  89 122 174 208 255 322 379
#     4   9  21  41  61  88 129 161 209 267 309 374
#     4  10  21  37  60  90 121 167 208 255 319 377
#     4  10  23  41  60  95 129 164 206 267 310 375
#
# _framework density 21.427007
#
# number of rings (size 3 to 8) (size 9 to 14) (size 15 to 20)
#    0.000    2.000    0.000    1.500    3.500   11.000 
#    4.500    0.000    0.000    0.000    0.000    0.000 
#    0.000    0.000    0.000    0.000    0.000    0.000 
#
# Total GULP energy -198390.006634 kJ/mol
# GULP energy per Si atom -12399.375415 kJ/mol
# Density = 2.137824 g / cm^3
# Si number density = 21.427007 Si / 1000 Ang^3
#
#
#
# Elastic Constant Matrix: (Units=GPa)
#
#
# Indices 1 2 3 4 5 6 
#
# 1 92.7866 25.3747 29.8644 0.0000 5.8124 0.0000
# 2 25.3747 83.7978 27.6602 0.0000 -1.6992 0.0000
# 3 29.8644 27.6602 100.4692 0.0000 -1.4317 0.0000
# 4 0.0000 0.0000 0.0000 28.8798 0.0000 3.6475
# 5 5.8124 -1.6992 -1.4317 0.0000 30.8381 0.0000
# 6 0.0000 0.0000 0.0000 3.6475 0.0000 21.1758
#
#
#
# Elastic Compliance Matrix: (Units=1/GPa)
#
#
# Indices 1 2 3 4 5 6 
#
# 1 0.012713 -0.002908 -0.003017 0.000000 -0.002696 0.000000
# 2 -0.002908 0.013801 -0.002918 0.000000 0.001173 0.000000
# 3 -0.003017 -0.002918 0.011667 0.000000 0.000949 0.000000
# 4 0.000000 0.000000 0.000000 0.035396 0.000000 -0.006097
# 5 -0.002696 0.001173 0.000949 0.000000 0.033044 0.000000
# 6 0.000000 0.000000 0.000000 -0.006097 0.000000 0.048274
#
#
# Mechanical properties :
#
#
# Convention : Reuss Voigt Hill
#
# Bulk Modulus (GPa) = 48.79444 49.20580 49.00012
# Shear Modulus (GPa) = 27.86855 29.12234 28.49545
#
# Velocity S-wave (km/s) = 3.61033 3.69065 3.65071
# Velocity P-wave (km/s) = 6.34044 6.41681 6.37874
#
# Compressibility (1/GPa) = 0.02049414
#
# Stress axis : x y z
#
# Youngs Moduli (GPa) = 78.66203 72.45690 85.71225
#
# Poissons Ratio (x) = 0.21074 0.25855
# Poissons Ratio (y) = 0.22879 0.25014
# Poissons Ratio (z) = 0.23728 0.21146
#
# Static dielectric constant tensor:
#      x y z
#    x 3.742590 0.000000 -0.028680 
#    y 0.000000 3.734030 0.000000 
#    z -0.028680 0.000000 3.923110 
# 
# 
# High freq. dielectric constant tensor:
#      x y z
#    x 1.833310 0.000000 0.000580 
#    y 0.000000 1.831970 0.000000 
#    z 0.000580 0.000000 1.851360 
# 
# From -- ./inp_files/4367.got.cif
#   From: 2010.06.25/outbox.cif.g09.slc.cpg/sg9_3_cif.got.tgz:4367.got - 2010.06.27 21:40:51.
