data_PCOD8054491
_publ_section_title
;
Structure prediction by ZEFSAII (Michael W. Deem and Ramdas Pophale) SiO2 
 PCOD8054491
Probable space group: C C
;
_chemical_formula_sum "Si O2"
_cell_formula_units_Z 32
_cell_length_a 17.592596
_cell_length_b 9.398799
_cell_length_c 20.788038
_cell_angle_alpha 90.000000
_cell_angle_beta 26.355969
_cell_angle_gamma 90.000000
_cell_volume 1525.972235
_symmetry_space_group_name_H-M "C C"
_symmetry_group_IT_number 9
_symmetry_cell_setting 'monoclinic'
loop_
_space_group_symop_operation_xyz
x,y,z
x,-y,1/2+z
1/2+x,1/2+y,z
1/2+x,1/2-y,1/2+z
loop_
_atom_site_type_symbol
_atom_site_label
_atom_site_fract_x
_atom_site_fract_y
_atom_site_fract_z
Si Si1 0.426790 0.805258 0.600170
Si Si2 0.548679 0.814225 0.650560
Si Si3 0.466998 0.891788 0.260189
Si Si4 0.596628 0.076944 0.459877
Si Si5 0.076798 0.109977 0.392299
Si Si6 0.275282 0.166319 0.779462
Si Si7 0.363052 0.433699 0.352975
Si Si8 0.352482 0.319798 0.947198
O O1 0.449171 0.837753 0.658933
O O2 0.223055 0.795516 0.746417
O O3 0.524881 0.664305 0.503081
O O4 0.501160 0.939198 0.502192
O O5 0.511858 0.658570 0.707080
O O6 0.750250 0.827635 0.483178
O O7 0.486573 0.936761 0.747184
O O8 0.315999 0.853730 0.324267
O O9 0.413912 0.831320 0.370738
O O10 0.647198 0.825809 0.099728
O O11 0.455006 0.167988 0.606099
O O12 0.680916 0.180725 0.342868
O O13 0.746627 0.014019 0.389894
O O14 0.910062 0.142758 0.475888
O O15 0.142358 0.949245 0.351107
O O16 0.444485 0.557286 0.334583
#
# Coordination Sequence:
#
# PCOD8054491 Si02
#       8
#     4   4   4   4   4   4   4   4
#     4  10  20  39  57  88 122 153 199 249 298 358
#     4  10  20  35  59  86 115 147 197 253 286 344
#     4  11  20  40  60  88 122 153 209 246 297 355
#     4  10  20  35  58  86 117 145 197 250 289 344
#     4  11  23  39  61  87 126 159 199 246 311 362
#     4  11  20  39  58  91 116 155 201 253 289 351
#     4  10  20  37  55  86 117 151 196 245 299 352
#     4  11  23  40  60  88 123 163 194 252 307 366
#
# _framework density 20.970237000000001
#
# number of rings (size 3 to 8) (size 9 to 14) (size 15 to 20)
#    0.000    1.500    6.250    2.250    0.000    3.000 
#    0.000    6.250    0.000    0.000    0.000    0.000 
#    0.000    0.000    0.000    0.000    0.000    0.000 
#
# Total GULP energy -198273.656218 kJ/mol
# GULP energy per Si atom -12392.103514 kJ/mol
# Density = 2.092251 g / cm^3
# Si number density = 20.970237 Si / 1000 Ang^3
#
#
#
# Elastic Constant Matrix: (Units=GPa)
#
#
# Indices 1 2 3 4 5 6 
#
# 1 63.2075 17.3155 11.9181 0.0019 -2.1781 0.0000
# 2 17.3155 88.9353 43.6297 0.0080 12.4232 -0.0002
# 3 11.9181 43.6297 57.9622 0.0087 4.6751 -0.0006
# 4 0.0019 0.0080 0.0087 52.9983 -0.0014 9.2136
# 5 -2.1781 12.4232 4.6751 -0.0014 16.1502 -0.0003
# 6 0.0000 -0.0002 -0.0006 9.2136 -0.0003 22.9359
#
#
#
# Elastic Compliance Matrix: (Units=1/GPa)
#
#
# Indices 1 2 3 4 5 6 
#
# 1 0.017203 -0.003408 -0.001403 0.000000 0.005348 0.000000
# 2 -0.003408 0.020257 -0.013570 -0.000001 -0.012114 0.000000
# 3 -0.001403 -0.013570 0.027573 -0.000003 0.002268 0.000002
# 4 0.000000 -0.000001 -0.000003 0.020285 0.000003 -0.008149
# 5 0.005348 -0.012114 0.002268 0.000003 0.071302 0.000000
# 6 0.000000 0.000000 0.000002 -0.008149 0.000000 0.046873
#
#
# Mechanical properties :
#
#
# Convention : Reuss Voigt Hill
#
# Bulk Modulus (GPa) = 35.37296 39.53684 37.45490
# Shear Modulus (GPa) = 20.02565 27.56635 23.79600
#
# Velocity S-wave (km/s) = 3.09359 3.62960 3.37226
# Velocity P-wave (km/s) = 5.44657 6.03822 5.75001
#
# Compressibility (1/GPa) = 0.02827018
#
# Stress axis : x y z
#
# Youngs Moduli (GPa) = 58.12798 49.36556 36.26748
#
# Poissons Ratio (x) = 0.16824 0.05090
# Poissons Ratio (y) = 0.19810 0.49216
# Poissons Ratio (z) = 0.08157 0.66990
#
# Static dielectric constant tensor:
#      x y z
#    x 3.434700 0.000000 -0.087330 
#    y 0.000000 3.908000 0.000000 
#    z -0.087330 0.000000 3.791860 
# 
# 
# High freq. dielectric constant tensor:
#      x y z
#    x 1.778610 0.000000 -0.010080 
#    y 0.000000 1.820190 0.000000 
#    z -0.010080 0.000000 1.823130 
# 
# From -- ./inp_files/34030.got.cif
#   From: 2010.06.25/outbox.cif.g09.slc.cpg/sg9_18_cif.got.tgz:34030.got - 2010.06.27 21:40:51.
