data_PCOD8054348
_publ_section_title
;
Structure prediction by ZEFSAII (Michael W. Deem and Ramdas Pophale) SiO2 
 PCOD8054348
Probable space group: C C
;
_chemical_formula_sum "Si O2"
_cell_formula_units_Z 32
_cell_length_a 26.666485
_cell_length_b 7.969205
_cell_length_c 14.848766
_cell_angle_alpha 90.000000
_cell_angle_beta 151.078542
_cell_angle_gamma 90.000000
_cell_volume 1526.042425
_symmetry_space_group_name_H-M "C C"
_symmetry_group_IT_number 9
_symmetry_cell_setting 'monoclinic'
loop_
_space_group_symop_operation_xyz
x,y,z
x,-y,1/2+z
1/2+x,1/2+y,z
1/2+x,1/2-y,1/2+z
loop_
_atom_site_type_symbol
_atom_site_label
_atom_site_fract_x
_atom_site_fract_y
_atom_site_fract_z
Si Si1 0.198940 0.490341 0.190860
Si Si2 0.103139 0.741240 0.176442
Si Si3 0.941138 0.073198 0.300202
Si Si4 0.538030 0.248349 0.498659
Si Si5 0.199574 0.066162 0.377224
Si Si6 0.365741 0.237399 0.520344
Si Si7 0.014174 0.545147 0.623273
Si Si8 0.722207 0.159422 0.039073
O O1 0.176835 0.601218 0.245020
O O2 0.104285 0.358154 0.029881
O O3 0.300477 0.373414 0.360662
O O4 0.208464 0.617305 0.122257
O O5 0.020437 0.655972 0.115860
O O6 0.179373 0.866922 0.350723
O O7 0.037183 0.839087 0.999212
O O8 0.940981 0.151216 0.200435
O O9 0.832698 0.091045 0.180748
O O10 0.962888 0.873485 0.326796
O O11 0.604427 0.351062 0.675761
O O12 0.477546 0.120399 0.469068
O O13 0.301154 0.110496 0.480062
O O14 0.213828 0.140799 0.501558
O O15 0.431704 0.108511 0.565006
O O16 0.132420 0.578989 0.838091
#
# Coordination Sequence:
#
# PCOD8054348 Si02
#       8
#     4   4   4   4   4   4   4   4
#     4  10  20  37  60  86 118 156 197 244 296 354
#     4  10  20  37  59  85 117 154 195 246 300 351
#     4  10  19  36  60  84 114 154 196 246 300 347
#     4   8  17  35  57  81 112 149 189 241 294 341
#     4   8  18  36  56  79 116 153 189 240 292 341
#     4  10  20  37  60  86 119 157 197 244 294 353
#     4  10  20  37  57  83 117 151 194 244 293 354
#     4  10  20  37  57  82 117 156 195 239 293 353
#
# _framework density 20.969273999999999
#
# number of rings (size 3 to 8) (size 9 to 14) (size 15 to 20)
#    0.000    2.500    0.000    3.750    0.000    1.000 
#    0.000   25.000    0.000    0.000    0.000    0.000 
#    0.000    0.000    0.000    0.000    0.000    0.000 
#
# Total GULP energy -198214.173537 kJ/mol
# GULP energy per Si atom -12388.385846 kJ/mol
# Density = 2.092155 g / cm^3
# Si number density = 20.969274 Si / 1000 Ang^3
#
#
#
# Elastic Constant Matrix: (Units=GPa)
#
#
# Indices 1 2 3 4 5 6 
#
# 1 112.8965 71.1920 35.1636 0.0000 -9.6689 0.0000
# 2 71.1920 161.2878 48.9953 0.0000 -2.4160 0.0000
# 3 35.1636 48.9953 63.3374 0.0000 1.8416 0.0000
# 4 0.0000 0.0000 0.0000 39.3674 0.0000 -0.7328
# 5 -9.6689 -2.4160 1.8416 0.0000 24.4059 0.0000
# 6 0.0000 0.0000 0.0000 -0.7328 0.0000 32.1320
#
#
#
# Elastic Compliance Matrix: (Units=1/GPa)
#
#
# Indices 1 2 3 4 5 6 
#
# 1 0.013494 -0.004650 -0.004046 0.000000 0.005191 0.000000
# 2 -0.004650 0.009747 -0.004944 0.000000 -0.000504 0.000000
# 3 -0.004046 -0.004944 0.021968 0.000000 -0.003750 0.000000
# 4 0.000000 0.000000 0.000000 0.025413 0.000000 0.000580
# 5 0.005191 -0.000504 -0.003750 0.000000 0.043263 0.000000
# 6 0.000000 0.000000 0.000000 0.000580 0.000000 0.031135
#
#
# Mechanical properties :
#
#
# Convention : Reuss Voigt Hill
#
# Bulk Modulus (GPa) = 55.77064 72.02484 63.89774
# Shear Modulus (GPa) = 28.04655 31.32577 29.68616
#
# Velocity S-wave (km/s) = 3.66116 3.86928 3.76666
# Velocity P-wave (km/s) = 6.67280 7.37456 7.03244
#
# Compressibility (1/GPa) = 0.01793058
#
# Stress axis : x y z
#
# Youngs Moduli (GPa) = 74.10430 102.59999 45.52086
#
# Poissons Ratio (x) = 0.47705 0.18418
# Poissons Ratio (y) = 0.34455 0.22504
# Poissons Ratio (z) = 0.29983 0.50721
#
# Static dielectric constant tensor:
#      x y z
#    x 3.606640 0.000000 0.000620 
#    y 0.000000 4.202880 0.000000 
#    z 0.000620 0.000000 3.741790 
# 
# 
# High freq. dielectric constant tensor:
#      x y z
#    x 1.806220 0.000000 0.006800 
#    y 0.000000 1.827410 0.000000 
#    z 0.006800 0.000000 1.809610 
# 
# From -- ./inp_files/25501.got.cif
#   From: 2010.06.25/outbox.cif.g09.slc.cpg/sg9_13_cif.got.tgz:25501.got - 2010.06.27 21:40:51.
