data_PCOD8054054
_publ_section_title
;
Structure prediction by ZEFSAII (Michael W. Deem and Ramdas Pophale) SiO2 
 PCOD8054054
Probable space group: C M
;
_chemical_formula_sum "Si O2"
_cell_formula_units_Z 32
_cell_length_a 20.353295
_cell_length_b 8.867247
_cell_length_c 25.034668
_cell_angle_alpha 90.000000
_cell_angle_beta 157.511598
_cell_angle_gamma 90.000000
_cell_volume 1728.194954
_symmetry_space_group_name_H-M "C M"
_symmetry_group_IT_number 8
_symmetry_cell_setting 'monoclinic'
loop_
_space_group_symop_operation_xyz
x,y,z
x,-y,z
1/2+x,1/2+y,z
1/2+x,1/2-y,z
loop_
_atom_site_type_symbol
_atom_site_label
_atom_site_fract_x
_atom_site_fract_y
_atom_site_fract_z
Si Si1 0.864720 0.677982 0.414120
Si Si2 0.386573 0.176387 0.708483
Si Si3 0.113534 0.678019 0.691990
Si Si4 0.037076 0.677600 0.437013
Si Si5 0.186997 0.171496 0.122172
Si Si6 0.015860 0.173480 0.108110
Si Si7 0.416113 0.824821 0.854631
Si Si8 0.158055 0.822527 0.837623
O O1 0.864527 0.500000 0.405731
O O2 0.666564 0.731252 0.261398
O O3 0.947873 0.727141 0.532576
O O4 0.978250 0.742483 0.450582
O O5 0.208625 0.234350 0.549061
O O6 0.392313 0.217019 0.775190
O O7 0.544016 0.261469 0.799948
O O8 0.405491 0.000000 0.711972
O O9 0.123284 0.500000 0.707431
O O10 0.285755 0.728297 0.791989
O O11 0.090749 0.754257 0.731764
O O12 0.076344 0.500000 0.468686
O O13 0.886950 0.713246 0.281490
O O14 0.081875 0.192821 0.097684
O O15 0.171703 0.000000 0.090715
O O16 0.108373 0.280398 0.017844
O O17 0.964747 0.000000 0.080819
O O18 0.853624 0.278314 0.996418
O O19 0.382803 0.000000 0.840360
O O20 0.141972 0.000000 0.822184
#
# Coordination Sequence:
#
# PCOD8054054 Si02
#       8
#     4   4   4   4   4   4   4   4
#     4   8  16  31  57  87 112 142 183 227 277 332
#     4  11  24  40  57  81 114 154 191 231 283 336
#     4  11  20  35  60  86 113 148 187 229 281 338
#     4   9  17  34  57  85 114 145 187 230 276 332
#     4   9  18  32  57  86 114 148 184 228 280 332
#     4   9  17  34  57  83 113 147 185 227 276 335
#     4  11  22  35  55  86 117 144 188 239 277 324
#     4  12  25  39  56  82 115 152 191 235 280 333
#
# _framework density 18.516428999999999
#
# number of rings (size 3 to 8) (size 9 to 14) (size 15 to 20)
#    0.000    2.000    2.500    3.750    0.000    2.000 
#    0.000    4.375    0.000    1.500    0.000    0.000 
#    0.000    0.000    0.000    0.000    0.000    0.000 
#
# Total GULP energy -198407.653261 kJ/mol
# GULP energy per Si atom -12400.478329 kJ/mol
# Density = 1.847428 g / cm^3
# Si number density = 18.516429 Si / 1000 Ang^3
#
#
#
# Elastic Constant Matrix: (Units=GPa)
#
#
# Indices 1 2 3 4 5 6 
#
# 1 42.1392 24.0997 28.3076 0.0040 -6.8623 -0.0014
# 2 24.0997 75.7807 38.0496 -0.0076 -8.6588 -0.0004
# 3 28.3076 38.0496 131.0888 0.0020 -11.9498 -0.0007
# 4 0.0040 -0.0076 0.0020 27.6779 -0.0012 3.4139
# 5 -6.8623 -8.6588 -11.9498 -0.0012 23.1667 -0.0012
# 6 -0.0014 -0.0004 -0.0007 3.4139 -0.0012 25.9313
#
#
#
# Elastic Compliance Matrix: (Units=1/GPa)
#
#
# Indices 1 2 3 4 5 6 
#
# 1 0.031534 -0.007386 -0.004267 -0.000006 0.004380 0.000003
# 2 -0.007386 0.017474 -0.003233 0.000006 0.002676 -0.000001
# 3 -0.004267 -0.003233 0.009720 -0.000001 0.002541 0.000000
# 4 -0.000006 0.000006 -0.000001 0.036726 0.000002 -0.004835
# 5 0.004380 0.002676 0.002541 0.000002 0.046774 0.000002
# 6 0.000003 -0.000001 0.000000 -0.004835 0.000002 0.039200
#
#
# Mechanical properties :
#
#
# Convention : Reuss Voigt Hill
#
# Bulk Modulus (GPa) = 34.53403 47.76919 41.15161
# Shear Modulus (GPa) = 22.63967 25.92528 24.28248
#
# Velocity S-wave (km/s) = 3.50048 3.74588 3.62526
# Velocity P-wave (km/s) = 5.91851 6.67556 6.30840
#
# Compressibility (1/GPa) = 0.02895695
#
# Stress axis : x y z
#
# Youngs Moduli (GPa) = 31.71162 57.22829 102.88220
#
# Poissons Ratio (x) = 0.42268 0.43895
# Poissons Ratio (y) = 0.23422 0.33263
# Poissons Ratio (z) = 0.13530 0.18503
#
# Static dielectric constant tensor:
#      x y z
#    x 3.187350 0.000000 -0.180670 
#    y 0.000000 3.249950 -0.000030 
#    z -0.180670 -0.000030 3.770330 
# 
# 
# High freq. dielectric constant tensor:
#      x y z
#    x 1.689640 0.000000 -0.009470 
#    y 0.000000 1.708830 0.000000 
#    z -0.009470 0.000000 1.736390 
# 
# From -- ./inp_files/33040.got.cif
#   From: 2010.03.12/outbox.cif.g09.slc.cpg/sg8_17_cif.got.tgz:33040.got - 2010.03.31 10:45:26.
