data_PCOD8054427
_publ_section_title
;
Structure prediction by ZEFSAII (Michael W. Deem and Ramdas Pophale) SiO2 
 PCOD8054427
Probable space group: C C
;
_chemical_formula_sum "Si O2"
_cell_formula_units_Z 28
_cell_length_a 22.677896
_cell_length_b 8.046393
_cell_length_c 9.220906
_cell_angle_alpha 90.000000
_cell_angle_beta 137.321203
_cell_angle_gamma 90.000000
_cell_volume 1140.605135
_symmetry_space_group_name_H-M "C C"
_symmetry_group_IT_number 9
_symmetry_cell_setting 'monoclinic'
loop_
_space_group_symop_operation_xyz
x,y,z
x,-y,1/2+z
1/2+x,1/2+y,z
1/2+x,1/2-y,1/2+z
loop_
_atom_site_type_symbol
_atom_site_label
_atom_site_fract_x
_atom_site_fract_y
_atom_site_fract_z
Si Si1 0.913590 0.515491 0.607220
Si Si2 0.203001 0.639413 0.374685
Si Si3 0.700201 0.179686 0.030523
Si Si4 0.041304 0.009864 0.452587
Si Si5 0.233800 0.006766 0.920226
Si Si6 0.510766 0.290150 0.636346
Si Si7 0.502540 0.161397 0.029961
O O1 0.810988 0.507498 0.444447
O O2 0.929463 0.681767 0.538998
O O3 0.948705 0.354903 0.582414
O O4 0.964609 0.522480 0.851460
O O5 0.244387 0.472415 0.519375
O O6 0.240509 0.811799 0.511616
O O7 0.102809 0.624690 0.236917
O O8 0.222038 0.647997 0.237488
O O9 0.738940 0.355288 0.043632
O O10 0.596042 0.179535 0.822353
O O11 0.144843 0.010793 0.666267
O O12 0.022932 0.033819 0.248122
O O13 0.989845 0.159017 0.437597
O O14 0.002451 0.840500 0.451545
#
# Coordination Sequence:
#
# PCOD8054427 Si02
#       7
#     4   4   4   4   4   4   4
#     4  11  22  38  62  90 130 158 212 276 331 378
#     4  11  21  45  69  94 130 176 225 275 326 405
#     4  11  22  42  66  96 128 176 227 270 327 415
#     4   9  20  38  63  87 121 170 217 259 324 392
#     4  10  24  40  64  95 132 172 213 277 339 390
#     4  10  19  40  62  92 124 168 221 276 317 402
#     4  10  20  39  60  90 119 164 209 263 324 390
#
# _framework density 24.548369999999998
#
# number of rings (size 3 to 8) (size 9 to 14) (size 15 to 20)
#    0.000    1.714    5.714    0.000    2.000    2.286 
#   10.286    0.000    0.000    0.000    0.000    0.000 
#    0.000    0.000    0.000    0.000    0.000    0.000 
#
# Total GULP energy -173503.738209 kJ/mol
# GULP energy per Si atom -12393.124158 kJ/mol
# Density = 2.449250 g / cm^3
# Si number density = 24.548370 Si / 1000 Ang^3
#
#
#
# Elastic Constant Matrix: (Units=GPa)
#
#
# Indices 1 2 3 4 5 6 
#
# 1 161.5643 59.4021 32.3535 0.0000 4.0353 0.0000
# 2 59.4021 152.2883 27.0993 0.0000 -9.6385 0.0000
# 3 32.3535 27.0993 21.1224 0.0000 -6.3171 0.0000
# 4 0.0000 0.0000 0.0000 20.8954 0.0000 -11.1496
# 5 4.0353 -9.6385 -6.3171 0.0000 31.6441 0.0000
# 6 0.0000 0.0000 0.0000 -11.1496 0.0000 50.6048
#
#
#
# Elastic Compliance Matrix: (Units=1/GPa)
#
#
# Indices 1 2 3 4 5 6 
#
# 1 0.009733 -0.001542 -0.014296 0.000000 -0.004565 0.000000
# 2 -0.001542 0.008759 -0.008529 0.000000 0.001162 0.000000
# 3 -0.014296 -0.008529 0.085027 0.000000 0.016199 0.000000
# 4 0.000000 0.000000 0.000000 0.054233 0.000000 0.011949
# 5 -0.004565 0.001162 0.016199 0.000000 0.035771 0.000000
# 6 0.000000 0.000000 0.000000 0.011949 0.000000 0.022394
#
#
# Mechanical properties :
#
#
# Convention : Reuss Voigt Hill
#
# Bulk Modulus (GPa) = 18.25252 63.63166 40.94209
# Shear Modulus (GPa) = 17.67337 35.03684 26.35510
#
# Velocity S-wave (km/s) = 2.68608 3.78200 3.28014
# Velocity P-wave (km/s) = 4.13177 6.71183 5.57316
#
# Compressibility (1/GPa) = 0.05478696
#
# Stress axis : x y z
#
# Youngs Moduli (GPa) = 102.74351 114.16823 11.76098
#
# Poissons Ratio (x) = 0.17599 0.16813
# Poissons Ratio (y) = 0.15838 0.10031
# Poissons Ratio (z) = 1.46878 0.97373
#
# Static dielectric constant tensor:
#      x y z
#    x 4.458930 0.000000 -0.259100 
#    y 0.000000 4.725400 0.000000 
#    z -0.259100 0.000000 3.980130 
# 
# 
# High freq. dielectric constant tensor:
#      x y z
#    x 1.979280 0.000000 -0.018430 
#    y 0.000000 1.985390 0.000000 
#    z -0.018430 0.000000 1.936670 
# 
# From -- ./inp_files/11386.got.cif
#   From: 2010.06.25/outbox.cif.g09.slc.cpg/sg9_6_cif.got.tgz:11386.got - 2010.06.27 21:40:51.
