data_PCOD8054635
_publ_section_title
;
Structure prediction by ZEFSAII (Michael W. Deem and Ramdas Pophale) SiO2 
 PCOD8054635
Probable space group: C C
;
_chemical_formula_sum "Si O2"
_cell_formula_units_Z 32
_cell_length_a 9.182203
_cell_length_b 22.447723
_cell_length_c 12.745092
_cell_angle_alpha 90.000000
_cell_angle_beta 34.352772
_cell_angle_gamma 90.000000
_cell_volume 1482.388240
_symmetry_space_group_name_H-M "C C"
_symmetry_group_IT_number 9
_symmetry_cell_setting 'monoclinic'
loop_
_space_group_symop_operation_xyz
x,y,z
x,-y,1/2+z
1/2+x,1/2+y,z
1/2+x,1/2-y,1/2+z
loop_
_atom_site_type_symbol
_atom_site_label
_atom_site_fract_x
_atom_site_fract_y
_atom_site_fract_z
Si Si1 0.420840 0.953161 0.980140
Si Si2 0.669788 0.308697 0.827510
Si Si3 0.764466 0.106511 0.628585
Si Si4 0.271950 0.910319 0.286519
Si Si5 0.141060 0.679241 0.899573
Si Si6 0.957515 0.803873 0.412306
Si Si7 0.985348 0.674156 0.338798
Si Si8 0.977325 0.003522 0.096864
O O1 0.456872 0.885058 0.922611
O O2 0.696989 0.986547 0.816456
O O3 0.318512 0.952142 0.159052
O O4 0.207859 0.989692 0.041185
O O5 0.623791 0.238634 0.838838
O O6 0.879273 0.332096 0.620139
O O7 0.741465 0.319942 0.906749
O O8 0.403398 0.344159 0.972785
O O9 0.519106 0.085938 0.711603
O O10 0.680535 0.126086 0.795480
O O11 0.959427 0.051663 0.527307
O O12 0.210942 0.842080 0.289517
O O13 0.038449 0.937902 0.492625
O O14 0.384387 0.683706 0.833970
O O15 0.738391 0.828463 0.618040
O O16 0.997807 0.733013 0.406195
#
# Coordination Sequence:
#
# PCOD8054635 Si02
#       8
#     4   4   4   4   4   4   4   4
#     4  12  26  48  74 101 140 192 237 292 349 414
#     4  10  20  39  69 103 135 179 233 278 343 419
#     4  12  25  44  66 103 138 179 232 290 351 417
#     4  12  28  46  70 103 140 181 235 293 363 411
#     4  10  21  40  71  98 136 183 227 285 344 419
#     4  10  21  41  69 105 137 177 232 285 350 423
#     4  10  20  40  72 101 135 181 233 284 342 423
#     4  12  27  48  71 102 141 186 241 293 342 428
#
# _framework density 21.586787999999999
#
# number of rings (size 3 to 8) (size 9 to 14) (size 15 to 20)
#    0.000    1.000    5.000    1.500    3.500    2.000 
#    4.500    0.000    0.000    0.000    0.000    0.000 
#    0.000    0.000    0.000    0.000    0.000    0.000 
#
# Total GULP energy -198433.673443 kJ/mol
# GULP energy per Si atom -12402.104590 kJ/mol
# Density = 2.153766 g / cm^3
# Si number density = 21.586788 Si / 1000 Ang^3
#
#
#
# Elastic Constant Matrix: (Units=GPa)
#
#
# Indices 1 2 3 4 5 6 
#
# 1 91.6535 42.1055 39.6989 0.0000 -5.9003 0.0000
# 2 42.1055 105.2333 24.3755 0.0000 -2.4823 0.0000
# 3 39.6989 24.3755 67.5463 0.0000 -12.2111 0.0001
# 4 0.0000 0.0000 0.0000 38.0648 -0.0001 -6.6134
# 5 -5.9003 -2.4823 -12.2111 -0.0001 25.7465 -0.0001
# 6 0.0000 0.0000 0.0001 -6.6134 -0.0001 26.6528
#
#
#
# Elastic Compliance Matrix: (Units=1/GPa)
#
#
# Indices 1 2 3 4 5 6 
#
# 1 0.016585 -0.004767 -0.008119 0.000000 -0.000510 0.000000
# 2 -0.004767 0.011757 -0.001568 0.000000 -0.000703 0.000000
# 3 -0.008119 -0.001568 0.021633 0.000000 0.008249 0.000000
# 4 0.000000 0.000000 0.000000 0.027455 0.000000 0.006812
# 5 -0.000510 -0.000703 0.008249 0.000000 0.042568 0.000000
# 6 0.000000 0.000000 0.000000 0.006812 0.000000 0.039210
#
#
# Mechanical properties :
#
#
# Convention : Reuss Voigt Hill
#
# Bulk Modulus (GPa) = 47.46854 52.97699 50.22276
# Shear Modulus (GPa) = 25.62299 28.64304 27.13301
#
# Velocity S-wave (km/s) = 3.44899 3.64659 3.54916
# Velocity P-wave (km/s) = 6.15614 6.50575 6.33336
#
# Compressibility (1/GPa) = 0.02106658
#
# Stress axis : x y z
#
# Youngs Moduli (GPa) = 60.29713 85.05794 46.22475
#
# Poissons Ratio (x) = 0.40548 0.37530
# Poissons Ratio (y) = 0.28744 0.07248
# Poissons Ratio (z) = 0.48955 0.13336
#
# Static dielectric constant tensor:
#      x y z
#    x 3.679870 0.000000 -0.032610 
#    y 0.000000 3.967160 0.000000 
#    z -0.032610 0.000000 3.905810 
# 
# 
# High freq. dielectric constant tensor:
#      x y z
#    x 1.823190 0.000000 -0.004650 
#    y 0.000000 1.855150 0.000000 
#    z -0.004650 0.000000 1.860830 
# 
# From -- ./inp_files/15613.got.cif
#   From: 2010.06.25/outbox.cif.g09.slc.cpg/sg9_8_cif.got.tgz:15613.got - 2010.06.27 21:40:51.
