data_PCOD8054506
_publ_section_title
;
Structure prediction by ZEFSAII (Michael W. Deem and Ramdas Pophale) SiO2 
 PCOD8054506
Probable space group: C C
;
_chemical_formula_sum "Si O2"
_cell_formula_units_Z 24
_cell_length_a 5.034049
_cell_length_b 15.708367
_cell_length_c 14.017925
_cell_angle_alpha 90.000000
_cell_angle_beta 100.344448
_cell_angle_gamma 90.000000
_cell_volume 1090.473721
_symmetry_space_group_name_H-M "C C"
_symmetry_group_IT_number 9
_symmetry_cell_setting 'monoclinic'
loop_
_space_group_symop_operation_xyz
x,y,z
x,-y,1/2+z
1/2+x,1/2+y,z
1/2+x,1/2-y,1/2+z
loop_
_atom_site_type_symbol
_atom_site_label
_atom_site_fract_x
_atom_site_fract_y
_atom_site_fract_z
Si Si1 0.128880 0.224921 0.295060
Si Si2 0.678719 0.773820 0.904146
Si Si3 0.066425 0.974978 0.794969
Si Si4 0.745377 0.318479 0.597949
Si Si5 0.252940 0.431418 0.597892
Si Si6 0.625687 0.976308 0.904058
O O1 0.381745 0.264407 0.368140
O O2 0.174583 0.240993 0.185080
O O3 0.859686 0.262044 0.327264
O O4 0.104819 0.124967 0.309365
O O5 0.653660 0.875065 0.906963
O O6 0.803144 0.740874 0.011131
O O7 0.910764 0.990970 0.684969
O O8 0.886611 0.014520 0.868008
O O9 0.367815 0.012116 0.827147
O O10 0.480786 0.374954 0.561095
O O11 0.017353 0.374947 0.634235
O O12 0.108218 0.490684 0.511014
#
# Coordination Sequence:
#
# PCOD8054506 Si02
#       6
#     4   4   4   4   4   4
#     4   9  18  34  56  78 106 147 186 217 269 342
#     4  10  20  36  57  80 108 145 186 226 272 330
#     4   9  18  34  56  78 106 147 186 217 269 342
#     4  11  21  36  58  84 111 146 188 233 277 328
#     4  11  21  36  58  84 111 146 188 233 277 328
#     4  10  20  36  57  80 108 145 186 226 272 330
#
# _framework density 22.008782
#
# number of rings (size 3 to 8) (size 9 to 14) (size 15 to 20)
#    0.000    2.000    0.000    7.000    0.000    0.000 
#    0.000    5.000    0.000    0.000    0.000    0.000 
#    0.000    0.000    0.000    0.000    0.000    0.000 
#
# Total GULP energy -148678.009930 kJ/mol
# GULP energy per Si atom -12389.834161 kJ/mol
# Density = 2.195869 g / cm^3
# Si number density = 22.008782 Si / 1000 Ang^3
#
#
#
# Elastic Constant Matrix: (Units=GPa)
#
#
# Indices 1 2 3 4 5 6 
#
# 1 133.3578 14.7159 45.5421 0.0000 0.1472 0.0000
# 2 14.7159 14.0170 22.7371 0.0000 0.2560 0.0000
# 3 45.5421 22.7371 165.3637 0.0000 0.8660 0.0000
# 4 0.0000 0.0000 0.0000 34.3524 0.0000 0.5865
# 5 0.1472 0.2560 0.8660 0.0000 46.3887 0.0000
# 6 0.0000 0.0000 0.0000 0.5865 0.0000 16.2166
#
#
#
# Elastic Compliance Matrix: (Units=1/GPa)
#
#
# Indices 1 2 3 4 5 6 
#
# 1 0.008753 -0.006795 -0.001476 0.000000 0.000037 0.000000
# 2 -0.006795 0.097099 -0.011478 0.000000 -0.000300 0.000000
# 3 -0.001476 -0.011478 0.008033 0.000000 -0.000082 0.000000
# 4 0.000000 0.000000 0.000000 0.029128 0.000000 -0.001053
# 5 0.000037 -0.000300 -0.000082 0.000000 0.021560 0.000000
# 6 0.000000 0.000000 0.000000 -0.001053 0.000000 0.061703
#
#
# Mechanical properties :
#
#
# Convention : Reuss Voigt Hill
#
# Bulk Modulus (GPa) = 13.44338 53.19207 33.31772
# Shear Modulus (GPa) = 17.20758 34.70777 25.95767
#
# Velocity S-wave (km/s) = 2.79919 3.97545 3.43800
# Velocity P-wave (km/s) = 4.07047 6.73003 5.56157
#
# Compressibility (1/GPa) = 0.07438606
#
# Stress axis : x y z
#
# Youngs Moduli (GPa) = 114.25212 10.29874 124.49367
#
# Poissons Ratio (x) = 0.06998 0.18381
# Poissons Ratio (y) = 0.77630 1.42895
# Poissons Ratio (z) = 0.16869 0.11821
#
# Static dielectric constant tensor:
#      x y z
#    x 4.606490 0.000000 -0.020120 
#    y 0.000000 3.341310 0.000000 
#    z -0.020120 0.000000 3.985700 
# 
# 
# High freq. dielectric constant tensor:
#      x y z
#    x 1.893700 0.000000 -0.000710 
#    y 0.000000 1.802570 0.000000 
#    z -0.000710 0.000000 1.871670 
# 
# From -- ./inp_files/12995.got.cif
#   From: 2010.06.25/outbox.cif.g09.slc.cpg/sg9_7_cif.got.tgz:12995.got - 2010.06.27 21:40:51.
