data_PCOD8054784
_publ_section_title
;
Structure prediction by ZEFSAII (Michael W. Deem and Ramdas Pophale) SiO2 
 PCOD8054784
Probable space group: C C
;
_chemical_formula_sum "Si O2"
_cell_formula_units_Z 32
_cell_length_a 8.267985
_cell_length_b 15.974808
_cell_length_c 16.873886
_cell_angle_alpha 90.000000
_cell_angle_beta 50.120434
_cell_angle_gamma 90.000000
_cell_volume 1710.286090
_symmetry_space_group_name_H-M "C C"
_symmetry_group_IT_number 9
_symmetry_cell_setting 'monoclinic'
loop_
_space_group_symop_operation_xyz
x,y,z
x,-y,1/2+z
1/2+x,1/2+y,z
1/2+x,1/2-y,1/2+z
loop_
_atom_site_type_symbol
_atom_site_label
_atom_site_fract_x
_atom_site_fract_y
_atom_site_fract_z
Si Si1 0.635420 0.429664 0.490820
Si Si2 0.496086 0.836593 0.433715
Si Si3 0.853309 0.218491 0.106951
Si Si4 0.165367 0.769709 0.010478
Si Si5 0.253865 0.679152 0.456710
Si Si6 0.549424 0.041963 0.792198
Si Si7 0.366278 0.587696 0.567209
Si Si8 0.105204 0.647162 0.329855
O O1 0.450478 0.363713 0.533325
O O2 0.538017 0.519390 0.539055
O O3 0.781733 0.392734 0.517451
O O4 0.796066 0.440965 0.365640
O O5 0.621900 0.815455 0.474240
O O6 0.430834 0.751337 0.407710
O O7 0.642709 0.893764 0.329807
O O8 0.739330 0.201149 0.225411
O O9 0.682620 0.250040 0.097530
O O10 0.034126 0.287596 0.062764
O O11 0.371429 0.815448 0.910795
O O12 0.955275 0.824560 0.069843
O O13 0.322949 0.597605 0.486620
O O14 0.228005 0.651116 0.374350
O O15 0.647184 0.063277 0.676982
O O16 0.596982 0.947454 0.802724
#
# Coordination Sequence:
#
# PCOD8054784 Si02
#       8
#     4   4   4   4   4   4   4   4
#     4   9  19  38  55  82 119 150 185 237 287 343
#     4   8  19  38  56  80 114 148 186 239 283 332
#     4  10  21  36  60  84 117 153 188 239 289 333
#     4  10  21  37  59  89 113 147 197 243 274 351
#     4   9  22  37  59  85 113 155 190 241 276 349
#     4  10  21  36  62  78 116 155 181 237 293 340
#     4  11  20  38  62  84 115 153 192 233 298 340
#     4  11  21  38  59  84 123 149 193 237 290 334
#
# _framework density 18.710318999999998
#
# number of rings (size 3 to 8) (size 9 to 14) (size 15 to 20)
#    0.750    1.500    2.500    0.000    3.500    1.000 
#    0.000    0.000    8.250    0.000    0.000    0.000 
#    0.000    0.000    0.000    0.000    0.000    0.000 
#
# Total GULP energy -198222.389137 kJ/mol
# GULP energy per Si atom -12388.899321 kJ/mol
# Density = 1.866773 g / cm^3
# Si number density = 18.710319 Si / 1000 Ang^3
#
#
#
# Elastic Constant Matrix: (Units=GPa)
#
#
# Indices 1 2 3 4 5 6 
#
# 1 80.9094 27.0780 36.3360 0.0000 16.7555 0.0001
# 2 27.0780 78.6967 32.7139 -0.0001 12.8284 0.0001
# 3 36.3360 32.7139 116.0570 0.0000 3.1961 -0.0001
# 4 0.0000 -0.0001 0.0000 30.2604 0.0000 -3.7673
# 5 16.7555 12.8284 3.1961 0.0000 26.0100 -0.0001
# 6 0.0001 0.0001 -0.0001 -3.7673 -0.0001 21.8912
#
#
#
# Elastic Compliance Matrix: (Units=1/GPa)
#
#
# Indices 1 2 3 4 5 6 
#
# 1 0.017088 -0.002560 -0.004375 0.000000 -0.009208 0.000000
# 2 -0.002560 0.016012 -0.003552 0.000000 -0.005812 0.000000
# 3 -0.004375 -0.003552 0.010898 0.000000 0.003231 0.000000
# 4 0.000000 0.000000 0.000000 0.033770 0.000000 0.005812
# 5 -0.009208 -0.005812 0.003231 0.000000 0.046848 0.000000
# 6 0.000000 0.000000 0.000000 0.005812 0.000000 0.046681
#
#
# Mechanical properties :
#
#
# Convention : Reuss Voigt Hill
#
# Bulk Modulus (GPa) = 43.43181 51.99098 47.71139
# Shear Modulus (GPa) = 25.00700 27.60133 26.30417
#
# Velocity S-wave (km/s) = 3.65983 3.84499 3.75355
# Velocity P-wave (km/s) = 6.41267 6.89635 6.65890
#
# Compressibility (1/GPa) = 0.02302460
#
# Stress axis : x y z
#
# Youngs Moduli (GPa) = 58.52137 62.45440 91.75712
#
# Poissons Ratio (x) = 0.15989 0.40142
# Poissons Ratio (y) = 0.14982 0.32590
# Poissons Ratio (z) = 0.25602 0.22182
#
# Static dielectric constant tensor:
#      x y z
#    x 3.346120 0.000000 -0.109090 
#    y 0.000000 3.532590 0.000000 
#    z -0.109090 0.000000 3.263510 
# 
# 
# High freq. dielectric constant tensor:
#      x y z
#    x 1.713590 0.000000 -0.012270 
#    y 0.000000 1.733280 0.000000 
#    z -0.012270 0.000000 1.708540 
# 
# From -- ./inp_files/14950.got.cif
#   From: 2010.06.25/outbox.cif.g09.slc.cpg/sg9_8_cif.got.tgz:14950.got - 2010.06.27 21:40:51.
