data_PCOD8054717
_publ_section_title
;
Structure prediction by ZEFSAII (Michael W. Deem and Ramdas Pophale) SiO2 
 PCOD8054717
Probable space group: C C
;
_chemical_formula_sum "Si O2"
_cell_formula_units_Z 32
_cell_length_a 11.805802
_cell_length_b 14.099733
_cell_length_c 18.159979
_cell_angle_alpha 90.000000
_cell_angle_beta 30.256659
_cell_angle_gamma 90.000000
_cell_volume 1523.154626
_symmetry_space_group_name_H-M "C C"
_symmetry_group_IT_number 9
_symmetry_cell_setting 'monoclinic'
loop_
_space_group_symop_operation_xyz
x,y,z
x,-y,1/2+z
1/2+x,1/2+y,z
1/2+x,1/2-y,1/2+z
loop_
_atom_site_type_symbol
_atom_site_label
_atom_site_fract_x
_atom_site_fract_y
_atom_site_fract_z
Si Si1 0.248330 0.131338 0.197630
Si Si2 0.136947 0.264358 0.667322
Si Si3 0.510825 0.354860 0.365767
Si Si4 0.900657 0.823981 0.172797
Si Si5 0.789729 0.960659 0.927563
Si Si6 0.355198 0.974284 0.252842
Si Si7 0.865779 0.577306 0.387499
Si Si8 0.063949 0.524274 0.911700
O O1 0.301881 0.242674 0.174841
O O2 0.985843 0.116348 0.326919
O O3 0.316737 0.074986 0.233181
O O4 0.387433 0.091612 0.051105
O O5 0.352551 0.275474 0.492807
O O6 0.178430 0.193894 0.712674
O O7 0.929764 0.220460 0.737574
O O8 0.074198 0.365924 0.735703
O O9 0.365044 0.432742 0.404871
O O10 0.658822 0.401097 0.345676
O O11 0.731327 0.912302 0.268960
O O12 0.141375 0.860089 0.009401
O O13 0.702317 0.960729 0.892433
O O14 0.592538 0.930394 0.094288
O O15 0.340994 0.986132 0.348587
O O16 0.922311 0.545600 0.438587
#
# Coordination Sequence:
#
# PCOD8054717 Si02
#       8
#     4   4   4   4   4   4   4   4
#     4  10  22  41  68  97 127 174 221 272 330 398
#     4  12  22  41  65 103 122 170 231 275 324 393
#     4  11  23  40  69  95 133 170 229 276 331 395
#     4  12  23  41  70  95 132 170 228 275 322 399
#     4  10  20  42  67  95 131 172 217 270 346 391
#     4  10  23  41  66  93 133 177 215 267 339 397
#     4  12  25  40  65 100 132 173 225 269 333 399
#     4  11  24  40  64 100 132 172 216 276 337 396
#
# _framework density 21.009029999999999
#
# number of rings (size 3 to 8) (size 9 to 14) (size 15 to 20)
#    0.000    1.000    5.000    2.250    5.250    0.000 
#    0.000    2.500    0.000    0.000    0.000    0.000 
#    0.000    0.000    0.000    0.000    0.000    0.000 
#
# Total GULP energy -198451.839211 kJ/mol
# GULP energy per Si atom -12403.239951 kJ/mol
# Density = 2.096121 g / cm^3
# Si number density = 21.009030 Si / 1000 Ang^3
#
#
#
# Elastic Constant Matrix: (Units=GPa)
#
#
# Indices 1 2 3 4 5 6 
#
# 1 122.0225 37.1824 46.2087 -0.0081 0.1284 0.0018
# 2 37.1824 65.0291 32.4609 -0.0147 -6.0001 0.0083
# 3 46.2087 32.4609 104.7301 -0.0470 -6.5613 0.0027
# 4 -0.0081 -0.0147 -0.0470 31.2962 0.0223 -1.8722
# 5 0.1284 -6.0001 -6.5613 0.0223 35.4763 0.0011
# 6 0.0018 0.0083 0.0027 -1.8722 0.0011 34.6848
#
#
#
# Elastic Compliance Matrix: (Units=1/GPa)
#
#
# Indices 1 2 3 4 5 6 
#
# 1 0.010929 -0.004651 -0.003472 -0.000003 -0.001468 0.000001
# 2 -0.004651 0.020322 -0.004077 0.000000 0.002700 -0.000004
# 3 -0.003472 -0.004077 0.012446 0.000015 0.001625 0.000001
# 4 -0.000003 0.000000 0.000015 0.032056 -0.000017 0.001730
# 5 -0.001468 0.002700 0.001625 -0.000017 0.028950 -0.000003
# 6 0.000001 -0.000004 0.000001 0.001730 -0.000003 0.028925
#
#
# Mechanical properties :
#
#
# Convention : Reuss Voigt Hill
#
# Bulk Modulus (GPa) = 51.82756 58.16509 54.99633
# Shear Modulus (GPa) = 30.40232 32.02010 31.21121
#
# Velocity S-wave (km/s) = 3.80821 3.90822 3.85854
# Velocity P-wave (km/s) = 6.63772 6.93624 6.78862
#
# Compressibility (1/GPa) = 0.01929475
#
# Stress axis : x y z
#
# Youngs Moduli (GPa) = 91.49948 49.20880 80.34695
#
# Poissons Ratio (x) = 0.22888 0.27900
# Poissons Ratio (y) = 0.42558 0.32760
# Poissons Ratio (z) = 0.31773 0.20064
#
# Static dielectric constant tensor:
#      x y z
#    x 3.736450 0.000000 -0.007720 
#    y 0.000000 3.568990 0.000030 
#    z -0.007720 0.000030 3.813290 
# 
# 
# High freq. dielectric constant tensor:
#      x y z
#    x 1.815290 0.000000 0.004390 
#    y 0.000000 1.806620 0.000000 
#    z 0.004390 0.000000 1.831600 
# 
# From -- ./inp_files/7383.got.cif
#   From: 2010.06.25/outbox.cif.g09.slc.cpg/sg9_4_cif.got.tgz:7383.got - 2010.06.27 21:40:51.
