data_PCOD8054205
_publ_section_title
;
Structure prediction by ZEFSAII (Michael W. Deem and Ramdas Pophale) SiO2 
 PCOD8054205
Probable space group: C C
;
_chemical_formula_sum "Si O2"
_cell_formula_units_Z 28
_cell_length_a 16.911970
_cell_length_b 15.930103
_cell_length_c 5.101271
_cell_angle_alpha 90.000000
_cell_angle_beta 66.528208
_cell_angle_gamma 90.000000
_cell_volume 1260.613260
_symmetry_space_group_name_H-M "C C"
_symmetry_group_IT_number 9
_symmetry_cell_setting 'monoclinic'
loop_
_space_group_symop_operation_xyz
x,y,z
x,-y,1/2+z
1/2+x,1/2+y,z
1/2+x,1/2-y,1/2+z
loop_
_atom_site_type_symbol
_atom_site_label
_atom_site_fract_x
_atom_site_fract_y
_atom_site_fract_z
Si Si1 0.720410 0.713200 0.466490
Si Si2 0.473902 0.722200 0.108168
Si Si3 0.412634 0.190400 0.164432
Si Si4 0.151960 0.291447 0.049211
Si Si5 0.137981 0.041291 0.537937
Si Si6 0.549022 0.055605 0.869050
Si Si7 0.449674 0.530931 0.177698
O O1 0.814724 0.672347 0.379800
O O2 0.711573 0.751182 0.191162
O O3 0.649865 0.639110 0.591120
O O4 0.704750 0.785898 0.705600
O O5 0.406290 0.746061 0.426256
O O6 0.565779 0.738242 0.120466
O O7 0.463160 0.624800 0.062106
O O8 0.464262 0.773528 0.848828
O O9 0.459520 0.107545 0.987306
O O10 0.128592 0.384878 0.178581
O O11 0.182622 0.015140 0.206572
O O12 0.036943 0.017358 0.664603
O O13 0.553020 0.979368 0.658980
O O14 0.398139 0.522066 0.521410
#
# Coordination Sequence:
#
# PCOD8054205 Si02
#       7
#     4   4   4   4   4   4   4
#     4  12  23  40  62  95 130 161 207 257 321 383
#     4  11  21  40  61  88 125 167 216 247 298 387
#     4  11  25  40  63  91 128 169 199 258 326 381
#     4  11  22  39  67  90 118 167 217 265 302 364
#     4  10  20  32  52  87 123 153 186 237 302 359
#     4  11  23  42  66  94 123 164 218 266 318 376
#     4  10  18  31  55  85 115 149 193 246 289 342
#
# _framework density 22.211410000000001
#
# number of rings (size 3 to 8) (size 9 to 14) (size 15 to 20)
#    0.000    1.143    0.000   10.286    0.000    1.143 
#    0.000    0.000    0.000   17.143    0.000    0.000 
#    0.000    0.000    0.000    0.000    0.000    0.000 
#
# Total GULP energy -173480.910906 kJ/mol
# GULP energy per Si atom -12391.493636 kJ/mol
# Density = 2.216086 g / cm^3
# Si number density = 22.211410 Si / 1000 Ang^3
#
#
#
# Elastic Constant Matrix: (Units=GPa)
#
#
# Indices 1 2 3 4 5 6 
#
# 1 56.9908 17.4413 32.0463 0.0000 14.6227 0.0000
# 2 17.4413 92.7418 26.3258 0.0000 10.6875 0.0000
# 3 32.0463 26.3258 129.0869 0.0000 35.1296 0.0000
# 4 0.0000 0.0000 0.0000 47.6330 0.0000 10.0799
# 5 14.6227 10.6875 35.1296 0.0000 44.9738 0.0000
# 6 0.0000 0.0000 0.0000 10.0799 0.0000 18.8151
#
#
#
# Elastic Compliance Matrix: (Units=1/GPa)
#
#
# Indices 1 2 3 4 5 6 
#
# 1 0.021355 -0.002532 -0.003885 0.000000 -0.003307 0.000000
# 2 -0.002532 0.011792 -0.001572 0.000000 -0.000751 0.000000
# 3 -0.003885 -0.001572 0.010904 0.000000 -0.006881 0.000000
# 4 0.000000 0.000000 0.000000 0.023678 0.000000 -0.012685
# 5 -0.003307 -0.000751 -0.006881 0.000000 0.028864 0.000000
# 6 0.000000 0.000000 0.000000 -0.012685 0.000000 0.059945
#
#
# Mechanical properties :
#
#
# Convention : Reuss Voigt Hill
#
# Bulk Modulus (GPa) = 35.62190 47.82737 41.72463
# Shear Modulus (GPa) = 27.49179 35.81810 31.65494
#
# Velocity S-wave (km/s) = 3.52196 4.02007 3.77923
# Velocity P-wave (km/s) = 5.71064 6.56716 6.15382
#
# Compressibility (1/GPa) = 0.02807262
#
# Stress axis : x y z
#
# Youngs Moduli (GPa) = 46.82820 84.80656 91.70716
#
# Poissons Ratio (x) = 0.21474 0.35629
# Poissons Ratio (y) = 0.11858 0.14414
# Poissons Ratio (z) = 0.18193 0.13329
#
# Static dielectric constant tensor:
#      x y z
#    x 3.699690 0.000000 0.403240 
#    y 0.000000 3.957640 0.000000 
#    z 0.403240 0.000000 4.742590 
# 
# 
# High freq. dielectric constant tensor:
#      x y z
#    x 1.840350 0.000000 0.032770 
#    y 0.000000 1.866820 0.000000 
#    z 0.032770 0.000000 1.902250 
# 
# From -- ./inp_files/2418.got.cif
#   From: 2010.06.25/outbox.cif.g09.slc.cpg/sg9_2_cif.got.tgz:2418.got - 2010.06.27 21:40:51.
