data_PCOD8054293
_publ_section_title
;
Structure prediction by ZEFSAII (Michael W. Deem and Ramdas Pophale) SiO2 
 PCOD8054293
Probable space group: C C
;
_chemical_formula_sum "Si O2"
_cell_formula_units_Z 28
_cell_length_a 9.446933
_cell_length_b 14.897490
_cell_length_c 13.563311
_cell_angle_alpha 90.000000
_cell_angle_beta 138.439567
_cell_angle_gamma 90.000000
_cell_volume 1266.343246
_symmetry_space_group_name_H-M "C C"
_symmetry_group_IT_number 9
_symmetry_cell_setting 'monoclinic'
loop_
_space_group_symop_operation_xyz
x,y,z
x,-y,1/2+z
1/2+x,1/2+y,z
1/2+x,1/2-y,1/2+z
loop_
_atom_site_type_symbol
_atom_site_label
_atom_site_fract_x
_atom_site_fract_y
_atom_site_fract_z
Si Si1 0.137830 0.211075 0.362080
Si Si2 0.979658 0.168117 0.484152
Si Si3 0.084003 0.766212 0.620890
Si Si4 0.162842 0.527189 0.280020
Si Si5 0.935733 0.392777 0.290359
Si Si6 0.878681 0.369113 0.479428
Si Si7 0.449946 0.633462 0.859509
O O1 0.991911 0.167736 0.370377
O O2 0.069018 0.177875 0.217008
O O3 0.388780 0.194056 0.514488
O O4 0.115057 0.320095 0.352485
O O5 0.207335 0.147467 0.647026
O O6 0.812365 0.090865 0.425492
O O7 0.902421 0.261857 0.487681
O O8 0.306744 0.712417 0.737067
O O9 0.069507 0.834192 0.521908
O O10 0.308318 0.454180 0.301609
O O11 0.985445 0.483691 0.258277
O O12 0.042169 0.590275 0.141431
O O13 0.939973 0.414300 0.407993
O O14 0.634667 0.392372 0.378814
#
# Coordination Sequence:
#
# PCOD8054293 Si02
#       7
#     4   4   4   4   4   4   4
#     4  10  18  40  71 101 137 188 227 280 362 442
#     4  11  24  42  73 101 143 191 241 291 360 434
#     4  10  20  39  73 102 148 178 237 287 369 424
#     4  12  25  46  71 103 142 183 251 301 348 430
#     4  11  23  45  65 100 138 185 238 290 358 428
#     4  11  27  46  71 102 145 190 237 297 369 427
#     4  11  25  44  72 109 141 187 239 304 356 429
#
# _framework density 22.110907999999998
#
# number of rings (size 3 to 8) (size 9 to 14) (size 15 to 20)
#    0.000    1.143    4.286    2.571    6.000    1.143 
#    0.000    5.714    0.000    0.000    0.000    0.000 
#    0.000    0.000    0.000    0.000    0.000    0.000 
#
# Total GULP energy -173630.398104 kJ/mol
# GULP energy per Si atom -12402.171293 kJ/mol
# Density = 2.206058 g / cm^3
# Si number density = 22.110908 Si / 1000 Ang^3
#
#
#
# Elastic Constant Matrix: (Units=GPa)
#
#
# Indices 1 2 3 4 5 6 
#
# 1 89.6979 28.5669 28.8828 -0.0003 7.7426 -0.0001
# 2 28.5669 75.2677 15.6180 -0.0006 7.0077 -0.0002
# 3 28.8828 15.6180 100.7834 -0.0010 6.5011 -0.0005
# 4 -0.0003 -0.0006 -0.0010 39.3662 0.0000 4.6479
# 5 7.7426 7.0077 6.5011 0.0000 31.8580 0.0000
# 6 -0.0001 -0.0002 -0.0005 4.6479 0.0000 29.3883
#
#
#
# Elastic Compliance Matrix: (Units=1/GPa)
#
#
# Indices 1 2 3 4 5 6 
#
# 1 0.013706 -0.004390 -0.003136 0.000000 -0.001725 0.000000
# 2 -0.004390 0.015353 -0.000985 0.000000 -0.002109 0.000000
# 3 -0.003136 -0.000985 0.011056 0.000000 -0.001277 0.000000
# 4 0.000000 0.000000 0.000000 0.025886 0.000000 -0.004094
# 5 -0.001725 -0.002109 -0.001277 0.000000 0.032533 0.000000
# 6 0.000000 0.000000 0.000000 -0.004094 0.000000 0.034675
#
#
# Mechanical properties :
#
#
# Convention : Reuss Voigt Hill
#
# Bulk Modulus (GPa) = 43.30568 45.76494 44.53531
# Shear Modulus (GPa) = 31.65992 32.96791 32.31391
#
# Velocity S-wave (km/s) = 3.78811 3.86557 3.82703
# Velocity P-wave (km/s) = 6.22585 6.37702 6.30189
#
# Compressibility (1/GPa) = 0.02309166
#
# Stress axis : x y z
#
# Youngs Moduli (GPa) = 72.96324 65.13397 90.44820
#
# Poissons Ratio (x) = 0.28596 0.28366
# Poissons Ratio (y) = 0.32034 0.08908
# Poissons Ratio (z) = 0.22882 0.06415
#
# Static dielectric constant tensor:
#      x y z
#    x 4.127510 0.000000 -0.013550 
#    y 0.000000 3.752030 0.000000 
#    z -0.013550 0.000000 4.070930 
# 
# 
# High freq. dielectric constant tensor:
#      x y z
#    x 1.875550 0.000000 0.006190 
#    y 0.000000 1.845090 0.000000 
#    z 0.006190 0.000000 1.887750 
# 
# From -- ./inp_files/15143.got.cif
#   From: 2010.06.25/outbox.cif.g09.slc.cpg/sg9_8_cif.got.tgz:15143.got - 2010.06.27 21:40:51.
