data_PCOD8054203
_publ_section_title
;
Structure prediction by ZEFSAII (Michael W. Deem and Ramdas Pophale) SiO2 
 PCOD8054203
Probable space group: C C
;
_chemical_formula_sum "Si O2"
_cell_formula_units_Z 24
_cell_length_a 9.104787
_cell_length_b 15.081943
_cell_length_c 8.855542
_cell_angle_alpha 90.000000
_cell_angle_beta 33.796911
_cell_angle_gamma 90.000000
_cell_volume 676.414473
_symmetry_space_group_name_H-M "C C"
_symmetry_group_IT_number 9
_symmetry_cell_setting 'monoclinic'
loop_
_space_group_symop_operation_xyz
x,y,z
x,-y,1/2+z
1/2+x,1/2+y,z
1/2+x,1/2-y,1/2+z
loop_
_atom_site_type_symbol
_atom_site_label
_atom_site_fract_x
_atom_site_fract_y
_atom_site_fract_z
Si Si1 0.054460 0.149377 0.728000
Si Si2 0.612262 0.115267 0.305172
Si Si3 0.817047 0.179651 0.652022
Si Si4 0.383152 0.206830 0.798506
Si Si5 0.549450 0.968805 0.558023
Si Si6 0.113661 0.053161 0.195812
O O1 0.334626 0.167924 0.576336
O O2 0.055539 0.207808 0.568586
O O3 0.989654 0.042018 0.749860
O O4 0.838592 0.177055 0.040683
O O5 0.707552 0.059680 0.371107
O O6 0.497378 0.039351 0.283826
O O7 0.547255 0.239657 0.820413
O O8 0.677537 0.123861 0.903539
O O9 0.879393 0.117386 0.454796
O O10 0.639960 0.223918 0.468410
O O11 0.283262 0.106710 0.916979
O O12 0.268800 0.971599 0.715380
#
# Coordination Sequence:
#
# PCOD8054203 Si02
#       6
#     4   4   4   4   4   4
#     4  10  20  30  48  74 104 138 174 216 276 336
#     4  10  18  28  44  66 100 142 176 204 262 330
#     4  10  18  33  50  74 105 145 173 222 274 329
#     4  11  22  34  52  72 104 148 188 223 264 329
#     4   9  18  28  44  70 100 144 172 209 264 325
#     4  10  18  33  50  74 105 145 173 222 274 329
#
# _framework density 35.481206
#
# number of rings (size 3 to 8) (size 9 to 14) (size 15 to 20)
#    0.000    2.000    5.000    0.000    0.000    0.000 
#    0.000    0.000    0.000    0.000    0.000    0.000 
#    0.000    2.667    8.333   38.000    0.667    0.000 
#
# Total GULP energy -148659.497404 kJ/mol
# GULP energy per Si atom -12388.291450 kJ/mol
# Density = 3.540045 g / cm^3
# Si number density = 35.481206 Si / 1000 Ang^3
#
#
#
# Elastic Constant Matrix: (Units=GPa)
#
#
# Indices 1 2 3 4 5 6 
#
# 1 112.1819 52.1664 49.7896 0.1113 -10.2333 -0.0769
# 2 52.1664 184.0849 46.0411 0.1136 -10.4678 -0.0717
# 3 49.7896 46.0411 235.2248 0.1549 0.4258 -0.1252
# 4 0.1113 0.1136 0.1549 15.1400 -0.1425 -14.8789
# 5 -10.2333 -10.4678 0.4258 -0.1425 68.6928 0.0719
# 6 -0.0769 -0.0717 -0.1252 -14.8789 0.0719 72.0890
#
#
#
# Elastic Compliance Matrix: (Units=1/GPa)
#
#
# Indices 1 2 3 4 5 6 
#
# 1 0.011052 -0.002602 -0.001832 -0.000033 0.001261 -0.000002
# 2 -0.002602 0.006378 -0.000699 -0.000018 0.000589 -0.000002
# 3 -0.001832 -0.000699 0.004777 -0.000035 -0.000409 -0.000001
# 4 -0.000033 -0.000018 -0.000035 0.082859 0.000147 0.017102
# 5 0.001261 0.000589 -0.000409 0.000147 0.014838 0.000017
# 6 -0.000002 -0.000002 -0.000001 0.017102 0.000017 0.017401
#
#
# Mechanical properties :
#
#
# Convention : Reuss Voigt Hill
#
# Bulk Modulus (GPa) = 83.74668 91.94285 87.84476
# Shear Modulus (GPa) = 32.99203 56.75065 44.87134
#
# Velocity S-wave (km/s) = 3.05264 4.00366 3.56005
# Velocity P-wave (km/s) = 6.00660 6.88053 6.45836
#
# Compressibility (1/GPa) = 0.01194077
#
# Stress axis : x y z
#
# Youngs Moduli (GPa) = 90.47770 156.79245 209.35284
#
# Poissons Ratio (x) = 0.40798 0.38362
# Poissons Ratio (y) = 0.23543 0.14626
# Poissons Ratio (z) = 0.16579 0.10954
#
# Static dielectric constant tensor:
#      x y z
#    x 8.737260 -0.000530 0.181470 
#    y -0.000530 7.354540 0.001040 
#    z 0.181470 0.001040 8.332980 
# 
# 
# High freq. dielectric constant tensor:
#      x y z
#    x 2.573420 0.000000 -0.014430 
#    y 0.000000 2.517580 0.000010 
#    z -0.014430 0.000010 2.525800 
# 
# From -- ./inp_files/17088.got.cif
#   From: 2010.06.25/outbox.cif.g09.slc.cpg/sg9_9_cif.got.tgz:17088.got - 2010.06.27 21:40:51.
