data_PCOD8054238
_publ_section_title
;
Structure prediction by ZEFSAII (Michael W. Deem and Ramdas Pophale) SiO2 
 PCOD8054238
Probable space group: C C
;
_chemical_formula_sum "Si O2"
_cell_formula_units_Z 32
_cell_length_a 25.644565
_cell_length_b 9.781553
_cell_length_c 17.438376
_cell_angle_alpha 90.000000
_cell_angle_beta 161.436875
_cell_angle_gamma 90.000000
_cell_volume 1392.557201
_symmetry_space_group_name_H-M "C C"
_symmetry_group_IT_number 9
_symmetry_cell_setting 'monoclinic'
loop_
_space_group_symop_operation_xyz
x,y,z
x,-y,1/2+z
1/2+x,1/2+y,z
1/2+x,1/2-y,1/2+z
loop_
_atom_site_type_symbol
_atom_site_label
_atom_site_fract_x
_atom_site_fract_y
_atom_site_fract_z
Si Si1 0.468910 0.941420 0.459610
Si Si2 0.052243 0.995932 0.134226
Si Si3 0.910869 0.249696 0.090251
Si Si4 0.052377 0.831219 0.394270
Si Si5 0.753414 0.495932 0.282482
Si Si6 0.336746 0.558580 0.457097
Si Si7 0.394788 0.249696 0.326456
Si Si8 0.253279 0.831218 0.022437
O O1 0.395269 0.902539 0.441820
O O2 0.652828 0.888259 0.708354
O O3 0.460795 0.105756 0.448975
O O4 0.365229 0.874701 0.248359
O O5 0.152828 0.913005 0.208354
O O6 0.174911 0.033854 0.374788
O O7 0.910388 0.902539 0.974888
O O8 0.985631 0.134078 0.001608
O O9 0.106687 0.265239 0.350058
O O10 0.820025 0.365922 0.915099
O O11 0.844862 0.105756 0.967732
O O12 0.867574 0.255191 0.119997
O O13 0.130746 0.966147 0.541920
O O14 0.198970 0.734762 0.566650
O O15 0.938083 0.755191 0.296711
O O16 0.940427 0.874703 0.168348
#
# Coordination Sequence:
#
# PCOD8054238 Si02
#       8
#     4   4   4   4   4   4   4   4
#     4  11  20  34  54  80 108 139 174 214 259 313
#     4   9  17  32  56  83 103 128 171 223 265 300
#     4  10  18  35  58  81 104 133 174 223 263 304
#     4  10  20  33  54  82 106 136 175 218 262 307
#     4   9  17  32  56  83 103 128 171 223 265 300
#     4  11  20  34  54  80 108 139 174 214 259 313
#     4  10  18  35  58  81 104 133 174 223 263 304
#     4  10  20  33  54  82 106 136 175 218 262 307
#
# _framework density 22.979309000000001
#
# number of rings (size 3 to 8) (size 9 to 14) (size 15 to 20)
#    0.000    2.000    0.000    9.750    0.000    0.000 
#    0.000   15.000    0.000    4.500    0.000    0.000 
#    0.000    0.000    0.000    0.000    0.000    0.000 
#
# Total GULP energy -198302.254490 kJ/mol
# GULP energy per Si atom -12393.890906 kJ/mol
# Density = 2.292701 g / cm^3
# Si number density = 22.979309 Si / 1000 Ang^3
#
#
#
# Elastic Constant Matrix: (Units=GPa)
#
#
# Indices 1 2 3 4 5 6 
#
# 1 242.3625 12.7267 94.6765 0.0000 50.4940 0.0000
# 2 12.7267 18.5060 14.0067 0.0000 -4.2340 0.0000
# 3 94.6765 14.0067 156.8308 0.0000 13.5023 0.0000
# 4 0.0000 0.0000 0.0000 2.2015 0.0000 -13.6973
# 5 50.4940 -4.2340 13.5023 0.0000 43.0679 0.0000
# 6 0.0000 0.0000 0.0000 -13.6973 0.0000 5.4649
#
#
#
# Elastic Compliance Matrix: (Units=1/GPa)
#
#
# Indices 1 2 3 4 5 6 
#
# 1 0.007318 -0.004319 -0.003347 0.000000 -0.007955 0.000000
# 2 -0.004319 0.062976 -0.004097 0.000000 0.012539 0.000000
# 3 -0.003347 -0.004097 0.008694 0.000000 0.000796 0.000000
# 4 0.000000 0.000000 0.000000 -0.031124 0.000000 -0.078009
# 5 -0.007955 0.012539 0.000796 0.000000 0.033529 0.000000
# 6 0.000000 0.000000 0.000000 -0.078009 0.000000 -0.012538
#
#
# Mechanical properties :
#
#
# Convention : Reuss Voigt Hill
#
# Bulk Modulus (GPa) = 18.03017 73.39102 45.71060
# Shear Modulus (GPa) = 45.09887 29.89949 37.49918
#
# Velocity S-wave (km/s) = 4.43491 3.61106 4.04402
# Velocity P-wave (km/s) = 5.83849 7.02805 6.46071
#
# Compressibility (1/GPa) = 0.05546258
#
# Stress axis : x y z
#
# Youngs Moduli (GPa) = 136.65761 15.87904 115.01958
#
# Poissons Ratio (x) = 0.06858 0.38496
# Poissons Ratio (y) = 0.59023 0.47120
# Poissons Ratio (z) = 0.45738 0.06505
#
# Static dielectric constant tensor:
#      x y z
#    x 5.330980 0.000000 0.717420 
#    y 0.000000 3.525960 0.000000 
#    z 0.717420 0.000000 4.192920 
# 
# 
# High freq. dielectric constant tensor:
#      x y z
#    x 1.948710 0.000000 0.019830 
#    y 0.000000 1.852000 0.000000 
#    z 0.019830 0.000000 1.903240 
# 
# From -- ./inp_files/31719.got.cif
#   From: 2010.06.25/outbox.cif.g09.slc.cpg/sg9_16_cif.got.tgz:31719.got - 2010.06.27 21:40:51.
