data_PCOD8054237
_publ_section_title
;
Structure prediction by ZEFSAII (Michael W. Deem and Ramdas Pophale) SiO2 
 PCOD8054237
Probable space group: C C
;
_chemical_formula_sum "Si O2"
_cell_formula_units_Z 28
_cell_length_a 32.143947
_cell_length_b 8.578474
_cell_length_c 5.332542
_cell_angle_alpha 90.000000
_cell_angle_beta 61.049570
_cell_angle_gamma 90.000000
_cell_volume 1286.680877
_symmetry_space_group_name_H-M "C C"
_symmetry_group_IT_number 9
_symmetry_cell_setting 'monoclinic'
loop_
_space_group_symop_operation_xyz
x,y,z
x,-y,1/2+z
1/2+x,1/2+y,z
1/2+x,1/2-y,1/2+z
loop_
_atom_site_type_symbol
_atom_site_label
_atom_site_fract_x
_atom_site_fract_y
_atom_site_fract_z
Si Si1 0.077090 0.094640 0.859720
Si Si2 0.961381 0.576959 0.192093
Si Si3 0.889294 0.818746 0.469599
Si Si4 0.241116 0.413967 0.382061
Si Si5 0.688231 0.592555 0.535345
Si Si6 0.064919 0.446243 0.894241
Si Si7 0.850809 0.846426 0.082056
O O1 0.132707 0.134715 0.697372
O O2 0.062341 0.999916 0.652842
O O3 0.051280 0.263284 0.935410
O O4 0.940208 0.480040 0.488530
O O5 0.943549 0.755571 0.283882
O O6 0.018334 0.558488 0.025165
O O7 0.858626 0.754349 0.319960
O O8 0.887140 0.005709 0.490389
O O9 0.865285 0.747618 0.793572
O O10 0.222804 0.499003 0.686350
O O11 0.219664 0.244244 0.443530
O O12 0.297812 0.408779 0.211406
O O13 0.701935 0.500016 0.245343
O O14 0.093903 0.501274 0.058847
#
# Coordination Sequence:
#
# PCOD8054237 Si02
#       7
#     4   4   4   4   4   4   4
#     4  10  21  40  66  90 124 168 204 243 307 379
#     4  10  21  37  58  80 121 149 192 247 312 345
#     4  10  18  35  58  79 109 155 192 246 292 354
#     4  12  21  38  63  90 126 159 215 260 296 356
#     4  10  23  41  59  91 132 164 200 251 310 370
#     4  10  21  38  65  89 128 152 202 260 305 364
#     4  10  19  35  59  79 112 153 205 239 292 354
#
# _framework density 21.761417999999999
#
# number of rings (size 3 to 8) (size 9 to 14) (size 15 to 20)
#    0.000    1.714    2.857    2.571    0.000    1.143 
#    0.000    4.286   75.429    0.000    0.000    0.000 
#    0.000    0.000    0.000    0.000    0.000    0.000 
#
# Total GULP energy -173465.245817 kJ/mol
# GULP energy per Si atom -12390.374701 kJ/mol
# Density = 2.171189 g / cm^3
# Si number density = 21.761418 Si / 1000 Ang^3
#
#
#
# Elastic Constant Matrix: (Units=GPa)
#
#
# Indices 1 2 3 4 5 6 
#
# 1 53.6982 34.8685 61.8789 0.0000 23.5004 0.0000
# 2 34.8685 100.2817 42.1397 0.0000 5.0292 0.0000
# 3 61.8789 42.1397 143.5588 0.0000 67.1121 0.0000
# 4 0.0000 0.0000 0.0000 28.9138 0.0000 8.9917
# 5 23.5004 5.0292 67.1121 0.0000 55.1540 0.0000
# 6 0.0000 0.0000 0.0000 8.9917 0.0000 19.4635
#
#
#
# Elastic Compliance Matrix: (Units=1/GPa)
#
#
# Indices 1 2 3 4 5 6 
#
# 1 0.042507 -0.007199 -0.018668 0.000000 0.005260 0.000000
# 2 -0.007199 0.013900 -0.004218 0.000000 0.006932 0.000000
# 3 -0.018668 -0.004218 0.028649 0.000000 -0.026522 0.000000
# 4 0.000000 0.000000 0.000000 0.040388 0.000000 -0.018658
# 5 0.005260 0.006932 -0.026522 0.000000 0.047529 0.000000
# 6 0.000000 0.000000 0.000000 -0.018658 0.000000 0.059998
#
#
# Mechanical properties :
#
#
# Convention : Reuss Voigt Hill
#
# Bulk Modulus (GPa) = 40.18269 63.92365 52.05317
# Shear Modulus (GPa) = 16.58725 31.28305 23.93515
#
# Velocity S-wave (km/s) = 2.76385 3.79561 3.32006
# Velocity P-wave (km/s) = 5.35634 6.97477 6.21843
#
# Compressibility (1/GPa) = 0.02488634
#
# Stress axis : x y z
#
# Youngs Moduli (GPa) = 23.52536 71.94346 34.90545
#
# Poissons Ratio (x) = 0.51795 0.65161
# Poissons Ratio (y) = 0.16937 0.14722
# Poissons Ratio (z) = 0.43917 0.30343
#
# Static dielectric constant tensor:
#      x y z
#    x 3.993290 0.000000 0.805600 
#    y 0.000000 3.626030 0.000000 
#    z 0.805600 0.000000 4.887820 
# 
# 
# High freq. dielectric constant tensor:
#      x y z
#    x 1.838280 0.000000 0.040430 
#    y 0.000000 1.830890 0.000000 
#    z 0.040430 0.000000 1.880350 
# 
# From -- ./inp_files/3387.got.cif
#   From: 2010.06.25/outbox.cif.g09.slc.cpg/sg9_2_cif.got.tgz:3387.got - 2010.06.27 21:40:51.
