data_PCOD8054724
_publ_section_title
;
Structure prediction by ZEFSAII (Michael W. Deem and Ramdas Pophale) SiO2 
 PCOD8054724
Probable space group: C C
;
_chemical_formula_sum "Si O2"
_cell_formula_units_Z 32
_cell_length_a 9.420889
_cell_length_b 13.418399
_cell_length_c 10.617138
_cell_angle_alpha 90.000000
_cell_angle_beta 87.919871
_cell_angle_gamma 90.000000
_cell_volume 1341.262476
_symmetry_space_group_name_H-M "C C"
_symmetry_group_IT_number 9
_symmetry_cell_setting 'monoclinic'
loop_
_space_group_symop_operation_xyz
x,y,z
x,-y,1/2+z
1/2+x,1/2+y,z
1/2+x,1/2-y,1/2+z
loop_
_atom_site_type_symbol
_atom_site_label
_atom_site_fract_x
_atom_site_fract_y
_atom_site_fract_z
Si Si1 0.111730 0.567509 0.730020
Si Si2 0.925410 0.799972 0.483387
Si Si3 0.975845 0.148175 0.371236
Si Si4 0.250035 0.505510 0.971375
Si Si5 0.353581 0.184499 0.728772
Si Si6 0.592155 0.376517 0.110186
Si Si7 0.830573 0.767797 0.223475
Si Si8 0.649552 0.396005 0.621573
O O1 0.161449 0.497976 0.843814
O O2 0.153003 0.523322 0.593113
O O3 0.177820 0.679000 0.744913
O O4 0.941138 0.581754 0.748400
O O5 0.913736 0.721456 0.594280
O O6 0.908902 0.742061 0.351864
O O7 0.081895 0.849401 0.496301
O O8 0.803824 0.883691 0.497048
O O9 0.886878 0.063498 0.446825
O O10 0.876599 0.243227 0.347478
O O11 0.103286 0.171126 0.468091
O O12 0.037332 0.109586 0.239104
O O13 0.185363 0.174881 0.715580
O O14 0.428282 0.352250 0.152635
O O15 0.659858 0.486695 0.098707
O O16 0.797232 0.663431 0.150092
#
# Coordination Sequence:
#
# PCOD8054724 Si02
#       8
#     4   4   4   4   4   4   4   4
#     4  11  22  45  67 104 137 187 241 303 369 441
#     4  10  20  42  70  96 131 182 226 295 360 428
#     4  11  22  44  69  97 138 183 237 301 364 444
#     4  11  22  41  77 101 135 192 252 297 371 460
#     4  11  26  44  65  98 149 177 230 311 367 427
#     4  12  26  44  68 105 138 188 239 300 369 444
#     4  11  22  42  73  98 134 183 243 290 370 444
#     4  11  22  44  69  99 138 184 240 295 362 446
#
# _framework density 23.858118000000001
#
# number of rings (size 3 to 8) (size 9 to 14) (size 15 to 20)
#    0.000    1.000    5.000    3.750    1.750    2.000 
#    9.000    0.000    0.000    0.000    0.000    0.000 
#    0.000    0.000    0.000    0.000    0.000    0.000 
#
# Total GULP energy -198231.418903 kJ/mol
# GULP energy per Si atom -12389.463681 kJ/mol
# Density = 2.380382 g / cm^3
# Si number density = 23.858118 Si / 1000 Ang^3
#
#
#
# Elastic Constant Matrix: (Units=GPa)
#
#
# Indices 1 2 3 4 5 6 
#
# 1 89.0556 31.2797 32.1840 0.0000 36.0243 0.0000
# 2 31.2797 83.1156 31.6857 0.0000 22.9454 0.0000
# 3 32.1840 31.6857 136.7013 0.0000 37.5665 0.0000
# 4 0.0000 0.0000 0.0000 27.2092 0.0000 12.1396
# 5 36.0243 22.9454 37.5665 0.0000 33.7807 0.0000
# 6 0.0000 0.0000 0.0000 12.1396 0.0000 35.1880
#
#
#
# Elastic Compliance Matrix: (Units=1/GPa)
#
#
# Indices 1 2 3 4 5 6 
#
# 1 0.020331 -0.002218 0.001831 0.000000 -0.022211 0.000000
# 2 -0.002218 0.015139 -0.001168 0.000000 -0.006619 0.000000
# 3 0.001831 -0.001168 0.010763 0.000000 -0.013128 0.000000
# 4 0.000000 0.000000 0.000000 0.043438 0.000000 -0.014986
# 5 -0.022211 -0.006619 -0.013128 0.000000 0.072385 0.000000
# 6 0.000000 0.000000 0.000000 -0.014986 0.000000 0.033589
#
#
# Mechanical properties :
#
#
# Convention : Reuss Voigt Hill
#
# Bulk Modulus (GPa) = 23.18912 55.46348 39.32630
# Shear Modulus (GPa) = 23.46016 33.48379 28.47197
#
# Velocity S-wave (km/s) = 3.13919 3.75034 3.45829
# Velocity P-wave (km/s) = 4.78331 6.48468 5.69786
#
# Compressibility (1/GPa) = 0.04312367
#
# Stress axis : x y z
#
# Youngs Moduli (GPa) = 49.18617 66.05652 92.91488
#
# Poissons Ratio (x) = 0.14649 -0.17016
# Poissons Ratio (y) = 0.10908 0.10851
# Poissons Ratio (z) = -0.09008 0.07714
#
# Static dielectric constant tensor:
#      x y z
#    x 4.407090 0.000000 0.575540 
#    y 0.000000 4.144260 0.000000 
#    z 0.575540 0.000000 4.567290 
# 
# 
# High freq. dielectric constant tensor:
#      x y z
#    x 1.930240 0.000000 0.033870 
#    y 0.000000 1.927440 0.000000 
#    z 0.033870 0.000000 1.962670 
# 
# From -- ./inp_files/14634.got.cif
#   From: 2010.06.25/outbox.cif.g09.slc.cpg/sg9_8_cif.got.tgz:14634.got - 2010.06.27 21:40:51.
