data_PCOD8054049
_publ_section_title
;
Structure prediction by ZEFSAII (Michael W. Deem and Ramdas Pophale) SiO2 
 PCOD8054049
Probable space group: C M
;
_chemical_formula_sum "Si O2"
_cell_formula_units_Z 32
_cell_length_a 11.609369
_cell_length_b 13.943675
_cell_length_c 9.620456
_cell_angle_alpha 90.000000
_cell_angle_beta 82.506812
_cell_angle_gamma 90.000000
_cell_volume 1544.034093
_symmetry_space_group_name_H-M "C M"
_symmetry_group_IT_number 8
_symmetry_cell_setting 'monoclinic'
loop_
_space_group_symop_operation_xyz
x,y,z
x,-y,z
1/2+x,1/2+y,z
1/2+x,1/2-y,z
loop_
_atom_site_type_symbol
_atom_site_label
_atom_site_fract_x
_atom_site_fract_y
_atom_site_fract_z
Si Si1 0.376790 0.683189 0.996380
Si Si2 0.516967 0.605143 0.744619
Si Si3 0.374660 0.608943 0.306357
Si Si4 0.948169 0.755947 0.519284
Si Si5 0.149741 0.604366 0.519512
Si Si6 0.181021 0.345800 0.818329
Si Si7 0.918491 0.606724 0.919277
Si Si8 0.261491 0.154765 0.698445
O O1 0.496442 0.651930 0.901128
O O2 0.275153 0.630930 0.922737
O O3 0.367708 0.800576 0.009743
O O4 0.373136 0.639717 0.148294
O O5 0.459391 0.500000 0.747323
O O6 0.448548 0.674667 0.651724
O O7 0.652550 0.587421 0.678814
O O8 0.421740 0.500000 0.313152
O O9 0.457544 0.682282 0.377236
O O10 0.246601 0.618323 0.387741
O O11 0.825739 0.697722 0.551389
O O12 0.056136 0.685815 0.509013
O O13 0.090786 0.500000 0.509411
O O14 0.208270 0.607900 0.663127
O O15 0.188012 0.232347 0.797666
O O16 0.056214 0.382275 0.887010
O O17 0.892352 0.500000 0.990257
O O18 0.861508 0.605228 0.774711
#
# Coordination Sequence:
#
# PCOD8054049 Si02
#       8
#     4   4   4   4   4   4   4   4
#     4  11  24  42  61  93 131 167 210 261 313 370
#     4  12  22  36  62  92 122 161 208 258 312 373
#     4  11  25  43  62  88 126 175 215 255 308 373
#     4  12  21  42  62  92 128 161 208 263 315 367
#     4  11  22  39  65  93 120 162 212 263 318 370
#     4  11  19  38  66  92 125 159 205 264 318 362
#     4  11  22  38  66  96 123 161 208 262 321 372
#     4  11  19  38  60  92 127 158 198 258 315 373
#
# _framework density 20.724931000000002
#
# number of rings (size 3 to 8) (size 9 to 14) (size 15 to 20)
#    0.000    0.750    7.500    1.500    0.000    4.500 
#    0.000    1.875    0.000    0.750    0.000    0.000 
#    0.000    0.000    0.000    0.000    0.000    0.000 
#
# Total GULP energy -198242.971631 kJ/mol
# GULP energy per Si atom -12390.185727 kJ/mol
# Density = 2.067776 g / cm^3
# Si number density = 20.724931 Si / 1000 Ang^3
#
#
#
# Elastic Constant Matrix: (Units=GPa)
#
#
# Indices 1 2 3 4 5 6 
#
# 1 96.8967 35.2256 39.3910 0.0000 6.4905 0.0000
# 2 35.2256 158.1585 46.9951 0.0000 4.9618 0.0000
# 3 39.3910 46.9951 138.1346 0.0000 4.4121 0.0000
# 4 0.0000 0.0000 0.0000 16.9766 0.0000 -20.2322
# 5 6.4905 4.9618 4.4121 0.0000 14.5860 0.0000
# 6 0.0000 0.0000 0.0000 -20.2322 0.0000 -72.2158
#
#
#
# Elastic Compliance Matrix: (Units=1/GPa)
#
#
# Indices 1 2 3 4 5 6 
#
# 1 0.012380 -0.001802 -0.002788 0.000000 -0.004053 0.000000
# 2 -0.001802 0.007337 -0.001947 0.000000 -0.001105 0.000000
# 3 -0.002788 -0.001947 0.008720 0.000000 -0.000735 0.000000
# 4 0.000000 0.000000 0.000000 0.044160 0.000000 -0.012372
# 5 -0.004053 -0.001105 -0.000735 0.000000 0.070960 0.000000
# 6 0.000000 0.000000 0.000000 -0.012372 0.000000 -0.010381
#
#
# Mechanical properties :
#
#
# Convention : Reuss Voigt Hill
#
# Bulk Modulus (GPa) = 65.08739 70.71256 67.89997
# Shear Modulus (GPa) = 33.03122 9.97457 21.50289
#
# Velocity S-wave (km/s) = 3.99656 2.19620 3.22458
# Velocity P-wave (km/s) = 7.26431 6.37375 6.83355
#
# Compressibility (1/GPa) = 0.01536396
#
# Stress axis : x y z
#
# Youngs Moduli (GPa) = 80.77468 136.28957 114.67570
#
# Poissons Ratio (x) = 0.24557 0.31971
# Poissons Ratio (y) = 0.14554 0.22329
# Poissons Ratio (z) = 0.22519 0.26537
#
# Static dielectric constant tensor:
#      x y z
#    x 3.769110 0.000000 0.053750 
#    y 0.000000 4.144250 0.000000 
#    z 0.053750 0.000000 3.465120 
# 
# 
# High freq. dielectric constant tensor:
#      x y z
#    x 1.813690 0.000000 -0.000760 
#    y 0.000000 1.832140 0.000000 
#    z -0.000760 0.000000 1.766240 
# 
# From -- ./inp_files/10755.got.cif
#   From: 2010.03.12/outbox.cif.g09.slc.cpg/sg8_6_cif.got.tgz:10755.got - 2010.03.31 10:45:26.
