data_PCOD8054735
_publ_section_title
;
Structure prediction by ZEFSAII (Michael W. Deem and Ramdas Pophale) SiO2 
 PCOD8054735
Probable space group: C C
;
_chemical_formula_sum "Si O2"
_cell_formula_units_Z 32
_cell_length_a 5.562578
_cell_length_b 27.803809
_cell_length_c 8.507698
_cell_angle_alpha 90.000000
_cell_angle_beta 94.709826
_cell_angle_gamma 90.000000
_cell_volume 1311.364795
_symmetry_space_group_name_H-M "C C"
_symmetry_group_IT_number 9
_symmetry_cell_setting 'monoclinic'
loop_
_space_group_symop_operation_xyz
x,y,z
x,-y,1/2+z
1/2+x,1/2+y,z
1/2+x,1/2-y,1/2+z
loop_
_atom_site_type_symbol
_atom_site_label
_atom_site_fract_x
_atom_site_fract_y
_atom_site_fract_z
Si Si1 0.253670 0.379102 0.068910
Si Si2 0.481146 0.695287 0.384587
Si Si3 0.235378 0.931726 0.017945
Si Si4 0.673528 0.222097 0.094302
Si Si5 0.900514 0.507792 0.802450
Si Si6 0.392797 0.634417 0.934920
Si Si7 0.612216 0.063269 0.100454
Si Si8 0.805565 0.651838 0.161876
O O1 0.472427 0.407718 0.996980
O O2 0.335488 0.375852 0.252968
O O3 0.982342 0.399238 0.038945
O O4 0.266264 0.327929 0.978383
O O5 0.647533 0.727188 0.506895
O O6 0.374643 0.728672 0.240124
O O7 0.636100 0.652780 0.308157
O O8 0.231365 0.964601 0.172459
O O9 0.241739 0.964891 0.864910
O O10 0.431090 0.204206 0.167145
O O11 0.728341 0.179320 0.975412
O O12 0.128904 0.482332 0.720703
O O13 0.977438 0.545636 0.936789
O O14 0.668505 0.647774 0.986002
O O15 0.354772 0.587179 0.045424
O O16 0.478846 0.106170 0.188299
#
# Coordination Sequence:
#
# PCOD8054735 Si02
#       8
#     4   4   4   4   4   4   4   4
#     4  12  27  45  74 106 149 189 249 301 379 443
#     4  11  27  44  73 105 140 194 241 309 366 451
#     4  11  26  46  68 108 142 195 243 307 370 442
#     4  10  26  46  69 103 141 187 247 302 370 443
#     4  10  22  43  68  99 142 186 246 299 364 440
#     4  10  23  43  68  98 140 193 233 302 368 438
#     4  10  20  43  63  96 137 183 233 298 359 434
#     4  10  23  44  69  95 141 187 238 300 372 433
#
# _framework density 24.402058
#
# number of rings (size 3 to 8) (size 9 to 14) (size 15 to 20)
#    0.000    1.500    1.250    1.500   12.250    2.000 
#    9.000    0.000    0.000    0.000    0.000    0.000 
#    0.000    0.000    0.000    0.000    0.000    0.000 
#
# Total GULP energy -198233.827703 kJ/mol
# GULP energy per Si atom -12389.614231 kJ/mol
# Density = 2.434652 g / cm^3
# Si number density = 24.402058 Si / 1000 Ang^3
#
#
#
# Elastic Constant Matrix: (Units=GPa)
#
#
# Indices 1 2 3 4 5 6 
#
# 1 75.3358 9.5806 3.0689 0.0000 -2.2054 0.0000
# 2 9.5806 80.5453 28.0707 0.0000 -4.8272 0.0000
# 3 3.0689 28.0707 91.1948 0.0000 -13.1728 0.0000
# 4 0.0000 0.0000 0.0000 43.4976 0.0000 0.8529
# 5 -2.2054 -4.8272 -13.1728 0.0000 24.3348 0.0000
# 6 0.0000 0.0000 0.0000 0.8529 0.0000 19.4534
#
#
#
# Elastic Compliance Matrix: (Units=1/GPa)
#
#
# Indices 1 2 3 4 5 6 
#
# 1 0.013501 -0.001611 0.000187 0.000000 0.001005 0.000000
# 2 -0.001611 0.014105 -0.004235 0.000000 0.000359 0.000000
# 3 0.000187 -0.004235 0.013174 0.000000 0.006308 0.000000
# 4 0.000000 0.000000 0.000000 0.023010 0.000000 -0.001009
# 5 0.001005 0.000359 0.006308 0.000000 0.044670 0.000000
# 6 0.000000 0.000000 0.000000 -0.001009 0.000000 0.051449
#
#
# Mechanical properties :
#
#
# Convention : Reuss Voigt Hill
#
# Bulk Modulus (GPa) = 33.94393 36.50181 35.22287
# Shear Modulus (GPa) = 27.61707 31.21422 29.41565
#
# Velocity S-wave (km/s) = 3.36780 3.58042 3.47574
# Velocity P-wave (km/s) = 5.39103 5.66423 5.52932
#
# Compressibility (1/GPa) = 0.02946035
#
# Stress axis : x y z
#
# Youngs Moduli (GPa) = 74.07109 70.89896 75.90613
#
# Poissons Ratio (x) = 0.11419 -0.01417
# Poissons Ratio (y) = 0.11930 0.32150
# Poissons Ratio (z) = -0.01382 0.30029
#
# Static dielectric constant tensor:
#      x y z
#    x 4.310710 0.000000 -0.262360 
#    y 0.000000 4.440210 0.000000 
#    z -0.262360 0.000000 4.602960 
# 
# 
# High freq. dielectric constant tensor:
#      x y z
#    x 1.950060 0.000000 -0.008050 
#    y 0.000000 1.967330 0.000000 
#    z -0.008050 0.000000 1.991940 
# 
# From -- ./inp_files/4380.got.cif
#   From: 2010.06.25/outbox.cif.g09.slc.cpg/sg9_3_cif.got.tgz:4380.got - 2010.06.27 21:40:51.
