data_PCOD8054983
_publ_section_title
;
Structure prediction by ZEFSAII (Michael W. Deem and Ramdas Pophale) SiO2 
 PCOD8054983
Probable space group: C C
;
_chemical_formula_sum "Si O2"
_cell_formula_units_Z 24
_cell_length_a 26.539825
_cell_length_b 5.166804
_cell_length_c 12.446304
_cell_angle_alpha 90.000000
_cell_angle_beta 139.753861
_cell_angle_gamma 90.000000
_cell_volume 1102.660286
_symmetry_space_group_name_H-M "C C"
_symmetry_group_IT_number 9
_symmetry_cell_setting 'monoclinic'
loop_
_space_group_symop_operation_xyz
x,y,z
x,-y,1/2+z
1/2+x,1/2+y,z
1/2+x,1/2-y,1/2+z
loop_
_atom_site_type_symbol
_atom_site_label
_atom_site_fract_x
_atom_site_fract_y
_atom_site_fract_z
Si Si1 0.886670 0.152853 0.208150
Si Si2 0.712198 0.357439 0.333337
Si Si3 0.973164 0.361968 0.800948
Si Si4 0.650720 0.135655 0.634741
Si Si5 0.855767 0.452057 0.961336
Si Si6 0.277694 0.678492 0.658295
O O1 0.937325 0.410256 0.319720
O O2 0.945337 0.912529 0.299008
O O3 0.818137 0.087044 0.182163
O O4 0.844173 0.205142 0.024222
O O5 0.662375 0.614976 0.229028
O O6 0.787285 0.344136 0.377582
O O7 0.742610 0.351039 0.505130
O O8 0.657705 0.112576 0.222155
O O9 0.939367 0.413567 0.623967
O O10 0.065488 0.364654 0.944055
O O11 0.710356 0.118019 0.633195
O O12 0.846428 0.350614 0.825185
#
# Coordination Sequence:
#
# PCOD8054983 Si02
#       6
#     4   4   4   4   4   4
#     4  10  21  41  66  95 126 168 220 262 323 381
#     4  11  23  42  65 100 129 175 218 267 323 390
#     4  10  22  46  63  93 138 166 206 283 327 365
#     4  11  26  43  68  94 141 168 213 278 325 382
#     4   9  23  40  71  90 132 167 221 270 311 385
#     4  11  21  42  69 100 122 180 226 260 317 399
#
# _framework density 21.765544999999999
#
# number of rings (size 3 to 8) (size 9 to 14) (size 15 to 20)
#    1.000    0.667    1.667    3.000    0.000    8.000 
#    3.000    1.667    0.000    0.000    0.000    0.000 
#    0.000    0.000    0.000    0.000    0.000    0.000 
#
# Total GULP energy -148701.700045 kJ/mol
# GULP energy per Si atom -12391.808337 kJ/mol
# Density = 2.171601 g / cm^3
# Si number density = 21.765545 Si / 1000 Ang^3
#
#
#
# Elastic Constant Matrix: (Units=GPa)
#
#
# Indices 1 2 3 4 5 6 
#
# 1 64.8488 19.5199 26.4088 0.0000 3.3229 -0.0001
# 2 19.5199 125.3913 28.6423 -0.0001 8.9919 0.0000
# 3 26.4088 28.6423 124.2605 -0.0001 16.1314 0.0000
# 4 0.0000 -0.0001 -0.0001 35.0547 0.0000 1.3552
# 5 3.3229 8.9919 16.1314 0.0000 39.3571 0.0000
# 6 -0.0001 0.0000 0.0000 1.3552 0.0000 23.3884
#
#
#
# Elastic Compliance Matrix: (Units=1/GPa)
#
#
# Indices 1 2 3 4 5 6 
#
# 1 0.017330 -0.001974 -0.003271 0.000000 0.000328 0.000000
# 2 -0.001974 0.008696 -0.001424 0.000000 -0.001236 0.000000
# 3 -0.003271 -0.001424 0.009498 0.000000 -0.003292 0.000000
# 4 0.000000 0.000000 0.000000 0.028591 0.000000 -0.001657
# 5 0.000328 -0.001236 -0.003292 0.000000 0.027012 0.000000
# 6 0.000000 0.000000 0.000000 -0.001657 0.000000 0.042852
#
#
# Mechanical properties :
#
#
# Convention : Reuss Voigt Hill
#
# Bulk Modulus (GPa) = 45.07363 51.51585 48.29474
# Shear Modulus (GPa) = 32.31772 35.55534 33.93653
#
# Velocity S-wave (km/s) = 3.85750 4.04612 3.95294
# Velocity P-wave (km/s) = 6.37135 6.74893 6.56285
#
# Compressibility (1/GPa) = 0.02218592
#
# Stress axis : x y z
#
# Youngs Moduli (GPa) = 57.70394 114.99002 105.28136
#
# Poissons Ratio (x) = 0.22702 0.34434
# Poissons Ratio (y) = 0.11392 0.14997
# Poissons Ratio (z) = 0.18873 0.16380
#
# Static dielectric constant tensor:
#      x y z
#    x 3.516110 0.000000 0.002670 
#    y 0.000000 4.038340 0.000000 
#    z 0.002670 0.000000 4.022030 
# 
# 
# High freq. dielectric constant tensor:
#      x y z
#    x 1.817720 0.000000 0.002430 
#    y 0.000000 1.869220 0.000000 
#    z 0.002430 0.000000 1.860140 
# 
# From -- ./inp_files/20639.got.cif
#   From: 2010.06.25/outbox.cif.g09.slc.cpg/sg9_11_cif.got.tgz:20639.got - 2010.06.27 21:40:51.
