data_PCOD8054094
_publ_section_title
;
Structure prediction by ZEFSAII (Michael W. Deem and Ramdas Pophale) SiO2 
 PCOD8054094
Probable space group: C M
;
_chemical_formula_sum "Si O2"
_cell_formula_units_Z 24
_cell_length_a 7.435697
_cell_length_b 17.323833
_cell_length_c 8.725353
_cell_angle_alpha 90.000000
_cell_angle_beta 84.108931
_cell_angle_gamma 90.000000
_cell_volume 1118.018570
_symmetry_space_group_name_H-M "C M"
_symmetry_group_IT_number 8
_symmetry_cell_setting 'monoclinic'
loop_
_space_group_symop_operation_xyz
x,y,z
x,-y,z
1/2+x,1/2+y,z
1/2+x,1/2-y,z
loop_
_atom_site_type_symbol
_atom_site_label
_atom_site_fract_x
_atom_site_fract_y
_atom_site_fract_z
Si Si1 0.921950 0.179191 0.263860
Si Si2 0.634462 0.844314 0.865674
Si Si3 0.030633 0.174435 0.903621
Si Si4 0.828823 0.589021 0.711351
Si Si5 0.783109 0.656142 0.391230
Si Si6 0.092170 0.412454 0.192589
O O1 0.859448 0.261277 0.333607
O O2 0.752684 0.121556 0.283433
O O3 0.076394 0.145001 0.359301
O O4 0.002401 0.185536 0.086623
O O5 0.849907 0.856656 0.836055
O O6 0.584405 0.756697 0.828864
O O7 0.533725 0.899512 0.753492
O O8 0.567321 0.862712 0.042228
O O9 0.190189 0.113330 0.858716
O O10 0.799873 0.500000 0.669874
O O11 0.791036 0.645034 0.572302
O O12 0.906322 0.590373 0.303135
O O13 0.139372 0.500000 0.144977
#
# Coordination Sequence:
#
# PCOD8054094 Si02
#       6
#     4   4   4   4   4   4
#     4  11  23  43  73  99 129 177 236 276 324 402
#     4  11  22  42  72  98 129 179 228 278 330 398
#     4  11  22  42  74 100 127 176 232 279 327 401
#     4  12  29  44  64 103 144 178 219 278 347 401
#     4  12  24  43  70  97 137 183 222 273 334 404
#     4  11  24  42  69 103 136 171 225 286 338 390
#
# _framework density 21.466550000000002
#
# number of rings (size 3 to 8) (size 9 to 14) (size 15 to 20)
#    0.000    0.667    5.000    3.000    2.333    6.000 
#    0.000    0.000    0.000    0.000    0.000    0.000 
#    0.000    0.000    0.000    0.000    0.000    0.000 
#
# Total GULP energy -148863.708720 kJ/mol
# GULP energy per Si atom -12405.309060 kJ/mol
# Density = 2.141769 g / cm^3
# Si number density = 21.466550 Si / 1000 Ang^3
#
#
#
# Elastic Constant Matrix: (Units=GPa)
#
#
# Indices 1 2 3 4 5 6 
#
# 1 122.1574 38.8502 47.3534 0.0000 35.9046 0.0000
# 2 38.8502 108.3256 33.4169 0.0000 3.9574 0.0000
# 3 47.3534 33.4169 85.0239 0.0000 21.0293 0.0000
# 4 0.0000 0.0000 0.0000 24.2390 0.0000 -1.0891
# 5 35.9046 3.9574 21.0293 0.0000 35.0415 0.0000
# 6 0.0000 0.0000 0.0000 -1.0891 0.0000 28.6843
#
#
#
# Elastic Compliance Matrix: (Units=1/GPa)
#
#
# Indices 1 2 3 4 5 6 
#
# 1 0.014242 -0.003574 -0.003544 0.000000 -0.012062 0.000000
# 2 -0.003574 0.011471 -0.003644 0.000000 0.004553 0.000000
# 3 -0.003544 -0.003644 0.016637 0.000000 -0.005942 0.000000
# 4 0.000000 0.000000 0.000000 0.041326 0.000000 0.001569
# 5 -0.012062 0.004553 -0.005942 0.000000 0.043948 0.000000
# 6 0.000000 0.000000 0.000000 0.001569 0.000000 0.034922
#
#
# Mechanical properties :
#
#
# Convention : Reuss Voigt Hill
#
# Bulk Modulus (GPa) = 48.01697 61.63865 54.82781
# Shear Modulus (GPa) = 26.17634 30.65208 28.41421
#
# Velocity S-wave (km/s) = 3.49578 3.78286 3.64215
# Velocity P-wave (km/s) = 6.22180 6.91781 6.57902
#
# Compressibility (1/GPa) = 0.02082597
#
# Stress axis : x y z
#
# Youngs Moduli (GPa) = 70.21558 87.17625 60.10716
#
# Poissons Ratio (x) = 0.31155 0.21301
# Poissons Ratio (y) = 0.25094 0.21904
# Poissons Ratio (z) = 0.24883 0.31769
#
# Static dielectric constant tensor:
#      x y z
#    x 4.185530 0.000000 0.066410 
#    y 0.000000 3.699860 0.000000 
#    z 0.066410 0.000000 3.708100 
# 
# 
# High freq. dielectric constant tensor:
#      x y z
#    x 1.858830 0.000000 0.006250 
#    y 0.000000 1.834630 0.000000 
#    z 0.006250 0.000000 1.832770 
# 
# From -- ./inp_files/8160.got.cif
#   From: 2010.03.12/outbox.cif.g09.slc.cpg/sg8_5_cif.got.tgz:8160.got - 2010.03.31 10:45:26.
