data_PCOD8054688
_publ_section_title
;
Structure prediction by ZEFSAII (Michael W. Deem and Ramdas Pophale) SiO2 
 PCOD8054688
Probable space group: C C
;
_chemical_formula_sum "Si O2"
_cell_formula_units_Z 32
_cell_length_a 16.979360
_cell_length_b 9.781249
_cell_length_c 27.374048
_cell_angle_alpha 90.000000
_cell_angle_beta 158.549563
_cell_angle_gamma 90.000000
_cell_volume 1662.551683
_symmetry_space_group_name_H-M "C C"
_symmetry_group_IT_number 9
_symmetry_cell_setting 'monoclinic'
loop_
_space_group_symop_operation_xyz
x,y,z
x,-y,1/2+z
1/2+x,1/2+y,z
1/2+x,1/2-y,1/2+z
loop_
_atom_site_type_symbol
_atom_site_label
_atom_site_fract_x
_atom_site_fract_y
_atom_site_fract_z
Si Si1 0.034370 0.225601 0.892310
Si Si2 0.279982 0.359913 0.632460
Si Si3 0.655639 0.106541 0.621439
Si Si4 0.645371 0.390374 0.115016
Si Si5 0.911549 0.513913 0.858931
Si Si6 0.205236 0.026129 0.340380
Si Si7 0.733892 0.643391 0.102468
Si Si8 0.188548 0.262830 0.876421
O O1 0.176053 0.211747 0.925137
O O2 0.788928 0.171245 0.743175
O O3 0.029186 0.384591 0.902864
O O4 0.144867 0.128713 0.996281
O O5 0.266838 0.465120 0.669861
O O6 0.264794 0.209570 0.646287
O O7 0.506953 0.374395 0.736367
O O8 0.089094 0.383624 0.483470
O O9 0.406062 0.077531 0.489881
O O10 0.664401 0.206465 0.580016
O O11 0.779160 0.403226 0.242036
O O12 0.625736 0.534626 0.076197
O O13 0.409491 0.338038 0.992555
O O14 0.755226 0.462093 0.811759
O O15 0.155704 0.868396 0.323117
O O16 0.993614 0.631367 0.253071
#
# Coordination Sequence:
#
# PCOD8054688 Si02
#       8
#     4   4   4   4   4   4   4   4
#     4  11  21  44  70  91 127 177 219 253 329 385
#     4  11  23  44  65  95 133 165 216 272 313 384
#     4  10  20  41  65  92 124 168 212 256 316 379
#     4  12  26  41  65 104 134 156 224 276 314 377
#     4  11  23  42  67  94 125 180 211 265 323 386
#     4  11  21  44  70  91 127 177 219 253 329 385
#     4  11  23  44  65  95 133 165 216 272 313 384
#     4  11  23  42  67  94 125 180 211 265 323 386
#
# _framework density 19.247522
#
# number of rings (size 3 to 8) (size 9 to 14) (size 15 to 20)
#    0.000    1.000   10.000    0.000    3.500    2.000 
#    4.500    0.000    0.000    0.000    0.000    0.000 
#    0.000    0.000    0.000    0.000    0.000    0.000 
#
# Total GULP energy -198424.018420 kJ/mol
# GULP energy per Si atom -12401.501151 kJ/mol
# Density = 1.920371 g / cm^3
# Si number density = 19.247522 Si / 1000 Ang^3
#
#
#
# Elastic Constant Matrix: (Units=GPa)
#
#
# Indices 1 2 3 4 5 6 
#
# 1 88.8487 15.8052 63.7959 0.0071 -3.7987 0.0049
# 2 15.8052 53.6060 24.2470 0.0080 -1.6338 -0.0007
# 3 63.7959 24.2470 128.9754 0.0222 0.3149 0.0203
# 4 0.0071 0.0080 0.0222 32.0840 -0.0046 2.0789
# 5 -3.7987 -1.6338 0.3149 -0.0046 46.1743 -0.0143
# 6 0.0049 -0.0007 0.0203 2.0789 -0.0143 34.7054
#
#
#
# Elastic Compliance Matrix: (Units=1/GPa)
#
#
# Indices 1 2 3 4 5 6 
#
# 1 0.017643 -0.001321 -0.008482 0.000002 0.001463 0.000003
# 2 -0.001321 0.020513 -0.003205 -0.000003 0.000639 0.000003
# 3 -0.008482 -0.003205 0.012554 -0.000006 -0.000897 -0.000006
# 4 0.000002 -0.000003 -0.000006 0.031290 0.000003 -0.001874
# 5 0.001463 0.000639 -0.000897 0.000003 0.021806 0.000009
# 6 0.000003 0.000003 -0.000006 -0.001874 0.000009 0.028926
#
#
# Mechanical properties :
#
#
# Convention : Reuss Voigt Hill
#
# Bulk Modulus (GPa) = 40.49458 53.23627 46.86542
# Shear Modulus (GPa) = 29.94403 33.76488 31.85445
#
# Velocity S-wave (km/s) = 3.94856 4.19292 4.07257
# Velocity P-wave (km/s) = 6.47091 7.15259 6.82027
#
# Compressibility (1/GPa) = 0.02469466
#
# Stress axis : x y z
#
# Youngs Moduli (GPa) = 56.67982 48.74948 79.65805
#
# Poissons Ratio (x) = 0.06438 0.67567
# Poissons Ratio (y) = 0.07485 0.25528
# Poissons Ratio (z) = 0.48077 0.15623
#
# Static dielectric constant tensor:
#      x y z
#    x 3.506280 0.000000 0.001410 
#    y 0.000000 3.424940 -0.000010 
#    z 0.001410 -0.000010 3.672300 
# 
# 
# High freq. dielectric constant tensor:
#      x y z
#    x 1.744610 0.000000 -0.001200 
#    y 0.000000 1.741140 0.000000 
#    z -0.001200 0.000000 1.757040 
# 
# From -- ./inp_files/10089.got.cif
#   From: 2010.06.25/outbox.cif.g09.slc.cpg/sg9_6_cif.got.tgz:10089.got - 2010.06.27 21:40:51.
