data_PCOD8054787
_publ_section_title
;
Structure prediction by ZEFSAII (Michael W. Deem and Ramdas Pophale) SiO2 
 PCOD8054787
Probable space group: C C
;
_chemical_formula_sum "Si O2"
_cell_formula_units_Z 28
_cell_length_a 15.520473
_cell_length_b 17.830683
_cell_length_c 8.628843
_cell_angle_alpha 90.000000
_cell_angle_beta 146.934782
_cell_angle_gamma 90.000000
_cell_volume 1302.850365
_symmetry_space_group_name_H-M "C C"
_symmetry_group_IT_number 9
_symmetry_cell_setting 'monoclinic'
loop_
_space_group_symop_operation_xyz
x,y,z
x,-y,1/2+z
1/2+x,1/2+y,z
1/2+x,1/2-y,1/2+z
loop_
_atom_site_type_symbol
_atom_site_label
_atom_site_fract_x
_atom_site_fract_y
_atom_site_fract_z
Si Si1 0.525320 0.565772 0.612630
Si Si2 0.415685 0.858823 0.077764
Si Si3 0.868690 0.797776 0.370785
Si Si4 0.892994 0.281809 0.333538
Si Si5 0.753785 0.861551 0.502581
Si Si6 0.584419 0.415669 0.537029
Si Si7 0.214593 0.210674 0.863166
O O1 0.379872 0.586844 0.282705
O O2 0.586855 0.484387 0.659207
O O3 0.481262 0.563047 0.729131
O O4 0.668262 0.625101 0.826397
O O5 0.381978 0.858113 0.213731
O O6 0.580468 0.897687 0.274891
O O7 0.440332 0.771396 0.072190
O O8 0.267754 0.897997 0.770774
O O9 0.782675 0.856143 0.359695
O O10 0.010289 0.841719 0.501409
O O11 0.752014 0.761424 0.068690
O O12 0.761518 0.222054 0.082351
O O13 0.863198 0.295476 0.470704
O O14 0.065729 0.249711 0.560032
#
# Coordination Sequence:
#
# PCOD8054787 Si02
#       7
#     4   4   4   4   4   4   4
#     4  11  26  46  68  99 142 194 229 285 365 438
#     4  11  23  40  68 101 135 174 234 297 341 410
#     4  11  22  40  71 105 134 181 232 301 342 415
#     4  10  21  36  63  97 135 176 224 295 341 400
#     4  10  22  42  66  99 139 174 238 284 358 410
#     4  12  26  45  72  98 144 186 237 284 366 421
#     4  11  22  39  66 101 137 177 236 288 351 412
#
# _framework density 21.491339
#
# number of rings (size 3 to 8) (size 9 to 14) (size 15 to 20)
#    0.000    1.143    2.857    4.286    8.000    0.000 
#    0.000    4.286    0.000    0.000    0.000    0.000 
#    0.000    0.000    0.000    0.000    0.000    0.000 
#
# Total GULP energy -173507.622306 kJ/mol
# GULP energy per Si atom -12393.401593 kJ/mol
# Density = 2.144242 g / cm^3
# Si number density = 21.491339 Si / 1000 Ang^3
#
#
#
# Elastic Constant Matrix: (Units=GPa)
#
#
# Indices 1 2 3 4 5 6 
#
# 1 127.2093 24.6822 55.0367 0.0000 -7.9257 0.0000
# 2 24.6822 84.9930 38.0297 0.0000 1.8678 0.0000
# 3 55.0367 38.0297 109.5918 0.0000 5.3899 0.0000
# 4 0.0000 0.0000 0.0000 25.3955 0.0000 -6.7205
# 5 -7.9257 1.8678 5.3899 0.0000 41.6918 0.0000
# 6 0.0000 0.0000 0.0000 -6.7205 0.0000 25.1379
#
#
#
# Elastic Compliance Matrix: (Units=1/GPa)
#
#
# Indices 1 2 3 4 5 6 
#
# 1 0.010373 -0.000807 -0.005060 0.000000 0.002662 0.000000
# 2 -0.000807 0.013991 -0.004440 0.000000 -0.000206 0.000000
# 3 -0.005060 -0.004440 0.013329 0.000000 -0.002486 0.000000
# 4 0.000000 0.000000 0.000000 0.042375 0.000000 0.011329
# 5 0.002662 -0.000206 -0.002486 0.000000 0.024822 0.000000
# 6 0.000000 0.000000 0.000000 0.011329 0.000000 0.042809
#
#
# Mechanical properties :
#
#
# Convention : Reuss Voigt Hill
#
# Bulk Modulus (GPa) = 58.55001 61.92123 60.23562
# Shear Modulus (GPa) = 28.73471 32.04807 30.39139
#
# Velocity S-wave (km/s) = 3.66052 3.86581 3.76456
# Velocity P-wave (km/s) = 6.72075 6.98575 6.85453
#
# Compressibility (1/GPa) = 0.01707942
#
# Stress axis : x y z
#
# Youngs Moduli (GPa) = 96.40699 71.47438 75.02483
#
# Poissons Ratio (x) = 0.05765 0.37964
# Poissons Ratio (y) = 0.07776 0.33310
# Poissons Ratio (z) = 0.48783 0.31733
#
# Static dielectric constant tensor:
#      x y z
#    x 4.055880 0.000000 -0.152510 
#    y 0.000000 3.542060 0.000000 
#    z -0.152510 0.000000 3.727650 
# 
# 
# High freq. dielectric constant tensor:
#      x y z
#    x 1.857230 0.000000 -0.010800 
#    y 0.000000 1.806630 0.000000 
#    z -0.010800 0.000000 1.844690 
# 
# From -- ./inp_files/5541.got.cif
#   From: 2010.06.25/outbox.cif.g09.slc.cpg/sg9_3_cif.got.tgz:5541.got - 2010.06.27 21:40:51.
