data_PCOD8054469
_publ_section_title
;
Structure prediction by ZEFSAII (Michael W. Deem and Ramdas Pophale) SiO2 
 PCOD8054469
Probable space group: C C
;
_chemical_formula_sum "Si O2"
_cell_formula_units_Z 32
_cell_length_a 25.103285
_cell_length_b 10.720636
_cell_length_c 8.252732
_cell_angle_alpha 90.000000
_cell_angle_beta 40.620550
_cell_angle_gamma 90.000000
_cell_volume 1445.975244
_symmetry_space_group_name_H-M "C C"
_symmetry_group_IT_number 9
_symmetry_cell_setting 'monoclinic'
loop_
_space_group_symop_operation_xyz
x,y,z
x,-y,1/2+z
1/2+x,1/2+y,z
1/2+x,1/2-y,1/2+z
loop_
_atom_site_type_symbol
_atom_site_label
_atom_site_fract_x
_atom_site_fract_y
_atom_site_fract_z
Si Si1 0.741550 0.822162 0.570610
Si Si2 0.697135 0.058598 0.509709
Si Si3 0.396531 0.288244 0.410866
Si Si4 0.575012 0.559913 0.224322
Si Si5 0.573906 0.786725 0.447623
Si Si6 0.183894 0.166508 0.437355
Si Si7 0.319041 0.725306 0.415657
Si Si8 0.456158 0.558501 0.235572
O O1 0.699007 0.882830 0.826026
O O2 0.834902 0.788700 0.399580
O O3 0.699774 0.698276 0.591990
O O4 0.727688 0.915596 0.447758
O O5 0.605878 0.084492 0.792386
O O6 0.756357 0.121819 0.501906
O O7 0.359529 0.220575 0.656323
O O8 0.416375 0.432854 0.404744
O O9 0.476102 0.209407 0.177329
O O10 0.606991 0.670262 0.264088
O O11 0.529662 0.616763 0.172828
O O12 0.501427 0.476919 0.466193
O O13 0.652822 0.475538 0.998389
O O14 0.613553 0.760932 0.532031
O O15 0.268776 0.173555 0.137470
O O16 0.387640 0.663305 0.371028
#
# Coordination Sequence:
#
# PCOD8054469 Si02
#       8
#     4   4   4   4   4   4   4   4
#     4  11  23  36  62  92 126 157 204 253 310 368
#     4  10  21  37  58  94 123 163 198 255 305 365
#     4  10  20  37  59  96 123 155 204 266 308 351
#     4  11  22  37  60  92 125 160 199 257 310 366
#     4  10  22  39  61  91 126 161 203 258 311 364
#     4  11  23  37  55  97 127 163 197 258 313 369
#     4  10  20  33  57  88 129 156 197 250 315 356
#     4  11  19  34  62  90 121 153 204 263 308 349
#
# _framework density 22.130392000000001
#
# number of rings (size 3 to 8) (size 9 to 14) (size 15 to 20)
#    0.000    1.500    5.000    1.500    7.000    0.000 
#    0.000    0.000    0.000    0.000   61.750    0.000 
#    0.000    0.000    0.000    0.000    0.000    0.000 
#
# Total GULP energy -198262.527928 kJ/mol
# GULP energy per Si atom -12391.407996 kJ/mol
# Density = 2.208002 g / cm^3
# Si number density = 22.130392 Si / 1000 Ang^3
#
#
#
# Elastic Constant Matrix: (Units=GPa)
#
#
# Indices 1 2 3 4 5 6 
#
# 1 153.8087 34.7314 37.0092 0.0000 -6.9272 0.0000
# 2 34.7314 28.0230 34.5768 0.0000 -7.5533 0.0000
# 3 37.0092 34.5768 107.8193 0.0000 -18.1854 0.0000
# 4 0.0000 0.0000 0.0000 36.1005 0.0000 -5.6059
# 5 -6.9272 -7.5533 -18.1854 0.0000 32.1572 0.0000
# 6 0.0000 0.0000 0.0000 -5.6059 0.0000 26.9703
#
#
#
# Elastic Compliance Matrix: (Units=1/GPa)
#
#
# Indices 1 2 3 4 5 6 
#
# 1 0.009079 -0.012309 0.000744 0.000000 -0.000515 0.000000
# 2 -0.012309 0.076098 -0.019468 0.000000 0.004213 0.000000
# 3 0.000744 -0.019468 0.016049 0.000000 0.004664 0.000000
# 4 0.000000 0.000000 0.000000 0.028624 0.000000 0.005950
# 5 -0.000515 0.004213 0.004664 0.000000 0.034613 0.000000
# 6 0.000000 0.000000 0.000000 0.005950 0.000000 0.038314
#
#
# Mechanical properties :
#
#
# Convention : Reuss Voigt Hill
#
# Bulk Modulus (GPa) = 25.53653 55.80953 40.67303
# Shear Modulus (GPa) = 17.99225 31.26784 24.63004
#
# Velocity S-wave (km/s) = 2.85443 3.76292 3.33971
# Velocity P-wave (km/s) = 4.73581 6.64475 5.76977
#
# Compressibility (1/GPa) = 0.03915959
#
# Stress axis : x y z
#
# Youngs Moduli (GPa) = 110.14581 13.14097 62.30883
#
# Poissons Ratio (x) = 0.16176 -0.04638
# Poissons Ratio (y) = 1.35584 1.21303
# Poissons Ratio (z) = -0.08199 0.25583
#
# Static dielectric constant tensor:
#      x y z
#    x 4.252280 0.000000 0.007740 
#    y 0.000000 3.494620 0.000000 
#    z 0.007740 0.000000 4.184380 
# 
# 
# High freq. dielectric constant tensor:
#      x y z
#    x 1.892570 0.000000 0.005000 
#    y 0.000000 1.808310 0.000000 
#    z 0.005000 0.000000 1.871930 
# 
# From -- ./inp_files/9269.got.cif
#   From: 2010.06.25/outbox.cif.g09.slc.cpg/sg9_5_cif.got.tgz:9269.got - 2010.06.27 21:40:51.
