data_PCOD8054969
_publ_section_title
;
Structure prediction by ZEFSAII (Michael W. Deem and Ramdas Pophale) SiO2 
 PCOD8054969
Probable space group: C C
;
_chemical_formula_sum "Si O2"
_cell_formula_units_Z 32
_cell_length_a 26.923345
_cell_length_b 9.003385
_cell_length_c 8.678392
_cell_angle_alpha 90.000000
_cell_angle_beta 38.067626
_cell_angle_gamma 90.000000
_cell_volume 1297.093777
_symmetry_space_group_name_H-M "C C"
_symmetry_group_IT_number 9
_symmetry_cell_setting 'monoclinic'
loop_
_space_group_symop_operation_xyz
x,y,z
x,-y,1/2+z
1/2+x,1/2+y,z
1/2+x,1/2-y,1/2+z
loop_
_atom_site_type_symbol
_atom_site_label
_atom_site_fract_x
_atom_site_fract_y
_atom_site_fract_z
Si Si1 0.109990 0.490991 0.334300
Si Si2 0.899654 0.707081 0.168875
Si Si3 0.114990 0.925551 0.991845
Si Si4 0.444217 0.657285 0.031885
Si Si5 0.579332 0.305567 0.757879
Si Si6 0.856354 0.963479 0.455562
Si Si7 0.700764 0.156748 0.881930
Si Si8 0.929931 0.578241 0.772115
O O1 0.110914 0.362420 0.198799
O O2 0.136140 0.418404 0.428057
O O3 0.023751 0.561420 0.584266
O O4 0.171464 0.617602 0.126410
O O5 0.834848 0.832419 0.382543
O O6 0.893636 0.580034 0.313341
O O7 0.883811 0.647073 0.034399
O O8 0.983458 0.796384 0.973729
O O9 0.035762 0.847504 0.255904
O O10 0.117809 0.102787 0.020487
O O11 0.108668 0.909758 0.825447
O O12 0.193453 0.834902 0.867621
O O13 0.434506 0.553223 0.205571
O O14 0.421622 0.823495 0.138764
O O15 0.379010 0.609535 0.062712
O O16 0.787770 0.088082 0.637008
#
# Coordination Sequence:
#
# PCOD8054969 Si02
#       8
#     4   4   4   4   4   4   4   4
#     4  10  21  41  63  99 135 179 231 286 360 422
#     4  11  22  39  62 103 140 182 239 299 367 415
#     4  11  21  40  63 103 132 182 240 295 345 416
#     4  12  22  41  66 100 140 186 243 301 351 423
#     4  10  22  35  64  97 132 169 234 299 341 406
#     4  12  25  42  66 101 144 189 241 297 366 432
#     4  11  24  42  66  96 144 186 230 289 365 434
#     4  11  23  38  70 103 141 181 240 314 345 418
#
# _framework density 24.670535999999998
#
# number of rings (size 3 to 8) (size 9 to 14) (size 15 to 20)
#    0.000    1.000    3.750    3.750    3.500    1.000 
#    0.000    1.250    0.000    6.000    0.000    0.000 
#    0.000    0.000    0.000    0.000    0.000    0.000 
#
# Total GULP energy -198310.422022 kJ/mol
# GULP energy per Si atom -12394.401376 kJ/mol
# Density = 2.461439 g / cm^3
# Si number density = 24.670536 Si / 1000 Ang^3
#
#
#
# Elastic Constant Matrix: (Units=GPa)
#
#
# Indices 1 2 3 4 5 6 
#
# 1 59.0076 26.3260 19.3205 0.0000 -3.3656 0.0000
# 2 26.3260 94.2488 16.5215 0.0000 -4.3945 0.0000
# 3 19.3205 16.5215 45.8603 0.0000 3.9339 0.0000
# 4 0.0000 0.0000 0.0000 54.7427 0.0000 9.2553
# 5 -3.3656 -4.3945 3.9339 0.0000 23.8676 0.0000
# 6 0.0000 0.0000 0.0000 9.2553 0.0000 37.4279
#
#
#
# Elastic Compliance Matrix: (Units=1/GPa)
#
#
# Indices 1 2 3 4 5 6 
#
# 1 0.021733 -0.004535 -0.007824 0.000000 0.003519 0.000000
# 2 -0.004535 0.012459 -0.002759 0.000000 0.002109 0.000000
# 3 -0.007824 -0.002759 0.026610 0.000000 -0.005997 0.000000
# 4 0.000000 0.000000 0.000000 0.019064 0.000000 -0.004714
# 5 0.003519 0.002109 -0.005997 0.000000 0.043771 0.000000
# 6 0.000000 0.000000 0.000000 -0.004714 0.000000 0.027884
#
#
# Mechanical properties :
#
#
# Convention : Reuss Voigt Hill
#
# Bulk Modulus (GPa) = 32.71598 35.93920 34.32759
# Shear Modulus (GPa) = 26.04924 32.33755 29.19339
#
# Velocity S-wave (km/s) = 3.25296 3.62439 3.44369
# Velocity P-wave (km/s) = 5.23440 5.66694 5.45496
#
# Compressibility (1/GPa) = 0.03056610
#
# Stress axis : x y z
#
# Youngs Moduli (GPa) = 46.01373 80.26413 37.58016
#
# Poissons Ratio (x) = 0.36399 0.29402
# Poissons Ratio (y) = 0.20867 0.10368
# Poissons Ratio (z) = 0.36001 0.22143
#
# Static dielectric constant tensor:
#      x y z
#    x 4.302280 0.000000 0.279910 
#    y 0.000000 4.823870 0.000000 
#    z 0.279910 0.000000 4.117200 
# 
# 
# High freq. dielectric constant tensor:
#      x y z
#    x 1.969290 0.000000 0.028350 
#    y 0.000000 2.000760 0.000000 
#    z 0.028350 0.000000 1.952760 
# 
# From -- ./inp_files/12417.got.cif
#   From: 2010.06.25/outbox.cif.g09.slc.cpg/sg9_7_cif.got.tgz:12417.got - 2010.06.27 21:40:51.
