data_PCOD8054665
_publ_section_title
;
Structure prediction by ZEFSAII (Michael W. Deem and Ramdas Pophale) SiO2 
 PCOD8054665
Probable space group: C C
;
_chemical_formula_sum "Si O2"
_cell_formula_units_Z 32
_cell_length_a 15.953224
_cell_length_b 15.410890
_cell_length_c 5.268392
_cell_angle_alpha 90.000000
_cell_angle_beta 103.909760
_cell_angle_gamma 90.000000
_cell_volume 1257.269424
_symmetry_space_group_name_H-M "C C"
_symmetry_group_IT_number 9
_symmetry_cell_setting 'monoclinic'
loop_
_space_group_symop_operation_xyz
x,y,z
x,-y,1/2+z
1/2+x,1/2+y,z
1/2+x,1/2-y,1/2+z
loop_
_atom_site_type_symbol
_atom_site_label
_atom_site_fract_x
_atom_site_fract_y
_atom_site_fract_z
Si Si1 0.940760 0.471706 0.663410
Si Si2 0.684027 0.054315 0.538537
Si Si3 0.469494 0.217952 0.302569
Si Si4 0.635829 0.268068 0.162915
Si Si5 0.396442 0.551865 0.272502
Si Si6 0.552734 0.131151 0.767357
Si Si7 0.599373 0.552041 0.433143
Si Si8 0.805614 0.810050 0.985355
O O1 0.888747 0.520205 0.396078
O O2 0.965264 0.370937 0.623581
O O3 0.021197 0.534438 0.833687
O O4 0.600735 0.114931 0.529106
O O5 0.767207 0.114948 0.636438
O O6 0.685007 0.021076 0.249482
O O7 0.551624 0.278578 0.286076
O O8 0.475689 0.193632 0.608337
O O9 0.379713 0.265884 0.205573
O O10 0.643047 0.353206 0.992098
O O11 0.729176 0.257856 0.361979
O O12 0.619308 0.178310 0.000097
O O13 0.367830 0.509875 0.986789
O O14 0.497831 0.567640 0.358214
O O15 0.348875 0.644966 0.268479
O O16 0.629135 0.508479 0.190856
#
# Coordination Sequence:
#
# PCOD8054665 Si02
#       8
#     4   4   4   4   4   4   4   4
#     4  10  20  40  67 101 138 190 233 287 368 436
#     4  12  25  44  71 111 155 189 242 315 391 460
#     4  11  24  46  66 104 150 192 244 301 361 453
#     4  12  25  48  73 109 148 192 251 312 371 447
#     4  10  22  43  66 101 140 182 235 304 372 440
#     4  11  24  43  77 106 146 193 241 305 386 451
#     4  10  24  46  77  98 138 197 251 300 364 430
#     4  12  26  44  69 108 145 193 245 304 379 439
#
# _framework density 25.451981
#
# number of rings (size 3 to 8) (size 9 to 14) (size 15 to 20)
#    0.000    1.000    3.750    3.000    1.750    2.000 
#    4.500    2.500    0.000    0.000    0.000    0.000 
#    0.000    0.000    0.000    0.000    0.000    0.000 
#
# Total GULP energy -198228.998281 kJ/mol
# GULP energy per Si atom -12389.312393 kJ/mol
# Density = 2.539405 g / cm^3
# Si number density = 25.451981 Si / 1000 Ang^3
#
#
#
# Elastic Constant Matrix: (Units=GPa)
#
#
# Indices 1 2 3 4 5 6 
#
# 1 55.9103 20.4142 16.5325 0.0000 25.4836 0.0000
# 2 20.4142 74.5381 6.7162 0.0000 5.6086 0.0000
# 3 16.5325 6.7162 80.1744 0.0000 1.7948 0.0000
# 4 0.0000 0.0000 0.0000 44.5280 0.0000 8.5576
# 5 25.4836 5.6086 1.7948 0.0000 35.4635 0.0000
# 6 0.0000 0.0000 0.0000 8.5576 0.0000 37.6120
#
#
#
# Elastic Compliance Matrix: (Units=1/GPa)
#
#
# Indices 1 2 3 4 5 6 
#
# 1 0.031691 -0.006569 -0.005504 0.000000 -0.021455 0.000000
# 2 -0.006569 0.015035 0.000043 0.000000 0.002340 0.000000
# 3 -0.005504 0.000043 0.013531 0.000000 0.003264 0.000000
# 4 0.000000 0.000000 0.000000 0.023485 0.000000 -0.005343
# 5 -0.021455 0.002340 0.003264 0.000000 0.043080 0.000000
# 6 0.000000 0.000000 0.000000 -0.005343 0.000000 0.027803
#
#
# Mechanical properties :
#
#
# Convention : Reuss Voigt Hill
#
# Bulk Modulus (GPa) = 27.62733 33.10541 30.36637
# Shear Modulus (GPa) = 26.21203 34.65136 30.43170
#
# Velocity S-wave (km/s) = 3.21263 3.69377 3.46157
# Velocity P-wave (km/s) = 4.96382 5.58813 5.28520
#
# Compressibility (1/GPa) = 0.03619604
#
# Stress axis : x y z
#
# Youngs Moduli (GPa) = 31.55454 66.51101 73.90328
#
# Poissons Ratio (x) = 0.43692 0.40679
# Poissons Ratio (y) = 0.20728 -0.00316
# Poissons Ratio (z) = 0.17369 -0.00284
#
# Static dielectric constant tensor:
#      x y z
#    x 4.535340 0.000000 -0.211430 
#    y 0.000000 4.628310 0.000000 
#    z -0.211430 0.000000 4.504510 
# 
# 
# High freq. dielectric constant tensor:
#      x y z
#    x 1.987040 0.000000 -0.006980 
#    y 0.000000 2.019760 0.000000 
#    z -0.006980 0.000000 2.026850 
# 
# From -- ./inp_files/2972.got.cif
#   From: 2010.06.25/outbox.cif.g09.slc.cpg/sg9_2_cif.got.tgz:2972.got - 2010.06.27 21:40:51.
