data_PCOD8054782
_publ_section_title
;
Structure prediction by ZEFSAII (Michael W. Deem and Ramdas Pophale) SiO2 
 PCOD8054782
Probable space group: C C
;
_chemical_formula_sum "Si O2"
_cell_formula_units_Z 28
_cell_length_a 11.359244
_cell_length_b 26.464880
_cell_length_c 5.189847
_cell_angle_alpha 90.000000
_cell_angle_beta 63.265584
_cell_angle_gamma 90.000000
_cell_volume 1393.396291
_symmetry_space_group_name_H-M "C C"
_symmetry_group_IT_number 9
_symmetry_cell_setting 'monoclinic'
loop_
_space_group_symop_operation_xyz
x,y,z
x,-y,1/2+z
1/2+x,1/2+y,z
1/2+x,1/2-y,1/2+z
loop_
_atom_site_type_symbol
_atom_site_label
_atom_site_fract_x
_atom_site_fract_y
_atom_site_fract_z
Si Si1 0.216840 0.303922 0.393600
Si Si2 0.251682 0.467875 0.386745
Si Si3 0.019759 0.396336 0.587749
Si Si4 0.949158 0.124582 0.669930
Si Si5 0.898106 0.358237 0.205161
Si Si6 0.596675 0.234547 0.509514
Si Si7 0.590206 0.347250 0.530541
O O1 0.188675 0.268786 0.666627
O O2 0.123088 0.351597 0.499113
O O3 0.366769 0.323182 0.250376
O O4 0.192010 0.272246 0.160530
O O5 0.275168 0.489975 0.647324
O O6 0.101321 0.448361 0.511719
O O7 0.355090 0.423372 0.240886
O O8 0.934739 0.393031 0.412337
O O9 0.924673 0.392241 0.927580
O O10 0.034005 0.121230 0.845999
O O11 0.046253 0.124060 0.331290
O O12 0.746705 0.343796 0.364779
O O13 0.979893 0.306242 0.122589
O O14 0.533591 0.290189 0.581612
#
# Coordination Sequence:
#
# PCOD8054782 Si02
#       7
#     4   4   4   4   4   4   4
#     4   9  19  36  57  78 116 151 200 254 299 321
#     4  11  22  41  72  97 113 143 198 262 318 369
#     4   9  19  38  60  87 114 149 188 248 312 345
#     4  11  24  39  59  90 124 158 194 258 307 363
#     4  10  21  37  58  82 124 164 200 244 285 348
#     4  10  21  36  55  84 111 163 216 251 269 335
#     4  12  24  37  57  86 124 176 202 233 300 363
#
# _framework density 20.094784000000001
#
# number of rings (size 3 to 8) (size 9 to 14) (size 15 to 20)
#    0.000    1.714    0.000    4.286    4.000    4.571 
#    0.000    0.000    0.000   17.143    0.000    0.000 
#    0.000    0.000    0.000    0.000    0.000    0.000 
#
# Total GULP energy -173650.657254 kJ/mol
# GULP energy per Si atom -12403.618375 kJ/mol
# Density = 2.004905 g / cm^3
# Si number density = 20.094784 Si / 1000 Ang^3
#
#
#
# Elastic Constant Matrix: (Units=GPa)
#
#
# Indices 1 2 3 4 5 6 
#
# 1 95.1235 17.7128 48.3083 0.0000 -0.3304 0.0000
# 2 17.7128 70.1259 27.4166 0.0000 -4.7687 0.0000
# 3 48.3083 27.4166 146.1490 0.0000 12.6919 0.0000
# 4 0.0000 0.0000 0.0000 19.2387 0.0000 -1.9233
# 5 -0.3304 -4.7687 12.6919 0.0000 36.6639 0.0000
# 6 0.0000 0.0000 0.0000 -1.9233 0.0000 24.5990
#
#
#
# Elastic Compliance Matrix: (Units=1/GPa)
#
#
# Indices 1 2 3 4 5 6 
#
# 1 0.012880 -0.001569 -0.004078 0.000000 0.001324 0.000000
# 2 -0.001569 0.015928 -0.002730 0.000000 0.003003 0.000000
# 3 -0.004078 -0.002730 0.009007 0.000000 -0.003510 0.000000
# 4 0.000000 0.000000 0.000000 0.052388 0.000000 0.004096
# 5 0.001324 0.003003 -0.003510 0.000000 0.028892 0.000000
# 6 0.000000 0.000000 0.000000 0.004096 0.000000 0.040972
#
#
# Mechanical properties :
#
#
# Convention : Reuss Voigt Hill
#
# Bulk Modulus (GPa) = 47.48076 55.36378 51.42227
# Shear Modulus (GPa) = 27.19710 30.63105 28.91407
#
# Velocity S-wave (km/s) = 3.68291 3.90850 3.79738
# Velocity P-wave (km/s) = 6.46257 6.92673 6.69867
#
# Compressibility (1/GPa) = 0.02106116
#
# Stress axis : x y z
#
# Youngs Moduli (GPa) = 77.63676 62.78286 111.02120
#
# Poissons Ratio (x) = 0.09851 0.45276
# Poissons Ratio (y) = 0.12181 0.30310
# Poissons Ratio (z) = 0.31662 0.17140
#
# Static dielectric constant tensor:
#      x y z
#    x 3.641820 0.000000 0.221440 
#    y 0.000000 3.432770 0.000000 
#    z 0.221440 0.000000 3.963950 
# 
# 
# High freq. dielectric constant tensor:
#      x y z
#    x 1.784490 0.000000 0.011210 
#    y 0.000000 1.759950 0.000000 
#    z 0.011210 0.000000 1.801470 
# 
# From -- ./inp_files/1930.got.cif
#   From: 2010.06.25/outbox.cif.g09.slc.cpg/sg9_1_cif.got.tgz:1930.got - 2010.06.27 21:40:51.
