data_PCOD8054763
_publ_section_title
;
Structure prediction by ZEFSAII (Michael W. Deem and Ramdas Pophale) SiO2 
 PCOD8054763
Probable space group: C C
;
_chemical_formula_sum "Si O2"
_cell_formula_units_Z 32
_cell_length_a 7.725633
_cell_length_b 15.132536
_cell_length_c 18.370505
_cell_angle_alpha 90.000000
_cell_angle_beta 43.125441
_cell_angle_gamma 90.000000
_cell_volume 1468.140492
_symmetry_space_group_name_H-M "C C"
_symmetry_group_IT_number 9
_symmetry_cell_setting 'monoclinic'
loop_
_space_group_symop_operation_xyz
x,y,z
x,-y,1/2+z
1/2+x,1/2+y,z
1/2+x,1/2-y,1/2+z
loop_
_atom_site_type_symbol
_atom_site_label
_atom_site_fract_x
_atom_site_fract_y
_atom_site_fract_z
Si Si1 0.940860 0.225936 0.527250
Si Si2 0.636672 0.491495 0.804656
Si Si3 0.333964 0.671380 0.167066
Si Si4 0.412868 0.828443 0.241897
Si Si5 0.850501 0.404560 0.869814
Si Si6 0.085344 0.546185 0.440713
Si Si7 0.785331 0.591514 0.116843
Si Si8 0.689781 0.246071 0.451804
O O1 0.718161 0.174843 0.639564
O O2 0.974057 0.325466 0.547602
O O3 0.876802 0.230938 0.461650
O O4 0.207066 0.175781 0.455006
O O5 0.808833 0.577757 0.748633
O O6 0.643406 0.456530 0.885734
O O7 0.346088 0.507729 0.871303
O O8 0.741183 0.418357 0.716349
O O9 0.283330 0.760523 0.226974
O O10 0.523899 0.610435 0.155195
O O11 0.063075 0.624279 0.245522
O O12 0.446048 0.696443 0.053322
O O13 0.337055 0.803819 0.347237
O O14 0.981152 0.466318 0.890524
O O15 0.108867 0.650657 0.446969
O O16 0.889023 0.501441 0.555750
#
# Coordination Sequence:
#
# PCOD8054763 Si02
#       8
#     4   4   4   4   4   4   4   4
#     4  10  24  43  71 102 132 185 230 275 348 412
#     4  12  26  42  70 101 139 179 224 287 340 403
#     4  10  23  44  68 100 133 180 228 274 343 405
#     4  10  22  44  70  97 140 179 223 280 343 403
#     4  12  26  43  69 103 137 181 229 282 342 415
#     4  12  24  45  66 102 138 173 233 282 336 410
#     4  10  23  46  68  96 140 177 228 286 337 403
#     4  10  20  45  70  95 141 176 221 288 329 413
#
# _framework density 21.796278000000001
#
# number of rings (size 3 to 8) (size 9 to 14) (size 15 to 20)
#    0.000    1.500    3.750    2.250    5.250    3.000 
#    0.000    0.000    0.000    0.000    0.000    0.000 
#    0.000    0.000    0.000    0.000    0.000    0.000 
#
# Total GULP energy -198370.397113 kJ/mol
# GULP energy per Si atom -12398.149820 kJ/mol
# Density = 2.174667 g / cm^3
# Si number density = 21.796278 Si / 1000 Ang^3
#
#
#
# Elastic Constant Matrix: (Units=GPa)
#
#
# Indices 1 2 3 4 5 6 
#
# 1 89.7089 35.9755 46.0629 0.0031 6.8049 -0.0011
# 2 35.9755 86.9192 34.1269 -0.0008 -5.0336 0.0057
# 3 46.0629 34.1269 126.8177 0.0232 7.7854 0.0038
# 4 0.0031 -0.0008 0.0232 33.1205 -0.0077 2.3437
# 5 6.8049 -5.0336 7.7854 -0.0077 35.9291 0.0004
# 6 -0.0011 0.0057 0.0038 2.3437 0.0004 17.4016
#
#
#
# Elastic Compliance Matrix: (Units=1/GPa)
#
#
# Indices 1 2 3 4 5 6 
#
# 1 0.015446 -0.004935 -0.004115 0.000000 -0.002725 0.000004
# 2 -0.004935 0.014683 -0.002374 0.000004 0.003506 -0.000005
# 3 -0.004115 -0.002374 0.010126 -0.000007 -0.001747 -0.000001
# 4 0.000000 0.000004 -0.000007 0.030483 0.000009 -0.004106
# 5 -0.002725 0.003506 -0.001747 0.000009 0.029219 -0.000003
# 6 0.000004 -0.000005 -0.000001 -0.004106 -0.000003 0.058019
#
#
# Mechanical properties :
#
#
# Convention : Reuss Voigt Hill
#
# Bulk Modulus (GPa) = 57.44890 59.53071 58.48981
# Shear Modulus (GPa) = 26.79160 29.77560 28.28360
#
# Velocity S-wave (km/s) = 3.50977 3.70007 3.60618
# Velocity P-wave (km/s) = 6.54516 6.75468 6.65074
#
# Compressibility (1/GPa) = 0.01740677
#
# Stress axis : x y z
#
# Youngs Moduli (GPa) = 64.74205 68.10749 98.75543
#
# Poissons Ratio (x) = 0.33612 0.40637
# Poissons Ratio (y) = 0.31951 0.23443
# Poissons Ratio (z) = 0.26641 0.16167
#
# Static dielectric constant tensor:
#      x y z
#    x 3.787000 -0.000020 0.046970 
#    y -0.000020 4.033000 0.000110 
#    z 0.046970 0.000110 4.068550 
# 
# 
# High freq. dielectric constant tensor:
#      x y z
#    x 1.847170 0.000000 0.005180 
#    y 0.000000 1.850660 0.000000 
#    z 0.005180 0.000000 1.867230 
# 
# From -- ./inp_files/32710.got.cif
#   From: 2010.06.25/outbox.cif.g09.slc.cpg/sg9_17_cif.got.tgz:32710.got - 2010.06.27 21:40:51.
