data_PCOD8054045
_publ_section_title
;
Structure prediction by ZEFSAII (Michael W. Deem and Ramdas Pophale) SiO2 
 PCOD8054045
Probable space group: C M
;
_chemical_formula_sum "Si O2"
_cell_formula_units_Z 28
_cell_length_a 14.230747
_cell_length_b 17.332944
_cell_length_c 5.714147
_cell_angle_alpha 90.000000
_cell_angle_beta 119.059985
_cell_angle_gamma 90.000000
_cell_volume 1232.021695
_symmetry_space_group_name_H-M "C M"
_symmetry_group_IT_number 8
_symmetry_cell_setting 'monoclinic'
loop_
_space_group_symop_operation_xyz
x,y,z
x,-y,z
1/2+x,1/2+y,z
1/2+x,1/2-y,z
loop_
_atom_site_type_symbol
_atom_site_label
_atom_site_fract_x
_atom_site_fract_y
_atom_site_fract_z
Si Si1 0.735471 0.000000 0.762440
Si Si2 0.561282 0.681670 0.874007
Si Si3 0.700164 0.587744 0.722975
Si Si4 0.111449 0.500000 0.104593
Si Si5 0.445216 0.916489 0.134727
Si Si6 0.425274 0.230005 0.373404
Si Si7 0.842667 0.838503 0.871040
Si Si8 0.722953 0.277614 0.423398
O O1 0.685169 0.000000 0.437078
O O2 0.807574 0.075352 0.888432
O O3 0.661039 0.000000 0.906676
O O4 0.635573 0.609667 0.881826
O O5 0.528433 0.728999 0.605755
O O6 0.452246 0.652217 0.859374
O O7 0.631358 0.739948 0.119766
O O8 0.671736 0.500000 0.618212
O O9 0.670154 0.647454 0.483427
O O10 0.826365 0.601095 0.903495
O O11 0.032757 0.424672 0.030047
O O12 0.481592 0.844347 0.329845
O O13 0.445264 0.000000 0.272147
O O14 0.338143 0.199859 0.453428
O O15 0.363830 0.288236 0.126539
O O16 0.745742 0.796560 0.613049
#
# Coordination Sequence:
#
# PCOD8054045 Si02
#       8
#     2   4   4   2   4   4   4   4
#     4  12  30  56  75 109 159 201 272 320 381 469
#     4  11  25  44  74 113 146 198 247 315 393 448
#     4  11  23  45  73 109 153 185 241 308 386 459
#     4  10  28  50  79 109 147 215 246 330 389 447
#     4   9  21  47  69 112 144 188 249 303 385 458
#     4  11  23  47  74 108 153 193 250 316 377 470
#     4  11  27  49  75 106 149 202 256 315 380 466
#     4  11  23  45  71 112 142 200 245 313 385 452
#
# _framework density 22.726873999999999
#
# number of rings (size 3 to 8) (size 9 to 14) (size 15 to 20)
#    0.429    0.857    2.857    0.857    5.000    5.714 
#    6.429    0.000    0.000    0.000    0.000    0.000 
#    0.000    0.000    0.000    0.000    0.000    0.000 
#
# Total GULP energy -173447.758865 kJ/mol
# GULP energy per Si atom -12389.125633 kJ/mol
# Density = 2.267515 g / cm^3
# Si number density = 22.726874 Si / 1000 Ang^3
#
#
#
# Elastic Constant Matrix: (Units=GPa)
#
#
# Indices 1 2 3 4 5 6 
#
# 1 115.4108 54.5738 43.8321 0.0000 -1.0319 0.0000
# 2 54.5738 155.4699 51.2261 0.0000 -3.9346 0.0000
# 3 43.8321 51.2261 113.5457 0.0000 5.4587 0.0000
# 4 0.0000 0.0000 0.0000 12.9250 0.0000 -5.3893
# 5 -1.0319 -3.9346 5.4587 0.0000 33.4988 0.0000
# 6 0.0000 0.0000 0.0000 -5.3893 0.0000 39.7241
#
#
#
# Elastic Compliance Matrix: (Units=1/GPa)
#
#
# Indices 1 2 3 4 5 6 
#
# 1 0.011201 -0.002921 -0.003030 0.000000 0.000496 0.000000
# 2 -0.002921 0.008388 -0.002721 0.000000 0.001339 0.000000
# 3 -0.003030 -0.002721 0.011313 0.000000 -0.002256 0.000000
# 4 0.000000 0.000000 0.000000 0.082009 0.000000 0.011126
# 5 0.000496 0.001339 -0.002256 0.000000 0.030392 0.000000
# 6 0.000000 0.000000 0.000000 0.011126 0.000000 0.026683
#
#
# Mechanical properties :
#
#
# Convention : Reuss Voigt Hill
#
# Bulk Modulus (GPa) = 73.75796 75.96561 74.86179
# Shear Modulus (GPa) = 26.06222 32.88254 29.47238
#
# Velocity S-wave (km/s) = 3.39006 3.80788 3.60503
# Velocity P-wave (km/s) = 6.91721 7.26852 7.09504
#
# Compressibility (1/GPa) = 0.01355786
#
# Stress axis : x y z
#
# Youngs Moduli (GPa) = 89.27667 119.22009 88.39595
#
# Poissons Ratio (x) = 0.34824 0.26784
# Poissons Ratio (y) = 0.26077 0.24052
# Poissons Ratio (z) = 0.27051 0.32439
#
# Static dielectric constant tensor:
#      x y z
#    x 4.171430 0.000000 -0.015910 
#    y 0.000000 4.061620 0.000000 
#    z -0.015910 0.000000 4.116760 
# 
# 
# High freq. dielectric constant tensor:
#      x y z
#    x 1.912980 0.000000 0.005600 
#    y 0.000000 1.891630 0.000000 
#    z 0.005600 0.000000 1.889640 
# 
# From -- ./inp_files/4154.got.cif
#   From: 2010.03.12/outbox.cif.g09.slc.cpg/sg8_3_cif.got.tgz:4154.got - 2010.03.31 10:45:26.
