data_PCOD8054838
_publ_section_title
;
Structure prediction by ZEFSAII (Michael W. Deem and Ramdas Pophale) SiO2 
 PCOD8054838
Probable space group: C C
;
_chemical_formula_sum "Si O2"
_cell_formula_units_Z 28
_cell_length_a 12.662658
_cell_length_b 14.520338
_cell_length_c 9.025818
_cell_angle_alpha 90.000000
_cell_angle_beta 127.395039
_cell_angle_gamma 90.000000
_cell_volume 1318.451478
_symmetry_space_group_name_H-M "C C"
_symmetry_group_IT_number 9
_symmetry_cell_setting 'monoclinic'
loop_
_space_group_symop_operation_xyz
x,y,z
x,-y,1/2+z
1/2+x,1/2+y,z
1/2+x,1/2-y,1/2+z
loop_
_atom_site_type_symbol
_atom_site_label
_atom_site_fract_x
_atom_site_fract_y
_atom_site_fract_z
Si Si1 0.003960 0.911313 0.635770
Si Si2 0.926234 0.414072 0.792124
Si Si3 0.418992 0.421586 0.883112
Si Si4 0.774101 0.498404 0.908552
Si Si5 0.702885 0.868702 0.906952
Si Si6 0.416320 0.300959 0.304879
Si Si7 0.616777 0.675162 0.732133
O O1 0.907540 0.924100 0.695574
O O2 0.952334 0.818842 0.508915
O O3 0.158767 0.918835 0.818897
O O4 0.994887 0.988544 0.502630
O O5 0.903579 0.456544 0.935642
O O6 0.821739 0.475019 0.611986
O O7 0.890222 0.306563 0.758123
O O8 0.074099 0.424319 0.852405
O O9 0.277313 0.427967 0.845211
O O10 0.503500 0.331336 0.006707
O O11 0.724769 0.595351 0.795969
O O12 0.678269 0.776064 0.790962
O O13 0.786227 0.851980 0.129250
O O14 0.543244 0.340872 0.325997
#
# Coordination Sequence:
#
# PCOD8054838 Si02
#       7
#     4   4   4   4   4   4   4
#     4  11  22  40  68  94 125 173 235 269 324 401
#     4  11  24  39  64  98 132 176 209 281 342 395
#     4  10  21  38  64  92 122 174 223 275 323 403
#     4  11  21  40  64  96 130 171 221 268 332 402
#     4  10  21  40  65  91 135 171 222 273 345 396
#     4  10  21  41  67  93 126 179 231 272 330 401
#     4   9  18  38  64  90 126 178 221 268 326 404
#
# _framework density 21.237034000000001
#
# number of rings (size 3 to 8) (size 9 to 14) (size 15 to 20)
#    0.000    1.714    1.429    5.143    2.000    2.286 
#    5.143    0.000    0.000    0.000    0.000    0.000 
#    0.000    0.000    0.000    0.000    0.000    0.000 
#
# Total GULP energy -173469.607688 kJ/mol
# GULP energy per Si atom -12390.686263 kJ/mol
# Density = 2.118870 g / cm^3
# Si number density = 21.237034 Si / 1000 Ang^3
#
#
#
# Elastic Constant Matrix: (Units=GPa)
#
#
# Indices 1 2 3 4 5 6 
#
# 1 117.3127 34.9935 34.3788 0.0000 -6.2018 0.0000
# 2 34.9935 54.6295 28.1104 0.0000 -2.3030 0.0000
# 3 34.3788 28.1104 98.8472 0.0000 -14.1990 0.0000
# 4 0.0000 0.0000 0.0000 33.3055 0.0000 -4.8054
# 5 -6.2018 -2.3030 -14.1990 0.0000 37.0140 0.0000
# 6 0.0000 0.0000 0.0000 -4.8054 0.0000 34.1579
#
#
#
# Elastic Compliance Matrix: (Units=1/GPa)
#
#
# Indices 1 2 3 4 5 6 
#
# 1 0.010919 -0.005930 -0.002012 0.000000 0.000689 0.000000
# 2 -0.005930 0.024703 -0.005169 0.000000 -0.001440 0.000000
# 3 -0.002012 -0.005169 0.012903 0.000000 0.004291 0.000000
# 4 0.000000 0.000000 0.000000 0.030647 0.000000 0.004311
# 5 0.000689 -0.001440 0.004291 0.000000 0.028689 0.000000
# 6 0.000000 0.000000 0.000000 0.004311 0.000000 0.029882
#
#
# Mechanical properties :
#
#
# Convention : Reuss Voigt Hill
#
# Bulk Modulus (GPa) = 44.83980 51.75053 48.29516
# Shear Modulus (GPa) = 29.17142 32.44926 30.81034
#
# Velocity S-wave (km/s) = 3.71025 3.91315 3.81305
# Velocity P-wave (km/s) = 6.28605 6.69611 6.49432
#
# Compressibility (1/GPa) = 0.02230162
#
# Stress axis : x y z
#
# Youngs Moduli (GPa) = 91.58178 40.48109 77.50131
#
# Poissons Ratio (x) = 0.24005 0.15596
# Poissons Ratio (y) = 0.54307 0.40064
# Poissons Ratio (z) = 0.18430 0.20927
#
# Static dielectric constant tensor:
#      x y z
#    x 3.754590 0.000000 0.102130 
#    y 0.000000 3.757440 0.000000 
#    z 0.102130 0.000000 3.950340 
# 
# 
# High freq. dielectric constant tensor:
#      x y z
#    x 1.829500 0.000000 0.002430 
#    y 0.000000 1.813840 0.000000 
#    z 0.002430 0.000000 1.823310 
# 
# From -- ./inp_files/7301.got.cif
#   From: 2010.06.25/outbox.cif.g09.slc.cpg/sg9_4_cif.got.tgz:7301.got - 2010.06.27 21:40:51.
