data_PCOD8054250
_publ_section_title
;
Structure prediction by ZEFSAII (Michael W. Deem and Ramdas Pophale) SiO2 
 PCOD8054250
Probable space group: C C
;
_chemical_formula_sum "Si O2"
_cell_formula_units_Z 32
_cell_length_a 14.642530
_cell_length_b 17.875891
_cell_length_c 11.529343
_cell_angle_alpha 90.000000
_cell_angle_beta 28.069055
_cell_angle_gamma 90.000000
_cell_volume 1419.974896
_symmetry_space_group_name_H-M "C C"
_symmetry_group_IT_number 9
_symmetry_cell_setting 'monoclinic'
loop_
_space_group_symop_operation_xyz
x,y,z
x,-y,1/2+z
1/2+x,1/2+y,z
1/2+x,1/2-y,1/2+z
loop_
_atom_site_type_symbol
_atom_site_label
_atom_site_fract_x
_atom_site_fract_y
_atom_site_fract_z
Si Si1 0.956600 0.218033 0.236470
Si Si2 0.389330 0.923438 0.180181
Si Si3 0.783733 0.591601 0.269580
Si Si4 0.736762 0.353663 0.564961
Si Si5 0.220473 0.319885 0.798652
Si Si6 0.180439 0.171028 0.733813
Si Si7 0.519597 0.173795 0.182349
Si Si8 0.446250 0.656177 0.784138
O O1 0.797741 0.266670 0.483386
O O2 0.927244 0.178858 0.136819
O O3 0.019590 0.150944 0.252557
O O4 0.116448 0.280327 0.026096
O O5 0.362388 0.913138 0.348936
O O6 0.230210 0.867917 0.300233
O O7 0.354676 0.006907 0.178480
O O8 0.608762 0.897695 0.898488
O O9 0.732640 0.621539 0.200667
O O10 0.585306 0.595879 0.566639
O O11 0.962849 0.638895 0.121388
O O12 0.201392 0.262274 0.710999
O O13 0.351511 0.144589 0.456002
O O14 0.973500 0.147776 0.897318
O O15 0.532626 0.263052 0.152861
O O16 0.726601 0.141352 0.992530
#
# Coordination Sequence:
#
# PCOD8054250 Si02
#       8
#     4   4   4   4   4   4   4   4
#     4   9  18  35  62  99 123 165 220 280 313 403
#     4  11  24  43  65 100 139 172 221 278 350 410
#     4  11  27  45  67  90 142 187 217 280 344 405
#     4  10  22  40  67  92 130 170 222 275 344 393
#     4  10  18  36  63 102 132 165 217 278 335 395
#     4  11  21  39  73 103 136 170 219 288 345 389
#     4  11  24  43  69 103 128 176 234 283 328 402
#     4  11  24  43  68  99 130 175 236 280 327 401
#
# _framework density 22.535609000000001
#
# number of rings (size 3 to 8) (size 9 to 14) (size 15 to 20)
#    0.000    1.500    6.250    0.750    5.250    0.000 
#    6.750    0.000    0.000    0.000    0.000    0.000 
#    0.000    0.000    0.000    0.000    0.000    0.000 
#
# Total GULP energy -198289.344430 kJ/mol
# GULP energy per Si atom -12393.084027 kJ/mol
# Density = 2.248432 g / cm^3
# Si number density = 22.535609 Si / 1000 Ang^3
#
#
#
# Elastic Constant Matrix: (Units=GPa)
#
#
# Indices 1 2 3 4 5 6 
#
# 1 168.3877 40.3201 38.0356 0.0226 6.4302 -0.0023
# 2 40.3201 93.0171 17.6921 0.0114 1.0180 0.0027
# 3 38.0356 17.6921 45.9599 0.0288 -8.9142 0.0020
# 4 0.0226 0.0114 0.0288 26.2720 -0.0057 -0.4320
# 5 6.4302 1.0180 -8.9142 -0.0057 42.2852 -0.0058
# 6 -0.0023 0.0027 0.0020 -0.4320 -0.0058 21.7479
#
#
#
# Elastic Compliance Matrix: (Units=1/GPa)
#
#
# Indices 1 2 3 4 5 6 
#
# 1 0.007975 -0.002248 -0.006213 0.000000 -0.002468 0.000001
# 2 -0.002248 0.012300 -0.002988 0.000000 -0.000584 -0.000002
# 3 -0.006213 -0.002988 0.029451 -0.000024 0.007225 -0.000001
# 4 0.000000 0.000000 -0.000024 0.038076 0.000000 0.000756
# 5 -0.002468 -0.000584 0.007225 0.000000 0.025562 0.000006
# 6 0.000001 -0.000002 -0.000001 0.000756 0.000006 0.045997
#
#
# Mechanical properties :
#
#
# Convention : Reuss Voigt Hill
#
# Bulk Modulus (GPa) = 37.27386 55.49558 46.38472
# Shear Modulus (GPa) = 26.15064 32.14881 29.14972
#
# Velocity S-wave (km/s) = 3.41018 3.78110 3.60042
# Velocity P-wave (km/s) = 5.66407 6.61374 6.15724
#
# Compressibility (1/GPa) = 0.02682845
#
# Stress axis : x y z
#
# Youngs Moduli (GPa) = 125.39775 81.30211 33.95424
#
# Poissons Ratio (x) = 0.18277 0.21096
# Poissons Ratio (y) = 0.28189 0.10144
# Poissons Ratio (z) = 0.77910 0.24290
#
# Static dielectric constant tensor:
#      x y z
#    x 4.443380 0.000000 -0.356850 
#    y 0.000000 3.636930 0.000000 
#    z -0.356850 0.000000 4.304490 
# 
# 
# High freq. dielectric constant tensor:
#      x y z
#    x 1.915880 0.000000 -0.010880 
#    y 0.000000 1.833720 0.000000 
#    z -0.010880 0.000000 1.900320 
# 
# From -- ./inp_files/18575.got.cif
#   From: 2010.06.25/outbox.cif.g09.slc.cpg/sg9_10_cif.got.tgz:18575.got - 2010.06.27 21:40:51.
