data_PCOD8054015
_publ_section_title
;
Structure prediction by ZEFSAII (Michael W. Deem and Ramdas Pophale) SiO2 
 PCOD8054015
Probable space group: C M
;
_chemical_formula_sum "Si O2"
_cell_formula_units_Z 32
_cell_length_a 10.389905
_cell_length_b 31.596119
_cell_length_c 8.722542
_cell_angle_alpha 90.000000
_cell_angle_beta 149.034885
_cell_angle_gamma 90.000000
_cell_volume 1473.286957
_symmetry_space_group_name_H-M "C M"
_symmetry_group_IT_number 8
_symmetry_cell_setting 'monoclinic'
loop_
_space_group_symop_operation_xyz
x,y,z
x,-y,z
1/2+x,1/2+y,z
1/2+x,1/2-y,z
loop_
_atom_site_type_symbol
_atom_site_label
_atom_site_fract_x
_atom_site_fract_y
_atom_site_fract_z
Si Si1 0.278050 0.782733 0.558070
Si Si2 0.815967 0.813513 0.574267
Si Si3 0.181599 0.165711 0.184337
Si Si4 0.575820 0.049123 0.189202
Si Si5 0.772691 0.820408 0.180965
Si Si6 0.072447 0.950853 0.501289
Si Si7 0.357548 0.389483 0.052906
Si Si8 0.563853 0.107245 0.469318
O O1 0.207435 0.733557 0.469779
O O2 0.340733 0.801305 0.450764
O O3 0.036859 0.802001 0.394352
O O4 0.532604 0.789735 0.915695
O O5 0.820186 0.830735 0.407106
O O6 0.660043 0.846489 0.516253
O O7 0.088966 0.811801 0.933686
O O8 0.290102 0.119747 0.247346
O O9 0.972170 0.151801 0.090543
O O10 0.834911 0.058609 0.367446
O O11 0.572748 0.072945 0.346775
O O12 0.551104 0.000000 0.203407
O O13 0.332800 0.063604 0.844369
O O14 0.704581 0.866028 0.033946
O O15 0.044597 0.924044 0.316771
O O16 0.082025 0.000000 0.465683
O O17 0.196672 0.412457 0.756118
#
# Coordination Sequence:
#
# PCOD8054015 Si02
#       8
#     4   4   4   4   4   4   4   4
#     4  11  25  44  63  89 131 168 217 275 328 384
#     4  11  26  39  66  92 125 173 220 270 329 385
#     4  10  24  43  60  94 132 167 218 273 323 386
#     4  10  24  44  69  98 134 170 214 269 325 392
#     4  11  25  42  64  93 123 170 219 267 325 384
#     4  10  23  44  70 101 131 168 216 268 323 393
#     4  10  23  41  64  94 130 172 211 270 321 392
#     4  11  24  41  65  95 132 172 218 268 326 392
#
# _framework density 21.720140000000001
#
# number of rings (size 3 to 8) (size 9 to 14) (size 15 to 20)
#    0.000    1.500    1.250    1.500   12.250    1.500 
#    0.000    0.625    0.000    0.000    0.000    0.000 
#    0.000    0.000    0.000    0.000    0.000    0.000 
#
# Total GULP energy -198235.411656 kJ/mol
# GULP energy per Si atom -12389.713229 kJ/mol
# Density = 2.167070 g / cm^3
# Si number density = 21.720140 Si / 1000 Ang^3
#
#
#
# Elastic Constant Matrix: (Units=GPa)
#
#
# Indices 1 2 3 4 5 6 
#
# 1 68.4706 15.8448 50.9481 0.0000 -15.3426 0.0000
# 2 15.8448 69.6256 34.9380 0.0000 -20.5252 0.0000
# 3 50.9481 34.9380 150.5870 0.0000 -24.3310 0.0000
# 4 0.0000 0.0000 0.0000 36.1805 0.0000 -8.9160
# 5 -15.3426 -20.5252 -24.3310 0.0000 50.4178 0.0000
# 6 0.0000 0.0000 0.0000 -8.9160 0.0000 27.9973
#
#
#
# Elastic Compliance Matrix: (Units=1/GPa)
#
#
# Indices 1 2 3 4 5 6 
#
# 1 0.019963 -0.000615 -0.006150 0.000000 0.002857 0.000000
# 2 -0.000615 0.017638 -0.002987 0.000000 0.005552 0.000000
# 3 -0.006150 -0.002987 0.009670 0.000000 0.001579 0.000000
# 4 0.000000 0.000000 0.000000 0.029993 0.000000 0.009552
# 5 0.002857 0.005552 0.001579 0.000000 0.023726 0.000000
# 6 0.000000 0.000000 0.000000 0.009552 0.000000 0.038759
#
#
# Mechanical properties :
#
#
# Convention : Reuss Voigt Hill
#
# Bulk Modulus (GPa) = 36.01406 54.68278 45.34842
# Shear Modulus (GPa) = 29.67205 35.38262 32.52734
#
# Velocity S-wave (km/s) = 3.70010 4.04050 3.87404
# Velocity P-wave (km/s) = 5.90519 6.85552 6.39803
#
# Compressibility (1/GPa) = 0.02776693
#
# Stress axis : x y z
#
# Youngs Moduli (GPa) = 50.09182 56.69565 103.41745
#
# Poissons Ratio (x) = 0.03486 0.63601
# Poissons Ratio (y) = 0.03080 0.30893
# Poissons Ratio (z) = 0.30806 0.16936
#
# Static dielectric constant tensor:
#      x y z
#    x 3.893220 0.000000 -0.155730 
#    y 0.000000 3.796890 0.000000 
#    z -0.155730 0.000000 4.205550 
# 
# 
# High freq. dielectric constant tensor:
#      x y z
#    x 1.851600 0.000000 -0.012500 
#    y 0.000000 1.845800 0.000000 
#    z -0.012500 0.000000 1.865310 
# 
# From -- ./inp_files/11695.got.cif
#   From: 2010.03.12/outbox.cif.g09.slc.cpg/sg8_6_cif.got.tgz:11695.got - 2010.03.31 10:45:26.
