data_PCOD8054368
_publ_section_title
;
Structure prediction by ZEFSAII (Michael W. Deem and Ramdas Pophale) SiO2 
 PCOD8054368
Probable space group: C C
;
_chemical_formula_sum "Si O2"
_cell_formula_units_Z 24
_cell_length_a 8.945787
_cell_length_b 11.824257
_cell_length_c 9.678631
_cell_angle_alpha 90.000000
_cell_angle_beta 57.766509
_cell_angle_gamma 90.000000
_cell_volume 865.996016
_symmetry_space_group_name_H-M "C C"
_symmetry_group_IT_number 9
_symmetry_cell_setting 'monoclinic'
loop_
_space_group_symop_operation_xyz
x,y,z
x,-y,1/2+z
1/2+x,1/2+y,z
1/2+x,1/2-y,1/2+z
loop_
_atom_site_type_symbol
_atom_site_label
_atom_site_fract_x
_atom_site_fract_y
_atom_site_fract_z
Si Si1 0.310830 0.569651 0.375000
Si Si2 0.212627 0.257544 0.425167
Si Si3 0.194087 0.145219 0.899478
Si Si4 0.445832 0.566519 0.588218
Si Si5 0.587434 0.823254 0.759612
Si Si6 0.061973 0.277288 0.216608
O O1 0.279445 0.559974 0.556957
O O2 0.380085 0.449077 0.278770
O O3 0.147892 0.592838 0.351370
O O4 0.474966 0.654216 0.276079
O O5 0.376628 0.171587 0.349661
O O6 0.195767 0.347552 0.561585
O O7 0.195572 0.308429 0.277595
O O8 0.034009 0.187328 0.537822
O O9 0.088452 0.031789 0.981667
O O10 0.167489 0.254663 0.020164
O O11 0.135840 0.193936 0.779778
O O12 0.407538 0.126390 0.786633
#
# Coordination Sequence:
#
# PCOD8054368 Si02
#       6
#     4   4   4   4   4   4
#     4   9  20  37  57  83 118 156 198 243 297 353
#     4  11  22  38  61  87 118 157 202 251 302 358
#     4  10  19  37  60  84 118 157 195 242 297 357
#     4  10  20  38  61  87 119 155 197 254 306 349
#     4  11  22  39  60  86 119 162 203 241 296 368
#     4   9  19  35  57  85 116 153 195 237 294 365
#
# _framework density 27.713751999999999
#
# number of rings (size 3 to 8) (size 9 to 14) (size 15 to 20)
#    0.000    2.000    0.000    5.000    0.000    0.000 
#    0.000   16.667    0.000    0.000    0.000    0.000 
#    0.000    0.000    0.000    0.000    0.000    0.000 
#
# Total GULP energy -148681.297598 kJ/mol
# GULP energy per Si atom -12390.108133 kJ/mol
# Density = 2.765067 g / cm^3
# Si number density = 27.713752 Si / 1000 Ang^3
#
#
#
# Elastic Constant Matrix: (Units=GPa)
#
#
# Indices 1 2 3 4 5 6 
#
# 1 144.7490 -6.1157 46.9723 0.0000 23.0787 0.0000
# 2 -6.1157 26.8893 3.3846 0.0000 20.4315 0.0000
# 3 46.9723 3.3846 200.4070 0.0000 22.2173 0.0000
# 4 0.0000 0.0000 0.0000 15.0228 0.0000 3.6284
# 5 23.0787 20.4315 22.2173 0.0000 40.4780 0.0000
# 6 0.0000 0.0000 0.0000 3.6284 0.0000 38.5266
#
#
#
# Elastic Compliance Matrix: (Units=1/GPa)
#
#
# Indices 1 2 3 4 5 6 
#
# 1 0.009182 0.009231 -0.001290 0.000000 -0.009186 0.000000
# 2 0.009231 0.070816 0.001263 0.000000 -0.041701 0.000000
# 3 -0.001290 0.001263 0.005601 0.000000 -0.002977 0.000000
# 4 0.000000 0.000000 0.000000 0.068115 0.000000 -0.006415
# 5 -0.009186 -0.041701 -0.002977 0.000000 0.052625 0.000000
# 6 0.000000 0.000000 0.000000 -0.006415 0.000000 0.026560
#
#
# Mechanical properties :
#
#
# Convention : Reuss Voigt Hill
#
# Bulk Modulus (GPa) = 9.61463 51.16974 30.39219
# Shear Modulus (GPa) = 20.06753 40.65910 30.36331
#
# Velocity S-wave (km/s) = 2.69383 3.83444 3.31358
# Velocity P-wave (km/s) = 3.62663 6.17314 5.06261
#
# Compressibility (1/GPa) = 0.10400812
#
# Stress axis : x y z
#
# Youngs Moduli (GPa) = 108.91268 14.12108 178.54786
#
# Poissons Ratio (x) = -0.13035 0.23024
# Poissons Ratio (y) = -1.00535 -0.22559
# Poissons Ratio (z) = 0.14044 -0.01784
#
# Static dielectric constant tensor:
#      x y z
#    x 5.071210 0.000000 0.400790 
#    y 0.000000 4.925130 0.000000 
#    z 0.400790 0.000000 5.894960 
# 
# 
# High freq. dielectric constant tensor:
#      x y z
#    x 2.125720 0.000000 0.008100 
#    y 0.000000 2.113640 0.000000 
#    z 0.008100 0.000000 2.146500 
# 
# From -- ./inp_files/4976.got.cif
#   From: 2010.06.25/outbox.cif.g09.slc.cpg/sg9_3_cif.got.tgz:4976.got - 2010.06.27 21:40:51.
