data_PCOD8054856
_publ_section_title
;
Structure prediction by ZEFSAII (Michael W. Deem and Ramdas Pophale) SiO2 
 PCOD8054856
Probable space group: C C
;
_chemical_formula_sum "Si O2"
_cell_formula_units_Z 28
_cell_length_a 17.489808
_cell_length_b 16.523166
_cell_length_c 5.134997
_cell_angle_alpha 90.000000
_cell_angle_beta 109.222564
_cell_angle_gamma 90.000000
_cell_volume 1401.212544
_symmetry_space_group_name_H-M "C C"
_symmetry_group_IT_number 9
_symmetry_cell_setting 'monoclinic'
loop_
_space_group_symop_operation_xyz
x,y,z
x,-y,1/2+z
1/2+x,1/2+y,z
1/2+x,1/2-y,1/2+z
loop_
_atom_site_type_symbol
_atom_site_label
_atom_site_fract_x
_atom_site_fract_y
_atom_site_fract_z
Si Si1 0.984640 0.947999 0.622470
Si Si2 0.336387 0.338951 0.428882
Si Si3 0.788763 0.683669 0.618242
Si Si4 0.907984 0.552746 0.940348
Si Si5 0.092888 0.552002 0.114034
Si Si6 0.741136 0.161051 0.307591
Si Si7 0.169542 0.052748 0.296130
O O1 0.928085 0.870321 0.516275
O O2 0.076919 0.917626 0.705515
O O3 0.966848 0.015417 0.385567
O O4 0.337747 0.241278 0.470056
O O5 0.288758 0.380192 0.618225
O O6 0.288762 0.364225 0.118235
O O7 0.852065 0.630835 0.851351
O O8 0.739782 0.741277 0.766442
O O9 0.725459 0.630839 0.385125
O O10 0.888056 0.488162 0.693169
O O11 0.000607 0.582371 0.030961
O O12 0.110687 0.484597 0.350974
O O13 0.149436 0.629686 0.220191
O O14 0.189475 0.988159 0.543310
#
# Coordination Sequence:
#
# PCOD8054856 Si02
#       7
#     4   4   4   4   4   4   4
#     4  10  21  39  59  84 112 145 193 231 272 329
#     4  10  23  37  55  88 112 153 181 225 289 323
#     4  10  24  38  58  84 120 142 190 224 284 340
#     4  10  22  38  62  84 108 149 188 234 277 324
#     4  10  21  39  59  84 112 145 193 231 272 329
#     4  10  23  37  55  88 112 153 181 225 289 323
#     4  10  22  38  62  84 108 149 188 234 277 324
#
# _framework density 19.982695
#
# number of rings (size 3 to 8) (size 9 to 14) (size 15 to 20)
#    0.857    1.143    0.000    2.571    4.000    4.571 
#    0.000    1.429    0.000    0.000    0.000    0.000 
#    0.000    0.000    0.000    0.000    0.000    0.000 
#
# Total GULP energy -173595.791419 kJ/mol
# GULP energy per Si atom -12399.699387 kJ/mol
# Density = 1.993721 g / cm^3
# Si number density = 19.982695 Si / 1000 Ang^3
#
#
#
# Elastic Constant Matrix: (Units=GPa)
#
#
# Indices 1 2 3 4 5 6 
#
# 1 67.5776 52.8266 30.9928 0.0000 30.5646 0.0000
# 2 52.8266 92.6748 32.2864 0.0000 42.4174 0.0000
# 3 30.9928 32.2864 125.8272 0.0000 18.5889 0.0000
# 4 0.0000 0.0000 0.0000 11.9661 0.0000 8.1869
# 5 30.5646 42.4174 18.5889 0.0000 34.5371 0.0000
# 6 0.0000 0.0000 0.0000 8.1869 0.0000 21.5579
#
#
#
# Elastic Compliance Matrix: (Units=1/GPa)
#
#
# Indices 1 2 3 4 5 6 
#
# 1 0.029667 -0.010509 -0.002867 0.000000 -0.011805 0.000000
# 2 -0.010509 0.028844 -0.001035 0.000000 -0.025567 0.000000
# 3 -0.002867 -0.001035 0.009078 0.000000 -0.001077 0.000000
# 4 0.000000 0.000000 0.000000 0.112905 0.000000 -0.042878
# 5 -0.011805 -0.025567 -0.001077 0.000000 0.071382 0.000000
# 6 0.000000 0.000000 0.000000 -0.042878 0.000000 0.062670
#
#
# Mechanical properties :
#
#
# Convention : Reuss Voigt Hill
#
# Bulk Modulus (GPa) = 25.79547 57.58791 41.69169
# Shear Modulus (GPa) = 14.03346 24.94379 19.48862
#
# Velocity S-wave (km/s) = 2.65293 3.53692 3.12633
# Velocity P-wave (km/s) = 4.72451 6.74990 5.82590
#
# Compressibility (1/GPa) = 0.03876649
#
# Stress axis : x y z
#
# Youngs Moduli (GPa) = 33.70781 34.66962 110.15137
#
# Poissons Ratio (x) = 0.36434 0.31579
# Poissons Ratio (y) = 0.35423 0.11406
# Poissons Ratio (z) = 0.09663 0.03590
#
# Static dielectric constant tensor:
#      x y z
#    x 3.681780 0.000000 0.062560 
#    y 0.000000 3.293660 0.000000 
#    z 0.062560 0.000000 3.809620 
# 
# 
# High freq. dielectric constant tensor:
#      x y z
#    x 1.779980 0.000000 0.002000 
#    y 0.000000 1.756560 0.000000 
#    z 0.002000 0.000000 1.800660 
# 
# From -- ./inp_files/2380.got.cif
#   From: 2010.06.25/outbox.cif.g09.slc.cpg/sg9_2_cif.got.tgz:2380.got - 2010.06.27 21:40:51.
