data_PCOD8054518
_publ_section_title
;
Structure prediction by ZEFSAII (Michael W. Deem and Ramdas Pophale) SiO2 
 PCOD8054518
Probable space group: C C
;
_chemical_formula_sum "Si O2"
_cell_formula_units_Z 28
_cell_length_a 29.221694
_cell_length_b 9.321968
_cell_length_c 8.954051
_cell_angle_alpha 90.000000
_cell_angle_beta 143.248702
_cell_angle_gamma 90.000000
_cell_volume 1459.427734
_symmetry_space_group_name_H-M "C C"
_symmetry_group_IT_number 9
_symmetry_cell_setting 'monoclinic'
loop_
_space_group_symop_operation_xyz
x,y,z
x,-y,1/2+z
1/2+x,1/2+y,z
1/2+x,1/2-y,1/2+z
loop_
_atom_site_type_symbol
_atom_site_label
_atom_site_fract_x
_atom_site_fract_y
_atom_site_fract_z
Si Si1 0.978620 0.722147 0.608050
Si Si2 0.576453 0.904960 0.601444
Si Si3 0.821911 0.182206 0.090747
Si Si4 0.395511 0.518716 0.013389
Si Si5 0.645823 0.835839 0.085765
Si Si6 0.435689 0.079022 0.946056
Si Si7 0.012846 0.789619 0.375460
O O1 0.920863 0.854689 0.469927
O O2 0.922052 0.582470 0.469864
O O3 0.024034 0.734007 0.572008
O O4 0.045451 0.719557 0.909087
O O5 0.501027 0.948845 0.494638
O O6 0.613025 0.027722 0.592443
O O7 0.638798 0.854343 0.887314
O O8 0.861385 0.339996 0.184151
O O9 0.841984 0.098267 0.294572
O O10 0.848793 0.082365 0.027366
O O11 0.731762 0.202570 0.850145
O O12 0.473390 0.444508 0.273699
O O13 0.595236 0.700166 0.008584
O O14 0.462731 0.174962 0.154079
#
# Coordination Sequence:
#
# PCOD8054518 Si02
#       7
#     4   4   4   4   4   4   4
#     4  12  19  37  66  90 112 155 220 249 287 361
#     4  11  19  33  63  89 114 161 211 241 290 363
#     4  11  23  39  60  92 129 156 199 256 312 350
#     4  11  23  37  62  92 121 164 202 253 301 365
#     4  11  21  37  61  90 127 159 201 256 305 355
#     4  10  20  36  62  90 113 162 204 246 291 367
#     4  10  21  37  60  89 118 159 207 249 296 363
#
# _framework density 19.185601999999999
#
# number of rings (size 3 to 8) (size 9 to 14) (size 15 to 20)
#    0.000    1.143    7.143    0.857    0.000    0.000 
#    0.000    0.000    9.429    0.000    0.000    0.000 
#    0.000    0.000    0.000    0.000    0.000    0.000 
#
# Total GULP energy -173484.837790 kJ/mol
# GULP energy per Si atom -12391.774128 kJ/mol
# Density = 1.914194 g / cm^3
# Si number density = 19.185602 Si / 1000 Ang^3
#
#
#
# Elastic Constant Matrix: (Units=GPa)
#
#
# Indices 1 2 3 4 5 6 
#
# 1 74.5063 20.0681 43.2123 0.0000 -8.4543 0.0000
# 2 20.0681 81.2259 36.0633 0.0000 7.6337 0.0000
# 3 43.2123 36.0633 127.6756 0.0000 7.8741 0.0000
# 4 0.0000 0.0000 0.0000 23.6573 0.0000 -3.8086
# 5 -8.4543 7.6337 7.8741 0.0000 40.2444 0.0000
# 6 0.0000 0.0000 0.0000 -3.8086 0.0000 24.3221
#
#
#
# Elastic Compliance Matrix: (Units=1/GPa)
#
#
# Indices 1 2 3 4 5 6 
#
# 1 0.018011 -0.002402 -0.005748 0.000000 0.005364 0.000000
# 2 -0.002402 0.014544 -0.003132 0.000000 -0.002651 0.000000
# 3 -0.005748 -0.003132 0.010831 0.000000 -0.002733 0.000000
# 4 0.000000 0.000000 0.000000 0.043363 0.000000 0.006790
# 5 0.005364 -0.002651 -0.002733 0.000000 0.027012 0.000000
# 6 0.000000 0.000000 0.000000 0.006790 0.000000 0.042178
#
#
# Mechanical properties :
#
#
# Convention : Reuss Voigt Hill
#
# Bulk Modulus (GPa) = 48.02480 53.56612 50.79546
# Shear Modulus (GPa) = 26.96207 29.91568 28.43888
#
# Velocity S-wave (km/s) = 3.75284 3.95305 3.85425
# Velocity P-wave (km/s) = 6.62302 6.98685 6.80737
#
# Compressibility (1/GPa) = 0.02082257
#
# Stress axis : x y z
#
# Youngs Moduli (GPa) = 55.52097 68.75512 92.32724
#
# Poissons Ratio (x) = 0.16514 0.53073
# Poissons Ratio (y) = 0.13335 0.28915
# Poissons Ratio (z) = 0.31915 0.21533
#
# Static dielectric constant tensor:
#      x y z
#    x 3.601410 0.000000 -0.219170 
#    y 0.000000 3.560660 0.000000 
#    z -0.219170 0.000000 3.707410 
# 
# 
# High freq. dielectric constant tensor:
#      x y z
#    x 1.748600 0.000000 -0.026990 
#    y 0.000000 1.736190 0.000000 
#    z -0.026990 0.000000 1.735580 
# 
# From -- ./inp_files/10422.got.cif
#   From: 2010.06.25/outbox.cif.g09.slc.cpg/sg9_6_cif.got.tgz:10422.got - 2010.06.27 21:40:51.
