data_PCOD8054525
_publ_section_title
;
Structure prediction by ZEFSAII (Michael W. Deem and Ramdas Pophale) SiO2 
 PCOD8054525
Probable space group: C C
;
_chemical_formula_sum "Si O2"
_cell_formula_units_Z 32
_cell_length_a 12.259784
_cell_length_b 15.105019
_cell_length_c 9.808721
_cell_angle_alpha 90.000000
_cell_angle_beta 61.541284
_cell_angle_gamma 90.000000
_cell_volume 1596.925813
_symmetry_space_group_name_H-M "C C"
_symmetry_group_IT_number 9
_symmetry_cell_setting 'monoclinic'
loop_
_space_group_symop_operation_xyz
x,y,z
x,-y,1/2+z
1/2+x,1/2+y,z
1/2+x,1/2-y,1/2+z
loop_
_atom_site_type_symbol
_atom_site_label
_atom_site_fract_x
_atom_site_fract_y
_atom_site_fract_z
Si Si1 0.437160 0.006891 0.630140
Si Si2 0.992150 0.065827 0.325502
Si Si3 0.694961 0.575010 0.670985
Si Si4 0.362424 0.471132 0.179415
Si Si5 0.588426 0.738025 0.383617
Si Si6 0.323098 0.846631 0.839212
Si Si7 0.987695 0.194768 0.733616
Si Si8 0.581018 0.937684 0.297247
O O1 0.312751 0.068099 0.701334
O O2 0.538018 0.051605 0.667342
O O3 0.408103 0.908724 0.697289
O O4 0.492172 0.997051 0.445616
O O5 0.939673 0.021676 0.494506
O O6 0.009165 0.170417 0.337889
O O7 0.898281 0.054233 0.254450
O O8 0.123269 0.018537 0.212824
O O9 0.744679 0.593792 0.489575
O O10 0.598254 0.654914 0.763660
O O11 0.395134 0.383920 0.246778
O O12 0.218410 0.475430 0.230744
O O13 0.731198 0.706639 0.293592
O O14 0.543767 0.739452 0.565641
O O15 0.574452 0.834518 0.331185
O O16 0.411904 0.772016 0.857902
#
# Coordination Sequence:
#
# PCOD8054525 Si02
#       8
#     4   4   4   4   4   4   4   4
#     4  12  24  39  62  91 131 165 215 264 327 384
#     4  10  21  40  66  94 123 167 219 265 314 387
#     4  10  22  39  64  96 125 166 211 267 323 376
#     4  10  21  39  62  92 128 165 213 261 323 376
#     4  10  20  36  64  93 121 165 219 259 315 379
#     4  11  19  39  65  93 125 165 217 259 313 392
#     4   9  19  36  65  92 120 164 217 262 308 385
#     4  12  24  40  62  93 127 173 211 269 323 379
#
# _framework density 20.038499999999999
#
# number of rings (size 3 to 8) (size 9 to 14) (size 15 to 20)
#    0.000    1.500    5.000    1.500    0.000    0.000 
#    0.000    3.750    2.750    0.000    0.000    0.000 
#    0.000    0.000    0.000    0.000    0.000    0.000 
#
# Total GULP energy -198365.177472 kJ/mol
# GULP energy per Si atom -12397.823592 kJ/mol
# Density = 1.999289 g / cm^3
# Si number density = 20.038500 Si / 1000 Ang^3
#
#
#
# Elastic Constant Matrix: (Units=GPa)
#
#
# Indices 1 2 3 4 5 6 
#
# 1 155.1022 52.1358 27.4532 0.0000 0.7599 0.0000
# 2 52.1358 86.7811 30.2686 0.0000 1.0184 0.0000
# 3 27.4532 30.2686 59.7220 0.0000 -1.9450 0.0000
# 4 0.0000 0.0000 0.0000 19.7711 0.0000 -6.9414
# 5 0.7599 1.0184 -1.9450 0.0000 30.2393 0.0000
# 6 0.0000 0.0000 0.0000 -6.9414 0.0000 36.5104
#
#
#
# Elastic Compliance Matrix: (Units=1/GPa)
#
#
# Indices 1 2 3 4 5 6 
#
# 1 0.008195 -0.004380 -0.001552 0.000000 -0.000158 0.000000
# 2 -0.004380 0.016365 -0.006308 0.000000 -0.000847 0.000000
# 3 -0.001552 -0.006308 0.020707 0.000000 0.001583 0.000000
# 4 0.000000 0.000000 0.000000 0.054196 0.000000 0.010304
# 5 -0.000158 -0.000847 0.001583 0.000000 0.033204 0.000000
# 6 0.000000 0.000000 0.000000 0.010304 0.000000 0.029348
#
#
# Mechanical properties :
#
#
# Convention : Reuss Voigt Hill
#
# Bulk Modulus (GPa) = 48.11123 57.92450 53.01787
# Shear Modulus (GPa) = 25.84974 30.08736 27.96855
#
# Velocity S-wave (km/s) = 3.59556 3.87909 3.74001
# Velocity P-wave (km/s) = 6.42642 7.00232 6.72054
#
# Compressibility (1/GPa) = 0.02078517
#
# Stress axis : x y z
#
# Youngs Moduli (GPa) = 122.02187 61.10625 48.29377
#
# Poissons Ratio (x) = 0.26766 0.07497
# Poissons Ratio (y) = 0.53448 0.30465
# Poissons Ratio (z) = 0.18943 0.38547
#
# Static dielectric constant tensor:
#      x y z
#    x 3.823300 0.000000 -0.183240 
#    y 0.000000 3.622790 0.000000 
#    z -0.183240 0.000000 3.521490 
# 
# 
# High freq. dielectric constant tensor:
#      x y z
#    x 1.786450 0.000000 -0.020130 
#    y 0.000000 1.775310 0.000000 
#    z -0.020130 0.000000 1.765840 
# 
# From -- ./inp_files/16689.got.cif
#   From: 2010.06.25/outbox.cif.g09.slc.cpg/sg9_9_cif.got.tgz:16689.got - 2010.06.27 21:40:51.
