data_PCOD8054994
_publ_section_title
;
Structure prediction by ZEFSAII (Michael W. Deem and Ramdas Pophale) SiO2 
 PCOD8054994
Probable space group: C C
;
_chemical_formula_sum "Si O2"
_cell_formula_units_Z 32
_cell_length_a 19.525173
_cell_length_b 12.887223
_cell_length_c 10.255040
_cell_angle_alpha 90.000000
_cell_angle_beta 34.004224
_cell_angle_gamma 90.000000
_cell_volume 1443.114226
_symmetry_space_group_name_H-M "C C"
_symmetry_group_IT_number 9
_symmetry_cell_setting 'monoclinic'
loop_
_space_group_symop_operation_xyz
x,y,z
x,-y,1/2+z
1/2+x,1/2+y,z
1/2+x,1/2-y,1/2+z
loop_
_atom_site_type_symbol
_atom_site_label
_atom_site_fract_x
_atom_site_fract_y
_atom_site_fract_z
Si Si1 0.189330 0.194616 0.868820
Si Si2 0.702435 0.097760 0.050563
Si Si3 0.398114 0.287967 0.393718
Si Si4 0.321826 0.929806 0.342037
Si Si5 0.351058 0.901912 0.585954
Si Si6 0.656276 0.227201 0.886037
Si Si7 0.627190 0.139249 0.658009
Si Si8 0.500400 0.752754 0.988163
O O1 0.301787 0.195419 0.585621
O O2 0.195375 0.102427 0.967424
O O3 0.061077 0.175875 0.997514
O O4 0.189937 0.309598 0.933033
O O5 0.832232 0.119826 0.917844
O O6 0.704397 0.131214 0.896276
O O7 0.600230 0.164752 0.282942
O O8 0.669400 0.978099 0.107453
O O9 0.455194 0.322812 0.443102
O O10 0.510521 0.244415 0.131537
O O11 0.314816 0.960391 0.506086
O O12 0.393928 0.820849 0.219346
O O13 0.375367 0.022520 0.170614
O O14 0.239749 0.825206 0.796045
O O15 0.481661 0.846512 0.365131
O O16 0.677221 0.202259 0.702705
#
# Coordination Sequence:
#
# PCOD8054994 Si02
#       8
#     4   4   4   4   4   4   4   4
#     4  10  21  41  67  99 133 169 225 280 340 392
#     4  10  22  39  67 104 126 173 223 276 336 405
#     4   9  21  41  64  94 140 171 214 270 342 403
#     4  11  23  42  65 102 131 178 226 276 337 406
#     4  12  26  42  71 101 138 181 233 281 340 408
#     4  11  25  45  65  98 140 182 218 280 346 402
#     4  12  24  40  74  99 133 169 231 285 331 406
#     4   9  18  38  67  95 131 169 214 276 334 394
#
# _framework density 22.174265999999999
#
# number of rings (size 3 to 8) (size 9 to 14) (size 15 to 20)
#    0.000    1.500    3.750    0.750    5.250    4.000 
#    0.000    5.000    2.750    0.000    0.000    0.000 
#    0.000    0.000    0.000    0.000    0.000    0.000 
#
# Total GULP energy -198250.714632 kJ/mol
# GULP energy per Si atom -12390.669664 kJ/mol
# Density = 2.212380 g / cm^3
# Si number density = 22.174266 Si / 1000 Ang^3
#
#
#
# Elastic Constant Matrix: (Units=GPa)
#
#
# Indices 1 2 3 4 5 6 
#
# 1 128.7241 16.7077 24.4664 0.0000 -9.3234 0.0000
# 2 16.7077 41.5118 27.8775 0.0000 -12.7718 0.0000
# 3 24.4664 27.8775 76.9239 0.0000 -5.4858 0.0000
# 4 0.0000 0.0000 0.0000 17.8553 0.0000 2.3182
# 5 -9.3234 -12.7718 -5.4858 0.0000 34.5516 0.0000
# 6 0.0000 0.0000 0.0000 2.3182 0.0000 34.1391
#
#
#
# Elastic Compliance Matrix: (Units=1/GPa)
#
#
# Indices 1 2 3 4 5 6 
#
# 1 0.008460 -0.001646 -0.001998 0.000000 0.001357 0.000000
# 2 -0.001646 0.036029 -0.011748 0.000000 0.011008 0.000000
# 3 -0.001998 -0.011748 0.017746 0.000000 -0.002064 0.000000
# 4 0.000000 0.000000 0.000000 0.056504 0.000000 -0.003837
# 5 0.001357 0.011008 -0.002064 0.000000 0.033050 0.000000
# 6 0.000000 0.000000 0.000000 -0.003837 0.000000 0.029552
#
#
# Mechanical properties :
#
#
# Convention : Reuss Voigt Hill
#
# Bulk Modulus (GPa) = 31.79584 42.80702 37.30143
# Shear Modulus (GPa) = 22.46100 29.18307 25.82204
#
# Velocity S-wave (km/s) = 3.18611 3.63172 3.41619
# Velocity P-wave (km/s) = 5.28254 6.07721 5.69376
#
# Compressibility (1/GPa) = 0.03145065
#
# Stress axis : x y z
#
# Youngs Moduli (GPa) = 118.20094 27.75574 56.35186
#
# Poissons Ratio (x) = 0.04569 0.11256
# Poissons Ratio (y) = 0.19456 0.66204
# Poissons Ratio (z) = 0.23611 0.32608
#
# Static dielectric constant tensor:
#      x y z
#    x 4.664030 0.000000 -0.116960 
#    y 0.000000 3.512620 0.000000 
#    z -0.116960 0.000000 3.984140 
# 
# 
# High freq. dielectric constant tensor:
#      x y z
#    x 1.906840 0.000000 -0.002920 
#    y 0.000000 1.829070 0.000000 
#    z -0.002920 0.000000 1.862810 
# 
# From -- ./inp_files/20269.got.cif
#   From: 2010.06.25/outbox.cif.g09.slc.cpg/sg9_11_cif.got.tgz:20269.got - 2010.06.27 21:40:51.
