data_PCOD8054909
_publ_section_title
;
Structure prediction by ZEFSAII (Michael W. Deem and Ramdas Pophale) SiO2 
 PCOD8054909
Probable space group: C C
;
_chemical_formula_sum "Si O2"
_cell_formula_units_Z 28
_cell_length_a 5.048537
_cell_length_b 29.711646
_cell_length_c 9.294752
_cell_angle_alpha 90.000000
_cell_angle_beta 84.859434
_cell_angle_gamma 90.000000
_cell_volume 1388.608292
_symmetry_space_group_name_H-M "C C"
_symmetry_group_IT_number 9
_symmetry_cell_setting 'monoclinic'
loop_
_space_group_symop_operation_xyz
x,y,z
x,-y,1/2+z
1/2+x,1/2+y,z
1/2+x,1/2-y,1/2+z
loop_
_atom_site_type_symbol
_atom_site_label
_atom_site_fract_x
_atom_site_fract_y
_atom_site_fract_z
Si Si1 0.081130 0.047124 0.578290
Si Si2 0.247461 0.622723 0.169366
Si Si3 0.280806 0.274944 0.670530
Si Si4 0.251406 0.776962 0.870306
Si Si5 0.210147 0.879452 0.851452
Si Si6 0.562560 0.970816 0.235417
Si Si7 0.289761 0.464333 0.524158
O O1 0.232090 0.083133 0.473123
O O2 0.265539 0.043525 0.710298
O O3 0.789151 0.062039 0.651105
O O4 0.046929 0.998047 0.499472
O O5 0.303184 0.673496 0.116073
O O6 0.418744 0.612597 0.302038
O O7 0.937824 0.614620 0.220127
O O8 0.351238 0.588712 0.039545
O O9 0.255299 0.247507 0.523976
O O10 0.523939 0.261988 0.766285
O O11 0.023712 0.265854 0.778051
O O12 0.228248 0.829313 0.914461
O O13 0.588620 0.971353 0.403673
O O14 0.622314 0.021210 0.174410
#
# Coordination Sequence:
#
# PCOD8054909 Si02
#       7
#     4   4   4   4   4   4   4
#     4  10  23  36  57  82 115 147 204 232 288 341
#     4  10  22  36  64  83 122 154 205 235 307 353
#     4  10  21  41  62  97 118 168 197 259 306 381
#     4  10  21  40  66  91 127 157 210 245 320 361
#     4  10  21  40  60  87 115 166 196 240 292 380
#     4  10  24  35  58  79 116 150 198 240 292 343
#     4  10  24  38  57  83 117 154 196 245 291 343
#
# _framework density 20.164072000000001
#
# number of rings (size 3 to 8) (size 9 to 14) (size 15 to 20)
#    0.857    1.143    0.000    2.571    6.000    0.000 
#    5.143    0.000    0.000    0.000    0.000    0.000 
#    0.000    0.000    0.000    0.000    0.000    0.000 
#
# Total GULP energy -173443.071777 kJ/mol
# GULP energy per Si atom -12388.790841 kJ/mol
# Density = 2.011818 g / cm^3
# Si number density = 20.164072 Si / 1000 Ang^3
#
#
#
# Elastic Constant Matrix: (Units=GPa)
#
#
# Indices 1 2 3 4 5 6 
#
# 1 116.8649 38.8152 29.6673 0.0000 19.4116 0.0000
# 2 38.8152 109.9873 67.9649 0.0000 18.2099 0.0000
# 3 29.6673 67.9649 98.6940 0.0000 27.0242 0.0000
# 4 0.0000 0.0000 0.0000 33.8981 0.0000 -0.4667
# 5 19.4116 18.2099 27.0242 0.0000 28.5969 0.0000
# 6 0.0000 0.0000 0.0000 -0.4667 0.0000 18.4393
#
#
#
# Elastic Compliance Matrix: (Units=1/GPa)
#
#
# Indices 1 2 3 4 5 6 
#
# 1 0.010367 -0.003052 0.000513 0.000000 -0.005578 0.000000
# 2 -0.003052 0.016727 -0.011133 0.000000 0.001941 0.000000
# 3 0.000513 -0.011133 0.021314 0.000000 -0.013401 0.000000
# 4 0.000000 0.000000 0.000000 0.029510 0.000000 0.000747
# 5 -0.005578 0.001941 -0.013401 0.000000 0.050183 0.000000
# 6 0.000000 0.000000 0.000000 0.000747 0.000000 0.054251
#
#
# Mechanical properties :
#
#
# Convention : Reuss Voigt Hill
#
# Bulk Modulus (GPa) = 47.47424 66.49344 56.98384
# Shear Modulus (GPa) = 23.07136 28.79344 25.93240
#
# Velocity S-wave (km/s) = 3.38624 3.78293 3.59007
# Velocity P-wave (km/s) = 6.23570 7.22001 6.74583
#
# Compressibility (1/GPa) = 0.02106406
#
# Stress axis : x y z
#
# Youngs Moduli (GPa) = 96.46056 59.78306 46.91684
#
# Poissons Ratio (x) = 0.18245 -0.02406
# Poissons Ratio (y) = 0.29439 0.52233
# Poissons Ratio (z) = -0.04947 0.66557
#
# Static dielectric constant tensor:
#      x y z
#    x 3.760960 0.000000 0.121420 
#    y 0.000000 3.704330 0.000000 
#    z 0.121420 0.000000 3.371440 
# 
# 
# High freq. dielectric constant tensor:
#      x y z
#    x 1.804710 0.000000 0.009220 
#    y 0.000000 1.771710 0.000000 
#    z 0.009220 0.000000 1.772960 
# 
# From -- ./inp_files/4128.got.cif
#   From: 2010.06.25/outbox.cif.g09.slc.cpg/sg9_3_cif.got.tgz:4128.got - 2010.06.27 21:40:51.
