data_PCOD8054956
_publ_section_title
;
Structure prediction by ZEFSAII (Michael W. Deem and Ramdas Pophale) SiO2 
 PCOD8054956
Probable space group: C C
;
_chemical_formula_sum "Si O2"
_cell_formula_units_Z 32
_cell_length_a 23.115351
_cell_length_b 7.796954
_cell_length_c 9.281508
_cell_angle_alpha 90.000000
_cell_angle_beta 56.452623
_cell_angle_gamma 90.000000
_cell_volume 1394.160242
_symmetry_space_group_name_H-M "C C"
_symmetry_group_IT_number 9
_symmetry_cell_setting 'monoclinic'
loop_
_space_group_symop_operation_xyz
x,y,z
x,-y,1/2+z
1/2+x,1/2+y,z
1/2+x,1/2-y,1/2+z
loop_
_atom_site_type_symbol
_atom_site_label
_atom_site_fract_x
_atom_site_fract_y
_atom_site_fract_z
Si Si1 0.278680 0.443456 0.082210
Si Si2 0.563712 0.517739 0.499249
Si Si3 0.471990 0.484921 0.374761
Si Si4 0.124225 0.360836 0.324335
Si Si5 0.340726 0.665491 0.206834
Si Si6 0.565045 0.853370 0.099307
Si Si7 0.910562 0.462835 0.256286
Si Si8 0.385946 0.205105 0.058688
O O1 0.201833 0.378999 0.154916
O O2 0.282926 0.628038 0.161236
O O3 0.314814 0.311903 0.147081
O O4 0.323006 0.449586 0.873388
O O5 0.543077 0.470149 0.365826
O O6 0.494119 0.576946 0.684317
O O7 0.616991 0.677635 0.417606
O O8 0.592212 0.341357 0.531222
O O9 0.413654 0.377544 0.532916
O O10 0.448612 0.683836 0.401754
O O11 0.070951 0.381023 0.263943
O O12 0.115087 0.511913 0.451939
O O13 0.351459 0.857581 0.247653
O O14 0.488584 0.889852 0.139727
O O15 0.904804 0.652836 0.196329
O O16 0.885034 0.464950 0.457503
#
# Coordination Sequence:
#
# PCOD8054956 Si02
#       8
#     4   4   4   4   4   4   4   4
#     4  10  23  47  62  97 131 186 233 269 340 418
#     4  12  23  43  66 103 143 182 227 286 354 420
#     4  11  20  41  65  99 130 174 223 288 360 401
#     4  12  28  46  70 100 147 195 232 282 337 435
#     4  10  21  40  72  90 133 170 226 290 340 409
#     4  12  25  44  70 108 138 182 234 288 360 414
#     4  11  20  38  62 102 126 162 217 294 350 396
#     4  10  22  39  63  95 134 169 226 287 341 409
#
# _framework density 22.952887
#
# number of rings (size 3 to 8) (size 9 to 14) (size 15 to 20)
#    0.000    1.000    3.750    3.750    1.750    4.000 
#    6.750    0.000    0.000    0.000    0.000    0.000 
#    0.000    0.000    0.000    0.000    0.000    0.000 
#
# Total GULP energy -198213.238488 kJ/mol
# GULP energy per Si atom -12388.327406 kJ/mol
# Density = 2.290065 g / cm^3
# Si number density = 22.952887 Si / 1000 Ang^3
#
#
#
# Elastic Constant Matrix: (Units=GPa)
#
#
# Indices 1 2 3 4 5 6 
#
# 1 67.9610 18.0027 2.9968 0.0000 -0.7187 0.0000
# 2 18.0027 69.5305 25.4237 0.0000 0.4038 0.0000
# 3 2.9968 25.4237 47.6419 0.0000 8.4692 0.0000
# 4 0.0000 0.0000 0.0000 38.3450 0.0000 6.7800
# 5 -0.7187 0.4038 8.4692 0.0000 30.6264 0.0000
# 6 0.0000 0.0000 0.0000 6.7800 0.0000 28.8691
#
#
#
# Elastic Compliance Matrix: (Units=1/GPa)
#
#
# Indices 1 2 3 4 5 6 
#
# 1 0.015882 -0.004653 0.001480 0.000000 0.000025 0.000000
# 2 -0.004653 0.019420 -0.010523 0.000000 0.002545 0.000000
# 3 0.001480 -0.010523 0.027851 0.000000 -0.007528 0.000000
# 4 0.000000 0.000000 0.000000 0.027209 0.000000 -0.006390
# 5 0.000025 0.002545 -0.007528 0.000000 0.034700 0.000000
# 6 0.000000 0.000000 0.000000 -0.006390 0.000000 0.036140
#
#
# Mechanical properties :
#
#
# Convention : Reuss Voigt Hill
#
# Bulk Modulus (GPa) = 27.96459 30.88663 29.42561
# Shear Modulus (GPa) = 24.93586 28.81545 26.87565
#
# Velocity S-wave (km/s) = 3.29962 3.54703 3.42556
# Velocity P-wave (km/s) = 5.16978 5.50100 5.33796
#
# Compressibility (1/GPa) = 0.03575950
#
# Stress axis : x y z
#
# Youngs Moduli (GPa) = 62.96440 51.49344 35.90584
#
# Poissons Ratio (x) = 0.23962 -0.05313
# Poissons Ratio (y) = 0.29300 0.37784
# Poissons Ratio (z) = -0.09317 0.54186
#
# Static dielectric constant tensor:
#      x y z
#    x 3.981090 0.000000 0.298610 
#    y 0.000000 4.108480 0.000000 
#    z 0.298610 0.000000 4.215830 
# 
# 
# High freq. dielectric constant tensor:
#      x y z
#    x 1.882930 0.000000 0.024090 
#    y 0.000000 1.894050 0.000000 
#    z 0.024090 0.000000 1.914910 
# 
# From -- ./inp_files/12050.got.cif
#   From: 2010.06.25/outbox.cif.g09.slc.cpg/sg9_7_cif.got.tgz:12050.got - 2010.06.27 21:40:51.
