data_PCOD8054662
_publ_section_title
;
Structure prediction by ZEFSAII (Michael W. Deem and Ramdas Pophale) SiO2 
 PCOD8054662
Probable space group: C C
;
_chemical_formula_sum "Si O2"
_cell_formula_units_Z 32
_cell_length_a 8.975713
_cell_length_b 25.786979
_cell_length_c 9.433762
_cell_angle_alpha 90.000000
_cell_angle_beta 132.916012
_cell_angle_gamma 90.000000
_cell_volume 1599.096187
_symmetry_space_group_name_H-M "C C"
_symmetry_group_IT_number 9
_symmetry_cell_setting 'monoclinic'
loop_
_space_group_symop_operation_xyz
x,y,z
x,-y,1/2+z
1/2+x,1/2+y,z
1/2+x,1/2-y,1/2+z
loop_
_atom_site_type_symbol
_atom_site_label
_atom_site_fract_x
_atom_site_fract_y
_atom_site_fract_z
Si Si1 0.325610 0.619167 0.824090
Si Si2 0.627972 0.448320 0.998557
Si Si3 0.717583 0.656542 0.196330
Si Si4 0.887324 0.119437 0.543216
Si Si5 0.602760 0.547683 0.153116
Si Si6 0.372316 0.150795 0.593137
Si Si7 0.052990 0.693047 0.216535
Si Si8 0.750617 0.301711 0.284794
O O1 0.328129 0.600941 0.662010
O O2 0.109585 0.645321 0.713406
O O3 0.494109 0.663316 0.978848
O O4 0.380566 0.567033 0.949824
O O5 0.438890 0.427224 0.969377
O O6 0.572945 0.463592 0.801245
O O7 0.696651 0.499372 0.128559
O O8 0.802627 0.404698 0.111460
O O9 0.765508 0.594086 0.226455
O O10 0.731792 0.670074 0.371768
O O11 0.877794 0.693549 0.222373
O O12 0.703676 0.147027 0.346527
O O13 0.072090 0.157975 0.689506
O O14 0.330895 0.197409 0.676031
O O15 0.178631 0.745996 0.292649
O O16 0.946667 0.680615 0.999907
#
# Coordination Sequence:
#
# PCOD8054662 Si02
#       8
#     4   4   4   4   4   4   4   4
#     4  10  20  40  66  91 126 167 210 264 324 380
#     4  10  21  40  64  94 137 166 217 268 317 383
#     4   9  21  40  66  90 129 164 216 262 321 386
#     4  11  22  39  68  91 126 174 211 272 319 381
#     4   9  20  38  62  94 131 168 210 267 313 389
#     4  10  22  41  64  93 127 173 205 276 325 373
#     4  12  22  41  64  93 123 172 216 263 324 382
#     4  11  24  39  64  92 125 162 225 264 317 392
#
# _framework density 20.011303000000002
#
# number of rings (size 3 to 8) (size 9 to 14) (size 15 to 20)
#    0.750    1.000    3.750    0.750    1.750    0.000 
#    2.250    3.750    0.000    0.000    0.000    0.000 
#    0.000    0.000    0.000    0.000    0.000    0.000 
#
# Total GULP energy -198215.755862 kJ/mol
# GULP energy per Si atom -12388.484741 kJ/mol
# Density = 1.996576 g / cm^3
# Si number density = 20.011303 Si / 1000 Ang^3
#
#
#
# Elastic Constant Matrix: (Units=GPa)
#
#
# Indices 1 2 3 4 5 6 
#
# 1 121.9263 31.9837 53.9355 0.0000 -19.1120 0.0000
# 2 31.9837 78.6784 35.7093 0.0000 -22.8444 0.0000
# 3 53.9355 35.7093 142.5259 0.0000 -18.1693 0.0000
# 4 0.0000 0.0000 0.0000 22.6685 0.0000 -1.3349
# 5 -19.1120 -22.8444 -18.1693 0.0000 43.2666 0.0000
# 6 0.0000 0.0000 0.0000 -1.3349 0.0000 30.5846
#
#
#
# Elastic Compliance Matrix: (Units=1/GPa)
#
#
# Indices 1 2 3 4 5 6 
#
# 1 0.010514 -0.002221 -0.003148 0.000000 0.002150 0.000000
# 2 -0.002221 0.016713 -0.002480 0.000000 0.006802 0.000000
# 3 -0.003148 -0.002480 0.008965 0.000000 0.001065 0.000000
# 4 0.000000 0.000000 0.000000 0.044228 0.000000 0.001930
# 5 0.002150 0.006802 0.001065 0.000000 0.028100 0.000000
# 6 0.000000 0.000000 0.000000 0.001930 0.000000 0.032780
#
#
# Mechanical properties :
#
#
# Convention : Reuss Voigt Hill
#
# Bulk Modulus (GPa) = 48.79555 65.15419 56.97487
# Shear Modulus (GPa) = 30.51943 34.07074 32.29508
#
# Velocity S-wave (km/s) = 3.90950 4.13070 4.02162
# Velocity P-wave (km/s) = 6.69447 7.44175 7.07798
#
# Compressibility (1/GPa) = 0.02049367
#
# Stress axis : x y z
#
# Youngs Moduli (GPa) = 95.11221 59.83251 111.54894
#
# Poissons Ratio (x) = 0.13289 0.35118
# Poissons Ratio (y) = 0.21125 0.27662
# Poissons Ratio (z) = 0.29944 0.14837
#
# Static dielectric constant tensor:
#      x y z
#    x 3.625270 0.000000 -0.207650 
#    y 0.000000 3.443370 0.000000 
#    z -0.207650 0.000000 3.806720 
# 
# 
# High freq. dielectric constant tensor:
#      x y z
#    x 1.773910 0.000000 -0.016520 
#    y 0.000000 1.757980 0.000000 
#    z -0.016520 0.000000 1.796130 
# 
# From -- ./inp_files/6393.got.cif
#   From: 2010.06.25/outbox.cif.g09.slc.cpg/sg9_4_cif.got.tgz:6393.got - 2010.06.27 21:40:51.
