data_PCOD8054287
_publ_section_title
;
Structure prediction by ZEFSAII (Michael W. Deem and Ramdas Pophale) SiO2 
 PCOD8054287
Probable space group: C C
;
_chemical_formula_sum "Si O2"
_cell_formula_units_Z 32
_cell_length_a 12.002097
_cell_length_b 14.844131
_cell_length_c 16.650470
_cell_angle_alpha 90.000000
_cell_angle_beta 149.188953
_cell_angle_gamma 90.000000
_cell_volume 1519.445622
_symmetry_space_group_name_H-M "C C"
_symmetry_group_IT_number 9
_symmetry_cell_setting 'monoclinic'
loop_
_space_group_symop_operation_xyz
x,y,z
x,-y,1/2+z
1/2+x,1/2+y,z
1/2+x,1/2-y,1/2+z
loop_
_atom_site_type_symbol
_atom_site_label
_atom_site_fract_x
_atom_site_fract_y
_atom_site_fract_z
Si Si1 0.834830 0.323220 0.595520
Si Si2 0.891024 0.946107 0.708936
Si Si3 0.431017 0.655178 0.758815
Si Si4 0.329485 0.910468 0.064489
Si Si5 0.228667 0.296189 0.301355
Si Si6 0.118539 0.984717 0.558451
Si Si7 0.008616 0.872058 0.622079
Si Si8 0.655790 0.057770 0.216539
O O1 0.684258 0.316217 0.422926
O O2 0.826333 0.225989 0.632494
O O3 0.706310 0.393882 0.571347
O O4 0.079012 0.354173 0.720364
O O5 0.850118 0.903390 0.595949
O O6 0.694794 0.917934 0.646977
O O7 0.908563 0.054054 0.711936
O O8 0.108078 0.899205 0.878310
O O9 0.315850 0.658277 0.774478
O O10 0.474802 0.821788 0.157353
O O11 0.455748 0.990171 0.098519
O O12 0.272705 0.934921 0.122959
O O13 0.371276 0.322415 0.466893
O O14 0.210495 0.188487 0.278623
O O15 0.120784 0.963000 0.654785
O O16 0.868845 0.008374 0.382471
#
# Coordination Sequence:
#
# PCOD8054287 Si02
#       8
#     4   4   4   4   4   4   4   4
#     4  11  22  38  68  97 126 164 213 260 326 364
#     4  11  23  40  62  91 128 168 215 250 321 383
#     4  12  21  42  64  99 126 163 214 268 313 379
#     4  10  18  39  68  83 119 171 205 260 317 364
#     4  12  21  42  64  91 130 163 214 266 317 368
#     4  10  19  39  64  93 121 159 216 253 314 371
#     4  12  24  39  60  96 127 162 209 266 311 384
#     4  10  18  41  66  84 127 170 200 265 315 375
#
# _framework density 21.060313000000001
#
# number of rings (size 3 to 8) (size 9 to 14) (size 15 to 20)
#    0.000    1.000    8.750    0.750    0.000    1.000 
#    2.250    5.000    0.000    0.000    0.000    0.000 
#    0.000    0.000    0.000    0.000    0.000    0.000 
#
# Total GULP energy -198222.092942 kJ/mol
# GULP energy per Si atom -12388.880809 kJ/mol
# Density = 2.101238 g / cm^3
# Si number density = 21.060313 Si / 1000 Ang^3
#
#
#
# Elastic Constant Matrix: (Units=GPa)
#
#
# Indices 1 2 3 4 5 6 
#
# 1 154.3170 39.9289 40.9122 0.0007 -0.7186 0.0028
# 2 39.9289 66.6585 27.9694 -0.0365 -10.8785 -0.0056
# 3 40.9122 27.9694 55.6075 -0.0579 5.4531 -0.0102
# 4 0.0007 -0.0365 -0.0579 30.1943 -0.0213 -3.6073
# 5 -0.7186 -10.8785 5.4531 -0.0213 31.2430 -0.0006
# 6 0.0028 -0.0056 -0.0102 -3.6073 -0.0006 35.9210
#
#
#
# Elastic Compliance Matrix: (Units=1/GPa)
#
#
# Indices 1 2 3 4 5 6 
#
# 1 0.008540 -0.003165 -0.004683 -0.000014 -0.000088 -0.000004
# 2 -0.003165 0.022656 -0.010004 0.000015 0.009562 0.000003
# 3 -0.004683 -0.010004 0.027279 0.000036 -0.008352 0.000010
# 4 -0.000014 0.000015 0.000036 0.033521 0.000022 0.003366
# 5 -0.000088 0.009562 -0.008352 0.000022 0.036792 0.000002
# 6 -0.000004 0.000003 0.000010 0.003366 0.000002 0.028177
#
#
# Mechanical properties :
#
#
# Convention : Reuss Voigt Hill
#
# Bulk Modulus (GPa) = 43.91514 54.91156 49.41335
# Shear Modulus (GPa) = 24.96739 30.65651 27.81195
#
# Velocity S-wave (km/s) = 3.44687 3.81944 3.63793
# Velocity P-wave (km/s) = 6.06124 6.75136 6.41559
#
# Compressibility (1/GPa) = 0.02277119
#
# Stress axis : x y z
#
# Youngs Moduli (GPa) = 117.09343 44.13804 36.65763
#
# Poissons Ratio (x) = 0.13971 0.17165
# Poissons Ratio (y) = 0.37064 0.36674
# Poissons Ratio (z) = 0.54830 0.44158
#
# Static dielectric constant tensor:
#      x y z
#    x 4.227570 -0.000010 0.213370 
#    y -0.000010 3.802800 0.000000 
#    z 0.213370 0.000000 3.739860 
# 
# 
# High freq. dielectric constant tensor:
#      x y z
#    x 1.830280 0.000000 0.014740 
#    y 0.000000 1.813130 0.000000 
#    z 0.014740 0.000000 1.805080 
# 
# From -- ./inp_files/7487.got.cif
#   From: 2010.06.25/outbox.cif.g09.slc.cpg/sg9_4_cif.got.tgz:7487.got - 2010.06.27 21:40:51.
