data_PCOD8054266
_publ_section_title
;
Structure prediction by ZEFSAII (Michael W. Deem and Ramdas Pophale) SiO2 
 PCOD8054266
Probable space group: C C
;
_chemical_formula_sum "Si O2"
_cell_formula_units_Z 28
_cell_length_a 10.213394
_cell_length_b 14.620639
_cell_length_c 9.679258
_cell_angle_alpha 90.000000
_cell_angle_beta 63.314591
_cell_angle_gamma 90.000000
_cell_volume 1291.415970
_symmetry_space_group_name_H-M "C C"
_symmetry_group_IT_number 9
_symmetry_cell_setting 'monoclinic'
loop_
_space_group_symop_operation_xyz
x,y,z
x,-y,1/2+z
1/2+x,1/2+y,z
1/2+x,1/2-y,1/2+z
loop_
_atom_site_type_symbol
_atom_site_label
_atom_site_fract_x
_atom_site_fract_y
_atom_site_fract_z
Si Si1 0.050140 0.337875 0.232160
Si Si2 0.315235 0.235241 0.022269
Si Si3 0.307178 0.850862 0.815778
Si Si4 0.489135 0.586386 0.441949
Si Si5 0.362766 0.489264 0.740153
Si Si6 0.586212 0.045665 0.221544
Si Si7 0.737039 0.842357 0.413901
O O1 0.064478 0.442285 0.171202
O O2 0.118623 0.327398 0.350786
O O3 0.881054 0.305421 0.345336
O O4 0.143054 0.268169 0.088590
O O5 0.403293 0.324210 0.031867
O O6 0.334620 0.163781 0.138911
O O7 0.157854 0.906965 0.898610
O O8 0.427289 0.914818 0.833324
O O9 0.305249 0.757936 0.907794
O O10 0.429184 0.497941 0.554436
O O11 0.457760 0.576754 0.292356
O O12 0.192624 0.456563 0.805633
O O13 0.366351 0.589224 0.808165
O O14 0.656146 0.117102 0.083555
#
# Coordination Sequence:
#
# PCOD8054266 Si02
#       7
#     4   4   4   4   4   4   4
#     4  10  20  33  66  93 120 169 223 265 312 394
#     4  11  18  38  65  92 120 176 220 258 315 413
#     4  11  22  36  69  95 127 166 230 264 320 394
#     4  12  22  41  63 101 123 175 213 280 323 398
#     4  11  23  40  66  89 131 167 224 258 341 387
#     4  11  21  39  64  96 123 172 215 273 317 391
#     4  10  18  37  65  86 118 173 217 248 316 405
#
# _framework density 21.681626999999999
#
# number of rings (size 3 to 8) (size 9 to 14) (size 15 to 20)
#    0.000    1.143   10.000    0.000    0.000    1.143 
#    0.000    1.429    6.286    0.000    0.000    0.000 
#    0.000    0.000    0.000    0.000    0.000    0.000 
#
# Total GULP energy -173468.829399 kJ/mol
# GULP energy per Si atom -12390.630671 kJ/mol
# Density = 2.163228 g / cm^3
# Si number density = 21.681627 Si / 1000 Ang^3
#
#
#
# Elastic Constant Matrix: (Units=GPa)
#
#
# Indices 1 2 3 4 5 6 
#
# 1 77.3282 48.7812 33.9026 0.0000 -18.3273 0.0000
# 2 48.7812 86.5354 22.0402 0.0000 -17.3153 0.0000
# 3 33.9026 22.0402 85.0633 0.0000 -25.6342 0.0000
# 4 0.0000 0.0000 0.0000 41.6192 0.0000 -11.1144
# 5 -18.3273 -17.3153 -25.6342 0.0000 28.9775 0.0000
# 6 0.0000 0.0000 0.0000 -11.1144 0.0000 26.0397
#
#
#
# Elastic Compliance Matrix: (Units=1/GPa)
#
#
# Indices 1 2 3 4 5 6 
#
# 1 0.022925 -0.010913 -0.005325 0.000000 0.003268 0.000000
# 2 -0.010913 0.018446 0.001107 0.000000 0.005099 0.000000
# 3 -0.005325 0.001107 0.017420 0.000000 0.012703 0.000000
# 4 0.000000 0.000000 0.000000 0.027118 0.000000 0.011575
# 5 0.003268 0.005099 0.012703 0.000000 0.050861 0.000000
# 6 0.000000 0.000000 0.000000 0.011575 0.000000 0.043343
#
#
# Mechanical properties :
#
#
# Convention : Reuss Voigt Hill
#
# Bulk Modulus (GPa) = 35.05185 50.93055 42.99120
# Shear Modulus (GPa) = 22.73903 28.94080 25.83991
#
# Velocity S-wave (km/s) = 3.24198 3.65747 3.45597
# Velocity P-wave (km/s) = 5.49688 6.43252 5.98301
#
# Compressibility (1/GPa) = 0.02852916
#
# Stress axis : x y z
#
# Youngs Moduli (GPa) = 43.61991 54.21125 57.40670
#
# Poissons Ratio (x) = 0.59162 0.30566
# Poissons Ratio (y) = 0.47603 -0.06353
# Poissons Ratio (z) = 0.23225 -0.06000
#
# Static dielectric constant tensor:
#      x y z
#    x 3.559350 0.000000 -0.371250 
#    y 0.000000 4.125660 0.000000 
#    z -0.371250 0.000000 4.004950 
# 
# 
# High freq. dielectric constant tensor:
#      x y z
#    x 1.806530 0.000000 -0.027210 
#    y 0.000000 1.850560 0.000000 
#    z -0.027210 0.000000 1.847820 
# 
# From -- ./inp_files/16654.got.cif
#   From: 2010.06.25/outbox.cif.g09.slc.cpg/sg9_9_cif.got.tgz:16654.got - 2010.06.27 21:40:51.
