data_PCOD8054500
_publ_section_title
;
Structure prediction by ZEFSAII (Michael W. Deem and Ramdas Pophale) SiO2 
 PCOD8054500
Probable space group: C C
;
_chemical_formula_sum "Si O2"
_cell_formula_units_Z 32
_cell_length_a 22.085557
_cell_length_b 14.654786
_cell_length_c 8.371163
_cell_angle_alpha 90.000000
_cell_angle_beta 33.407092
_cell_angle_gamma 90.000000
_cell_volume 1491.754236
_symmetry_space_group_name_H-M "C C"
_symmetry_group_IT_number 9
_symmetry_cell_setting 'monoclinic'
loop_
_space_group_symop_operation_xyz
x,y,z
x,-y,1/2+z
1/2+x,1/2+y,z
1/2+x,1/2-y,1/2+z
loop_
_atom_site_type_symbol
_atom_site_label
_atom_site_fract_x
_atom_site_fract_y
_atom_site_fract_z
Si Si1 0.670250 0.916920 0.737960
Si Si2 0.476160 0.395727 0.160550
Si Si3 0.792046 0.227906 0.165108
Si Si4 0.820842 0.427452 0.157707
Si Si5 0.756629 0.798856 0.116825
Si Si6 0.375813 0.562286 0.569572
Si Si7 0.729061 0.401092 0.695082
Si Si8 0.571658 0.078548 0.134051
O O1 0.701416 0.821819 0.754500
O O2 0.771915 0.957292 0.412650
O O3 0.572003 0.903989 0.825334
O O4 0.638489 0.986451 0.947033
O O5 0.415601 0.301124 0.340350
O O6 0.405738 0.472947 0.405424
O O7 0.474625 0.408907 0.971331
O O8 0.601042 0.398432 0.936229
O O9 0.775134 0.336152 0.172105
O O10 0.778621 0.205233 0.380661
O O11 0.807432 0.420303 0.374783
O O12 0.753304 0.518054 0.263942
O O13 0.949826 0.433315 0.834610
O O14 0.849699 0.857732 0.000851
O O15 0.760873 0.698904 0.190602
O O16 0.633880 0.838223 0.410863
#
# Coordination Sequence:
#
# PCOD8054500 Si02
#       8
#     4   4   4   4   4   4   4   4
#     4  10  20  35  62  93 116 144 191 245 292 342
#     4  11  20  38  62  88 116 154 191 236 292 345
#     4  10  21  39  61  88 117 148 192 244 291 343
#     4  11  25  42  58  83 120 158 196 237 284 344
#     4  10  21  39  61  88 117 148 192 244 291 343
#     4  10  20  35  62  93 116 144 191 245 292 342
#     4  11  25  42  58  83 120 158 196 237 284 344
#     4  11  20  38  62  88 116 154 191 236 292 345
#
# _framework density 21.451253999999999
#
# number of rings (size 3 to 8) (size 9 to 14) (size 15 to 20)
#    0.000    1.500    0.000    7.500    0.000    3.000 
#    0.000   13.750    0.000    0.000    0.000    1.750 
#    0.000    0.000    0.000    0.000    0.000    0.000 
#
# Total GULP energy -198361.731978 kJ/mol
# GULP energy per Si atom -12397.608249 kJ/mol
# Density = 2.140243 g / cm^3
# Si number density = 21.451254 Si / 1000 Ang^3
#
#
#
# Elastic Constant Matrix: (Units=GPa)
#
#
# Indices 1 2 3 4 5 6 
#
# 1 88.8829 18.1383 10.4432 0.0000 -0.2643 0.0000
# 2 18.1383 99.7519 19.2426 0.0000 -4.0089 0.0000
# 3 10.4432 19.2426 51.5003 0.0000 -2.4476 0.0000
# 4 0.0000 0.0000 0.0000 12.9204 0.0000 8.8509
# 5 -0.2643 -4.0089 -2.4476 0.0000 26.5655 0.0000
# 6 0.0000 0.0000 0.0000 8.8509 0.0000 27.2906
#
#
#
# Elastic Compliance Matrix: (Units=1/GPa)
#
#
# Indices 1 2 3 4 5 6 
#
# 1 0.011826 -0.001830 -0.001730 0.000000 -0.000318 0.000000
# 2 -0.001830 0.011129 -0.003725 0.000000 0.001318 0.000000
# 3 -0.001730 -0.003725 0.021225 0.000000 0.001376 0.000000
# 4 0.000000 0.000000 0.000000 0.099504 0.000000 -0.032271
# 5 -0.000318 0.001318 0.001376 0.000000 0.037965 0.000000
# 6 0.000000 0.000000 0.000000 -0.032271 0.000000 0.047109
#
#
# Mechanical properties :
#
#
# Convention : Reuss Voigt Hill
#
# Bulk Modulus (GPa) = 33.76904 37.30928 35.53916
# Shear Modulus (GPa) = 19.74742 26.17601 22.96171
#
# Velocity S-wave (km/s) = 3.03738 3.49701 3.27527
# Velocity P-wave (km/s) = 5.29880 5.80825 5.55936
#
# Compressibility (1/GPa) = 0.02961293
#
# Stress axis : x y z
#
# Youngs Moduli (GPa) = 84.55660 89.85521 47.11382
#
# Poissons Ratio (x) = 0.16440 0.08149
# Poissons Ratio (y) = 0.15470 0.17548
# Poissons Ratio (z) = 0.14625 0.33468
#
# Static dielectric constant tensor:
#      x y z
#    x 4.015560 0.000000 0.106100 
#    y 0.000000 4.151180 0.000000 
#    z 0.106100 0.000000 3.777490 
# 
# 
# High freq. dielectric constant tensor:
#      x y z
#    x 1.842140 0.000000 0.005220 
#    y 0.000000 1.846890 0.000000 
#    z 0.005220 0.000000 1.835840 
# 
# From -- ./inp_files/12251.got.cif
#   From: 2010.06.25/outbox.cif.g09.slc.cpg/sg9_7_cif.got.tgz:12251.got - 2010.06.27 21:40:51.
