data_PCOD8054626
_publ_section_title
;
Structure prediction by ZEFSAII (Michael W. Deem and Ramdas Pophale) SiO2 
 PCOD8054626
Probable space group: C C
;
_chemical_formula_sum "Si O2"
_cell_formula_units_Z 32
_cell_length_a 20.785722
_cell_length_b 13.992180
_cell_length_c 9.241732
_cell_angle_alpha 90.000000
_cell_angle_beta 142.607612
_cell_angle_gamma 90.000000
_cell_volume 1632.247096
_symmetry_space_group_name_H-M "C C"
_symmetry_group_IT_number 9
_symmetry_cell_setting 'monoclinic'
loop_
_space_group_symop_operation_xyz
x,y,z
x,-y,1/2+z
1/2+x,1/2+y,z
1/2+x,1/2-y,1/2+z
loop_
_atom_site_type_symbol
_atom_site_label
_atom_site_fract_x
_atom_site_fract_y
_atom_site_fract_z
Si Si1 0.063730 0.047099 0.737670
Si Si2 0.978562 0.808655 0.287955
Si Si3 0.983228 0.550467 0.548130
Si Si4 0.150231 0.897791 0.087960
Si Si5 0.574703 0.242847 0.746033
Si Si6 0.389705 0.104000 0.092027
Si Si7 0.342003 0.468899 0.944263
Si Si8 0.712605 0.920747 0.437314
O O1 0.082379 0.063441 0.601722
O O2 0.063085 0.148049 0.823510
O O3 0.948758 0.995433 0.553002
O O4 0.152397 0.978467 0.966553
O O5 0.027991 0.811145 0.537042
O O6 0.955506 0.701326 0.196638
O O7 0.871851 0.874214 0.092783
O O8 0.992742 0.656443 0.639307
O O9 0.935671 0.471327 0.564051
O O10 0.102911 0.520185 0.712873
O O11 0.902214 0.557868 0.271164
O O12 0.096121 0.802374 0.929075
O O13 0.267760 0.873504 0.346911
O O14 0.683909 0.192934 0.881332
O O15 0.252677 0.444262 0.669062
O O16 0.299051 0.552969 0.971005
#
# Coordination Sequence:
#
# PCOD8054626 Si02
#       8
#     4   4   4   4   4   4   4   4
#     4  10  24  39  65  91 126 169 206 259 311 366
#     4   9  22  41  59  92 127 159 209 262 311 368
#     4   9  22  38  63  91 123 159 204 260 314 360
#     4  12  22  41  66  89 128 167 211 251 314 380
#     4   9  22  38  63  92 126 158 205 264 309 371
#     4  11  21  42  62  89 126 164 208 255 311 378
#     4  10  21  40  63  90 124 163 210 253 317 365
#     4  10  20  39  65  92 122 163 207 260 315 364
#
# _framework density 19.604873999999999
#
# number of rings (size 3 to 8) (size 9 to 14) (size 15 to 20)
#    1.500    0.500    0.000    3.750    1.750    1.000 
#    2.250    0.000    5.500    0.000    0.000    0.000 
#    0.000    0.000    0.000    0.000    0.000    0.000 
#
# Total GULP energy -198271.601607 kJ/mol
# GULP energy per Si atom -12391.975100 kJ/mol
# Density = 1.956025 g / cm^3
# Si number density = 19.604874 Si / 1000 Ang^3
#
#
#
# Elastic Constant Matrix: (Units=GPa)
#
#
# Indices 1 2 3 4 5 6 
#
# 1 80.6111 30.7948 24.9531 0.0000 -9.6780 0.0000
# 2 30.7948 69.4452 25.4406 0.0000 -10.9323 0.0000
# 3 24.9531 25.4406 119.0999 0.0000 -12.0764 0.0000
# 4 0.0000 0.0000 0.0000 31.4672 0.0000 -4.6275
# 5 -9.6780 -10.9323 -12.0764 0.0000 21.0301 0.0000
# 6 0.0000 0.0000 0.0000 -4.6275 0.0000 37.6537
#
#
#
# Elastic Compliance Matrix: (Units=1/GPa)
#
#
# Indices 1 2 3 4 5 6 
#
# 1 0.015511 -0.005757 -0.001699 0.000000 0.003170 0.000000
# 2 -0.005757 0.018669 -0.002194 0.000000 0.005796 0.000000
# 3 -0.001699 -0.002194 0.009584 0.000000 0.003581 0.000000
# 4 0.000000 0.000000 0.000000 0.032364 0.000000 0.003977
# 5 0.003170 0.005796 0.003581 0.000000 0.054079 0.000000
# 6 0.000000 0.000000 0.000000 0.003977 0.000000 0.027047
#
#
# Mechanical properties :
#
#
# Convention : Reuss Voigt Hill
#
# Bulk Modulus (GPa) = 40.87512 47.94812 44.41162
# Shear Modulus (GPa) = 27.06990 30.56139 28.81565
#
# Velocity S-wave (km/s) = 3.71991 3.95253 3.83798
# Velocity P-wave (km/s) = 6.27256 6.73352 6.50713
#
# Compressibility (1/GPa) = 0.02446476
#
# Stress axis : x y z
#
# Youngs Moduli (GPa) = 64.47115 53.56545 104.34075
#
# Poissons Ratio (x) = 0.30837 0.17723
# Poissons Ratio (y) = 0.37115 0.22892
# Poissons Ratio (z) = 0.10951 0.11752
#
# Static dielectric constant tensor:
#      x y z
#    x 3.163670 0.000000 -0.027740 
#    y 0.000000 3.441750 0.000000 
#    z -0.027740 0.000000 3.910920 
# 
# 
# High freq. dielectric constant tensor:
#      x y z
#    x 1.730350 0.000000 -0.008090 
#    y 0.000000 1.758440 0.000000 
#    z -0.008090 0.000000 1.785840 
# 
# From -- ./inp_files/11744.got.cif
#   From: 2010.06.25/outbox.cif.g09.slc.cpg/sg9_6_cif.got.tgz:11744.got - 2010.06.27 21:40:51.
