data_PCOD8054562
_publ_section_title
;
Structure prediction by ZEFSAII (Michael W. Deem and Ramdas Pophale) SiO2 
 PCOD8054562
Probable space group: C C
;
_chemical_formula_sum "Si O2"
_cell_formula_units_Z 28
_cell_length_a 17.354768
_cell_length_b 9.295569
_cell_length_c 17.427936
_cell_angle_alpha 90.000000
_cell_angle_beta 148.387139
_cell_angle_gamma 90.000000
_cell_volume 1473.732878
_symmetry_space_group_name_H-M "C C"
_symmetry_group_IT_number 9
_symmetry_cell_setting 'monoclinic'
loop_
_space_group_symop_operation_xyz
x,y,z
x,-y,1/2+z
1/2+x,1/2+y,z
1/2+x,1/2-y,1/2+z
loop_
_atom_site_type_symbol
_atom_site_label
_atom_site_fract_x
_atom_site_fract_y
_atom_site_fract_z
Si Si1 0.428140 0.703539 0.186430
Si Si2 0.609487 0.098070 0.933006
Si Si3 0.013544 0.607024 0.461142
Si Si4 0.148595 0.963087 0.388160
Si Si5 0.439161 0.068779 0.573049
Si Si6 0.264990 0.832770 0.630064
Si Si7 0.536964 0.835446 0.765613
O O1 0.473209 0.798884 0.297892
O O2 0.495068 0.544601 0.247238
O O3 0.486882 0.791026 0.162189
O O4 0.253731 0.689416 0.038824
O O5 0.589029 0.046244 0.003578
O O6 0.606768 0.948123 0.884238
O O7 0.130614 0.731669 0.540673
O O8 0.981986 0.605129 0.523606
O O9 0.857067 0.620769 0.283591
O O10 0.192822 0.961301 0.516831
O O11 0.141509 0.802317 0.346016
O O12 0.265378 0.050103 0.436459
O O13 0.516325 0.920844 0.667975
O O14 0.384873 0.769037 0.671451
#
# Coordination Sequence:
#
# PCOD8054562 Si02
#       7
#     4   4   4   4   4   4   4
#     4  11  22  39  65  90 120 165 201 251 299 366
#     4  10  21  39  62  90 120 159 207 245 297 361
#     4  11  23  39  62  91 127 156 199 258 303 358
#     4  11  20  39  65  91 116 164 207 244 299 369
#     4  10  24  40  59  93 127 153 202 255 306 358
#     4  10  20  37  66  88 113 161 210 243 287 367
#     4   9  20  39  65  89 115 162 210 244 287 371
#
# _framework density 18.999372000000001
#
# number of rings (size 3 to 8) (size 9 to 14) (size 15 to 20)
#    0.000    1.714    4.286    1.714    4.000    0.000 
#    2.571    0.000    0.000    0.000    0.000    0.000 
#    0.000    0.000    0.000    0.000    0.000    0.000 
#
# Total GULP energy -173437.912109 kJ/mol
# GULP energy per Si atom -12388.422294 kJ/mol
# Density = 1.895613 g / cm^3
# Si number density = 18.999372 Si / 1000 Ang^3
#
#
#
# Elastic Constant Matrix: (Units=GPa)
#
#
# Indices 1 2 3 4 5 6 
#
# 1 113.8250 36.2589 43.1808 0.0000 -8.2667 0.0000
# 2 36.2589 102.6801 40.5033 0.0000 2.1393 0.0000
# 3 43.1808 40.5033 98.5709 0.0000 -1.3697 0.0000
# 4 0.0000 0.0000 0.0000 34.3618 0.0000 7.8413
# 5 -8.2667 2.1393 -1.3697 0.0000 18.6643 0.0000
# 6 0.0000 0.0000 0.0000 7.8413 0.0000 23.9526
#
#
#
# Elastic Compliance Matrix: (Units=1/GPa)
#
#
# Indices 1 2 3 4 5 6 
#
# 1 0.011460 -0.002626 -0.003870 0.000000 0.005093 0.000000
# 2 -0.002626 0.012278 -0.003934 0.000000 -0.002859 0.000000
# 3 -0.003870 -0.003934 0.013453 0.000000 -0.000276 0.000000
# 4 0.000000 0.000000 0.000000 0.031452 0.000000 -0.010296
# 5 0.005093 -0.002859 -0.000276 0.000000 0.056141 0.000000
# 6 0.000000 0.000000 0.000000 -0.010296 0.000000 0.045120
#
#
# Mechanical properties :
#
#
# Convention : Reuss Voigt Hill
#
# Bulk Modulus (GPa) = 61.23932 61.66245 61.45088
# Shear Modulus (GPa) = 25.48300 28.40461 26.94380
#
# Velocity S-wave (km/s) = 3.66629 3.87075 3.76991
# Velocity P-wave (km/s) = 7.08692 7.24586 7.16683
#
# Compressibility (1/GPa) = 0.01632938
#
# Stress axis : x y z
#
# Youngs Moduli (GPa) = 87.25868 81.44731 74.33134
#
# Poissons Ratio (x) = 0.21390 0.28769
# Poissons Ratio (y) = 0.22916 0.29244
# Poissons Ratio (z) = 0.33773 0.32044
#
# Static dielectric constant tensor:
#      x y z
#    x 3.238580 0.000000 0.011040 
#    y 0.000000 3.522780 0.000000 
#    z 0.011040 0.000000 3.718850 
# 
# 
# High freq. dielectric constant tensor:
#      x y z
#    x 1.699950 0.000000 0.005530 
#    y 0.000000 1.741520 0.000000 
#    z 0.005530 0.000000 1.754450 
# 
# From -- ./inp_files/12366.got.cif
#   From: 2010.06.25/outbox.cif.g09.slc.cpg/sg9_7_cif.got.tgz:12366.got - 2010.06.27 21:40:51.
