data_PCOD8054976
_publ_section_title
;
Structure prediction by ZEFSAII (Michael W. Deem and Ramdas Pophale) SiO2 
 PCOD8054976
Probable space group: C C
;
_chemical_formula_sum "Si O2"
_cell_formula_units_Z 32
_cell_length_a 20.285100
_cell_length_b 15.313111
_cell_length_c 14.347496
_cell_angle_alpha 90.000000
_cell_angle_beta 20.106016
_cell_angle_gamma 90.000000
_cell_volume 1532.039225
_symmetry_space_group_name_H-M "C C"
_symmetry_group_IT_number 9
_symmetry_cell_setting 'monoclinic'
loop_
_space_group_symop_operation_xyz
x,y,z
x,-y,1/2+z
1/2+x,1/2+y,z
1/2+x,1/2-y,1/2+z
loop_
_atom_site_type_symbol
_atom_site_label
_atom_site_fract_x
_atom_site_fract_y
_atom_site_fract_z
Si Si1 0.176630 0.528576 0.616250
Si Si2 0.183937 0.138559 0.179865
Si Si3 0.711977 0.641841 0.728570
Si Si4 0.927765 0.701001 0.610622
Si Si5 0.862941 0.474530 0.889428
Si Si6 0.597465 0.783886 0.171505
Si Si7 0.464262 0.484759 0.088440
Si Si8 0.136093 0.528542 0.381617
O O1 0.214900 0.632826 0.555744
O O2 0.344766 0.473451 0.342251
O O3 0.169977 0.501975 0.732278
O O4 0.979762 0.507151 0.825765
O O5 0.048481 0.212048 0.315129
O O6 0.392136 0.184700 0.907918
O O7 0.072040 0.107042 0.422052
O O8 0.202121 0.050738 0.091447
O O9 0.891172 0.667138 0.554927
O O10 0.775666 0.618290 0.537379
O O11 0.561963 0.717626 0.920552
O O12 0.624676 0.556785 0.894085
O O13 0.044871 0.625887 0.511659
O O14 0.727754 0.731833 0.922930
O O15 0.985530 0.463117 0.632798
O O16 0.332088 0.522263 0.179428
#
# Coordination Sequence:
#
# PCOD8054976 Si02
#       8
#     4   4   4   4   4   4   4   4
#     4  10  21  41  65  92 127 167 212 268 323 387
#     4  10  22  38  61  92 130 164 212 275 319 377
#     4  11  22  39  61  96 131 164 214 271 324 387
#     4  12  22  37  68 100 126 168 221 277 324 379
#     4   9  20  41  61  92 133 161 210 265 323 390
#     4  11  22  38  63 100 123 163 225 272 322 381
#     4  10  23  41  62  93 135 169 213 267 325 399
#     4  11  22  41  69  95 125 174 215 265 334 388
#
# _framework density 20.887194000000001
#
# number of rings (size 3 to 8) (size 9 to 14) (size 15 to 20)
#    0.000    1.500    3.750    1.500    3.500    0.000 
#    0.000    1.250    0.000    0.000    0.000    0.000 
#    0.000    0.000    0.000    0.000    0.000    0.000 
#
# Total GULP energy -198267.667118 kJ/mol
# GULP energy per Si atom -12391.729195 kJ/mol
# Density = 2.083965 g / cm^3
# Si number density = 20.887194 Si / 1000 Ang^3
#
#
#
# Elastic Constant Matrix: (Units=GPa)
#
#
# Indices 1 2 3 4 5 6 
#
# 1 82.2403 31.7878 34.9411 -0.0228 26.4706 0.0186
# 2 31.7878 98.7936 39.5076 -0.0318 10.3794 0.0166
# 3 34.9411 39.5076 99.8189 -0.0467 22.7164 0.0327
# 4 -0.0228 -0.0318 -0.0467 29.0314 0.0083 8.5051
# 5 26.4706 10.3794 22.7164 0.0083 37.4699 -0.0127
# 6 0.0186 0.0166 0.0327 8.5051 -0.0127 26.8298
#
#
#
# Elastic Compliance Matrix: (Units=1/GPa)
#
#
# Indices 1 2 3 4 5 6 
#
# 1 0.017906 -0.003698 -0.002504 0.000014 -0.010107 -0.000016
# 2 -0.003698 0.012798 -0.004128 0.000004 0.001570 -0.000001
# 3 -0.002504 -0.004128 0.013765 0.000024 -0.005433 -0.000023
# 4 0.000014 0.000004 0.000024 0.037972 -0.000038 -0.012037
# 5 -0.010107 0.001570 -0.005433 -0.000038 0.036687 0.000042
# 6 -0.000016 -0.000001 -0.000023 -0.012037 0.000042 0.041088
#
#
# Mechanical properties :
#
#
# Convention : Reuss Voigt Hill
#
# Bulk Modulus (GPa) = 42.00247 54.81400 48.40823
# Shear Modulus (GPa) = 26.48135 30.30732 28.39434
#
# Velocity S-wave (km/s) = 3.56452 3.81333 3.69102
# Velocity P-wave (km/s) = 6.09048 6.75933 6.43360
#
# Compressibility (1/GPa) = 0.02380812
#
# Stress axis : x y z
#
# Youngs Moduli (GPa) = 55.84725 78.13767 72.64853
#
# Poissons Ratio (x) = 0.28897 0.18191
# Poissons Ratio (y) = 0.20653 0.29990
# Poissons Ratio (z) = 0.13984 0.32256
#
# Static dielectric constant tensor:
#      x y z
#    x 3.629260 -0.000020 -0.010960 
#    y -0.000020 4.019260 0.000050 
#    z -0.010960 0.000050 3.906720 
# 
# 
# High freq. dielectric constant tensor:
#      x y z
#    x 1.796420 0.000000 -0.002270 
#    y 0.000000 1.814310 0.000000 
#    z -0.002270 0.000000 1.824330 
# 
# From -- ./inp_files/7602.got.cif
#   From: 2010.06.25/outbox.cif.g09.slc.cpg/sg9_4_cif.got.tgz:7602.got - 2010.06.27 21:40:51.
