data_PCOD8054877
_publ_section_title
;
Structure prediction by ZEFSAII (Michael W. Deem and Ramdas Pophale) SiO2 
 PCOD8054877
Probable space group: C C
;
_chemical_formula_sum "Si O2"
_cell_formula_units_Z 28
_cell_length_a 7.315840
_cell_length_b 19.019997
_cell_length_c 14.502078
_cell_angle_alpha 90.000000
_cell_angle_beta 38.422289
_cell_angle_gamma 90.000000
_cell_volume 1254.044336
_symmetry_space_group_name_H-M "C C"
_symmetry_group_IT_number 9
_symmetry_cell_setting 'monoclinic'
loop_
_space_group_symop_operation_xyz
x,y,z
x,-y,1/2+z
1/2+x,1/2+y,z
1/2+x,1/2-y,1/2+z
loop_
_atom_site_type_symbol
_atom_site_label
_atom_site_fract_x
_atom_site_fract_y
_atom_site_fract_z
Si Si1 0.321440 0.029636 0.908100
Si Si2 0.372003 0.439406 0.738472
Si Si3 0.768584 0.688130 0.272159
Si Si4 0.686174 0.728721 0.498791
Si Si5 0.971809 0.053804 0.408972
Si Si6 0.628422 0.855803 0.177701
Si Si7 0.807680 0.783996 0.813345
O O1 0.457037 0.105062 0.827587
O O2 0.572045 0.970147 0.814968
O O3 0.079187 0.012878 0.924834
O O4 0.155007 0.033050 0.071359
O O5 0.392400 0.466563 0.835930
O O6 0.379735 0.354438 0.726368
O O7 0.820316 0.735825 0.342688
O O8 0.756261 0.605774 0.298345
O O9 0.444969 0.708810 0.361104
O O10 0.020613 0.700605 0.096674
O O11 0.447083 0.665857 0.594421
O O12 0.955275 0.718435 0.462590
O O13 0.687907 0.090811 0.569442
O O14 0.445747 0.787345 0.214548
#
# Coordination Sequence:
#
# PCOD8054877 Si02
#       7
#     4   4   4   4   4   4   4
#     4  12  25  46  70 102 141 189 233 292 352 425
#     4  11  26  42  74  99 136 188 242 278 358 423
#     4   9  21  39  64  95 138 172 227 287 345 414
#     4  10  21  39  64  99 136 182 224 286 348 415
#     4  10  23  45  64  98 142 178 232 294 339 418
#     4  10  23  44  70 102 147 179 232 302 351 424
#     4  10  23  43  70 101 138 184 232 289 361 415
#
# _framework density 22.327757999999999
#
# number of rings (size 3 to 8) (size 9 to 14) (size 15 to 20)
#    0.000    1.714    1.429    1.714    2.000   17.143 
#    0.000    4.286    0.000    0.000    0.000    0.000 
#    0.000    0.000    0.000    0.000    0.000    0.000 
#
# Total GULP energy -173521.723154 kJ/mol
# GULP energy per Si atom -12394.408797 kJ/mol
# Density = 2.227694 g / cm^3
# Si number density = 22.327758 Si / 1000 Ang^3
#
#
#
# Elastic Constant Matrix: (Units=GPa)
#
#
# Indices 1 2 3 4 5 6 
#
# 1 102.1843 32.1596 41.1601 0.0003 -12.5055 0.0001
# 2 32.1596 92.8253 33.1708 0.0002 -7.6761 0.0000
# 3 41.1601 33.1708 105.1810 0.0043 -6.3930 0.0007
# 4 0.0003 0.0002 0.0043 37.3316 -0.0015 2.3504
# 5 -12.5055 -7.6761 -6.3930 -0.0015 37.3762 0.0002
# 6 0.0001 0.0000 0.0007 2.3504 0.0002 27.9686
#
#
#
# Elastic Compliance Matrix: (Units=1/GPa)
#
#
# Indices 1 2 3 4 5 6 
#
# 1 0.012571 -0.002722 -0.003879 0.000000 0.002983 0.000000
# 2 -0.002722 0.012860 -0.002915 0.000000 0.001232 0.000000
# 3 -0.003879 -0.002915 0.011954 -0.000001 0.000148 0.000000
# 4 0.000000 0.000000 -0.000001 0.026929 0.000001 -0.002263
# 5 0.002983 0.001232 0.000148 0.000001 0.028031 0.000000
# 6 0.000000 0.000000 0.000000 -0.002263 0.000000 0.035945
#
#
# Mechanical properties :
#
#
# Convention : Reuss Voigt Hill
#
# Bulk Modulus (GPa) = 54.49494 57.01904 55.75699
# Shear Modulus (GPa) = 32.58589 33.44861 33.01725
#
# Velocity S-wave (km/s) = 3.82440 3.87469 3.84963
# Velocity P-wave (km/s) = 6.63032 6.75355 6.69222
#
# Compressibility (1/GPa) = 0.01835033
#
# Stress axis : x y z
#
# Youngs Moduli (GPa) = 79.55002 77.76234 83.65419
#
# Poissons Ratio (x) = 0.21168 0.32453
# Poissons Ratio (y) = 0.21655 0.24389
# Poissons Ratio (z) = 0.30861 0.22671
#
# Static dielectric constant tensor:
#      x y z
#    x 3.951310 0.000000 0.021230 
#    y 0.000000 4.027260 0.000000 
#    z 0.021230 0.000000 4.041260 
# 
# 
# High freq. dielectric constant tensor:
#      x y z
#    x 1.873800 0.000000 -0.001460 
#    y 0.000000 1.867070 0.000000 
#    z -0.001460 0.000000 1.879310 
# 
# From -- ./inp_files/29498.got.cif
#   From: 2010.06.25/outbox.cif.g09.slc.cpg/sg9_15_cif.got.tgz:29498.got - 2010.06.27 21:40:51.
