data_PCOD8054843
_publ_section_title
;
Structure prediction by ZEFSAII (Michael W. Deem and Ramdas Pophale) SiO2 
 PCOD8054843
Probable space group: C C
;
_chemical_formula_sum "Si O2"
_cell_formula_units_Z 32
_cell_length_a 16.653142
_cell_length_b 10.918692
_cell_length_c 12.112350
_cell_angle_alpha 90.000000
_cell_angle_beta 138.328028
_cell_angle_gamma 90.000000
_cell_volume 1464.295426
_symmetry_space_group_name_H-M "C C"
_symmetry_group_IT_number 9
_symmetry_cell_setting 'monoclinic'
loop_
_space_group_symop_operation_xyz
x,y,z
x,-y,1/2+z
1/2+x,1/2+y,z
1/2+x,1/2-y,1/2+z
loop_
_atom_site_type_symbol
_atom_site_label
_atom_site_fract_x
_atom_site_fract_y
_atom_site_fract_z
Si Si1 0.969000 0.545493 0.315340
Si Si2 0.701627 0.063656 0.684172
Si Si3 0.753340 0.276255 0.598875
Si Si4 0.099063 0.980191 0.335984
Si Si5 0.091320 0.174297 0.612747
Si Si6 0.776170 0.657540 0.609387
Si Si7 0.648752 0.102421 0.315088
Si Si8 0.886192 0.096433 0.240262
O O1 0.885676 0.666245 0.233336
O O2 0.895620 0.421520 0.248133
O O3 0.060552 0.547331 0.511247
O O4 0.040014 0.546433 0.273247
O O5 0.733752 0.207512 0.697038
O O6 0.718544 0.010866 0.825746
O O7 0.784452 0.990284 0.684122
O O8 0.650654 0.380077 0.476414
O O9 0.742238 0.177068 0.488116
O O10 0.098192 0.930374 0.212094
O O11 0.187258 0.098222 0.427187
O O12 0.965031 0.019200 0.234423
O O13 0.208521 0.162464 0.657016
O O14 0.091024 0.309222 0.663790
O O15 0.968130 0.154746 0.420265
O O16 0.816507 0.791493 0.609044
#
# Coordination Sequence:
#
# PCOD8054843 Si02
#       8
#     4   4   4   4   4   4   4   4
#     4  10  23  40  65  91 131 168 212 260 321 378
#     4  11  23  36  64  97 127 157 218 267 313 360
#     4   9  22  42  66  92 126 171 212 263 317 384
#     4   9  22  42  67  91 128 173 213 256 325 381
#     4  10  21  40  67  92 121 173 221 252 309 390
#     4  10  21  41  65  96 124 167 212 269 315 376
#     4  10  21  38  65  99 119 165 224 256 305 384
#     4  11  23  37  67  96 130 160 214 271 315 367
#
# _framework density 21.853513
#
# number of rings (size 3 to 8) (size 9 to 14) (size 15 to 20)
#    0.000    2.000    1.250    0.750    8.750    5.000 
#    0.000    3.750   13.750    0.000    0.000    0.000 
#    0.000    0.000    0.000    0.000    0.000    0.000 
#
# Total GULP energy -198380.962530 kJ/mol
# GULP energy per Si atom -12398.810158 kJ/mol
# Density = 2.180377 g / cm^3
# Si number density = 21.853513 Si / 1000 Ang^3
#
#
#
# Elastic Constant Matrix: (Units=GPa)
#
#
# Indices 1 2 3 4 5 6 
#
# 1 95.6928 58.6309 26.4651 0.0000 12.2574 0.0000
# 2 58.6309 114.3219 29.6715 0.0000 5.0235 0.0000
# 3 26.4651 29.6715 52.5574 0.0000 13.4371 0.0000
# 4 0.0000 0.0000 0.0000 32.0153 0.0000 -9.2751
# 5 12.2574 5.0235 13.4371 0.0000 36.5909 0.0000
# 6 0.0000 0.0000 0.0000 -9.2751 0.0000 10.2343
#
#
#
# Elastic Compliance Matrix: (Units=1/GPa)
#
#
# Indices 1 2 3 4 5 6 
#
# 1 0.016268 -0.007370 -0.003196 0.000000 -0.003264 0.000000
# 2 -0.007370 0.013609 -0.004553 0.000000 0.002272 0.000000
# 3 -0.003196 -0.004553 0.025133 0.000000 -0.007534 0.000000
# 4 0.000000 0.000000 0.000000 0.042356 0.000000 0.038386
# 5 -0.003264 0.002272 -0.007534 0.000000 0.030877 0.000000
# 6 0.000000 0.000000 0.000000 0.038386 0.000000 0.132499
#
#
# Mechanical properties :
#
#
# Convention : Reuss Voigt Hill
#
# Bulk Modulus (GPa) = 40.36976 54.67856 47.52416
# Shear Modulus (GPa) = 16.70920 25.62174 21.16547
#
# Velocity S-wave (km/s) = 2.76814 3.42779 3.11547
# Velocity P-wave (km/s) = 5.36002 6.38288 5.89368
#
# Compressibility (1/GPa) = 0.02477102
#
# Stress axis : x y z
#
# Youngs Moduli (GPa) = 61.47111 73.48192 39.78889
#
# Poissons Ratio (x) = 0.54157 0.12718
# Poissons Ratio (y) = 0.45305 0.18115
# Poissons Ratio (z) = 0.19648 0.33454
#
# Static dielectric constant tensor:
#      x y z
#    x 3.901710 0.000000 0.054860 
#    y 0.000000 4.284700 0.000000 
#    z 0.054860 0.000000 3.972900 
# 
# 
# High freq. dielectric constant tensor:
#      x y z
#    x 1.853630 0.000000 0.016550 
#    y 0.000000 1.872900 0.000000 
#    z 0.016550 0.000000 1.850820 
# 
# From -- ./inp_files/18299.got.cif
#   From: 2010.06.25/outbox.cif.g09.slc.cpg/sg9_10_cif.got.tgz:18299.got - 2010.06.27 21:40:51.
