data_PCOD8054751
_publ_section_title
;
Structure prediction by ZEFSAII (Michael W. Deem and Ramdas Pophale) SiO2 
 PCOD8054751
Probable space group: C C
;
_chemical_formula_sum "Si O2"
_cell_formula_units_Z 32
_cell_length_a 17.376048
_cell_length_b 10.725316
_cell_length_c 12.581136
_cell_angle_alpha 90.000000
_cell_angle_beta 140.538301
_cell_angle_gamma 90.000000
_cell_volume 1490.181147
_symmetry_space_group_name_H-M "C C"
_symmetry_group_IT_number 9
_symmetry_cell_setting 'monoclinic'
loop_
_space_group_symop_operation_xyz
x,y,z
x,-y,1/2+z
1/2+x,1/2+y,z
1/2+x,1/2-y,1/2+z
loop_
_atom_site_type_symbol
_atom_site_label
_atom_site_fract_x
_atom_site_fract_y
_atom_site_fract_z
Si Si1 0.445260 0.917075 0.390300
Si Si2 0.239244 0.821086 0.041147
Si Si3 0.384278 0.376349 0.197388
Si Si4 0.716720 0.068358 0.108136
Si Si5 0.423643 0.806511 0.920010
Si Si6 0.401363 0.331518 0.968123
Si Si7 0.577094 0.529642 0.516117
Si Si8 0.175460 0.190091 0.244166
O O1 0.370054 0.880811 0.204153
O O2 0.578251 0.940217 0.489968
O O3 0.428044 0.810436 0.461035
O O4 0.401747 0.045928 0.395783
O O5 0.243780 0.670791 0.045525
O O6 0.152486 0.859373 0.045590
O O7 0.186444 0.868128 0.873423
O O8 0.256974 0.434171 0.103353
O O9 0.418788 0.250940 0.297033
O O10 0.482429 0.483624 0.326330
O O11 0.380253 0.338501 0.070806
O O12 0.784217 0.110493 0.287289
O O13 0.307601 0.746101 0.860308
O O14 0.555610 0.777799 0.112868
O O15 0.514104 0.417437 0.054736
O O16 0.662609 0.417567 0.643030
#
# Coordination Sequence:
#
# PCOD8054751 Si02
#       8
#     4   4   4   4   4   4   4   4
#     4  11  23  44  65  98 138 174 233 297 339 425
#     4  11  23  41  69  95 134 181 228 283 360 417
#     4  10  23  43  68  97 137 187 223 284 357 424
#     4  10  23  42  67 100 138 171 234 291 343 429
#     4  11  25  45  64 100 141 176 238 292 345 432
#     4  10  22  43  70  98 136 183 226 286 364 419
#     4  10  20  44  66  96 134 175 235 287 339 436
#     4  11  25  42  69  96 136 187 229 292 361 422
#
# _framework density 21.4739
#
# number of rings (size 3 to 8) (size 9 to 14) (size 15 to 20)
#    0.000    1.500    2.500    1.500    1.750    5.000 
#    6.750    0.000    0.000    0.000    0.000    0.000 
#    0.000    0.000    0.000    0.000    0.000    0.000 
#
# Total GULP energy -198356.488689 kJ/mol
# GULP energy per Si atom -12397.280543 kJ/mol
# Density = 2.142502 g / cm^3
# Si number density = 21.473900 Si / 1000 Ang^3
#
#
#
# Elastic Constant Matrix: (Units=GPa)
#
#
# Indices 1 2 3 4 5 6 
#
# 1 121.5697 26.6476 72.3326 0.0000 8.9922 0.0000
# 2 26.6476 99.0510 30.7983 0.0000 -0.6729 0.0000
# 3 72.3326 30.7983 114.1645 0.0000 -0.5835 0.0000
# 4 0.0000 0.0000 0.0000 20.3641 0.0000 4.8861
# 5 8.9922 -0.6729 -0.5835 0.0000 48.7602 0.0000
# 6 0.0000 0.0000 0.0000 4.8861 0.0000 30.8425
#
#
#
# Elastic Compliance Matrix: (Units=1/GPa)
#
#
# Indices 1 2 3 4 5 6 
#
# 1 0.013630 -0.001087 -0.008356 0.000000 -0.002629 0.000000
# 2 -0.001087 0.011107 -0.002306 0.000000 0.000326 0.000000
# 3 -0.008356 -0.002306 0.014684 0.000000 0.001685 0.000000
# 4 0.000000 0.000000 0.000000 0.051046 0.000000 -0.008087
# 5 -0.002629 0.000326 0.001685 0.000000 0.021018 0.000000
# 6 0.000000 0.000000 0.000000 -0.008087 0.000000 0.033704
#
#
# Mechanical properties :
#
#
# Convention : Reuss Voigt Hill
#
# Bulk Modulus (GPa) = 62.79884 66.03803 64.41843
# Shear Modulus (GPa) = 28.73626 33.66049 31.19837
#
# Velocity S-wave (km/s) = 3.66210 3.96347 3.81576
# Velocity P-wave (km/s) = 6.86943 7.19478 7.03399
#
# Compressibility (1/GPa) = 0.01592386
#
# Stress axis : x y z
#
# Youngs Moduli (GPa) = 73.36679 90.02953 68.09947
#
# Poissons Ratio (x) = 0.09782 0.56905
# Poissons Ratio (y) = 0.07972 0.15706
# Poissons Ratio (z) = 0.61306 0.20764
#
# Static dielectric constant tensor:
#      x y z
#    x 3.718340 0.000000 0.278760 
#    y 0.000000 3.933810 0.000000 
#    z 0.278760 0.000000 3.977520 
# 
# 
# High freq. dielectric constant tensor:
#      x y z
#    x 1.840540 0.000000 0.018890 
#    y 0.000000 1.841940 0.000000 
#    z 0.018890 0.000000 1.847710 
# 
# From -- ./inp_files/18278.got.cif
#   From: 2010.06.25/outbox.cif.g09.slc.cpg/sg9_10_cif.got.tgz:18278.got - 2010.06.27 21:40:51.
