data_PCOD8054513
_publ_section_title
;
Structure prediction by ZEFSAII (Michael W. Deem and Ramdas Pophale) SiO2 
 PCOD8054513
Probable space group: C C
;
_chemical_formula_sum "Si O2"
_cell_formula_units_Z 32
_cell_length_a 19.159923
_cell_length_b 4.899959
_cell_length_c 16.495992
_cell_angle_alpha 90.000000
_cell_angle_beta 89.913413
_cell_angle_gamma 90.000000
_cell_volume 1548.688762
_symmetry_space_group_name_H-M "C C"
_symmetry_group_IT_number 9
_symmetry_cell_setting 'monoclinic'
loop_
_space_group_symop_operation_xyz
x,y,z
x,-y,1/2+z
1/2+x,1/2+y,z
1/2+x,1/2-y,1/2+z
loop_
_atom_site_type_symbol
_atom_site_label
_atom_site_fract_x
_atom_site_fract_y
_atom_site_fract_z
Si Si1 0.977800 0.699790 0.046690
Si Si2 0.759734 0.605232 0.650171
Si Si3 0.976762 0.799266 0.439262
Si Si4 0.330142 0.383496 0.401158
Si Si5 0.127171 0.699503 0.435887
Si Si6 0.834717 0.092551 0.584412
Si Si7 0.255535 0.124061 0.835500
Si Si8 0.129156 0.796122 0.047269
O O1 0.913843 0.804711 0.102489
O O2 0.962008 0.391026 0.018310
O O3 0.054129 0.719451 0.089021
O O4 0.983302 0.886881 0.966349
O O5 0.781374 0.339076 0.599837
O O6 0.750141 0.522845 0.743517
O O7 0.687598 0.727397 0.616012
O O8 0.818465 0.839964 0.643253
O O9 0.909268 0.783540 0.380575
O O10 0.048876 0.702800 0.396851
O O11 0.324282 0.496526 0.492238
O O12 0.309600 0.625219 0.340363
O O13 0.279466 0.125649 0.391771
O O14 0.180212 0.775049 0.365185
O O15 0.145933 0.403297 0.471559
O O16 0.128062 0.898778 0.512993
#
# Coordination Sequence:
#
# PCOD8054513 Si02
#       8
#     4   4   4   4   4   4   4   4
#     4   9  18  33  57  86 107 133 185 240 274 318
#     4  12  24  37  54  85 120 150 185 233 284 338
#     4   9  18  33  57  86 107 133 185 240 274 318
#     4  11  21  38  62  83 108 149 194 234 280 337
#     4  10  20  36  59  82 107 144 188 229 274 331
#     4  11  21  38  62  83 108 149 194 234 280 337
#     4  12  24  37  54  85 120 150 185 233 284 338
#     4  10  20  36  59  82 107 144 188 229 274 331
#
# _framework density 20.662642000000002
#
# number of rings (size 3 to 8) (size 9 to 14) (size 15 to 20)
#    0.000    1.500    0.000    8.250    0.000    0.000 
#    0.000    2.500    0.000    0.000    0.000    0.000 
#    0.000    0.000    0.000    0.000    0.000    0.000 
#
# Total GULP energy -198386.943700 kJ/mol
# GULP energy per Si atom -12399.183981 kJ/mol
# Density = 2.061561 g / cm^3
# Si number density = 20.662642 Si / 1000 Ang^3
#
#
#
# Elastic Constant Matrix: (Units=GPa)
#
#
# Indices 1 2 3 4 5 6 
#
# 1 158.3322 37.6632 59.7105 0.0000 -2.8194 0.0000
# 2 37.6632 102.9730 18.0801 0.0000 -0.6408 0.0000
# 3 59.7105 18.0801 67.8717 0.0000 -4.0659 0.0000
# 4 0.0000 0.0000 0.0000 21.3608 0.0000 0.1849
# 5 -2.8194 -0.6408 -4.0659 0.0000 8.5240 0.0000
# 6 0.0000 0.0000 0.0000 0.1849 0.0000 32.2980
#
#
#
# Elastic Compliance Matrix: (Units=1/GPa)
#
#
# Indices 1 2 3 4 5 6 
#
# 1 0.009908 -0.002193 -0.008180 0.000000 -0.000789 0.000000
# 2 -0.002193 0.010675 -0.000937 0.000000 -0.000370 0.000000
# 3 -0.008180 -0.000937 0.022661 0.000000 0.008033 0.000000
# 4 0.000000 0.000000 0.000000 0.046817 0.000000 -0.000268
# 5 -0.000789 -0.000370 0.008033 0.000000 0.120859 0.000000
# 6 0.000000 0.000000 0.000000 -0.000268 0.000000 0.030963
#
#
# Mechanical properties :
#
#
# Convention : Reuss Voigt Hill
#
# Bulk Modulus (GPa) = 48.48394 62.23162 55.35778
# Shear Modulus (GPa) = 18.42451 26.68477 22.55464
#
# Velocity S-wave (km/s) = 2.98934 3.59757 3.30747
# Velocity P-wave (km/s) = 5.95234 6.88767 6.43702
#
# Compressibility (1/GPa) = 0.02062539
#
# Stress axis : x y z
#
# Youngs Moduli (GPa) = 100.92641 93.67260 44.12889
#
# Poissons Ratio (x) = 0.20539 0.36097
# Poissons Ratio (y) = 0.22130 0.04135
# Poissons Ratio (z) = 0.82558 0.08776
#
# Static dielectric constant tensor:
#      x y z
#    x 4.314430 0.000000 0.021500 
#    y 0.000000 3.931860 0.000000 
#    z 0.021500 0.000000 3.081410 
# 
# 
# High freq. dielectric constant tensor:
#      x y z
#    x 1.833240 0.000000 -0.000580 
#    y 0.000000 1.833200 0.000000 
#    z -0.000580 0.000000 1.736150 
# 
# From -- ./inp_files/26470.got.cif
#   From: 2010.06.25/outbox.cif.g09.slc.cpg/sg9_14_cif.got.tgz:26470.got - 2010.06.27 21:40:51.
