data_PCOD8054598
_publ_section_title
;
Structure prediction by ZEFSAII (Michael W. Deem and Ramdas Pophale) SiO2 
 PCOD8054598
Probable space group: C C
;
_chemical_formula_sum "Si O2"
_cell_formula_units_Z 28
_cell_length_a 14.042245
_cell_length_b 10.007816
_cell_length_c 14.550846
_cell_angle_alpha 90.000000
_cell_angle_beta 143.169936
_cell_angle_gamma 90.000000
_cell_volume 1225.779863
_symmetry_space_group_name_H-M "C C"
_symmetry_group_IT_number 9
_symmetry_cell_setting 'monoclinic'
loop_
_space_group_symop_operation_xyz
x,y,z
x,-y,1/2+z
1/2+x,1/2+y,z
1/2+x,1/2-y,1/2+z
loop_
_atom_site_type_symbol
_atom_site_label
_atom_site_fract_x
_atom_site_fract_y
_atom_site_fract_z
Si Si1 0.609000 0.656898 0.234270
Si Si2 0.832882 0.035360 0.515441
Si Si3 0.209732 0.184316 0.518599
Si Si4 0.014609 0.439317 0.190442
Si Si5 0.912525 0.175154 0.405040
Si Si6 0.727981 0.029701 0.109552
Si Si7 0.892940 0.523296 0.913050
O O1 0.634776 0.644079 0.363410
O O2 0.594237 0.812987 0.197101
O O3 0.749455 0.581483 0.286361
O O4 0.441331 0.593001 0.076757
O O5 0.648446 0.019261 0.346825
O O6 0.832387 0.071718 0.625599
O O7 0.904524 0.153352 0.508420
O O8 0.381858 0.113089 0.661550
O O9 0.231073 0.343134 0.542325
O O10 0.090395 0.142826 0.508169
O O11 0.929681 0.534259 0.050361
O O12 0.796884 0.071990 0.261899
O O13 0.856627 0.328056 0.345060
O O14 0.552415 0.970053 0.986701
#
# Coordination Sequence:
#
# PCOD8054598 Si02
#       7
#     4   4   4   4   4   4   4
#     4  11  21  39  67  99 128 170 226 273 330 388
#     4  12  23  36  67  94 132 169 217 281 331 380
#     4  10  20  38  68  93 124 166 231 274 314 388
#     4  11  20  41  66  99 130 169 221 279 326 393
#     4  11  24  41  66 102 132 174 224 279 336 392
#     4  11  21  41  66  96 128 176 227 272 317 401
#     4  10  25  40  68  95 136 172 224 276 334 396
#
# _framework density 22.842600000000001
#
# number of rings (size 3 to 8) (size 9 to 14) (size 15 to 20)
#    0.000    1.143    5.714    0.857    6.000    0.000 
#    0.000    0.000   18.857    0.000    0.000    0.000 
#    0.000    0.000    0.000    0.000    0.000    0.000 
#
# Total GULP energy -173465.469603 kJ/mol
# GULP energy per Si atom -12390.390686 kJ/mol
# Density = 2.279061 g / cm^3
# Si number density = 22.842600 Si / 1000 Ang^3
#
#
#
# Elastic Constant Matrix: (Units=GPa)
#
#
# Indices 1 2 3 4 5 6 
#
# 1 160.5058 31.7473 21.4812 0.0000 14.1205 0.0000
# 2 31.7473 37.9792 3.3659 0.0000 2.1486 0.0000
# 3 21.4812 3.3659 66.1821 0.0000 14.6387 0.0000
# 4 0.0000 0.0000 0.0000 31.3391 0.0000 -2.2302
# 5 14.1205 2.1486 14.6387 0.0000 41.2968 0.0000
# 6 0.0000 0.0000 0.0000 -2.2302 0.0000 38.4627
#
#
#
# Elastic Compliance Matrix: (Units=1/GPa)
#
#
# Indices 1 2 3 4 5 6 
#
# 1 0.007880 -0.006326 -0.001859 0.000000 -0.001707 0.000000
# 2 -0.006326 0.031564 0.000361 0.000000 0.000393 0.000000
# 3 -0.001859 0.000361 0.016882 0.000000 -0.005367 0.000000
# 4 0.000000 0.000000 0.000000 0.032041 0.000000 0.001858
# 5 -0.001707 0.000393 -0.005367 0.000000 0.026681 0.000000
# 6 0.000000 0.000000 0.000000 0.001858 0.000000 0.026107
#
#
# Mechanical properties :
#
#
# Convention : Reuss Voigt Hill
#
# Bulk Modulus (GPa) = 24.58251 41.98399 33.28325
# Shear Modulus (GPa) = 29.34921 36.09124 32.72022
#
# Velocity S-wave (km/s) = 3.58836 3.97923 3.78884
# Velocity P-wave (km/s) = 5.28711 6.28744 5.80885
#
# Compressibility (1/GPa) = 0.04067933
#
# Stress axis : x y z
#
# Youngs Moduli (GPa) = 126.89598 31.68155 59.23487
#
# Poissons Ratio (x) = 0.20042 0.11009
# Poissons Ratio (y) = 0.80276 -0.02139
# Poissons Ratio (z) = 0.23585 -0.01144
#
# Static dielectric constant tensor:
#      x y z
#    x 4.431320 0.000000 0.153340 
#    y 0.000000 3.785450 0.000000 
#    z 0.153340 0.000000 4.090650 
# 
# 
# High freq. dielectric constant tensor:
#      x y z
#    x 1.918050 0.000000 0.014450 
#    y 0.000000 1.848740 0.000000 
#    z 0.014450 0.000000 1.902320 
# 
# From -- ./inp_files/16532.got.cif
#   From: 2010.06.25/outbox.cif.g09.slc.cpg/sg9_9_cif.got.tgz:16532.got - 2010.06.27 21:40:51.
