data_PCOD8054025
_publ_section_title
;
Structure prediction by ZEFSAII (Michael W. Deem and Ramdas Pophale) SiO2 
 PCOD8054025
Probable space group: C M
;
_chemical_formula_sum "Si O2"
_cell_formula_units_Z 32
_cell_length_a 11.161911
_cell_length_b 27.166563
_cell_length_c 8.326607
_cell_angle_alpha 90.000000
_cell_angle_beta 145.287258
_cell_angle_gamma 90.000000
_cell_volume 1437.825999
_symmetry_space_group_name_H-M "C M"
_symmetry_group_IT_number 8
_symmetry_cell_setting 'monoclinic'
loop_
_space_group_symop_operation_xyz
x,y,z
x,-y,z
1/2+x,1/2+y,z
1/2+x,1/2-y,z
loop_
_atom_site_type_symbol
_atom_site_label
_atom_site_fract_x
_atom_site_fract_y
_atom_site_fract_z
Si Si1 0.542000 0.793948 0.012370
Si Si2 0.577972 0.055954 0.042904
Si Si3 0.746472 0.378659 0.789772
Si Si4 0.006737 0.129501 0.994262
Si Si5 0.744989 0.210229 0.561648
Si Si6 0.730065 0.944170 0.566344
Si Si7 0.322647 0.361637 0.141615
Si Si8 0.913881 0.362918 0.303790
O O1 0.688380 0.773478 0.317926
O O2 0.694291 0.810689 0.033108
O O3 0.440224 0.843665 0.960833
O O4 0.352996 0.757229 0.762283
O O5 0.711297 0.062178 0.354360
O O6 0.682597 0.089813 0.020519
O O7 0.584698 0.000000 0.988234
O O8 0.332519 0.069498 0.811117
O O9 0.524129 0.362919 0.478036
O O10 0.742587 0.376806 0.977638
O O11 0.259680 0.138258 0.290002
O O12 0.895134 0.141276 0.039141
O O13 0.914271 0.166432 0.756569
O O14 0.959720 0.073744 0.880532
O O15 0.531202 0.189914 0.413838
O O16 0.575588 0.907842 0.494155
O O17 0.688449 0.000000 0.573649
#
# Coordination Sequence:
#
# PCOD8054025 Si02
#       8
#     4   4   4   4   4   4   4   4
#     4  10  23  44  67  92 123 161 214 265 320 379
#     4   9  19  38  64  91 122 167 218 264 311 376
#     4   9  19  37  62  88 123 163 208 261 316 371
#     4  11  23  39  60  92 132 170 204 259 322 381
#     4  10  23  44  67  93 120 164 213 268 317 377
#     4   9  19  38  64  92 122 164 219 265 312 373
#     4  11  23  39  61  92 133 167 207 260 322 381
#     4   9  19  39  63  88 125 166 211 260 316 376
#
# _framework density 22.255822999999999
#
# number of rings (size 3 to 8) (size 9 to 14) (size 15 to 20)
#    0.000    2.250    0.000    3.750    1.750    6.500 
#    4.500    2.500    0.000    0.000    0.000    0.000 
#    0.000    0.000    0.000    0.000    0.000    0.000 
#
# Total GULP energy -198261.125841 kJ/mol
# GULP energy per Si atom -12391.320365 kJ/mol
# Density = 2.220517 g / cm^3
# Si number density = 22.255823 Si / 1000 Ang^3
#
#
#
# Elastic Constant Matrix: (Units=GPa)
#
#
# Indices 1 2 3 4 5 6 
#
# 1 116.9937 48.9182 30.1308 0.0000 18.8639 0.0000
# 2 48.9182 105.6156 44.1026 0.0000 0.1902 0.0000
# 3 30.1308 44.1026 93.6495 0.0000 7.1912 0.0000
# 4 0.0000 0.0000 0.0000 32.7057 0.0000 2.2783
# 5 18.8639 0.1902 7.1912 0.0000 28.8309 0.0000
# 6 0.0000 0.0000 0.0000 2.2783 0.0000 15.9461
#
#
#
# Elastic Compliance Matrix: (Units=1/GPa)
#
#
# Indices 1 2 3 4 5 6 
#
# 1 0.012231 -0.005299 -0.000844 0.000000 -0.007757 0.000000
# 2 -0.005299 0.014132 -0.005311 0.000000 0.004698 0.000000
# 3 -0.000844 -0.005311 0.013668 0.000000 -0.002822 0.000000
# 4 0.000000 0.000000 0.000000 0.030883 0.000000 -0.004412
# 5 -0.007757 0.004698 -0.002822 0.000000 0.040433 0.000000
# 6 0.000000 0.000000 0.000000 -0.004412 0.000000 0.063342
#
#
# Mechanical properties :
#
#
# Convention : Reuss Voigt Hill
#
# Bulk Modulus (GPa) = 58.40272 62.50691 60.45481
# Shear Modulus (GPa) = 24.59368 28.37035 26.48202
#
# Velocity S-wave (km/s) = 3.32783 3.57422 3.45322
# Velocity P-wave (km/s) = 6.40815 6.72161 6.56675
#
# Compressibility (1/GPa) = 0.01712249
#
# Stress axis : x y z
#
# Youngs Moduli (GPa) = 81.75839 70.76230 73.16560
#
# Poissons Ratio (x) = 0.37494 0.06177
# Poissons Ratio (y) = 0.43321 0.38859
# Poissons Ratio (z) = 0.06903 0.37583
#
# Static dielectric constant tensor:
#      x y z
#    x 3.920300 0.000000 0.085490 
#    y 0.000000 4.025330 0.000000 
#    z 0.085490 0.000000 4.056950 
# 
# 
# High freq. dielectric constant tensor:
#      x y z
#    x 1.869110 0.000000 0.009120 
#    y 0.000000 1.864140 0.000000 
#    z 0.009120 0.000000 1.878030 
# 
# From -- ./inp_files/11721.got.cif
#   From: 2010.03.12/outbox.cif.g09.slc.cpg/sg8_6_cif.got.tgz:11721.got - 2010.03.31 10:45:26.
