data_PCOD8054494
_publ_section_title
;
Structure prediction by ZEFSAII (Michael W. Deem and Ramdas Pophale) SiO2 
 PCOD8054494
Probable space group: C C
;
_chemical_formula_sum "Si O2"
_cell_formula_units_Z 28
_cell_length_a 8.975806
_cell_length_b 32.456924
_cell_length_c 5.195247
_cell_angle_alpha 90.000000
_cell_angle_beta 72.777026
_cell_angle_gamma 90.000000
_cell_volume 1445.649510
_symmetry_space_group_name_H-M "C C"
_symmetry_group_IT_number 9
_symmetry_cell_setting 'monoclinic'
loop_
_space_group_symop_operation_xyz
x,y,z
x,-y,1/2+z
1/2+x,1/2+y,z
1/2+x,1/2-y,1/2+z
loop_
_atom_site_type_symbol
_atom_site_label
_atom_site_fract_x
_atom_site_fract_y
_atom_site_fract_z
Si Si1 0.846260 0.103859 0.806820
Si Si2 0.136599 0.474303 0.371302
Si Si3 0.551368 0.600462 0.196671
Si Si4 0.771460 0.475458 0.543806
Si Si5 0.802521 0.194890 0.961789
Si Si6 0.598513 0.689520 0.097434
Si Si7 0.091020 0.233567 0.608680
O O1 0.712982 0.070584 0.823825
O O2 0.770902 0.149787 0.857170
O O3 0.968583 0.103275 0.513716
O O4 0.929449 0.091992 0.030940
O O5 0.189875 0.499720 0.595155
O O6 0.953604 0.465835 0.467559
O O7 0.680003 0.565737 0.145907
O O8 0.649382 0.642184 0.096944
O O9 0.723905 0.508077 0.787746
O O10 0.904794 0.225380 0.722486
O O11 0.638260 0.217982 0.099786
O O12 0.907538 0.189434 0.166535
O O13 0.675693 0.709517 0.802146
O O14 0.655574 0.715248 0.311064
#
# Coordination Sequence:
#
# PCOD8054494 Si02
#       7
#     4   4   4   4   4   4   4
#     4  11  22  37  61  87 117 149 195 240 283 336
#     4  10  22  41  58  84 121 156 185 235 291 344
#     4  11  20  38  60  81 115 148 190 242 284 331
#     4  10  22  38  58  83 118 150 189 236 289 342
#     4   9  22  37  57  84 113 150 186 241 275 341
#     4   9  20  36  54  80 109 148 178 239 276 328
#     4  10  20  35  60  75 115 147 187 225 294 320
#
# _framework density 19.368459000000001
#
# number of rings (size 3 to 8) (size 9 to 14) (size 15 to 20)
#    0.857    1.143    1.429    1.714    2.000    3.429 
#    2.571    0.000    0.000    0.000    0.000    0.000 
#    0.000    0.000    0.000    0.000    0.000    0.000 
#
# Total GULP energy -173499.538247 kJ/mol
# GULP energy per Si atom -12392.824160 kJ/mol
# Density = 1.932438 g / cm^3
# Si number density = 19.368459 Si / 1000 Ang^3
#
#
#
# Elastic Constant Matrix: (Units=GPa)
#
#
# Indices 1 2 3 4 5 6 
#
# 1 36.4693 48.1480 23.7067 0.0000 5.3806 0.0000
# 2 48.1480 160.2605 47.1477 0.0000 -15.2660 0.0000
# 3 23.7067 47.1477 99.4213 0.0000 18.4642 0.0000
# 4 0.0000 0.0000 0.0000 32.9214 0.0000 -9.2812
# 5 5.3806 -15.2660 18.4642 0.0000 22.2163 0.0000
# 6 0.0000 0.0000 0.0000 -9.2812 0.0000 38.0570
#
#
#
# Elastic Compliance Matrix: (Units=1/GPa)
#
#
# Indices 1 2 3 4 5 6 
#
# 1 0.058198 -0.020717 0.001430 0.000000 -0.029519 0.000000
# 2 -0.020717 0.016704 -0.007149 0.000000 0.022437 0.000000
# 3 0.001430 -0.007149 0.016655 0.000000 -0.019100 0.000000
# 4 0.000000 0.000000 0.000000 0.032618 0.000000 0.007955
# 5 -0.029519 0.022437 -0.019100 0.000000 0.083454 0.000000
# 6 0.000000 0.000000 0.000000 0.007955 0.000000 0.028216
#
#
# Mechanical properties :
#
#
# Convention : Reuss Voigt Hill
#
# Bulk Modulus (GPa) = 25.85017 59.35066 42.60041
# Shear Modulus (GPa) = 16.57757 30.44886 23.51321
#
# Velocity S-wave (km/s) = 2.92876 3.96925 3.48802
# Velocity P-wave (km/s) = 4.98120 7.19139 6.18581
#
# Compressibility (1/GPa) = 0.03868447
#
# Stress axis : x y z
#
# Youngs Moduli (GPa) = 17.18274 59.86419 60.04348
#
# Poissons Ratio (x) = 1.24022 -0.08584
# Poissons Ratio (y) = 0.35598 0.42923
# Poissons Ratio (z) = -0.02457 0.42795
#
# Static dielectric constant tensor:
#      x y z
#    x 3.203470 0.000000 0.253090 
#    y 0.000000 3.555630 0.000000 
#    z 0.253090 0.000000 3.634750 
# 
# 
# High freq. dielectric constant tensor:
#      x y z
#    x 1.725090 0.000000 0.022630 
#    y 0.000000 1.762820 0.000000 
#    z 0.022630 0.000000 1.758380 
# 
# From -- ./inp_files/1040.got.cif
#   From: 2010.06.25/outbox.cif.g09.slc.cpg/sg9_1_cif.got.tgz:1040.got - 2010.06.27 21:40:51.
