data_PCOD8054363
_publ_section_title
;
Structure prediction by ZEFSAII (Michael W. Deem and Ramdas Pophale) SiO2 
 PCOD8054363
Probable space group: C C
;
_chemical_formula_sum "Si O2"
_cell_formula_units_Z 28
_cell_length_a 18.376589
_cell_length_b 9.672246
_cell_length_c 8.866656
_cell_angle_alpha 90.000000
_cell_angle_beta 128.916813
_cell_angle_gamma 90.000000
_cell_volume 1226.209112
_symmetry_space_group_name_H-M "C C"
_symmetry_group_IT_number 9
_symmetry_cell_setting 'monoclinic'
loop_
_space_group_symop_operation_xyz
x,y,z
x,-y,1/2+z
1/2+x,1/2+y,z
1/2+x,1/2-y,1/2+z
loop_
_atom_site_type_symbol
_atom_site_label
_atom_site_fract_x
_atom_site_fract_y
_atom_site_fract_z
Si Si1 0.591140 0.178089 0.470540
Si Si2 0.118595 0.877390 0.080622
Si Si3 0.279911 0.187421 0.299114
Si Si4 0.239446 0.011125 0.993833
Si Si5 0.134566 0.582770 0.192647
Si Si6 0.836670 0.981204 0.366554
Si Si7 0.458357 0.423757 0.265494
O O1 0.668355 0.282104 0.640163
O O2 0.626762 0.108086 0.361465
O O3 0.496207 0.267261 0.333754
O O4 0.574796 0.052395 0.567350
O O5 0.094651 0.714775 0.050287
O O6 0.152321 0.914327 0.295282
O O7 0.201754 0.906384 0.071746
O O8 0.029829 0.962495 0.914656
O O9 0.300839 0.074163 0.454836
O O10 0.333410 0.323201 0.422248
O O11 0.305255 0.124038 0.166037
O O12 0.241788 0.562714 0.276318
O O13 0.859217 0.956940 0.219492
O O14 0.928755 0.056006 0.553490
#
# Coordination Sequence:
#
# PCOD8054363 Si02
#       7
#     4   4   4   4   4   4   4
#     4  11  23  41  67  95 135 174 234 272 330 410
#     4  11  21  38  71  94 128 176 234 263 336 406
#     4  10  21  40  63  98 129 178 227 273 327 412
#     4  10  19  36  69  95 126 168 238 274 313 396
#     4  11  24  42  68  97 128 181 237 275 324 412
#     4  11  26  41  67  98 142 169 224 286 354 391
#     4  12  24  44  67 101 138 176 218 287 352 401
#
# _framework density 22.834605
#
# number of rings (size 3 to 8) (size 9 to 14) (size 15 to 20)
#    0.000    1.143    4.286    3.429    6.000    0.000 
#    0.000    2.857    0.000    0.000    0.000    0.000 
#    0.000    0.000    0.000    0.000    0.000    0.000 
#
# Total GULP energy -173509.218270 kJ/mol
# GULP energy per Si atom -12393.515591 kJ/mol
# Density = 2.278263 g / cm^3
# Si number density = 22.834605 Si / 1000 Ang^3
#
#
#
# Elastic Constant Matrix: (Units=GPa)
#
#
# Indices 1 2 3 4 5 6 
#
# 1 63.6272 15.6695 14.8074 0.0000 -11.1922 0.0000
# 2 15.6695 136.0183 43.4293 0.0000 2.2739 0.0000
# 3 14.8074 43.4293 73.3428 0.0000 -9.7751 0.0000
# 4 0.0000 0.0000 0.0000 45.0973 0.0000 -2.8759
# 5 -11.1922 2.2739 -9.7751 0.0000 29.1425 0.0000
# 6 0.0000 0.0000 0.0000 -2.8759 0.0000 34.0743
#
#
#
# Elastic Compliance Matrix: (Units=1/GPa)
#
#
# Indices 1 2 3 4 5 6 
#
# 1 0.017625 -0.001562 -0.001795 0.000000 0.006289 0.000000
# 2 -0.001562 0.009401 -0.005683 0.000000 -0.003240 0.000000
# 3 -0.001795 -0.005683 0.018140 0.000000 0.005839 0.000000
# 4 0.000000 0.000000 0.000000 0.022294 0.000000 0.001882
# 5 0.006289 -0.003240 0.005839 0.000000 0.038941 0.000000
# 6 0.000000 0.000000 0.000000 0.001882 0.000000 0.029506
#
#
# Mechanical properties :
#
#
# Convention : Reuss Voigt Hill
#
# Bulk Modulus (GPa) = 36.92022 46.75565 41.83794
# Shear Modulus (GPa) = 30.67175 34.93497 32.80336
#
# Velocity S-wave (km/s) = 3.66896 3.91565 3.79431
# Velocity P-wave (km/s) = 5.84397 6.40026 6.12843
#
# Compressibility (1/GPa) = 0.02708543
#
# Stress axis : x y z
#
# Youngs Moduli (GPa) = 56.73662 106.37655 55.12613
#
# Poissons Ratio (x) = 0.16621 0.09896
# Poissons Ratio (y) = 0.08865 0.31327
# Poissons Ratio (z) = 0.10185 0.60452
#
# Static dielectric constant tensor:
#      x y z
#    x 3.958180 0.000000 -0.364320 
#    y 0.000000 4.324410 0.000000 
#    z -0.364320 0.000000 4.026790 
# 
# 
# High freq. dielectric constant tensor:
#      x y z
#    x 1.878590 0.000000 -0.026390 
#    y 0.000000 1.915320 0.000000 
#    z -0.026390 0.000000 1.893490 
# 
# From -- ./inp_files/11301.got.cif
#   From: 2010.06.25/outbox.cif.g09.slc.cpg/sg9_6_cif.got.tgz:11301.got - 2010.06.27 21:40:51.
