data_PCOD8054656
_publ_section_title
;
Structure prediction by ZEFSAII (Michael W. Deem and Ramdas Pophale) SiO2 
 PCOD8054656
Probable space group: C C
;
_chemical_formula_sum "Si O2"
_cell_formula_units_Z 28
_cell_length_a 14.858138
_cell_length_b 11.146777
_cell_length_c 8.546098
_cell_angle_alpha 90.000000
_cell_angle_beta 120.129917
_cell_angle_gamma 90.000000
_cell_volume 1224.171214
_symmetry_space_group_name_H-M "C C"
_symmetry_group_IT_number 9
_symmetry_cell_setting 'monoclinic'
loop_
_space_group_symop_operation_xyz
x,y,z
x,-y,1/2+z
1/2+x,1/2+y,z
1/2+x,1/2-y,1/2+z
loop_
_atom_site_type_symbol
_atom_site_label
_atom_site_fract_x
_atom_site_fract_y
_atom_site_fract_z
Si Si1 0.547760 0.379036 0.830070
Si Si2 0.044283 0.486530 0.447730
Si Si3 0.694641 0.403872 0.461935
Si Si4 0.326103 0.703064 0.070764
Si Si5 0.130311 0.345893 0.239133
Si Si6 0.328314 0.930749 0.871910
Si Si7 0.651661 0.231903 0.171419
O O1 0.591167 0.513826 0.865397
O O2 0.423854 0.380832 0.696238
O O3 0.602821 0.294153 0.746456
O O4 0.573996 0.327105 0.023072
O O5 0.061141 0.432099 0.291680
O O6 0.103868 0.612840 0.539072
O O7 0.093217 0.395296 0.619971
O O8 0.922327 0.509945 0.358645
O O9 0.740004 0.382194 0.674617
O O10 0.782975 0.463147 0.434421
O O11 0.669354 0.274097 0.364866
O O12 0.260647 0.731396 0.170523
O O13 0.251505 0.631739 0.884800
O O14 0.365644 0.824238 0.019712
#
# Coordination Sequence:
#
# PCOD8054656 Si02
#       7
#     4   4   4   4   4   4   4
#     4  10  20  40  64  89 125 164 202 256 321 366
#     4  10  22  39  62  91 125 162 208 255 312 366
#     4  12  23  39  62  99 128 157 211 264 309 370
#     4  10  21  42  68  86 124 172 209 247 327 370
#     4  10  21  39  61  90 123 162 204 260 306 373
#     4  12  21  38  68  94 119 166 215 257 300 375
#     4  10  24  41  63  91 126 167 203 261 307 380
#
# _framework density 22.872617999999999
#
# number of rings (size 3 to 8) (size 9 to 14) (size 15 to 20)
#    0.000    1.714    5.714    0.857    6.000    1.143 
#    5.143    0.000    0.000    0.000    0.000    0.000 
#    0.000    0.000    0.000    0.000    0.000    0.000 
#
# Total GULP energy -173526.036656 kJ/mol
# GULP energy per Si atom -12394.716904 kJ/mol
# Density = 2.282056 g / cm^3
# Si number density = 22.872618 Si / 1000 Ang^3
#
#
#
# Elastic Constant Matrix: (Units=GPa)
#
#
# Indices 1 2 3 4 5 6 
#
# 1 108.4613 21.4879 34.5388 0.0000 35.4088 0.0000
# 2 21.4879 59.4618 25.8830 0.0000 -4.9840 0.0000
# 3 34.5388 25.8830 73.2842 0.0000 16.9748 0.0000
# 4 0.0000 0.0000 0.0000 43.8980 0.0000 -0.9939
# 5 35.4088 -4.9840 16.9748 0.0000 33.3850 0.0000
# 6 0.0000 0.0000 0.0000 -0.9939 0.0000 30.5153
#
#
#
# Elastic Compliance Matrix: (Units=1/GPa)
#
#
# Indices 1 2 3 4 5 6 
#
# 1 0.017110 -0.007220 -0.001202 0.000000 -0.018613 0.000000
# 2 -0.007220 0.024679 -0.009001 0.000000 0.015918 0.000000
# 3 -0.001202 -0.009001 0.019731 0.000000 -0.010101 0.000000
# 4 0.000000 0.000000 0.000000 0.022797 0.000000 0.000743
# 5 -0.018613 0.015918 -0.010101 0.000000 0.057207 0.000000
# 6 0.000000 0.000000 0.000000 0.000743 0.000000 0.032795
#
#
# Mechanical properties :
#
#
# Convention : Reuss Voigt Hill
#
# Bulk Modulus (GPa) = 37.49046 45.00297 41.24672
# Shear Modulus (GPa) = 22.93002 32.17950 27.55476
#
# Velocity S-wave (km/s) = 3.16968 3.75494 3.47465
# Velocity P-wave (km/s) = 5.46099 6.20625 5.84551
#
# Compressibility (1/GPa) = 0.02667345
#
# Stress axis : x y z
#
# Youngs Moduli (GPa) = 58.44626 40.52089 50.68237
#
# Poissons Ratio (x) = 0.29255 0.06094
# Poissons Ratio (y) = 0.42197 0.45617
# Poissons Ratio (z) = 0.07028 0.36471
#
# Static dielectric constant tensor:
#      x y z
#    x 3.896660 0.000000 0.113690 
#    y 0.000000 3.993700 0.000000 
#    z 0.113690 0.000000 4.201710 
# 
# 
# High freq. dielectric constant tensor:
#      x y z
#    x 1.889500 0.000000 0.010070 
#    y 0.000000 1.889400 0.000000 
#    z 0.010070 0.000000 1.909300 
# 
# From -- ./inp_files/9307.got.cif
#   From: 2010.06.25/outbox.cif.g09.slc.cpg/sg9_5_cif.got.tgz:9307.got - 2010.06.27 21:40:51.
