data_PCOD8054551
_publ_section_title
;
Structure prediction by ZEFSAII (Michael W. Deem and Ramdas Pophale) SiO2 
 PCOD8054551
Probable space group: C C
;
_chemical_formula_sum "Si O2"
_cell_formula_units_Z 28
_cell_length_a 26.136659
_cell_length_b 9.392676
_cell_length_c 9.978204
_cell_angle_alpha 90.000000
_cell_angle_beta 37.396196
_cell_angle_gamma 90.000000
_cell_volume 1487.687071
_symmetry_space_group_name_H-M "C C"
_symmetry_group_IT_number 9
_symmetry_cell_setting 'monoclinic'
loop_
_space_group_symop_operation_xyz
x,y,z
x,-y,1/2+z
1/2+x,1/2+y,z
1/2+x,1/2-y,1/2+z
loop_
_atom_site_type_symbol
_atom_site_label
_atom_site_fract_x
_atom_site_fract_y
_atom_site_fract_z
Si Si1 0.061150 0.651160 0.353690
Si Si2 0.209326 0.149303 0.492777
Si Si3 0.377635 0.793219 0.317342
Si Si4 0.798115 0.102711 0.681351
Si Si5 0.133345 0.463325 0.981444
Si Si6 0.276937 0.963027 0.120393
Si Si7 0.777687 0.200475 0.285831
O O1 0.067801 0.533254 0.222499
O O2 0.087216 0.586076 0.443142
O O3 0.965710 0.705808 0.558145
O O4 0.115638 0.788659 0.202109
O O5 0.275135 0.282312 0.344815
O O6 0.228169 0.056444 0.583517
O O7 0.215268 0.045737 0.351890
O O8 0.372632 0.664294 0.434183
O O9 0.297972 0.771596 0.384902
O O10 0.361520 0.943995 0.423356
O O11 0.829239 0.950349 0.674002
O O12 0.709313 0.073806 0.785523
O O13 0.177931 0.330038 0.967113
O O14 0.308117 0.810418 0.108760
#
# Coordination Sequence:
#
# PCOD8054551 Si02
#       7
#     4   4   4   4   4   4   4
#     4  11  22  38  61  90 125 149 198 253 301 345
#     4  10  20  40  58  89 111 160 195 244 284 362
#     4  11  23  37  61  91 121 150 199 258 298 339
#     4   8  20  37  65  79 114 158 205 226 288 367
#     4   9  20  38  65  82 116 163 202 229 292 370
#     4  11  21  37  63  84 117 154 204 234 294 354
#     4  10  20  37  63  81 114 160 203 228 289 363
#
# _framework density 18.821162000000001
#
# number of rings (size 3 to 8) (size 9 to 14) (size 15 to 20)
#    0.857    1.143    2.857    0.857    4.000    0.000 
#    2.571    0.000    3.143    0.000    0.000    0.000 
#    0.000    0.000    0.000    0.000    0.000    0.000 
#
# Total GULP energy -173453.397389 kJ/mol
# GULP energy per Si atom -12389.528385 kJ/mol
# Density = 1.877832 g / cm^3
# Si number density = 18.821162 Si / 1000 Ang^3
#
#
#
# Elastic Constant Matrix: (Units=GPa)
#
#
# Indices 1 2 3 4 5 6 
#
# 1 56.5679 28.6266 32.8284 0.0000 14.6114 0.0000
# 2 28.6266 122.2472 55.5477 0.0000 6.2976 0.0000
# 3 32.8284 55.5477 122.9451 0.0000 -0.3178 0.0000
# 4 0.0000 0.0000 0.0000 27.4275 0.0000 8.2346
# 5 14.6114 6.2976 -0.3178 0.0000 24.9679 0.0000
# 6 0.0000 0.0000 0.0000 8.2346 0.0000 26.6080
#
#
#
# Elastic Compliance Matrix: (Units=1/GPa)
#
#
# Indices 1 2 3 4 5 6 
#
# 1 0.026244 -0.002749 -0.005804 0.000000 -0.014739 0.000000
# 2 -0.002749 0.010760 -0.004131 0.000000 -0.001158 0.000000
# 3 -0.005804 -0.004131 0.011561 0.000000 0.004585 0.000000
# 4 0.000000 0.000000 0.000000 0.040195 0.000000 -0.012439
# 5 -0.014739 -0.001158 0.004585 0.000000 0.049027 0.000000
# 6 0.000000 0.000000 0.000000 -0.012439 0.000000 0.041432
#
#
# Mechanical properties :
#
#
# Convention : Reuss Voigt Hill
#
# Bulk Modulus (GPa) = 43.10480 59.52952 51.31716
# Shear Modulus (GPa) = 23.54936 28.11785 25.83360
#
# Velocity S-wave (km/s) = 3.54109 3.86936 3.70886
# Velocity P-wave (km/s) = 6.29850 7.18751 6.75764
#
# Compressibility (1/GPa) = 0.02319927
#
# Stress axis : x y z
#
# Youngs Moduli (GPa) = 38.10367 92.93280 86.49434
#
# Poissons Ratio (x) = 0.25549 0.50198
# Poissons Ratio (y) = 0.10476 0.35727
# Poissons Ratio (z) = 0.22114 0.38387
#
# Static dielectric constant tensor:
#      x y z
#    x 3.110150 0.000000 0.222400 
#    y 0.000000 3.667120 0.000000 
#    z 0.222400 0.000000 3.326520 
# 
# 
# High freq. dielectric constant tensor:
#      x y z
#    x 1.700210 0.000000 0.026270 
#    y 0.000000 1.744570 0.000000 
#    z 0.026270 0.000000 1.718700 
# 
# From -- ./inp_files/10443.got.cif
#   From: 2010.06.25/outbox.cif.g09.slc.cpg/sg9_6_cif.got.tgz:10443.got - 2010.06.27 21:40:51.
