data_PCOD8054914
_publ_section_title
;
Structure prediction by ZEFSAII (Michael W. Deem and Ramdas Pophale) SiO2 
 PCOD8054914
Probable space group: C C
;
_chemical_formula_sum "Si O2"
_cell_formula_units_Z 32
_cell_length_a 11.008085
_cell_length_b 9.495537
_cell_length_c 14.181271
_cell_angle_alpha 90.000000
_cell_angle_beta 104.103038
_cell_angle_gamma 90.000000
_cell_volume 1437.656409
_symmetry_space_group_name_H-M "C C"
_symmetry_group_IT_number 9
_symmetry_cell_setting 'monoclinic'
loop_
_space_group_symop_operation_xyz
x,y,z
x,-y,1/2+z
1/2+x,1/2+y,z
1/2+x,1/2-y,1/2+z
loop_
_atom_site_type_symbol
_atom_site_label
_atom_site_fract_x
_atom_site_fract_y
_atom_site_fract_z
Si Si1 0.441010 0.360422 0.095000
Si Si2 0.161189 0.069978 0.124462
Si Si3 0.844500 0.582384 0.795589
Si Si4 0.472006 0.802631 0.145558
Si Si5 0.264551 0.607967 0.064739
Si Si6 0.093142 0.535281 0.391366
Si Si7 0.242245 0.208466 0.954708
Si Si8 0.065878 0.597958 0.177373
O O1 0.565880 0.441868 0.089334
O O2 0.340042 0.470423 0.118016
O O3 0.471403 0.231210 0.172916
O O4 0.375170 0.289886 0.991075
O O5 0.273313 0.025969 0.214453
O O6 0.095715 0.206235 0.159161
O O7 0.222292 0.096469 0.033822
O O8 0.921544 0.693916 0.744944
O O9 0.743936 0.647506 0.848857
O O10 0.947058 0.499763 0.878680
O O11 0.361480 0.734309 0.061080
O O12 0.500722 0.961730 0.115153
O O13 0.174727 0.657027 0.131733
O O14 0.184647 0.580799 0.955160
O O15 0.123824 0.686632 0.442594
O O16 0.122781 0.542808 0.285670
#
# Coordination Sequence:
#
# PCOD8054914 Si02
#       8
#     4   4   4   4   4   4   4   4
#     4  10  22  39  62  90 123 165 206 251 308 368
#     4  11  24  42  65  94 128 168 211 259 315 375
#     4  11  24  41  64  94 127 164 211 262 314 373
#     4  10  22  40  63  91 123 163 209 258 313 372
#     4  10  21  40  61  87 124 159 201 255 312 369
#     4  10  22  38  61  92 121 159 207 255 310 369
#     4  11  22  40  63  92 128 166 211 259 313 374
#     4  11  21  40  63  88 124 162 204 255 311 368
#
# _framework density 22.258448999999999
#
# number of rings (size 3 to 8) (size 9 to 14) (size 15 to 20)
#    0.000    1.500    0.000    6.000    0.000    2.000 
#    0.000   22.500    0.000    0.000    0.000    0.000 
#    0.000    0.000    0.000    0.000    0.000    0.000 
#
# Total GULP energy -198317.921209 kJ/mol
# GULP energy per Si atom -12394.870076 kJ/mol
# Density = 2.220779 g / cm^3
# Si number density = 22.258449 Si / 1000 Ang^3
#
#
#
# Elastic Constant Matrix: (Units=GPa)
#
#
# Indices 1 2 3 4 5 6 
#
# 1 82.7997 36.8119 25.6743 0.0000 10.0605 0.0000
# 2 36.8119 103.4025 16.4599 0.0000 11.8930 0.0000
# 3 25.6743 16.4599 70.6917 0.0000 9.8889 0.0000
# 4 0.0000 0.0000 0.0000 34.4623 0.0000 1.3789
# 5 10.0605 11.8930 9.8889 0.0000 42.8324 0.0000
# 6 0.0000 0.0000 0.0000 1.3789 0.0000 33.7969
#
#
#
# Elastic Compliance Matrix: (Units=1/GPa)
#
#
# Indices 1 2 3 4 5 6 
#
# 1 0.015717 -0.004736 -0.004416 0.000000 -0.001357 0.000000
# 2 -0.004736 0.011699 -0.000729 0.000000 -0.001968 0.000000
# 3 -0.004416 -0.000729 0.016271 0.000000 -0.002517 0.000000
# 4 0.000000 0.000000 0.000000 0.029065 0.000000 -0.001186
# 5 -0.001357 -0.001968 -0.002517 0.000000 0.024793 0.000000
# 6 0.000000 0.000000 0.000000 -0.001186 0.000000 0.029637
#
#
# Mechanical properties :
#
#
# Convention : Reuss Voigt Hill
#
# Bulk Modulus (GPa) = 41.79427 46.08733 43.94080
# Shear Modulus (GPa) = 32.27481 34.08152 33.17817
#
# Velocity S-wave (km/s) = 3.81202 3.91726 3.86500
# Velocity P-wave (km/s) = 6.18004 6.41954 6.30093
#
# Compressibility (1/GPa) = 0.02392672
#
# Stress axis : x y z
#
# Youngs Moduli (GPa) = 63.62462 85.47407 61.45747
#
# Poissons Ratio (x) = 0.40484 0.27137
# Poissons Ratio (y) = 0.30135 0.04478
# Poissons Ratio (z) = 0.28094 0.06228
#
# Static dielectric constant tensor:
#      x y z
#    x 4.127610 0.000000 0.260970 
#    y 0.000000 4.274340 0.000000 
#    z 0.260970 0.000000 3.867200 
# 
# 
# High freq. dielectric constant tensor:
#      x y z
#    x 1.883320 0.000000 0.018190 
#    y 0.000000 1.883160 0.000000 
#    z 0.018190 0.000000 1.856990 
# 
# From -- ./inp_files/24359.got.cif
#   From: 2010.06.25/outbox.cif.g09.slc.cpg/sg9_13_cif.got.tgz:24359.got - 2010.06.27 21:40:51.
