data_PCOD8054043
_publ_section_title
;
Structure prediction by ZEFSAII (Michael W. Deem and Ramdas Pophale) SiO2 
 PCOD8054043
Probable space group: C M
;
_chemical_formula_sum "Si O2"
_cell_formula_units_Z 20
_cell_length_a 7.795623
_cell_length_b 21.325790
_cell_length_c 5.093128
_cell_angle_alpha 90.000000
_cell_angle_beta 116.086611
_cell_angle_gamma 90.000000
_cell_volume 760.466213
_symmetry_space_group_name_H-M "C M"
_symmetry_group_IT_number 8
_symmetry_cell_setting 'monoclinic'
loop_
_space_group_symop_operation_xyz
x,y,z
x,-y,z
1/2+x,1/2+y,z
1/2+x,1/2-y,z
loop_
_atom_site_type_symbol
_atom_site_label
_atom_site_fract_x
_atom_site_fract_y
_atom_site_fract_z
Si Si1 0.029490 0.571518 0.688510
Si Si2 0.777928 0.311838 0.874208
Si Si3 0.629286 0.431025 0.615202
Si Si4 0.921304 0.741346 0.478156
Si Si5 0.231583 0.625957 0.313748
O O1 0.105256 0.500000 0.768428
O O2 0.139464 0.603613 0.523835
O O3 0.797697 0.569631 0.507962
O O4 0.075521 0.611784 0.984446
O O5 0.683763 0.379498 0.876082
O O6 0.849237 0.313962 0.619731
O O7 0.617942 0.258415 0.749910
O O8 0.933859 0.291209 0.197370
O O9 0.616565 0.500000 0.736846
O O10 0.423061 0.412092 0.360173
O O11 0.780490 0.800592 0.368696
#
# Coordination Sequence:
#
# PCOD8054043 Si02
#       5
#     4   4   4   4   4
#     4  11  24  42  72 106 137 189 238 289 360 420
#     4  11  25  44  70 103 138 184 232 293 358 417
#     4  10  25  47  72 105 145 187 240 295 353 426
#     4  11  25  43  69 103 137 184 234 290 361 415
#     4  11  25  46  71 101 145 188 236 295 354 422
#
# _framework density 26.299652999999999
#
# number of rings (size 3 to 8) (size 9 to 14) (size 15 to 20)
#    0.000    1.200    0.000    4.200    8.400    6.400 
#    0.000    7.000    0.000    0.000    0.000    0.000 
#    0.000    0.000    0.000    0.000    0.000    0.000 
#
# Total GULP energy -123913.057199 kJ/mol
# GULP energy per Si atom -12391.305720 kJ/mol
# Density = 2.623979 g / cm^3
# Si number density = 26.299653 Si / 1000 Ang^3
#
#
#
# Elastic Constant Matrix: (Units=GPa)
#
#
# Indices 1 2 3 4 5 6 
#
# 1 94.6184 -23.8728 38.6998 0.0000 2.6712 0.0000
# 2 -23.8728 133.3025 44.0391 0.0000 -10.0512 0.0000
# 3 38.6998 44.0391 124.7868 0.0000 -10.1219 0.0000
# 4 0.0000 0.0000 0.0000 26.6967 0.0000 5.8393
# 5 2.6712 -10.0512 -10.1219 0.0000 55.1303 0.0000
# 6 0.0000 0.0000 0.0000 5.8393 0.0000 28.4173
#
#
#
# Elastic Compliance Matrix: (Units=1/GPa)
#
#
# Indices 1 2 3 4 5 6 
#
# 1 0.014205 0.004473 -0.006064 0.000000 -0.000986 0.000000
# 2 0.004473 0.009956 -0.004843 0.000000 0.000709 0.000000
# 3 -0.006064 -0.004843 0.011731 0.000000 0.001564 0.000000
# 4 0.000000 0.000000 0.000000 0.039221 0.000000 -0.008059
# 5 -0.000986 0.000709 0.001564 0.000000 0.018603 0.000000
# 6 0.000000 0.000000 0.000000 -0.008059 0.000000 0.036846
#
#
# Mechanical properties :
#
#
# Convention : Reuss Voigt Hill
#
# Bulk Modulus (GPa) = 43.43402 52.27109 47.85256
# Shear Modulus (GPa) = 33.08945 41.63830 37.36387
#
# Velocity S-wave (km/s) = 3.55092 3.98329 3.77330
# Velocity P-wave (km/s) = 5.77607 6.40889 6.10069
#
# Compressibility (1/GPa) = 0.02302343
#
# Stress axis : x y z
#
# Youngs Moduli (GPa) = 70.39545 100.43777 85.24758
#
# Poissons Ratio (x) = -0.44926 0.51695
# Poissons Ratio (y) = -0.31488 0.41289
# Poissons Ratio (z) = 0.42688 0.48647
#
# Static dielectric constant tensor:
#      x y z
#    x 5.047330 0.000000 0.375340 
#    y 0.000000 5.319150 0.000000 
#    z 0.375340 0.000000 4.329610 
# 
# 
# High freq. dielectric constant tensor:
#      x y z
#    x 2.072100 0.000000 0.025660 
#    y 0.000000 2.096020 0.000000 
#    z 0.025660 0.000000 2.024260 
# 
# From -- ./inp_files/1263.got.cif
#   From: 2010.03.12/outbox.cif.g09.slc.cpg/sg8_1_cif.got.tgz:1263.got - 2010.03.31 10:45:26.
