data_PCOD8054844
_publ_section_title
;
Structure prediction by ZEFSAII (Michael W. Deem and Ramdas Pophale) SiO2 
 PCOD8054844
Probable space group: C C
;
_chemical_formula_sum "Si O2"
_cell_formula_units_Z 28
_cell_length_a 11.688900
_cell_length_b 9.376430
_cell_length_c 21.600323
_cell_angle_alpha 90.000000
_cell_angle_beta 30.879715
_cell_angle_gamma 90.000000
_cell_volume 1215.037625
_symmetry_space_group_name_H-M "C C"
_symmetry_group_IT_number 9
_symmetry_cell_setting 'monoclinic'
loop_
_space_group_symop_operation_xyz
x,y,z
x,-y,1/2+z
1/2+x,1/2+y,z
1/2+x,1/2-y,1/2+z
loop_
_atom_site_type_symbol
_atom_site_label
_atom_site_fract_x
_atom_site_fract_y
_atom_site_fract_z
Si Si1 0.765850 0.826003 0.973210
Si Si2 0.128784 0.499168 0.145165
Si Si3 0.979838 0.367348 0.472700
Si Si4 0.503362 0.558028 0.052325
Si Si5 0.839561 0.322616 0.862082
Si Si6 0.529805 0.698208 0.233898
Si Si7 0.680114 0.110860 0.300827
O O1 0.922504 0.875610 0.844113
O O2 0.633169 0.954844 0.070038
O O3 0.929218 0.757296 0.947749
O O4 0.589244 0.716259 0.027015
O O5 0.374818 0.561267 0.046334
O O6 0.945875 0.619385 0.247765
O O7 0.091805 0.365133 0.209560
O O8 0.753220 0.393564 0.616955
O O9 0.187880 0.315592 0.418500
O O10 0.034649 0.515066 0.414498
O O11 0.328551 0.510724 0.186889
O O12 0.702184 0.447403 0.958801
O O13 0.027518 0.288036 0.826992
O O14 0.352161 0.703571 0.260502
#
# Coordination Sequence:
#
# PCOD8054844 Si02
#       7
#     4   4   4   4   4   4   4
#     4  11  20  39  68  96 127 169 218 264 327 396
#     4  10  21  38  65  99 125 167 218 265 327 388
#     4  11  23  41  66  97 126 173 221 267 330 389
#     4  11  18  37  69  92 124 174 216 262 326 391
#     4  11  21  39  67  98 126 172 223 262 325 395
#     4  11  21  40  66  91 132 175 216 271 331 385
#     4  11  22  40  63  95 132 172 218 269 324 390
#
# _framework density 23.044553000000001
#
# number of rings (size 3 to 8) (size 9 to 14) (size 15 to 20)
#    0.000    1.143    8.571    0.857    0.000    0.000 
#    2.571    8.571    0.000    0.000    0.000    0.000 
#    0.000    0.000    0.000    0.000    0.000    0.000 
#
# Total GULP energy -173493.812295 kJ/mol
# GULP energy per Si atom -12392.415164 kJ/mol
# Density = 2.299210 g / cm^3
# Si number density = 23.044553 Si / 1000 Ang^3
#
#
#
# Elastic Constant Matrix: (Units=GPa)
#
#
# Indices 1 2 3 4 5 6 
#
# 1 122.9310 36.6837 54.7112 -0.0005 -5.6836 0.0000
# 2 36.6837 34.1755 23.9144 0.0002 -1.1313 -0.0002
# 3 54.7112 23.9144 138.6635 -0.0013 12.7372 -0.0008
# 4 -0.0005 0.0002 -0.0013 15.1458 -0.0007 -4.4147
# 5 -5.6836 -1.1313 12.7372 -0.0007 45.5971 0.0000
# 6 0.0000 -0.0002 -0.0008 -4.4147 0.0000 42.1196
#
#
#
# Elastic Compliance Matrix: (Units=1/GPa)
#
#
# Indices 1 2 3 4 5 6 
#
# 1 0.013281 -0.011786 -0.003421 0.000000 0.002319 0.000000
# 2 -0.011786 0.044013 -0.002982 -0.000001 0.000456 0.000000
# 3 -0.003421 -0.002982 0.009362 0.000001 -0.003116 0.000000
# 4 0.000000 -0.000001 0.000001 0.068106 0.000001 0.007138
# 5 0.002319 0.000456 -0.003116 0.000001 0.023102 0.000000
# 6 0.000000 0.000000 0.000000 0.007138 0.000000 0.024490
#
#
# Mechanical properties :
#
#
# Convention : Reuss Voigt Hill
#
# Bulk Modulus (GPa) = 33.02605 58.48762 45.75684
# Shear Modulus (GPa) = 21.85082 32.60321 27.22702
#
# Velocity S-wave (km/s) = 3.08262 3.76545 3.44102
# Velocity P-wave (km/s) = 5.19929 6.65884 5.97381
#
# Compressibility (1/GPa) = 0.03027912
#
# Stress axis : x y z
#
# Youngs Moduli (GPa) = 75.29493 22.72037 106.81600
#
# Poissons Ratio (x) = 0.26777 0.36538
# Poissons Ratio (y) = 0.88739 0.31858
# Poissons Ratio (z) = 0.25755 0.06776
#
# Static dielectric constant tensor:
#      x y z
#    x 4.276780 0.000000 0.019490 
#    y 0.000000 3.570700 0.000000 
#    z 0.019490 0.000000 4.679670 
# 
# 
# High freq. dielectric constant tensor:
#      x y z
#    x 1.909950 0.000000 -0.005200 
#    y 0.000000 1.860610 0.000000 
#    z -0.005200 0.000000 1.932300 
# 
# From -- ./inp_files/16291.got.cif
#   From: 2010.06.25/outbox.cif.g09.slc.cpg/sg9_9_cif.got.tgz:16291.got - 2010.06.27 21:40:51.
