data_PCOD8054498
_publ_section_title
;
Structure prediction by ZEFSAII (Michael W. Deem and Ramdas Pophale) SiO2 
 PCOD8054498
Probable space group: C C
;
_chemical_formula_sum "Si O2"
_cell_formula_units_Z 32
_cell_length_a 11.296609
_cell_length_b 16.925071
_cell_length_c 10.726304
_cell_angle_alpha 90.000000
_cell_angle_beta 140.797414
_cell_angle_gamma 90.000000
_cell_volume 1296.253507
_symmetry_space_group_name_H-M "C C"
_symmetry_group_IT_number 9
_symmetry_cell_setting 'monoclinic'
loop_
_space_group_symop_operation_xyz
x,y,z
x,-y,1/2+z
1/2+x,1/2+y,z
1/2+x,1/2-y,1/2+z
loop_
_atom_site_type_symbol
_atom_site_label
_atom_site_fract_x
_atom_site_fract_y
_atom_site_fract_z
Si Si1 0.281910 0.163055 0.199360
Si Si2 0.289111 0.590656 0.995970
Si Si3 0.908198 0.447283 0.477134
Si Si4 0.861070 0.156937 0.794728
Si Si5 0.096907 0.447282 0.924127
Si Si6 0.223196 0.663054 0.201902
Si Si7 0.144036 0.843062 0.106535
Si Si8 0.215997 0.909343 0.905293
O O1 0.317106 0.255406 0.213415
O O2 0.437936 0.114774 0.246659
O O3 0.302232 0.141422 0.362058
O O4 0.081855 0.140261 0.979797
O O5 0.267362 0.642086 0.853425
O O6 0.175970 0.507949 0.883571
O O7 0.202874 0.641421 0.039204
O O8 0.502554 0.569777 0.200632
O O9 0.002548 0.500000 0.450625
O O10 0.067172 0.385228 0.654604
O O11 0.829138 0.507949 0.517692
O O12 0.729161 0.401784 0.276678
O O13 0.775946 0.098214 0.624586
O O14 0.423252 0.640260 0.421464
O O15 0.187996 0.755405 0.187845
O O16 0.237746 0.857913 0.047840
#
# Coordination Sequence:
#
# PCOD8054498 Si02
#       8
#     4   4   4   4   4   4   4   4
#     4  10  20  35  61  92 121 157 201 252 314 352
#     4   9  21  36  58  93 126 159 201 249 311 366
#     4  10  22  38  57  92 127 165 197 247 315 366
#     4  11  20  38  63  91 125 155 202 262 299 363
#     4  10  22  38  57  92 127 165 197 247 315 366
#     4  10  20  35  61  92 121 157 201 252 314 352
#     4  11  20  38  63  91 125 155 202 262 299 363
#     4   9  21  36  58  93 126 159 201 249 311 366
#
# _framework density 24.686529
#
# number of rings (size 3 to 8) (size 9 to 14) (size 15 to 20)
#    0.000    2.000    2.500    0.750    0.000   13.000 
#    0.000    2.500    0.000    1.500    0.000    0.000 
#    0.000    0.000    0.000    0.000    0.000    0.000 
#
# Total GULP energy -198412.179733 kJ/mol
# GULP energy per Si atom -12400.761233 kJ/mol
# Density = 2.463034 g / cm^3
# Si number density = 24.686529 Si / 1000 Ang^3
#
#
#
# Elastic Constant Matrix: (Units=GPa)
#
#
# Indices 1 2 3 4 5 6 
#
# 1 45.7194 23.1698 11.4491 0.0000 10.5683 0.0000
# 2 23.1698 153.4747 40.9722 0.0000 12.5141 0.0000
# 3 11.4491 40.9722 135.5172 0.0000 17.9794 0.0000
# 4 0.0000 0.0000 0.0000 35.9086 0.0000 15.2505
# 5 10.5683 12.5141 17.9794 0.0000 18.5607 0.0000
# 6 0.0000 0.0000 0.0000 15.2505 0.0000 43.2368
#
#
#
# Elastic Compliance Matrix: (Units=1/GPa)
#
#
# Indices 1 2 3 4 5 6 
#
# 1 0.026391 -0.003012 0.000465 0.000000 -0.013446 0.000000
# 2 -0.003012 0.007591 -0.001823 0.000000 -0.001637 0.000000
# 3 0.000465 -0.001823 0.008908 0.000000 -0.007664 0.000000
# 4 0.000000 0.000000 0.000000 0.032755 0.000000 -0.011553
# 5 -0.013446 -0.001637 -0.007664 0.000000 0.070061 0.000000
# 6 0.000000 0.000000 0.000000 -0.011553 0.000000 0.027204
#
#
# Mechanical properties :
#
#
# Convention : Reuss Voigt Hill
#
# Bulk Modulus (GPa) = 29.28360 53.98815 41.63588
# Shear Modulus (GPa) = 25.90230 36.81591 31.35910
#
# Velocity S-wave (km/s) = 3.24272 3.86597 3.56798
# Velocity P-wave (km/s) = 5.09002 6.46874 5.82035
#
# Compressibility (1/GPa) = 0.03414880
#
# Stress axis : x y z
#
# Youngs Moduli (GPa) = 37.89212 131.74109 112.25881
#
# Poissons Ratio (x) = 0.39679 -0.05220
# Poissons Ratio (y) = 0.11413 0.20469
# Poissons Ratio (z) = -0.01762 0.24021
#
# Static dielectric constant tensor:
#      x y z
#    x 5.531030 0.000000 0.918710 
#    y 0.000000 4.707750 0.000000 
#    z 0.918710 0.000000 4.873680 
# 
# 
# High freq. dielectric constant tensor:
#      x y z
#    x 1.975430 0.000000 0.014510 
#    y 0.000000 1.993280 0.000000 
#    z 0.014510 0.000000 1.994910 
# 
# From -- ./inp_files/26035.got.cif
#   From: 2010.06.25/outbox.cif.g09.slc.cpg/sg9_14_cif.got.tgz:26035.got - 2010.06.27 21:40:51.
