data_PCOD8054970
_publ_section_title
;
Structure prediction by ZEFSAII (Michael W. Deem and Ramdas Pophale) SiO2 
 PCOD8054970
Probable space group: C C
;
_chemical_formula_sum "Si O2"
_cell_formula_units_Z 28
_cell_length_a 7.470687
_cell_length_b 28.469501
_cell_length_c 5.186200
_cell_angle_alpha 90.000000
_cell_angle_beta 90.609693
_cell_angle_gamma 90.000000
_cell_volume 1102.973474
_symmetry_space_group_name_H-M "C C"
_symmetry_group_IT_number 9
_symmetry_cell_setting 'monoclinic'
loop_
_space_group_symop_operation_xyz
x,y,z
x,-y,1/2+z
1/2+x,1/2+y,z
1/2+x,1/2-y,1/2+z
loop_
_atom_site_type_symbol
_atom_site_label
_atom_site_fract_x
_atom_site_fract_y
_atom_site_fract_z
Si Si1 0.654450 0.632425 0.851870
Si Si2 0.130265 0.973703 0.446865
Si Si3 0.041195 0.379207 0.201610
Si Si4 0.464080 0.699077 0.493765
Si Si5 0.803903 0.286967 0.722620
Si Si6 0.152791 0.665602 0.210855
Si Si7 0.053010 0.523377 0.928572
O O1 0.584552 0.582355 0.961458
O O2 0.824928 0.622093 0.667305
O O3 0.490743 0.656129 0.693342
O O4 0.723220 0.668334 0.070098
O O5 0.341023 0.980958 0.443671
O O6 0.047570 0.000850 0.692628
O O7 0.112935 0.425665 0.340354
O O8 0.108104 0.340207 0.408769
O O9 0.126547 0.376959 0.917232
O O10 0.659556 0.721798 0.447622
O O11 0.319786 0.737605 0.579809
O O12 0.361353 0.680690 0.234500
O O13 0.003783 0.298132 0.827106
O O14 0.130824 0.487699 0.712686
#
# Coordination Sequence:
#
# PCOD8054970 Si02
#       7
#     4   4   4   4   4   4   4
#     4  10  23  41  70 102 146 191 240 299 363 435
#     4   9  19  34  64 102 136 180 239 297 353 422
#     4  10  21  41  64 100 137 182 236 290 350 432
#     4  12  27  45  73 102 147 193 245 299 368 436
#     4  11  27  45  71 103 146 192 246 299 362 442
#     4  11  25  43  69  97 139 182 235 290 355 419
#     4   9  16  29  57  94 131 172 225 286 349 414
#
# _framework density 25.385926000000001
#
# number of rings (size 3 to 8) (size 9 to 14) (size 15 to 20)
#    0.000    1.714    1.429    1.714    8.000    5.714 
#    0.000    0.000    0.000    5.143    0.000    0.000 
#    0.000    0.000    0.000    0.000    0.000    0.000 
#
# Total GULP energy -173454.710930 kJ/mol
# GULP energy per Si atom -12389.622209 kJ/mol
# Density = 2.532815 g / cm^3
# Si number density = 25.385926 Si / 1000 Ang^3
#
#
#
# Elastic Constant Matrix: (Units=GPa)
#
#
# Indices 1 2 3 4 5 6 
#
# 1 81.1707 20.1434 5.5113 0.0000 16.2768 0.0000
# 2 20.1434 137.4753 31.7848 0.0000 7.0364 0.0000
# 3 5.5113 31.7848 97.4519 0.0000 8.9339 0.0000
# 4 0.0000 0.0000 0.0000 31.3821 0.0000 -1.3881
# 5 16.2768 7.0364 8.9339 0.0000 31.5884 0.0000
# 6 0.0000 0.0000 0.0000 -1.3881 0.0000 7.9401
#
#
#
# Elastic Compliance Matrix: (Units=1/GPa)
#
#
# Indices 1 2 3 4 5 6 
#
# 1 0.014146 -0.001814 0.000434 0.000000 -0.007008 0.000000
# 2 -0.001814 0.008134 -0.002536 0.000000 -0.000160 0.000000
# 3 0.000434 -0.002536 0.011326 0.000000 -0.002862 0.000000
# 4 0.000000 0.000000 0.000000 0.032114 0.000000 0.005614
# 5 -0.007008 -0.000160 -0.002862 0.000000 0.036113 0.000000
# 6 0.000000 0.000000 0.000000 0.005614 0.000000 0.126924
#
#
# Mechanical properties :
#
#
# Convention : Reuss Voigt Hill
#
# Bulk Modulus (GPa) = 38.79815 47.88631 43.34223
# Shear Modulus (GPa) = 20.39309 31.42601 25.90955
#
# Velocity S-wave (km/s) = 2.83737 3.52224 3.19819
# Velocity P-wave (km/s) = 5.10399 5.95364 5.54511
#
# Compressibility (1/GPa) = 0.02577443
#
# Stress axis : x y z
#
# Youngs Moduli (GPa) = 70.69279 122.93527 88.28931
#
# Poissons Ratio (x) = 0.22305 -0.03834
# Poissons Ratio (y) = 0.12827 0.22389
# Poissons Ratio (z) = -0.03070 0.31174
#
# Static dielectric constant tensor:
#      x y z
#    x 4.450300 0.000000 -0.023250 
#    y 0.000000 4.578390 0.000000 
#    z -0.023250 0.000000 4.614210 
# 
# 
# High freq. dielectric constant tensor:
#      x y z
#    x 1.999610 0.000000 -0.000350 
#    y 0.000000 2.010310 0.000000 
#    z -0.000350 0.000000 2.004740 
# 
# From -- ./inp_files/1026.got.cif
#   From: 2010.06.25/outbox.cif.g09.slc.cpg/sg9_1_cif.got.tgz:1026.got - 2010.06.27 21:40:51.
