data_PCOD8054815
_publ_section_title
;
Structure prediction by ZEFSAII (Michael W. Deem and Ramdas Pophale) SiO2 
 PCOD8054815
Probable space group: C C
;
_chemical_formula_sum "Si O2"
_cell_formula_units_Z 32
_cell_length_a 8.243061
_cell_length_b 25.838651
_cell_length_c 11.125286
_cell_angle_alpha 90.000000
_cell_angle_beta 41.693531
_cell_angle_gamma 90.000000
_cell_volume 1576.110096
_symmetry_space_group_name_H-M "C C"
_symmetry_group_IT_number 9
_symmetry_cell_setting 'monoclinic'
loop_
_space_group_symop_operation_xyz
x,y,z
x,-y,1/2+z
1/2+x,1/2+y,z
1/2+x,1/2-y,1/2+z
loop_
_atom_site_type_symbol
_atom_site_label
_atom_site_fract_x
_atom_site_fract_y
_atom_site_fract_z
Si Si1 0.941950 0.692847 0.500000
Si Si2 0.075745 0.639815 0.201529
Si Si3 0.073647 0.192750 0.904100
Si Si4 0.850410 0.602833 0.866828
Si Si5 0.215738 0.601056 0.466806
Si Si6 0.656757 0.499432 0.428918
Si Si7 0.141434 0.533725 0.291923
Si Si8 0.257906 0.087559 0.187067
O O1 0.686226 0.689260 0.709088
O O2 0.905352 0.675392 0.382033
O O3 0.070359 0.748074 0.448683
O O4 0.124816 0.651411 0.451155
O O5 0.179246 0.587523 0.202049
O O6 0.919247 0.626980 0.172121
O O7 0.300708 0.674285 0.036897
O O8 0.227395 0.159192 0.916558
O O9 0.681544 0.561598 0.888120
O O10 0.114704 0.598821 0.658442
O O11 0.881591 0.584020 0.987323
O O12 0.153613 0.547765 0.427799
O O13 0.498517 0.612934 0.313828
O O14 0.372208 0.505164 0.632352
O O15 0.714035 0.532371 0.277679
O O16 0.870485 0.512138 0.409665
#
# Coordination Sequence:
#
# PCOD8054815 Si02
#       8
#     4   4   4   4   4   4   4   4
#     4  10  21  37  71  96 118 166 215 259 315 390
#     4  10  21  41  62  92 127 166 203 269 318 373
#     4  11  20  39  70  93 123 164 218 257 315 387
#     4  11  23  40  64  94 125 170 216 260 318 381
#     4  10  22  41  63  97 126 165 216 264 317 391
#     4  11  22  40  62  94 124 179 214 263 324 373
#     4  10  21  41  66  89 132 168 221 268 318 380
#     4  11  24  41  62  89 137 164 205 274 321 373
#
# _framework density 20.303149000000001
#
# number of rings (size 3 to 8) (size 9 to 14) (size 15 to 20)
#    0.000    1.500    3.750    1.500    1.750    1.000 
#    0.000    3.750    0.000    0.000    0.000    0.000 
#    0.000    0.000    0.000    0.000    0.000    0.000 
#
# Total GULP energy -198246.529280 kJ/mol
# GULP energy per Si atom -12390.408080 kJ/mol
# Density = 2.025694 g / cm^3
# Si number density = 20.303149 Si / 1000 Ang^3
#
#
#
# Elastic Constant Matrix: (Units=GPa)
#
#
# Indices 1 2 3 4 5 6 
#
# 1 88.2150 26.4458 65.8708 0.0000 8.9853 0.0000
# 2 26.4458 95.4562 35.7002 0.0000 17.2123 0.0000
# 3 65.8708 35.7002 125.5437 0.0000 16.3462 0.0000
# 4 0.0000 0.0000 0.0000 27.0597 0.0000 9.3516
# 5 8.9853 17.2123 16.3462 0.0000 34.6849 0.0000
# 6 0.0000 0.0000 0.0000 9.3516 0.0000 -9.5508
#
#
#
# Elastic Compliance Matrix: (Units=1/GPa)
#
#
# Indices 1 2 3 4 5 6 
#
# 1 0.018890 -0.001774 -0.009465 0.000000 0.000448 0.000000
# 2 -0.001774 0.012596 -0.002021 0.000000 -0.004839 0.000000
# 3 -0.009465 -0.002021 0.013910 0.000000 -0.003101 0.000000
# 4 0.000000 0.000000 0.000000 0.027612 0.000000 0.027036
# 5 0.000448 -0.004839 -0.003101 0.000000 0.032577 0.000000
# 6 0.000000 0.000000 0.000000 0.027036 0.000000 -0.078231
#
#
# Mechanical properties :
#
#
# Convention : Reuss Voigt Hill
#
# Bulk Modulus (GPa) = 52.97909 62.80539 57.89224
# Shear Modulus (GPa) = 83.10407 22.51863 52.81135
#
# Velocity S-wave (km/s) = 6.40472 3.33396 5.10567
# Velocity P-wave (km/s) = 8.99136 6.76915 7.95820
#
# Compressibility (1/GPa) = 0.01887537
#
# Stress axis : x y z
#
# Youngs Moduli (GPa) = 52.93879 79.39131 71.89169
#
# Poissons Ratio (x) = 0.14086 0.68045
# Poissons Ratio (y) = 0.09392 0.14529
# Poissons Ratio (z) = 0.50106 0.16044
#
# Static dielectric constant tensor:
#      x y z
#    x 3.563330 0.000000 0.093930 
#    y 0.000000 3.860360 0.000000 
#    z 0.093930 0.000000 4.085940 
# 
# 
# High freq. dielectric constant tensor:
#      x y z
#    x 1.768010 0.000000 -0.002630 
#    y 0.000000 1.793440 0.000000 
#    z -0.002630 0.000000 1.811920 
# 
# From -- ./inp_files/15621.got.cif
#   From: 2010.06.25/outbox.cif.g09.slc.cpg/sg9_8_cif.got.tgz:15621.got - 2010.06.27 21:40:51.
