data_PCOD8054065
_publ_section_title
;
Structure prediction by ZEFSAII (Michael W. Deem and Ramdas Pophale) SiO2 
 PCOD8054065
Probable space group: C M
;
_chemical_formula_sum "Si O2"
_cell_formula_units_Z 32
_cell_length_a 24.121510
_cell_length_b 8.433846
_cell_length_c 19.848004
_cell_angle_alpha 90.000000
_cell_angle_beta 157.182463
_cell_angle_gamma 90.000000
_cell_volume 1565.857583
_symmetry_space_group_name_H-M "C M"
_symmetry_group_IT_number 8
_symmetry_cell_setting 'monoclinic'
loop_
_space_group_symop_operation_xyz
x,y,z
x,-y,z
1/2+x,1/2+y,z
1/2+x,1/2-y,z
loop_
_atom_site_type_symbol
_atom_site_label
_atom_site_fract_x
_atom_site_fract_y
_atom_site_fract_z
Si Si1 0.686970 0.684161 0.470280
Si Si2 0.860248 0.688733 0.794476
Si Si3 0.175954 0.687154 0.117811
Si Si4 0.392023 0.817198 0.106699
Si Si5 0.681955 0.818176 0.973416
Si Si6 0.241454 0.188771 0.803329
Si Si7 0.429621 0.688217 0.492484
Si Si8 0.901174 0.815984 0.613353
O O1 0.720948 0.500000 0.498838
O O2 0.754826 0.746011 0.616591
O O3 0.517760 0.712477 0.279455
O O4 0.748505 0.783251 0.476270
O O5 0.863028 0.500000 0.800226
O O6 0.800739 0.755636 0.798918
O O7 0.019667 0.758618 0.960845
O O8 0.164674 0.500000 0.115127
O O9 0.299089 0.760741 0.302976
O O10 0.225299 0.728500 0.097597
O O11 0.438177 0.000000 0.155996
O O12 0.257149 0.797893 0.004861
O O13 0.346802 0.756238 0.981686
O O14 0.512613 0.791390 0.779025
O O15 0.720767 0.000000 0.000959
O O16 0.081736 0.256867 0.637308
O O17 0.234378 0.000000 0.795148
O O18 0.430447 0.500000 0.486378
O O19 0.399740 0.741769 0.534975
O O20 0.942047 0.000000 0.664055
#
# Coordination Sequence:
#
# PCOD8054065 Si02
#       8
#     4   4   4   4   4   4   4   4
#     4  11  23  39  59  87 117 151 194 238 289 343
#     4   9  18  33  54  81 113 147 189 238 278 327
#     4   9  18  32  54  84 112 144 191 237 277 329
#     4  11  23  39  59  87 117 151 194 238 289 343
#     4  11  21  37  61  87 116 152 191 239 289 338
#     4   9  18  33  54  81 113 147 189 238 278 327
#     4   9  18  32  54  84 112 144 191 237 277 329
#     4  11  21  37  61  87 116 152 191 239 289 338
#
# _framework density 20.436087000000001
#
# number of rings (size 3 to 8) (size 9 to 14) (size 15 to 20)
#    0.000    2.000    2.500    1.500    3.500    0.000 
#    0.000    0.000    0.000    9.000    0.000    0.000 
#    0.000    0.000    0.000    0.000    0.000    0.000 
#
# Total GULP energy -198416.253557 kJ/mol
# GULP energy per Si atom -12401.015847 kJ/mol
# Density = 2.038957 g / cm^3
# Si number density = 20.436087 Si / 1000 Ang^3
#
#
#
# Elastic Constant Matrix: (Units=GPa)
#
#
# Indices 1 2 3 4 5 6 
#
# 1 137.4305 28.1977 52.1730 0.0000 -9.6937 0.0000
# 2 28.1977 24.9662 21.1900 0.0000 -8.4952 0.0000
# 3 52.1730 21.1900 147.3216 0.0000 -14.3718 0.0000
# 4 0.0000 0.0000 0.0000 24.3031 0.0000 3.7494
# 5 -9.6937 -8.4952 -14.3718 0.0000 34.3094 0.0000
# 6 0.0000 0.0000 0.0000 3.7494 0.0000 23.2879
#
#
#
# Elastic Compliance Matrix: (Units=1/GPa)
#
#
# Indices 1 2 3 4 5 6 
#
# 1 0.010066 -0.009642 -0.002224 0.000000 -0.000475 0.000000
# 2 -0.009642 0.057634 -0.003908 0.000000 0.009909 0.000000
# 3 -0.002224 -0.003908 0.008322 0.000000 0.001890 0.000000
# 4 0.000000 0.000000 0.000000 0.042195 0.000000 -0.006793
# 5 -0.000475 0.009909 0.001890 0.000000 0.032257 0.000000
# 6 0.000000 0.000000 0.000000 -0.006793 0.000000 0.044034
#
#
# Mechanical properties :
#
#
# Convention : Reuss Voigt Hill
#
# Bulk Modulus (GPa) = 22.48631 56.98219 39.73425
# Shear Modulus (GPa) = 20.75707 30.25725 25.50716
#
# Velocity S-wave (km/s) = 3.19047 3.85200 3.53674
# Velocity P-wave (km/s) = 4.95977 6.90851 6.01360
#
# Compressibility (1/GPa) = 0.04447150
#
# Stress axis : x y z
#
# Youngs Moduli (GPa) = 99.34768 17.35100 120.16283
#
# Poissons Ratio (x) = 0.16731 0.26726
# Poissons Ratio (y) = 0.95796 0.46963
# Poissons Ratio (z) = 0.22096 0.06781
#
# Static dielectric constant tensor:
#      x y z
#    x 3.796780 0.000000 -0.076740 
#    y 0.000000 3.090460 0.000000 
#    z -0.076740 0.000000 3.871490 
# 
# 
# High freq. dielectric constant tensor:
#      x y z
#    x 1.810540 0.000000 -0.001720 
#    y 0.000000 1.747510 0.000000 
#    z -0.001720 0.000000 1.808890 
# 
# From -- ./inp_files/31668.got.cif
#   From: 2010.03.12/outbox.cif.g09.slc.cpg/sg8_16_cif.got.tgz:31668.got - 2010.03.31 10:45:26.
