data_PCOD8054422
_publ_section_title
;
Structure prediction by ZEFSAII (Michael W. Deem and Ramdas Pophale) SiO2 
 PCOD8054422
Probable space group: C C
;
_chemical_formula_sum "Si O2"
_cell_formula_units_Z 32
_cell_length_a 10.731899
_cell_length_b 9.434906
_cell_length_c 22.263831
_cell_angle_alpha 90.000000
_cell_angle_beta 48.540063
_cell_angle_gamma 90.000000
_cell_volume 1689.424044
_symmetry_space_group_name_H-M "C C"
_symmetry_group_IT_number 9
_symmetry_cell_setting 'monoclinic'
loop_
_space_group_symop_operation_xyz
x,y,z
x,-y,1/2+z
1/2+x,1/2+y,z
1/2+x,1/2-y,1/2+z
loop_
_atom_site_type_symbol
_atom_site_label
_atom_site_fract_x
_atom_site_fract_y
_atom_site_fract_z
Si Si1 0.462080 0.321449 0.328690
Si Si2 0.383486 0.763119 0.728275
Si Si3 0.775045 0.095591 0.369685
Si Si4 0.431358 0.913326 0.931032
Si Si5 0.307996 0.942977 0.191517
Si Si6 0.162636 0.044426 0.612371
Si Si7 0.486380 0.725839 0.208161
Si Si8 0.519504 0.179474 0.825190
O O1 0.460539 0.217504 0.270706
O O2 0.315946 0.434572 0.371057
O O3 0.424782 0.236739 0.400519
O O4 0.631979 0.412562 0.280122
O O5 0.499002 0.643789 0.659760
O O6 0.194100 0.715409 0.800140
O O7 0.380539 0.904872 0.688868
O O8 0.575740 0.101745 0.435132
O O9 0.831530 0.132441 0.282886
O O10 0.872346 0.203429 0.383934
O O11 0.458698 0.031973 0.871584
O O12 0.258212 0.942030 0.019282
O O13 0.286263 0.919248 0.127628
O O14 0.439391 0.825599 0.168541
O O15 0.120445 0.880730 0.638259
O O16 0.555318 0.822515 0.241542
#
# Coordination Sequence:
#
# PCOD8054422 Si02
#       8
#     4   4   4   4   4   4   4   4
#     4  11  20  36  61  95 112 157 206 248 294 357
#     4  11  19  39  65  89 116 161 210 244 290 367
#     4  10  20  38  64  87 114 159 206 250 289 350
#     4  12  24  38  61  92 129 156 195 258 313 349
#     4  11  20  39  66  85 117 155 209 250 287 359
#     4  11  25  40  57  93 130 158 194 252 315 358
#     4  10  19  41  66  85 115 163 203 252 284 363
#     4  10  19  39  66  90 113 163 211 246 290 363
#
# _framework density 18.941365999999999
#
# number of rings (size 3 to 8) (size 9 to 14) (size 15 to 20)
#    0.750    0.500    7.500    0.750    0.000    2.000 
#    0.000    0.000    0.000    0.000    0.000    0.000 
#    0.000    0.000    0.000    0.000    0.000    0.000 
#
# Total GULP energy -198258.921137 kJ/mol
# GULP energy per Si atom -12391.182571 kJ/mol
# Density = 1.889826 g / cm^3
# Si number density = 18.941366 Si / 1000 Ang^3
#
#
#
# Elastic Constant Matrix: (Units=GPa)
#
#
# Indices 1 2 3 4 5 6 
#
# 1 88.3537 50.0237 30.0274 0.0000 -4.5112 0.0000
# 2 50.0237 109.3201 42.9735 0.0000 5.1938 0.0000
# 3 30.0274 42.9735 76.3820 0.0000 -6.4689 0.0000
# 4 0.0000 0.0000 0.0000 21.1065 0.0000 -3.3347
# 5 -4.5112 5.1938 -6.4689 0.0000 19.3891 0.0000
# 6 0.0000 0.0000 0.0000 -3.3347 0.0000 35.2154
#
#
#
# Elastic Compliance Matrix: (Units=1/GPa)
#
#
# Indices 1 2 3 4 5 6 
#
# 1 0.016122 -0.006777 -0.002113 0.000000 0.004861 0.000000
# 2 -0.006777 0.015195 -0.006548 0.000000 -0.007832 0.000000
# 3 -0.002113 -0.006548 0.018228 0.000000 0.007344 0.000000
# 4 0.000000 0.000000 0.000000 0.048098 0.000000 0.004555
# 5 0.004861 -0.007832 0.007344 0.000000 0.057254 0.000000
# 6 0.000000 0.000000 0.000000 0.004555 0.000000 0.028828
#
#
# Mechanical properties :
#
#
# Convention : Reuss Voigt Hill
#
# Bulk Modulus (GPa) = 53.56545 57.78944 55.67745
# Shear Modulus (GPa) = 22.64239 25.21095 23.92667
#
# Velocity S-wave (km/s) = 3.46120 3.65224 3.55800
# Velocity P-wave (km/s) = 6.65689 6.95421 6.80717
#
# Compressibility (1/GPa) = 0.01866875
#
# Stress axis : x y z
#
# Youngs Moduli (GPa) = 62.02818 65.81249 54.85916
#
# Poissons Ratio (x) = 0.44604 0.11592
# Poissons Ratio (y) = 0.42040 0.35920
# Poissons Ratio (z) = 0.13106 0.43092
#
# Static dielectric constant tensor:
#      x y z
#    x 3.555870 0.000000 -0.069830 
#    y 0.000000 3.445660 0.000000 
#    z -0.069830 0.000000 3.042500 
# 
# 
# High freq. dielectric constant tensor:
#      x y z
#    x 1.742680 0.000000 -0.008610 
#    y 0.000000 1.741250 0.000000 
#    z -0.008610 0.000000 1.695200 
# 
# From -- ./inp_files/29819.got.cif
#   From: 2010.06.25/outbox.cif.g09.slc.cpg/sg9_15_cif.got.tgz:29819.got - 2010.06.27 21:40:51.
