data_PCOD8054051
_publ_section_title
;
Structure prediction by ZEFSAII (Michael W. Deem and Ramdas Pophale) SiO2 
 PCOD8054051
Probable space group: C M
;
_chemical_formula_sum "Si O2"
_cell_formula_units_Z 32
_cell_length_a 20.048373
_cell_length_b 8.818151
_cell_length_c 25.048052
_cell_angle_alpha 90.000000
_cell_angle_beta 156.568284
_cell_angle_gamma 90.000000
_cell_volume 1760.913402
_symmetry_space_group_name_H-M "C M"
_symmetry_group_IT_number 8
_symmetry_cell_setting 'monoclinic'
loop_
_space_group_symop_operation_xyz
x,y,z
x,-y,z
1/2+x,1/2+y,z
1/2+x,1/2-y,z
loop_
_atom_site_type_symbol
_atom_site_label
_atom_site_fract_x
_atom_site_fract_y
_atom_site_fract_z
Si Si1 0.505280 0.678064 0.276940
Si Si2 0.211639 0.319918 0.985840
Si Si3 0.886796 0.320163 0.804226
Si Si4 0.024758 0.821275 0.503687
Si Si5 0.423286 0.324926 0.045214
Si Si6 0.737922 0.326955 0.352417
Si Si7 0.900574 0.678987 0.303767
Si Si8 0.036864 0.678649 0.025395
O O1 0.491866 0.500000 0.279214
O O2 0.666983 0.713486 0.358966
O O3 0.521270 0.767291 0.344278
O O4 0.339101 0.739144 0.124832
O O5 0.226440 0.500000 0.997282
O O6 0.024854 0.262091 0.862443
O O7 0.269843 0.265452 0.969787
O O8 0.883561 0.500000 0.801635
O O9 0.705491 0.257143 0.654805
O O10 0.937999 0.263206 0.900605
O O11 0.892777 0.782816 0.453448
O O12 0.976797 0.738668 0.414387
O O13 0.027700 0.000000 0.496029
O O14 0.399442 0.500000 0.011353
O O15 0.595767 0.302842 0.203682
O O16 0.423503 0.222296 0.992818
O O17 0.800702 0.500000 0.397087
O O18 0.892838 0.500000 0.300757
O O19 0.714934 0.740931 0.158870
O O20 0.068480 0.500000 0.046958
#
# Coordination Sequence:
#
# PCOD8054051 Si02
#       8
#     4   4   4   4   4   4   4   4
#     4   9  17  33  58  82 105 139 180 223 272 321
#     4   8  14  30  55  79 105 138 174 218 267 313
#     4   9  19  35  56  80 106 140 183 222 264 319
#     4  11  22  36  56  80 109 149 186 218 264 326
#     4   9  17  30  53  82 109 136 172 222 270 314
#     4   9  18  33  54  81 112 142 176 221 270 320
#     4  12  23  35  53  81 113 142 180 230 271 314
#     4  11  20  34  57  81 107 140 179 226 270 319
#
# _framework density 18.172388000000002
#
# number of rings (size 3 to 8) (size 9 to 14) (size 15 to 20)
#    0.000    2.250    2.500    3.375    0.000    0.500 
#    0.000    5.625    0.000    4.500    0.000    0.000 
#    0.000    0.000    0.000    0.000    0.000    0.000 
#
# Total GULP energy -198374.182574 kJ/mol
# GULP energy per Si atom -12398.386411 kJ/mol
# Density = 1.813103 g / cm^3
# Si number density = 18.172388 Si / 1000 Ang^3
#
#
#
# Elastic Constant Matrix: (Units=GPa)
#
#
# Indices 1 2 3 4 5 6 
#
# 1 156.5291 47.0280 72.0172 0.0003 9.1428 0.0000
# 2 47.0280 71.2520 40.3090 -0.0028 -2.0951 -0.0003
# 3 72.0172 40.3090 117.3133 -0.0068 4.6342 -0.0020
# 4 0.0003 -0.0028 -0.0068 8.5821 -0.0004 5.8516
# 5 9.1428 -2.0951 4.6342 -0.0004 25.8939 0.0005
# 6 0.0000 -0.0003 -0.0020 5.8516 0.0005 31.7503
#
#
#
# Elastic Compliance Matrix: (Units=1/GPa)
#
#
# Indices 1 2 3 4 5 6 
#
# 1 0.009869 -0.004024 -0.004558 -0.000006 -0.002995 0.000001
# 2 -0.004024 0.019223 -0.004283 0.000004 0.003743 -0.000001
# 3 -0.004558 -0.004283 0.012835 0.000010 -0.001034 -0.000001
# 4 -0.000006 0.000004 0.000010 0.133269 0.000003 -0.024562
# 5 -0.002995 0.003743 -0.001034 0.000003 0.040164 -0.000001
# 6 0.000001 -0.000001 -0.000001 -0.024562 -0.000001 0.036023
#
#
# Mechanical properties :
#
#
# Convention : Reuss Voigt Hill
#
# Bulk Modulus (GPa) = 61.73390 73.75587 67.74489
# Shear Modulus (GPa) = 17.69835 25.62793 21.66314
#
# Velocity S-wave (km/s) = 3.12415 3.75943 3.45641
# Velocity P-wave (km/s) = 6.85994 7.71487 7.29993
#
# Compressibility (1/GPa) = 0.01619856
#
# Stress axis : x y z
#
# Youngs Moduli (GPa) = 101.32343 52.02001 77.91369
#
# Poissons Ratio (x) = 0.20931 0.35512
# Poissons Ratio (y) = 0.40768 0.33370
# Poissons Ratio (z) = 0.46182 0.22280
#
# Static dielectric constant tensor:
#      x y z
#    x 3.711250 0.000000 0.139880 
#    y 0.000000 3.107090 0.000000 
#    z 0.139880 0.000000 3.358120 
# 
# 
# High freq. dielectric constant tensor:
#      x y z
#    x 1.723450 0.000000 0.010370 
#    y 0.000000 1.680060 0.000000 
#    z 0.010370 0.000000 1.677490 
# 
# From -- ./inp_files/15852.got.cif
#   From: 2010.03.12/outbox.cif.g09.slc.cpg/sg8_8_cif.got.tgz:15852.got - 2010.03.31 10:45:26.
