data_PCOD8054282
_publ_section_title
;
Structure prediction by ZEFSAII (Michael W. Deem and Ramdas Pophale) SiO2 
 PCOD8054282
Probable space group: C C
;
_chemical_formula_sum "Si O2"
_cell_formula_units_Z 32
_cell_length_a 9.494596
_cell_length_b 16.031727
_cell_length_c 21.566059
_cell_angle_alpha 90.000000
_cell_angle_beta 153.415283
_cell_angle_gamma 90.000000
_cell_volume 1469.063561
_symmetry_space_group_name_H-M "C C"
_symmetry_group_IT_number 9
_symmetry_cell_setting 'monoclinic'
loop_
_space_group_symop_operation_xyz
x,y,z
x,-y,1/2+z
1/2+x,1/2+y,z
1/2+x,1/2-y,1/2+z
loop_
_atom_site_type_symbol
_atom_site_label
_atom_site_fract_x
_atom_site_fract_y
_atom_site_fract_z
Si Si1 0.810160 0.625105 0.547020
Si Si2 0.896517 0.840734 0.702458
Si Si3 0.278450 0.831390 0.388679
Si Si4 0.837369 0.003665 0.391719
Si Si5 0.762493 0.269871 0.747773
Si Si6 0.760982 0.603934 0.140286
Si Si7 0.371679 0.517233 0.758637
Si Si8 0.765078 0.213353 0.273228
O O1 0.561887 0.582998 0.497274
O O2 0.607402 0.670469 0.415048
O O3 0.029311 0.692091 0.666755
O O4 0.027606 0.551941 0.603556
O O5 0.644477 0.840050 0.547614
O O6 0.771898 0.770229 0.702073
O O7 0.232583 0.818963 0.801816
O O8 0.920047 0.927939 0.747136
O O9 0.234479 0.796646 0.301588
O O10 0.108525 0.766496 0.369616
O O11 0.132285 0.922538 0.332327
O O12 0.470653 0.030044 0.255639
O O13 0.901494 0.981528 0.344947
O O14 0.948128 0.929896 0.481806
O O15 0.648874 0.330200 0.647427
O O16 0.986966 0.647756 0.178810
#
# Coordination Sequence:
#
# PCOD8054282 Si02
#       8
#     4   4   4   4   4   4   4   4
#     4  10  18  39  59  90 120 171 207 258 305 391
#     4  12  22  42  66  94 128 169 210 273 325 381
#     4  10  23  43  63  92 129 166 215 271 315 395
#     4  11  19  39  67  94 119 176 216 262 315 400
#     4  10  24  43  61  93 129 164 209 274 323 376
#     4  10  21  40  65  92 128 164 217 264 318 387
#     4  11  21  36  66  93 128 164 226 254 323 381
#     4  10  20  40  65  88 129 166 216 260 322 381
#
# _framework density 21.782584
#
# number of rings (size 3 to 8) (size 9 to 14) (size 15 to 20)
#    0.000    1.500    5.000    1.500    0.000    0.000 
#   13.500    1.250    0.000    0.000    0.000    0.000 
#    0.000    0.000    0.000    0.000    0.000    0.000 
#
# Total GULP energy -198237.164352 kJ/mol
# GULP energy per Si atom -12389.822772 kJ/mol
# Density = 2.173301 g / cm^3
# Si number density = 21.782584 Si / 1000 Ang^3
#
#
#
# Elastic Constant Matrix: (Units=GPa)
#
#
# Indices 1 2 3 4 5 6 
#
# 1 109.1276 42.4973 7.1255 0.0033 -3.5401 0.0003
# 2 42.4973 95.0512 20.7583 0.0001 -7.8388 0.0009
# 3 7.1255 20.7583 52.6031 0.0601 0.4175 0.0018
# 4 0.0033 0.0001 0.0601 29.0693 0.0071 1.6057
# 5 -3.5401 -7.8388 0.4175 0.0071 20.8838 -0.0028
# 6 0.0003 0.0009 0.0018 1.6057 -0.0028 20.7816
#
#
#
# Elastic Compliance Matrix: (Units=1/GPa)
#
#
# Indices 1 2 3 4 5 6 
#
# 1 0.011107 -0.005078 0.000500 -0.000002 -0.000033 0.000000
# 2 -0.005078 0.014256 -0.004974 0.000010 0.004590 0.000000
# 3 0.000500 -0.004974 0.020923 -0.000043 -0.002201 0.000001
# 4 -0.000002 0.000010 -0.000043 0.034548 -0.000008 -0.002669
# 5 -0.000033 0.004590 -0.002201 -0.000008 0.049645 0.000007
# 6 0.000000 0.000000 0.000001 -0.002669 0.000007 0.048326
#
#
# Mechanical properties :
#
#
# Convention : Reuss Voigt Hill
#
# Bulk Modulus (GPa) = 36.79040 44.17159 40.48100
# Shear Modulus (GPa) = 24.15800 26.57365 25.36583
#
# Velocity S-wave (km/s) = 3.33386 3.49657 3.41618
# Velocity P-wave (km/s) = 5.63435 6.05175 5.84678
#
# Compressibility (1/GPa) = 0.02718100
#
# Stress axis : x y z
#
# Youngs Moduli (GPa) = 90.03022 70.14687 47.79413
#
# Poissons Ratio (x) = 0.35620 -0.02387
# Poissons Ratio (y) = 0.45717 0.23774
# Poissons Ratio (z) = -0.04497 0.34893
#
# Static dielectric constant tensor:
#      x y z
#    x 3.783770 0.000000 0.133040 
#    y 0.000000 4.107370 -0.000070 
#    z 0.133040 -0.000070 4.020060 
# 
# 
# High freq. dielectric constant tensor:
#      x y z
#    x 1.828440 0.000000 0.009440 
#    y 0.000000 1.857260 0.000000 
#    z 0.009440 0.000000 1.850390 
# 
# From -- ./inp_files/27829.got.cif
#   From: 2010.06.25/outbox.cif.g09.slc.cpg/sg9_14_cif.got.tgz:27829.got - 2010.06.27 21:40:51.
