data_PCOD8054846
_publ_section_title
;
Structure prediction by ZEFSAII (Michael W. Deem and Ramdas Pophale) SiO2 
 PCOD8054846
Probable space group: C C
;
_chemical_formula_sum "Si O2"
_cell_formula_units_Z 28
_cell_length_a 16.499515
_cell_length_b 9.553895
_cell_length_c 19.060847
_cell_angle_alpha 90.000000
_cell_angle_beta 27.617518
_cell_angle_gamma 90.000000
_cell_volume 1392.856321
_symmetry_space_group_name_H-M "C C"
_symmetry_group_IT_number 9
_symmetry_cell_setting 'monoclinic'
loop_
_space_group_symop_operation_xyz
x,y,z
x,-y,1/2+z
1/2+x,1/2+y,z
1/2+x,1/2-y,1/2+z
loop_
_atom_site_type_symbol
_atom_site_label
_atom_site_fract_x
_atom_site_fract_y
_atom_site_fract_z
Si Si1 0.625000 0.374287 0.078150
Si Si2 0.885882 0.173369 0.023336
Si Si3 0.601199 0.075062 0.331706
Si Si4 0.816280 0.092229 0.925406
Si Si5 0.615997 0.814901 0.095503
Si Si6 0.961654 0.912819 0.609047
Si Si7 0.397041 0.899798 0.396689
O O1 0.472393 0.390480 0.251620
O O2 0.560435 0.447540 0.056468
O O3 0.671145 0.213542 0.029015
O O4 0.801696 0.450174 0.966704
O O5 0.934483 0.337068 0.984821
O O6 0.901766 0.092156 0.937559
O O7 0.683948 0.163411 0.202769
O O8 0.008249 0.104643 0.990457
O O9 0.750383 0.061614 0.277575
O O10 0.541560 0.922595 0.347312
O O11 0.714602 0.948136 0.986816
O O12 0.519458 0.723437 0.109606
O O13 0.476917 0.862185 0.259960
O O14 0.761073 0.719752 0.023214
#
# Coordination Sequence:
#
# PCOD8054846 Si02
#       7
#     4   4   4   4   4   4   4
#     4  11  24  39  65  92 130 162 218 261 320 371
#     4  10  21  38  66  89 125 164 211 256 310 383
#     4  10  21  39  63  90 127 164 212 258 314 382
#     4  12  22  41  65  97 124 173 210 265 312 393
#     4  11  22  38  67  94 128 162 216 261 326 365
#     4   9  24  40  65  94 126 166 210 271 314 379
#     4  11  22  41  61  94 124 167 209 266 306 397
#
# _framework density 20.102577
#
# number of rings (size 3 to 8) (size 9 to 14) (size 15 to 20)
#    0.857    0.571    2.857    3.429    6.000    0.000 
#    0.000    2.857    0.000    0.000    0.000    0.000 
#    0.000    0.000    0.000    0.000    0.000    0.000 
#
# Total GULP energy -173464.475169 kJ/mol
# GULP energy per Si atom -12390.319655 kJ/mol
# Density = 2.005682 g / cm^3
# Si number density = 20.102577 Si / 1000 Ang^3
#
#
#
# Elastic Constant Matrix: (Units=GPa)
#
#
# Indices 1 2 3 4 5 6 
#
# 1 145.4862 68.4521 33.1608 -0.0001 -5.0562 0.0000
# 2 68.4521 119.0619 30.5242 -0.0009 -18.4825 0.0006
# 3 33.1608 30.5242 89.0078 -0.0007 -7.6049 0.0007
# 4 -0.0001 -0.0009 -0.0007 34.8219 0.0008 -7.4118
# 5 -5.0562 -18.4825 -7.6049 0.0008 28.9326 -0.0003
# 6 0.0000 0.0006 0.0007 -7.4118 -0.0003 40.0355
#
#
#
# Elastic Compliance Matrix: (Units=1/GPa)
#
#
# Indices 1 2 3 4 5 6 
#
# 1 0.009834 -0.005508 -0.001973 0.000000 -0.002319 0.000000
# 2 -0.005508 0.013117 -0.001854 0.000000 0.006929 0.000000
# 3 -0.001973 -0.001854 0.012762 0.000000 0.001825 0.000000
# 4 0.000000 0.000000 0.000000 0.029896 -0.000001 0.005535
# 5 -0.002319 0.006929 0.001825 -0.000001 0.039064 0.000000
# 6 0.000000 0.000000 0.000000 0.005535 0.000000 0.026002
#
#
# Mechanical properties :
#
#
# Convention : Reuss Voigt Hill
#
# Bulk Modulus (GPa) = 58.67719 68.64777 63.66248
# Shear Modulus (GPa) = 32.25262 35.51926 33.88594
#
# Velocity S-wave (km/s) = 4.00984 4.20801 4.11012
# Velocity P-wave (km/s) = 7.11974 7.60478 7.36625
#
# Compressibility (1/GPa) = 0.01704240
#
# Stress axis : x y z
#
# Youngs Moduli (GPa) = 101.68579 76.23841 78.35867
#
# Poissons Ratio (x) = 0.41993 0.15460
# Poissons Ratio (y) = 0.56009 0.14529
# Poissons Ratio (z) = 0.20063 0.14135
#
# Static dielectric constant tensor:
#      x y z
#    x 3.683300 0.000000 -0.118520 
#    y 0.000000 3.659900 0.000000 
#    z -0.118520 0.000000 3.623680 
# 
# 
# High freq. dielectric constant tensor:
#      x y z
#    x 1.780300 0.000000 -0.009360 
#    y 0.000000 1.775370 0.000000 
#    z -0.009360 0.000000 1.787240 
# 
# From -- ./inp_files/34014.got.cif
#   From: 2010.06.25/outbox.cif.g09.slc.cpg/sg9_18_cif.got.tgz:34014.got - 2010.06.27 21:40:51.
