data_PCOD8054628
_publ_section_title
;
Structure prediction by ZEFSAII (Michael W. Deem and Ramdas Pophale) SiO2 
 PCOD8054628
Probable space group: C C
;
_chemical_formula_sum "Si O2"
_cell_formula_units_Z 28
_cell_length_a 9.872011
_cell_length_b 18.186260
_cell_length_c 16.474239
_cell_angle_alpha 90.000000
_cell_angle_beta 151.150623
_cell_angle_gamma 90.000000
_cell_volume 1427.116826
_symmetry_space_group_name_H-M "C C"
_symmetry_group_IT_number 9
_symmetry_cell_setting 'monoclinic'
loop_
_space_group_symop_operation_xyz
x,y,z
x,-y,1/2+z
1/2+x,1/2+y,z
1/2+x,1/2-y,1/2+z
loop_
_atom_site_type_symbol
_atom_site_label
_atom_site_fract_x
_atom_site_fract_y
_atom_site_fract_z
Si Si1 0.342820 0.203368 0.951900
Si Si2 0.816410 0.899986 0.735815
Si Si3 0.173027 0.062645 0.561434
Si Si4 0.256786 0.301183 0.226819
Si Si5 0.179073 0.792606 0.839234
Si Si6 0.249697 0.459937 0.286382
Si Si7 0.796271 0.686869 0.737895
O O1 0.353260 0.187570 0.862354
O O2 0.025403 0.214619 0.812976
O O3 0.507612 0.136076 0.082094
O O4 0.500881 0.277461 0.059014
O O5 0.979956 0.865462 0.743444
O O6 0.784972 0.989380 0.722130
O O7 0.010572 0.878651 0.916566
O O8 0.437259 0.029243 0.653390
O O9 0.273886 0.102325 0.696396
O O10 0.964361 0.993188 0.467184
O O11 0.193454 0.233590 0.253844
O O12 0.321579 0.375399 0.310026
O O13 0.992435 0.312995 0.030142
O O14 0.052573 0.727373 0.827641
#
# Coordination Sequence:
#
# PCOD8054628 Si02
#       7
#     4   4   4   4   4   4   4
#     4  11  23  36  60  93 129 166 209 267 327 373
#     4   9  20  38  63  90 122 176 207 259 324 401
#     4  10  20  39  66  88 122 171 219 256 323 390
#     4  12  22  38  63  98 126 163 212 277 311 381
#     4  11  20  37  65  92 123 162 220 260 315 374
#     4  10  20  39  66  90 124 168 218 256 331 393
#     4  11  21  41  59  91 126 172 213 261 321 394
#
# _framework density 19.619979000000001
#
# number of rings (size 3 to 8) (size 9 to 14) (size 15 to 20)
#    0.857    0.571    2.857    5.143    0.000    0.000 
#    0.000    1.429    3.143    0.000    0.000    0.000 
#    0.000    0.000    0.000    0.000    0.000    0.000 
#
# Total GULP energy -173467.252969 kJ/mol
# GULP energy per Si atom -12390.518069 kJ/mol
# Density = 1.957532 g / cm^3
# Si number density = 19.619979 Si / 1000 Ang^3
#
#
#
# Elastic Constant Matrix: (Units=GPa)
#
#
# Indices 1 2 3 4 5 6 
#
# 1 53.8391 -5.7701 27.8517 -0.0934 12.9038 -0.0422
# 2 -5.7701 61.6104 16.0988 -0.0287 0.1354 -0.0142
# 3 27.8517 16.0988 88.8215 0.1950 19.1602 0.0834
# 4 -0.0934 -0.0287 0.1950 35.4417 0.0623 -3.7295
# 5 12.9038 0.1354 19.1602 0.0623 34.7864 0.0139
# 6 -0.0422 -0.0142 0.0834 -3.7295 0.0139 27.7381
#
#
#
# Elastic Compliance Matrix: (Units=1/GPa)
#
#
# Indices 1 2 3 4 5 6 
#
# 1 0.023914 0.004128 -0.007184 0.000123 -0.004930 0.000079
# 2 0.004128 0.017857 -0.004750 0.000054 0.001016 0.000036
# 3 -0.007184 -0.004750 0.015653 -0.000106 -0.005938 -0.000072
# 4 0.000123 0.000054 -0.000106 0.028621 -0.000040 0.003849
# 5 -0.004930 0.001016 -0.005938 -0.000040 0.033843 -0.000012
# 6 0.000079 0.000036 -0.000072 0.003849 -0.000012 0.036569
#
#
# Mechanical properties :
#
#
# Convention : Reuss Voigt Hill
#
# Bulk Modulus (GPa) = 23.91639 31.18129 27.54884
# Shear Modulus (GPa) = 26.88064 30.66595 28.77329
#
# Velocity S-wave (km/s) = 3.70545 3.95776 3.83369
# Velocity P-wave (km/s) = 5.52480 6.06731 5.80240
#
# Compressibility (1/GPa) = 0.04181232
#
# Stress axis : x y z
#
# Youngs Moduli (GPa) = 41.81573 56.00173 63.88398
#
# Poissons Ratio (x) = -0.23116 0.45893
# Poissons Ratio (y) = -0.17260 0.30345
# Poissons Ratio (z) = 0.30039 0.26601
#
# Static dielectric constant tensor:
#      x y z
#    x 3.412320 -0.000040 0.194060 
#    y -0.000040 3.447620 -0.000080 
#    z 0.194060 -0.000080 3.694810 
# 
# 
# High freq. dielectric constant tensor:
#      x y z
#    x 1.740030 0.000000 0.023770 
#    y 0.000000 1.751870 -0.000010 
#    z 0.023770 -0.000010 1.776440 
# 
# From -- ./inp_files/5651.got.cif
#   From: 2010.06.25/outbox.cif.g09.slc.cpg/sg9_3_cif.got.tgz:5651.got - 2010.06.27 21:40:51.
