data_PCOD8054950
_publ_section_title
;
Structure prediction by ZEFSAII (Michael W. Deem and Ramdas Pophale) SiO2 
 PCOD8054950
Probable space group: C C
;
_chemical_formula_sum "Si O2"
_cell_formula_units_Z 32
_cell_length_a 22.225147
_cell_length_b 7.452373
_cell_length_c 9.831306
_cell_angle_alpha 90.000000
_cell_angle_beta 115.710078
_cell_angle_gamma 90.000000
_cell_volume 1467.153595
_symmetry_space_group_name_H-M "C C"
_symmetry_group_IT_number 9
_symmetry_cell_setting 'monoclinic'
loop_
_space_group_symop_operation_xyz
x,y,z
x,-y,1/2+z
1/2+x,1/2+y,z
1/2+x,1/2-y,1/2+z
loop_
_atom_site_type_symbol
_atom_site_label
_atom_site_fract_x
_atom_site_fract_y
_atom_site_fract_z
Si Si1 0.737150 0.514696 0.515610
Si Si2 0.408452 0.352262 0.857322
Si Si3 0.825000 0.482810 0.355995
Si Si4 0.549280 0.779943 0.564448
Si Si5 0.405749 0.677752 0.037721
Si Si6 0.544864 0.184500 0.592435
Si Si7 0.148406 0.340418 0.419180
Si Si8 0.621186 0.246777 0.404432
O O1 0.762882 0.444938 0.395137
O O2 0.796332 0.477799 0.679122
O O3 0.717505 0.727527 0.493009
O O4 0.673153 0.399492 0.495903
O O5 0.391039 0.369770 0.680614
O O6 0.374355 0.183442 0.894750
O O7 0.488015 0.341298 0.955963
O O8 0.380383 0.522506 0.911969
O O9 0.865739 0.647243 0.456765
O O10 0.603845 0.784614 0.501619
O O11 0.584942 0.694809 0.730324
O O12 0.522422 0.977460 0.574663
O O13 0.484745 0.702024 0.095294
O O14 0.611511 0.215227 0.744791
O O15 0.561723 0.242768 0.455964
O O16 0.160205 0.555406 0.432458
#
# Coordination Sequence:
#
# PCOD8054950 Si02
#       8
#     4   4   4   4   4   4   4   4
#     4  12  26  44  72  98 140 198 238 282 346 438
#     4  12  28  46  73 108 142 191 242 299 360 427
#     4  12  28  50  72  98 150 196 238 294 352 426
#     4  10  21  40  69 102 146 178 225 298 363 416
#     4  12  28  46  73 108 142 191 242 299 360 427
#     4  10  21  40  69 102 146 178 225 298 363 416
#     4  10  22  41  63 101 141 182 232 291 350 414
#     4  10  24  39  67 107 139 182 230 295 356 418
#
# _framework density 21.810939999999999
#
# number of rings (size 3 to 8) (size 9 to 14) (size 15 to 20)
#    0.000    1.000    3.750    1.500    7.000    2.000 
#    0.000    0.000    0.000    0.000    0.000    0.000 
#    0.000    0.000    0.000    0.000    0.000    0.000 
#
# Total GULP energy -198475.527736 kJ/mol
# GULP energy per Si atom -12404.720484 kJ/mol
# Density = 2.176130 g / cm^3
# Si number density = 21.810940 Si / 1000 Ang^3
#
#
#
# Elastic Constant Matrix: (Units=GPa)
#
#
# Indices 1 2 3 4 5 6 
#
# 1 64.5589 28.5024 28.5686 0.0000 -5.2727 0.0000
# 2 28.5024 98.7225 43.1160 0.0000 -4.4433 0.0000
# 3 28.5686 43.1160 96.3346 0.0000 -17.2411 0.0000
# 4 0.0000 0.0000 0.0000 33.0280 0.0000 -1.1345
# 5 -5.2727 -4.4433 -17.2411 0.0000 31.4621 0.0000
# 6 0.0000 0.0000 0.0000 -1.1345 0.0000 22.3025
#
#
#
# Elastic Compliance Matrix: (Units=1/GPa)
#
#
# Indices 1 2 3 4 5 6 
#
# 1 0.018884 -0.003759 -0.003821 0.000000 0.000540 0.000000
# 2 -0.003759 0.013399 -0.005163 0.000000 -0.001567 0.000000
# 3 -0.003821 -0.005163 0.015056 0.000000 0.006881 0.000000
# 4 0.000000 0.000000 0.000000 0.030330 0.000000 0.001543
# 5 0.000540 -0.001567 0.006881 0.000000 0.035424 0.000000
# 6 0.000000 0.000000 0.000000 0.001543 0.000000 0.044916
#
#
# Mechanical properties :
#
#
# Convention : Reuss Voigt Hill
#
# Bulk Modulus (GPa) = 45.75924 51.11000 48.43462
# Shear Modulus (GPa) = 26.20821 27.98712 27.09767
#
# Velocity S-wave (km/s) = 3.47018 3.58602 3.52858
# Velocity P-wave (km/s) = 6.08948 6.37418 6.23345
#
# Compressibility (1/GPa) = 0.02185351
#
# Stress axis : x y z
#
# Youngs Moduli (GPa) = 52.95383 74.63342 66.41979
#
# Poissons Ratio (x) = 0.28054 0.25381
# Poissons Ratio (y) = 0.19905 0.34289
# Poissons Ratio (z) = 0.20235 0.38530
#
# Static dielectric constant tensor:
#      x y z
#    x 3.794660 0.000000 -0.111940 
#    y 0.000000 4.055740 0.000000 
#    z -0.111940 0.000000 4.035130 
# 
# 
# High freq. dielectric constant tensor:
#      x y z
#    x 1.850760 0.000000 -0.009890 
#    y 0.000000 1.859910 0.000000 
#    z -0.009890 0.000000 1.869880 
# 
# From -- ./inp_files/12032.got.cif
#   From: 2010.06.25/outbox.cif.g09.slc.cpg/sg9_7_cif.got.tgz:12032.got - 2010.06.27 21:40:51.
