data_PCOD8054964
_publ_section_title
;
Structure prediction by ZEFSAII (Michael W. Deem and Ramdas Pophale) SiO2 
 PCOD8054964
Probable space group: C C
;
_chemical_formula_sum "Si O2"
_cell_formula_units_Z 32
_cell_length_a 21.296471
_cell_length_b 9.458443
_cell_length_c 8.727148
_cell_angle_alpha 90.000000
_cell_angle_beta 56.437919
_cell_angle_gamma 90.000000
_cell_volume 1464.854190
_symmetry_space_group_name_H-M "C C"
_symmetry_group_IT_number 9
_symmetry_cell_setting 'monoclinic'
loop_
_space_group_symop_operation_xyz
x,y,z
x,-y,1/2+z
1/2+x,1/2+y,z
1/2+x,1/2-y,1/2+z
loop_
_atom_site_type_symbol
_atom_site_label
_atom_site_fract_x
_atom_site_fract_y
_atom_site_fract_z
Si Si1 0.198760 0.478265 0.587860
Si Si2 0.390816 0.691817 0.029853
Si Si3 0.124301 0.649881 0.913909
Si Si4 0.459789 0.911618 0.754309
Si Si5 0.864222 0.082098 0.392910
Si Si6 0.232709 0.185059 0.665444
Si Si7 0.713282 0.419035 0.853166
Si Si8 0.378716 0.855439 0.550544
O O1 0.133633 0.586570 0.730650
O O2 0.188258 0.429327 0.428044
O O3 0.275348 0.565930 0.490062
O O4 0.194280 0.338516 0.702068
O O5 0.457497 0.799165 0.897114
O O6 0.396824 0.568216 0.897103
O O7 0.401936 0.632917 0.184556
O O8 0.316949 0.788790 0.111570
O O9 0.144152 0.816960 0.891651
O O10 0.044577 0.599041 0.082499
O O11 0.404368 0.871633 0.690632
O O12 0.433305 0.061768 0.858386
O O13 0.884111 0.190894 0.500427
O O14 0.230618 0.102207 0.507421
O O15 0.190294 0.082376 0.845715
O O16 0.790811 0.396981 0.652407
#
# Coordination Sequence:
#
# PCOD8054964 Si02
#       8
#     4   4   4   4   4   4   4   4
#     4  10  21  41  62  94 125 168 215 265 332 391
#     4  11  22  39  60  95 127 166 217 270 336 386
#     4  11  24  42  64  93 138 170 214 271 343 406
#     4  12  25  42  64  96 137 176 214 281 341 402
#     4  11  23  38  69  94 125 167 221 285 314 390
#     4  10  22  35  63  92 124 156 214 275 312 378
#     4  11  21  40  61  96 122 166 220 274 314 389
#     4  12  22  41  65  96 128 173 229 267 328 388
#
# _framework density 21.845178000000001
#
# number of rings (size 3 to 8) (size 9 to 14) (size 15 to 20)
#    0.000    1.000    3.750    3.750    3.500    1.000 
#    0.000    6.250    0.000    0.000    0.000    0.000 
#    0.000    0.000    0.000    0.000    0.000    0.000 
#
# Total GULP energy -198338.708389 kJ/mol
# GULP energy per Si atom -12396.169274 kJ/mol
# Density = 2.179546 g / cm^3
# Si number density = 21.845178 Si / 1000 Ang^3
#
#
#
# Elastic Constant Matrix: (Units=GPa)
#
#
# Indices 1 2 3 4 5 6 
#
# 1 33.4968 10.7876 5.7650 0.0000 -5.4362 0.0000
# 2 10.7876 97.5043 20.6846 0.0000 1.3737 0.0000
# 3 5.7650 20.6846 60.2019 0.0000 1.3670 0.0000
# 4 0.0000 0.0000 0.0000 52.8953 0.0000 4.5100
# 5 -5.4362 1.3737 1.3670 0.0000 36.9546 0.0000
# 6 0.0000 0.0000 0.0000 4.5100 0.0000 24.4090
#
#
#
# Elastic Compliance Matrix: (Units=1/GPa)
#
#
# Indices 1 2 3 4 5 6 
#
# 1 0.032030 -0.003170 -0.002090 0.000000 0.004907 0.000000
# 2 -0.003170 0.011379 -0.003589 0.000000 -0.000756 0.000000
# 3 -0.002090 -0.003589 0.018063 0.000000 -0.000842 0.000000
# 4 0.000000 0.000000 0.000000 0.019208 0.000000 -0.003549
# 5 0.004907 -0.000756 -0.000842 0.000000 0.027841 0.000000
# 6 0.000000 0.000000 0.000000 -0.003549 0.000000 0.041624
#
#
# Mechanical properties :
#
#
# Convention : Reuss Voigt Hill
#
# Bulk Modulus (GPa) = 22.84360 29.51970 26.18165
# Shear Modulus (GPa) = 27.40724 33.11617 30.26170
#
# Velocity S-wave (km/s) = 3.54589 3.89774 3.72597
# Velocity P-wave (km/s) = 5.21960 5.81369 5.52464
#
# Compressibility (1/GPa) = 0.04377594
#
# Stress axis : x y z
#
# Youngs Moduli (GPa) = 31.22038 87.88408 55.36150
#
# Poissons Ratio (x) = 0.27855 0.11569
# Poissons Ratio (y) = 0.09896 0.19868
# Poissons Ratio (z) = 0.06524 0.31540
#
# Static dielectric constant tensor:
#      x y z
#    x 3.662950 0.000000 0.182690 
#    y 0.000000 4.222500 0.000000 
#    z 0.182690 0.000000 3.951070 
# 
# 
# High freq. dielectric constant tensor:
#      x y z
#    x 1.824550 0.000000 0.019360 
#    y 0.000000 1.876570 0.000000 
#    z 0.019360 0.000000 1.856850 
# 
# From -- ./inp_files/11332.got.cif
#   From: 2010.06.25/outbox.cif.g09.slc.cpg/sg9_6_cif.got.tgz:11332.got - 2010.06.27 21:40:51.
