data_PCOD8054484
_publ_section_title
;
Structure prediction by ZEFSAII (Michael W. Deem and Ramdas Pophale) SiO2 
 PCOD8054484
Probable space group: C C
;
_chemical_formula_sum "Si O2"
_cell_formula_units_Z 32
_cell_length_a 15.055097
_cell_length_b 7.724888
_cell_length_c 14.274282
_cell_angle_alpha 90.000000
_cell_angle_beta 70.079973
_cell_angle_gamma 90.000000
_cell_volume 1560.759520
_symmetry_space_group_name_H-M "C C"
_symmetry_group_IT_number 9
_symmetry_cell_setting 'monoclinic'
loop_
_space_group_symop_operation_xyz
x,y,z
x,-y,1/2+z
1/2+x,1/2+y,z
1/2+x,1/2-y,1/2+z
loop_
_atom_site_type_symbol
_atom_site_label
_atom_site_fract_x
_atom_site_fract_y
_atom_site_fract_z
Si Si1 0.441140 0.242540 0.480010
Si Si2 0.296744 0.895083 0.162655
Si Si3 0.480442 0.525357 0.608480
Si Si4 0.831719 0.742230 0.225743
Si Si5 0.637157 0.795599 0.605419
Si Si6 0.893985 0.210974 0.289887
Si Si7 0.283824 0.425730 0.418690
Si Si8 0.491732 0.944552 0.788265
O O1 0.397259 0.110386 0.571736
O O2 0.495166 0.398666 0.514123
O O3 0.353372 0.306242 0.451756
O O4 0.510337 0.140884 0.384136
O O5 0.212079 0.815801 0.135542
O O6 0.313546 0.788557 0.251382
O O7 0.271910 0.095238 0.193947
O O8 0.381735 0.631579 0.631600
O O9 0.568326 0.655403 0.582147
O O10 0.466220 0.418961 0.710673
O O11 0.765430 0.850413 0.320430
O O12 0.913724 0.657628 0.258272
O O13 0.684053 0.919630 0.509459
O O14 0.587741 0.929005 0.694461
O O15 0.959194 0.357579 0.313882
O O16 0.833232 0.113935 0.392331
#
# Coordination Sequence:
#
# PCOD8054484 Si02
#       8
#     4   4   4   4   4   4   4   4
#     4   9  18  33  54  78 107 148 186 217 269 341
#     4   9  18  34  55  79 107 141 185 230 273 323
#     4   9  18  34  56  79 108 145 187 229 271 325
#     4   8  16  33  55  76 103 145 183 215 269 338
#     4  10  20  35  54  84 118 140 177 240 279 311
#     4   9  18  37  57  74 104 153 191 218 271 342
#     4   9  18  34  55  79 108 141 182 228 276 327
#     4   9  18  34  54  77 109 145 183 225 268 321
#
# _framework density 20.502839000000002
#
# number of rings (size 3 to 8) (size 9 to 14) (size 15 to 20)
#    0.000    3.000    0.000    0.750    0.000    2.000 
#    0.000   16.250    0.000    0.000    0.000    0.000 
#    0.000    0.000    0.000    0.000    0.000    0.000 
#
# Total GULP energy -198281.597492 kJ/mol
# GULP energy per Si atom -12392.599843 kJ/mol
# Density = 2.045617 g / cm^3
# Si number density = 20.502839 Si / 1000 Ang^3
#
#
#
# Elastic Constant Matrix: (Units=GPa)
#
#
# Indices 1 2 3 4 5 6 
#
# 1 47.0740 26.0083 40.6187 0.0000 -9.4207 0.0000
# 2 26.0083 129.8316 74.2030 0.0000 -11.2486 0.0000
# 3 40.6187 74.2030 142.7024 0.0000 -22.1376 0.0000
# 4 0.0000 0.0000 0.0000 19.1013 0.0000 -0.4190
# 5 -9.4207 -11.2486 -22.1376 0.0000 26.5543 0.0000
# 6 0.0000 0.0000 0.0000 -0.4190 0.0000 27.9646
#
#
#
# Elastic Compliance Matrix: (Units=1/GPa)
#
#
# Indices 1 2 3 4 5 6 
#
# 1 0.028714 -0.001549 -0.006764 0.000000 0.003892 0.000000
# 2 -0.001549 0.011043 -0.005353 0.000000 -0.000334 0.000000
# 3 -0.006764 -0.005353 0.012625 0.000000 0.005858 0.000000
# 4 0.000000 0.000000 0.000000 0.052370 0.000000 0.000785
# 5 0.003892 -0.000334 0.005858 0.000000 0.043781 0.000000
# 6 0.000000 0.000000 0.000000 0.000785 0.000000 0.035771
#
#
# Mechanical properties :
#
#
# Convention : Reuss Voigt Hill
#
# Bulk Modulus (GPa) = 39.91997 66.80756 53.36377
# Shear Modulus (GPa) = 22.72855 26.64258 24.68557
#
# Velocity S-wave (km/s) = 3.33311 3.60871 3.47365
# Velocity P-wave (km/s) = 5.85880 7.07241 6.49402
#
# Compressibility (1/GPa) = 0.02505012
#
# Stress axis : x y z
#
# Youngs Moduli (GPa) = 34.82585 90.55365 79.20660
#
# Poissons Ratio (x) = 0.14028 0.53575
# Poissons Ratio (y) = 0.05395 0.42401
# Poissons Ratio (z) = 0.23556 0.48475
#
# Static dielectric constant tensor:
#      x y z
#    x 3.246320 0.000000 -0.005670 
#    y 0.000000 3.935980 0.000000 
#    z -0.005670 0.000000 4.098740 
# 
# 
# High freq. dielectric constant tensor:
#      x y z
#    x 1.759970 0.000000 0.004170 
#    y 0.000000 1.804610 0.000000 
#    z 0.004170 0.000000 1.804900 
# 
# From -- ./inp_files/25393.got.cif
#   From: 2010.06.25/outbox.cif.g09.slc.cpg/sg9_13_cif.got.tgz:25393.got - 2010.06.27 21:40:51.
