data_PCOD8054478
_publ_section_title
;
Structure prediction by ZEFSAII (Michael W. Deem and Ramdas Pophale) SiO2 
 PCOD8054478
Probable space group: C C
;
_chemical_formula_sum "Si O2"
_cell_formula_units_Z 32
_cell_length_a 7.907752
_cell_length_b 14.801580
_cell_length_c 14.612570
_cell_angle_alpha 90.000000
_cell_angle_beta 69.671848
_cell_angle_gamma 90.000000
_cell_volume 1603.836673
_symmetry_space_group_name_H-M "C C"
_symmetry_group_IT_number 9
_symmetry_cell_setting 'monoclinic'
loop_
_space_group_symop_operation_xyz
x,y,z
x,-y,1/2+z
1/2+x,1/2+y,z
1/2+x,1/2-y,1/2+z
loop_
_atom_site_type_symbol
_atom_site_label
_atom_site_fract_x
_atom_site_fract_y
_atom_site_fract_z
Si Si1 0.767970 0.712652 0.779360
Si Si2 0.669432 0.941793 0.325398
Si Si3 0.032182 0.429610 0.160852
Si Si4 0.306125 0.865411 0.460472
Si Si5 0.862909 0.827508 0.025020
Si Si6 0.488719 0.657848 0.695540
Si Si7 0.924073 0.104766 0.325468
Si Si8 0.202026 0.025191 0.144689
O O1 0.722239 0.645969 0.874322
O O2 0.599268 0.722983 0.742326
O O3 0.817490 0.812158 0.801105
O O4 0.931114 0.665518 0.695418
O O5 0.586199 0.978473 0.245691
O O6 0.511062 0.903484 0.419652
O O7 0.791314 0.854595 0.276553
O O8 0.787735 0.019521 0.350835
O O9 0.207727 0.402173 0.070517
O O10 0.908774 0.501951 0.130455
O O11 0.287217 0.768951 0.511292
O O12 0.190457 0.933519 0.544809
O O13 0.980141 0.805908 0.093464
O O14 0.978336 0.870191 0.919668
O O15 0.580673 0.561743 0.669998
O O16 0.112076 0.091541 0.236606
#
# Coordination Sequence:
#
# PCOD8054478 Si02
#       8
#     4   4   4   4   4   4   4   4
#     4   9  19  36  55  77 107 143 179 223 272 321
#     4   9  19  35  53  77 109 142 179 221 269 322
#     4   9  18  35  55  77 108 142 178 221 268 321
#     4  10  20  35  55  78 106 143 178 219 273 325
#     4  10  20  35  55  79 108 141 177 223 271 320
#     4   9  20  37  55  77 107 141 180 225 270 321
#     4  10  20  35  54  80 110 142 180 225 271 323
#     4  10  20  34  56  81 107 144 181 221 270 323
#
# _framework density 19.952157
#
# number of rings (size 3 to 8) (size 9 to 14) (size 15 to 20)
#    0.000    2.500    0.000    1.500    0.000    6.000 
#    0.000   10.000    0.000    0.000    0.000    0.000 
#    0.000    0.000    0.000    0.000    0.000    0.000 
#
# Total GULP energy -198302.758017 kJ/mol
# GULP energy per Si atom -12393.922376 kJ/mol
# Density = 1.990675 g / cm^3
# Si number density = 19.952157 Si / 1000 Ang^3
#
#
#
# Elastic Constant Matrix: (Units=GPa)
#
#
# Indices 1 2 3 4 5 6 
#
# 1 87.8036 11.6104 40.4377 0.0000 15.9797 0.0000
# 2 11.6104 52.5908 27.2398 0.0000 5.4464 0.0000
# 3 40.4377 27.2398 119.1266 0.0000 5.0159 0.0000
# 4 0.0000 0.0000 0.0000 31.1312 0.0000 3.1079
# 5 15.9797 5.4464 5.0159 0.0000 32.3739 0.0000
# 6 0.0000 0.0000 0.0000 3.1079 0.0000 17.0137
#
#
#
# Elastic Compliance Matrix: (Units=1/GPa)
#
#
# Indices 1 2 3 4 5 6 
#
# 1 0.014763 -0.000147 -0.004703 0.000000 -0.006534 0.000000
# 2 -0.000147 0.021842 -0.004824 0.000000 -0.002855 0.000000
# 3 -0.004703 -0.004824 0.011034 0.000000 0.001423 0.000000
# 4 0.000000 0.000000 0.000000 0.032719 0.000000 -0.005977
# 5 -0.006534 -0.002855 0.001423 0.000000 0.034374 0.000000
# 6 0.000000 0.000000 0.000000 -0.005977 0.000000 0.059868
#
#
# Mechanical properties :
#
#
# Convention : Reuss Voigt Hill
#
# Bulk Modulus (GPa) = 35.34670 46.45522 40.90096
# Shear Modulus (GPa) = 24.58477 28.11929 26.35203
#
# Velocity S-wave (km/s) = 3.51406 3.75819 3.63817
# Velocity P-wave (km/s) = 5.84970 6.49352 6.18000
#
# Compressibility (1/GPa) = 0.02829118
#
# Stress axis : x y z
#
# Youngs Moduli (GPa) = 67.73484 45.78424 90.62877
#
# Poissons Ratio (x) = 0.00672 0.42621
# Poissons Ratio (y) = 0.00994 0.43722
# Poissons Ratio (z) = 0.31854 0.22088
#
# Static dielectric constant tensor:
#      x y z
#    x 3.694740 0.000000 0.132030 
#    y 0.000000 3.425060 0.000000 
#    z 0.132030 0.000000 3.905160 
# 
# 
# High freq. dielectric constant tensor:
#      x y z
#    x 1.763970 0.000000 0.005520 
#    y 0.000000 1.765910 0.000000 
#    z 0.005520 0.000000 1.789890 
# 
# From -- ./inp_files/14632.got.cif
#   From: 2010.06.25/outbox.cif.g09.slc.cpg/sg9_8_cif.got.tgz:14632.got - 2010.06.27 21:40:51.
