data_PCOD8054556
_publ_section_title
;
Structure prediction by ZEFSAII (Michael W. Deem and Ramdas Pophale) SiO2 
 PCOD8054556
Probable space group: C C
;
_chemical_formula_sum "Si O2"
_cell_formula_units_Z 32
_cell_length_a 9.334680
_cell_length_b 19.460586
_cell_length_c 12.078824
_cell_angle_alpha 90.000000
_cell_angle_beta 46.357748
_cell_angle_gamma 90.000000
_cell_volume 1587.875464
_symmetry_space_group_name_H-M "C C"
_symmetry_group_IT_number 9
_symmetry_cell_setting 'monoclinic'
loop_
_space_group_symop_operation_xyz
x,y,z
x,-y,1/2+z
1/2+x,1/2+y,z
1/2+x,1/2-y,1/2+z
loop_
_atom_site_type_symbol
_atom_site_label
_atom_site_fract_x
_atom_site_fract_y
_atom_site_fract_z
Si Si1 0.883130 0.502061 0.661020
Si Si2 0.078445 0.274148 0.612806
Si Si3 0.188148 0.378178 0.968392
Si Si4 0.858422 0.843095 0.101575
Si Si5 0.987514 0.006031 0.256875
Si Si6 0.205570 0.058541 0.456430
Si Si7 0.426446 0.176960 0.428502
Si Si8 0.158986 0.399419 0.412947
O O1 0.650998 0.508932 0.762039
O O2 0.879954 0.470567 0.786064
O O3 0.007498 0.571947 0.598531
O O4 0.965111 0.446907 0.527973
O O5 0.268415 0.232426 0.555548
O O6 0.150056 0.332899 0.493269
O O7 0.924271 0.227510 0.625324
O O8 0.977339 0.305972 0.774485
O O9 0.377225 0.421104 0.825017
O O10 0.114690 0.326358 0.910695
O O11 0.253920 0.331755 0.038381
O O12 0.694516 0.879537 0.266533
O O13 0.049334 0.891338 0.978247
O O14 0.840970 0.943755 0.360086
O O15 0.084552 0.001824 0.082791
O O16 0.322673 0.102043 0.487692
#
# Coordination Sequence:
#
# PCOD8054556 Si02
#       8
#     4   4   4   4   4   4   4   4
#     4  11  21  36  65  95 129 162 201 256 326 375
#     4  11  22  43  67  83 120 173 219 252 310 374
#     4  11  24  40  62  98 132 160 210 266 320 368
#     4  10  22  41  62  90 127 163 213 265 301 373
#     4  10  22  39  60  96 132 155 201 260 317 381
#     4  10  20  37  64  88 125 171 201 246 320 382
#     4  11  23  41  63  92 123 169 212 260 308 375
#     4  10  22  39  65  90 118 171 213 243 314 384
#
# _framework density 20.152714
#
# number of rings (size 3 to 8) (size 9 to 14) (size 15 to 20)
#    0.000    1.500    5.000    0.000    1.750    2.000 
#    2.250    0.000    0.000    0.000    0.000    0.000 
#    0.000    0.000    0.000    0.000    0.000    0.000 
#
# Total GULP energy -198359.157653 kJ/mol
# GULP energy per Si atom -12397.447353 kJ/mol
# Density = 2.010685 g / cm^3
# Si number density = 20.152714 Si / 1000 Ang^3
#
#
#
# Elastic Constant Matrix: (Units=GPa)
#
#
# Indices 1 2 3 4 5 6 
#
# 1 132.2348 36.4918 28.1069 0.0000 9.0253 0.0000
# 2 36.4918 71.7615 30.0035 0.0000 6.7183 0.0000
# 3 28.1069 30.0035 99.3212 0.0000 1.3276 0.0000
# 4 0.0000 0.0000 0.0000 26.0679 0.0000 2.8459
# 5 9.0253 6.7183 1.3276 0.0000 26.9529 0.0000
# 6 0.0000 0.0000 0.0000 2.8459 0.0000 19.0006
#
#
#
# Elastic Compliance Matrix: (Units=1/GPa)
#
#
# Indices 1 2 3 4 5 6 
#
# 1 0.009051 -0.003840 -0.001375 0.000000 -0.002006 0.000000
# 2 -0.003840 0.017965 -0.004300 0.000000 -0.002980 0.000000
# 3 -0.001375 -0.004300 0.011744 0.000000 0.000954 0.000000
# 4 0.000000 0.000000 0.000000 0.038999 0.000000 -0.005841
# 5 -0.002006 -0.002980 0.000954 0.000000 0.038469 0.000000
# 6 0.000000 0.000000 0.000000 -0.005841 0.000000 0.053505
#
#
# Mechanical properties :
#
#
# Convention : Reuss Voigt Hill
#
# Bulk Modulus (GPa) = 50.68542 54.72467 52.70504
# Shear Modulus (GPa) = 25.59648 28.31863 26.95755
#
# Velocity S-wave (km/s) = 3.56775 3.75267 3.66138
# Velocity P-wave (km/s) = 6.49439 6.78164 6.63957
#
# Compressibility (1/GPa) = 0.01972954
#
# Stress axis : x y z
#
# Youngs Moduli (GPa) = 110.48383 55.66439 85.15247
#
# Poissons Ratio (x) = 0.21376 0.11704
# Poissons Ratio (y) = 0.42427 0.36619
# Poissons Ratio (z) = 0.15186 0.23938
#
# Static dielectric constant tensor:
#      x y z
#    x 3.565210 0.000000 -0.138890 
#    y 0.000000 3.587600 0.000000 
#    z -0.138890 0.000000 3.804800 
# 
# 
# High freq. dielectric constant tensor:
#      x y z
#    x 1.777820 0.000000 -0.006220 
#    y 0.000000 1.772740 0.000000 
#    z -0.006220 0.000000 1.799180 
# 
# From -- ./inp_files/5605.got.cif
#   From: 2010.06.25/outbox.cif.g09.slc.cpg/sg9_3_cif.got.tgz:5605.got - 2010.06.27 21:40:51.
