data_PCOD8054689
_publ_section_title
;
Structure prediction by ZEFSAII (Michael W. Deem and Ramdas Pophale) SiO2 
 PCOD8054689
Probable space group: C C
;
_chemical_formula_sum "Si O2"
_cell_formula_units_Z 32
_cell_length_a 20.761955
_cell_length_b 11.253521
_cell_length_c 8.511873
_cell_angle_alpha 90.000000
_cell_angle_beta 46.750659
_cell_angle_gamma 90.000000
_cell_volume 1448.568821
_symmetry_space_group_name_H-M "C C"
_symmetry_group_IT_number 9
_symmetry_cell_setting 'monoclinic'
loop_
_space_group_symop_operation_xyz
x,y,z
x,-y,1/2+z
1/2+x,1/2+y,z
1/2+x,1/2-y,1/2+z
loop_
_atom_site_type_symbol
_atom_site_label
_atom_site_fract_x
_atom_site_fract_y
_atom_site_fract_z
Si Si1 0.788480 0.252674 0.157380
Si Si2 0.965147 0.370018 0.841431
Si Si3 0.421683 0.892700 0.551884
Si Si4 0.862549 0.832156 0.017289
Si Si5 0.386495 0.561015 0.809777
Si Si6 0.211850 0.201042 0.104827
Si Si7 0.234794 0.067078 0.484003
Si Si8 0.573889 0.671659 0.571547
O O1 0.722856 0.237892 0.415473
O O2 0.740401 0.334329 0.109745
O O3 0.878276 0.316224 0.070503
O O4 0.813849 0.125267 0.041912
O O5 0.950141 0.365921 0.680131
O O6 0.050808 0.285773 0.722072
O O7 0.981259 0.502568 0.878011
O O8 0.434101 0.773983 0.424897
O O9 0.317548 0.925179 0.726707
O O10 0.858300 0.913027 0.179472
O O11 0.769403 0.770165 0.138501
O O12 0.886292 0.918471 0.832952
O O13 0.484783 0.600740 0.687636
O O14 0.112323 0.213653 0.337806
O O15 0.236992 0.062492 0.056428
O O16 0.144055 0.086674 0.540342
#
# Coordination Sequence:
#
# PCOD8054689 Si02
#       8
#     4   4   4   4   4   4   4   4
#     4  10  20  41  65  98 130 180 239 273 346 422
#     4  10  22  41  68  99 141 174 229 291 344 407
#     4  11  20  42  69  99 133 186 242 276 335 422
#     4  12  23  45  69  98 138 189 243 281 342 430
#     4  11  25  44  67 100 142 188 230 293 350 420
#     4  12  23  40  71 101 134 185 233 284 348 410
#     4  11  21  40  72 103 137 179 235 296 337 414
#     4  11  24  43  63 104 149 171 225 302 358 399
#
# _framework density 22.090769999999999
#
# number of rings (size 3 to 8) (size 9 to 14) (size 15 to 20)
#    0.000    1.000    6.250    3.000    1.750    0.000 
#    0.000    5.000    0.000    0.000    0.000    0.000 
#    0.000    0.000    0.000    0.000    0.000    0.000 
#
# Total GULP energy -198337.663907 kJ/mol
# GULP energy per Si atom -12396.103994 kJ/mol
# Density = 2.204049 g / cm^3
# Si number density = 22.090770 Si / 1000 Ang^3
#
#
#
# Elastic Constant Matrix: (Units=GPa)
#
#
# Indices 1 2 3 4 5 6 
#
# 1 79.7317 25.0780 26.3941 0.0000 -2.5571 0.0000
# 2 25.0780 126.3511 35.7040 0.0000 -5.9831 0.0000
# 3 26.3941 35.7040 93.9754 0.0000 -4.4845 0.0000
# 4 0.0000 0.0000 0.0000 37.4968 0.0000 6.5081
# 5 -2.5571 -5.9831 -4.4845 0.0000 21.9853 0.0000
# 6 0.0000 0.0000 0.0000 6.5081 0.0000 33.5406
#
#
#
# Elastic Compliance Matrix: (Units=1/GPa)
#
#
# Indices 1 2 3 4 5 6 
#
# 1 0.014228 -0.001880 -0.003259 0.000000 0.000478 0.000000
# 2 -0.001880 0.009181 -0.002879 0.000000 0.001693 0.000000
# 3 -0.003259 -0.002879 0.012719 0.000000 0.001432 0.000000
# 4 0.000000 0.000000 0.000000 0.027598 0.000000 -0.005355
# 5 0.000478 0.001693 0.001432 0.000000 0.046293 0.000000
# 6 0.000000 0.000000 0.000000 -0.005355 0.000000 0.030854
#
#
# Mechanical properties :
#
#
# Convention : Reuss Voigt Hill
#
# Bulk Modulus (GPa) = 49.77444 52.71227 51.24336
# Shear Modulus (GPa) = 30.56102 32.79667 31.67885
#
# Velocity S-wave (km/s) = 3.72348 3.85727 3.79097
# Velocity P-wave (km/s) = 6.40831 6.61450 6.51222
#
# Compressibility (1/GPa) = 0.02009063
#
# Stress axis : x y z
#
# Youngs Moduli (GPa) = 70.28592 108.91493 78.62480
#
# Poissons Ratio (x) = 0.20480 0.25622
# Poissons Ratio (y) = 0.13216 0.22639
# Poissons Ratio (z) = 0.22904 0.31361
#
# Static dielectric constant tensor:
#      x y z
#    x 3.776290 0.000000 0.051890 
#    y 0.000000 4.304140 0.000000 
#    z 0.051890 0.000000 4.014270 
# 
# 
# High freq. dielectric constant tensor:
#      x y z
#    x 1.853440 0.000000 0.016820 
#    y 0.000000 1.879040 0.000000 
#    z 0.016820 0.000000 1.855180 
# 
# From -- ./inp_files/11563.got.cif
#   From: 2010.06.25/outbox.cif.g09.slc.cpg/sg9_6_cif.got.tgz:11563.got - 2010.06.27 21:40:51.
