data_PCOD8054841
_publ_section_title
;
Structure prediction by ZEFSAII (Michael W. Deem and Ramdas Pophale) SiO2 
 PCOD8054841
Probable space group: C C
;
_chemical_formula_sum "Si O2"
_cell_formula_units_Z 32
_cell_length_a 10.309052
_cell_length_b 8.672314
_cell_length_c 16.849415
_cell_angle_alpha 90.000000
_cell_angle_beta 103.484127
_cell_angle_gamma 90.000000
_cell_volume 1464.869493
_symmetry_space_group_name_H-M "C C"
_symmetry_group_IT_number 9
_symmetry_cell_setting 'monoclinic'
loop_
_space_group_symop_operation_xyz
x,y,z
x,-y,1/2+z
1/2+x,1/2+y,z
1/2+x,1/2-y,1/2+z
loop_
_atom_site_type_symbol
_atom_site_label
_atom_site_fract_x
_atom_site_fract_y
_atom_site_fract_z
Si Si1 0.545430 0.981978 0.503500
Si Si2 0.151024 0.963248 0.351404
Si Si3 0.914785 0.468730 0.320854
Si Si4 0.331692 0.514925 0.998525
Si Si5 0.296130 0.129086 0.515029
Si Si6 0.067925 0.168404 0.589962
Si Si7 0.380847 0.387201 0.831111
Si Si8 0.605767 0.831326 0.758569
O O1 0.488541 0.026794 0.409932
O O2 0.698431 0.042275 0.526680
O O3 0.446688 0.067814 0.551404
O O4 0.532328 0.800682 0.520685
O O5 0.258928 0.020596 0.300727
O O6 0.207463 0.018843 0.444335
O O7 0.002526 0.018172 0.311852
O O8 0.139795 0.777062 0.340298
O O9 0.927709 0.286258 0.323097
O O10 0.987360 0.547820 0.256936
O O11 0.311578 0.697842 0.982981
O O12 0.461098 0.470747 0.069267
O O13 0.351576 0.433107 0.917377
O O14 0.218698 0.117516 0.588122
O O15 0.064660 0.228327 0.678553
O O16 0.245030 0.422286 0.761971
#
# Coordination Sequence:
#
# PCOD8054841 Si02
#       8
#     4   4   4   4   4   4   4   4
#     4  10  21  38  65  93 122 165 221 262 314 389
#     4  10  23  38  63  98 123 167 222 265 319 390
#     4  10  21  39  61  95 122 165 219 265 322 383
#     4  11  21  38  68  94 122 168 219 268 320 391
#     4  10  23  39  68  97 125 165 225 268 321 389
#     4  11  24  44  61  96 133 170 210 273 333 383
#     4  11  21  39  66  92 124 168 214 268 318 389
#     4  11  26  41  64  93 139 168 212 275 335 380
#
# _framework density 21.844949
#
# number of rings (size 3 to 8) (size 9 to 14) (size 15 to 20)
#    0.000    1.500    3.750    0.750    3.500    5.000 
#    0.000    1.250    0.000    0.000    0.000    0.000 
#    0.000    0.000    0.000    0.000    0.000    0.000 
#
# Total GULP energy -198231.725547 kJ/mol
# GULP energy per Si atom -12389.482847 kJ/mol
# Density = 2.179523 g / cm^3
# Si number density = 21.844949 Si / 1000 Ang^3
#
#
#
# Elastic Constant Matrix: (Units=GPa)
#
#
# Indices 1 2 3 4 5 6 
#
# 1 203.5677 53.8616 6.5725 0.0000 -0.2217 0.0000
# 2 53.8616 67.0999 8.6089 0.0000 -11.3033 0.0000
# 3 6.5725 8.6089 28.9870 0.0000 -4.3629 0.0000
# 4 0.0000 0.0000 0.0000 16.1950 0.0000 -0.8534
# 5 -0.2217 -11.3033 -4.3629 0.0000 24.5411 0.0000
# 6 0.0000 0.0000 0.0000 -0.8534 0.0000 37.1877
#
#
#
# Elastic Compliance Matrix: (Units=1/GPa)
#
#
# Indices 1 2 3 4 5 6 
#
# 1 0.006376 -0.005518 -0.000186 0.000000 -0.002517 0.000000
# 2 -0.005518 0.021346 -0.003715 0.000000 0.009121 0.000000
# 3 -0.000186 -0.003715 0.036359 0.000000 0.004751 0.000000
# 4 0.000000 0.000000 0.000000 0.061822 0.000000 0.001419
# 5 -0.002517 0.009121 0.004751 0.000000 0.045771 0.000000
# 6 0.000000 0.000000 0.000000 0.001419 0.000000 0.026923
#
#
# Mechanical properties :
#
#
# Convention : Reuss Voigt Hill
#
# Bulk Modulus (GPa) = 22.10336 48.63784 35.37060
# Shear Modulus (GPa) = 21.50399 30.95888 26.23143
#
# Velocity S-wave (km/s) = 3.14091 3.76867 3.46902
# Velocity P-wave (km/s) = 4.82638 6.42266 5.68087
#
# Compressibility (1/GPa) = 0.04524199
#
# Stress axis : x y z
#
# Youngs Moduli (GPa) = 156.84815 46.84810 27.50359
#
# Poissons Ratio (x) = 0.25850 0.00511
# Poissons Ratio (y) = 0.86547 0.10219
# Poissons Ratio (z) = 0.02912 0.17406
#
# Static dielectric constant tensor:
#      x y z
#    x 4.695270 0.000000 0.060070 
#    y 0.000000 3.864220 0.000000 
#    z 0.060070 0.000000 3.475360 
# 
# 
# High freq. dielectric constant tensor:
#      x y z
#    x 1.892540 0.000000 0.001750 
#    y 0.000000 1.846330 0.000000 
#    z 0.001750 0.000000 1.815270 
# 
# From -- ./inp_files/29851.got.cif
#   From: 2010.06.25/outbox.cif.g09.slc.cpg/sg9_15_cif.got.tgz:29851.got - 2010.06.27 21:40:51.
