data_PCOD8054273
_publ_section_title
;
Structure prediction by ZEFSAII (Michael W. Deem and Ramdas Pophale) SiO2 
 PCOD8054273
Probable space group: C C
;
_chemical_formula_sum "Si O2"
_cell_formula_units_Z 28
_cell_length_a 23.718226
_cell_length_b 9.612071
_cell_length_c 17.463739
_cell_angle_alpha 90.000000
_cell_angle_beta 162.115099
_cell_angle_gamma 90.000000
_cell_volume 1222.712845
_symmetry_space_group_name_H-M "C C"
_symmetry_group_IT_number 9
_symmetry_cell_setting 'monoclinic'
loop_
_space_group_symop_operation_xyz
x,y,z
x,-y,1/2+z
1/2+x,1/2+y,z
1/2+x,1/2-y,1/2+z
loop_
_atom_site_type_symbol
_atom_site_label
_atom_site_fract_x
_atom_site_fract_y
_atom_site_fract_z
Si Si1 0.620440 0.326945 0.041410
Si Si2 0.763134 0.832638 0.475295
Si Si3 0.452925 0.664754 0.485795
Si Si4 0.969959 0.287795 0.787062
Si Si5 0.520691 0.570135 0.187706
Si Si6 0.743868 0.571114 0.107087
Si Si7 0.599610 0.120356 0.297371
O O1 0.741078 0.187319 0.185245
O O2 0.756522 0.445626 0.182978
O O3 0.428694 0.322211 0.750028
O O4 0.588586 0.350391 0.089718
O O5 0.664675 0.685493 0.348434
O O6 0.842993 0.856219 0.493990
O O7 0.620038 0.955949 0.308383
O O8 0.459181 0.517749 0.535631
O O9 0.506936 0.797730 0.607439
O O10 0.939962 0.393442 0.820427
O O11 0.801708 0.180231 0.572878
O O12 0.972556 0.367685 0.709024
O O13 0.159419 0.203724 0.043115
O O14 0.604565 0.462412 0.357342
#
# Coordination Sequence:
#
# PCOD8054273 Si02
#       7
#     4   4   4   4   4   4   4
#     4  11  24  43  63 102 140 172 223 288 354 396
#     4  11  24  43  66  98 132 180 233 276 333 408
#     4  12  24  43  71 100 138 176 225 287 351 400
#     4  10  18  37  71  96 129 171 244 265 318 393
#     4  11  23  40  68  97 134 177 237 271 331 417
#     4  10  21  40  64 102 132 180 227 276 327 419
#     4  11  20  40  71  99 127 182 231 275 324 417
#
# _framework density 22.899899000000001
#
# number of rings (size 3 to 8) (size 9 to 14) (size 15 to 20)
#    0.000    1.143    5.714    3.429    2.000    0.000 
#    2.571    2.857    0.000    3.429    0.000    0.000 
#    0.000    0.000    0.000    0.000    0.000    0.000 
#
# Total GULP energy -173586.801540 kJ/mol
# GULP energy per Si atom -12399.057253 kJ/mol
# Density = 2.284778 g / cm^3
# Si number density = 22.899899 Si / 1000 Ang^3
#
#
#
# Elastic Constant Matrix: (Units=GPa)
#
#
# Indices 1 2 3 4 5 6 
#
# 1 187.8182 74.0092 41.4409 -0.0003 30.6526 -0.0001
# 2 74.0092 136.5270 52.4024 -0.0003 8.1558 -0.0002
# 3 41.4409 52.4024 46.7001 -0.0005 8.3219 -0.0002
# 4 -0.0003 -0.0003 -0.0005 40.6077 -0.0003 7.0284
# 5 30.6526 8.1558 8.3219 -0.0003 30.9642 -0.0002
# 6 -0.0001 -0.0002 -0.0002 7.0284 -0.0002 40.8751
#
#
#
# Elastic Compliance Matrix: (Units=1/GPa)
#
#
# Indices 1 2 3 4 5 6 
#
# 1 0.008179 -0.002995 -0.002726 0.000000 -0.006575 0.000000
# 2 -0.002995 0.013970 -0.013539 0.000000 0.002924 0.000000
# 3 -0.002726 -0.013539 0.039815 0.000000 -0.004436 0.000000
# 4 0.000000 0.000000 0.000000 0.025381 0.000000 -0.004364
# 5 -0.006575 0.002924 -0.004436 0.000000 0.039226 0.000000
# 6 0.000000 0.000000 0.000000 -0.004364 0.000000 0.025215
#
#
# Mechanical properties :
#
#
# Convention : Reuss Voigt Hill
#
# Bulk Modulus (GPa) = 42.65418 78.52783 60.59101
# Shear Modulus (GPa) = 25.23702 36.03559 30.63630
#
# Velocity S-wave (km/s) = 3.32333 3.97118 3.66161
# Velocity P-wave (km/s) = 5.77865 7.44267 6.66281
#
# Compressibility (1/GPa) = 0.02344436
#
# Stress axis : x y z
#
# Youngs Moduli (GPa) = 122.26672 71.58193 25.11597
#
# Poissons Ratio (x) = 0.21436 0.06846
# Poissons Ratio (y) = 0.36614 0.34006
# Poissons Ratio (z) = 0.33328 0.96918
#
# Static dielectric constant tensor:
#      x y z
#    x 4.490910 0.000000 0.361540 
#    y 0.000000 4.199400 0.000000 
#    z 0.361540 0.000000 3.835470 
# 
# 
# High freq. dielectric constant tensor:
#      x y z
#    x 1.919580 0.000000 0.026490 
#    y 0.000000 1.905990 0.000000 
#    z 0.026490 0.000000 1.875500 
# 
# From -- ./inp_files/31568.got.cif
#   From: 2010.06.25/outbox.cif.g09.slc.cpg/sg9_16_cif.got.tgz:31568.got - 2010.06.27 21:40:51.
