data_PCOD8054655
_publ_section_title
;
Structure prediction by ZEFSAII (Michael W. Deem and Ramdas Pophale) SiO2 
 PCOD8054655
Probable space group: C C
;
_chemical_formula_sum "Si O2"
_cell_formula_units_Z 32
_cell_length_a 13.983931
_cell_length_b 10.118510
_cell_length_c 10.181939
_cell_angle_alpha 90.000000
_cell_angle_beta 69.540394
_cell_angle_gamma 90.000000
_cell_volume 1349.827612
_symmetry_space_group_name_H-M "C C"
_symmetry_group_IT_number 9
_symmetry_cell_setting 'monoclinic'
loop_
_space_group_symop_operation_xyz
x,y,z
x,-y,1/2+z
1/2+x,1/2+y,z
1/2+x,1/2-y,1/2+z
loop_
_atom_site_type_symbol
_atom_site_label
_atom_site_fract_x
_atom_site_fract_y
_atom_site_fract_z
Si Si1 0.423080 0.529942 0.866910
Si Si2 0.343489 0.820640 0.845652
Si Si3 0.157002 0.300374 0.319863
Si Si4 0.814452 0.976670 0.670662
Si Si5 0.050928 0.327161 0.114741
Si Si6 0.114347 0.177607 0.822972
Si Si7 0.548235 0.124838 0.127909
Si Si8 0.324227 0.179311 0.641216
O O1 0.379759 0.675402 0.865259
O O2 0.399889 0.452575 0.743894
O O3 0.542625 0.548716 0.841805
O O4 0.368323 0.457321 0.016840
O O5 0.235762 0.815323 0.821871
O O6 0.425887 0.888984 0.710205
O O7 0.335456 0.891231 0.992591
O O8 0.219313 0.436982 0.265441
O O9 0.093556 0.252816 0.223103
O O10 0.072618 0.316937 0.473457
O O11 0.782490 0.829926 0.644619
O O12 0.094090 0.476758 0.106952
O O13 0.928229 0.329863 0.172550
O O14 0.094292 0.254246 0.967374
O O15 0.228995 0.115743 0.766095
O O16 0.096978 0.282515 0.714500
#
# Coordination Sequence:
#
# PCOD8054655 Si02
#       8
#     4   4   4   4   4   4   4   4
#     4   9  20  39  63  92 123 162 204 261 308 371
#     4   9  20  41  62  87 127 165 202 253 319 374
#     4  11  24  36  65 100 119 163 212 268 308 361
#     4  10  20  40  63  95 123 156 216 255 310 366
#     4  12  24  38  62 100 126 159 212 270 303 368
#     4  11  22  43  65  87 129 174 205 249 330 379
#     4  11  21  41  64  92 126 168 213 252 315 382
#     4  11  21  40  66  89 125 169 204 256 317 375
#
# _framework density 23.70673
#
# number of rings (size 3 to 8) (size 9 to 14) (size 15 to 20)
#    0.000    1.500    5.000    2.250    5.250    1.000 
#    4.500    2.500    0.000    0.000    0.000    0.000 
#    0.000    0.000    0.000    0.000    0.000    0.000 
#
# Total GULP energy -198292.812863 kJ/mol
# GULP energy per Si atom -12393.300804 kJ/mol
# Density = 2.365277 g / cm^3
# Si number density = 23.706730 Si / 1000 Ang^3
#
#
#
# Elastic Constant Matrix: (Units=GPa)
#
#
# Indices 1 2 3 4 5 6 
#
# 1 159.4131 -7.5082 85.1189 0.0000 -3.0637 0.0000
# 2 -7.5082 16.9935 16.2530 0.0000 -1.5483 0.0000
# 3 85.1189 16.2530 188.8976 0.0000 0.9337 0.0000
# 4 0.0000 0.0000 0.0000 23.7370 0.0000 0.4084
# 5 -3.0637 -1.5483 0.9337 0.0000 48.5062 0.0000
# 6 0.0000 0.0000 0.0000 0.4084 0.0000 9.6683
#
#
#
# Elastic Compliance Matrix: (Units=1/GPa)
#
#
# Indices 1 2 3 4 5 6 
#
# 1 0.009396 0.009038 -0.005016 0.000000 0.000979 0.000000
# 2 0.009038 0.073043 -0.010373 0.000000 0.003102 0.000000
# 3 -0.005016 -0.010373 0.008451 0.000000 -0.000811 0.000000
# 4 0.000000 0.000000 0.000000 0.042159 0.000000 -0.001781
# 5 0.000979 0.003102 -0.000811 0.000000 0.020792 0.000000
# 6 0.000000 0.000000 0.000000 -0.001781 0.000000 0.103506
#
#
# Mechanical properties :
#
#
# Convention : Reuss Voigt Hill
#
# Bulk Modulus (GPa) = 12.78966 61.44796 37.11881
# Shear Modulus (GPa) = 16.88553 34.47833 25.68193
#
# Velocity S-wave (km/s) = 2.67173 3.81776 3.29495
# Velocity P-wave (km/s) = 3.86318 6.73869 5.49246
#
# Compressibility (1/GPa) = 0.07818815
#
# Stress axis : x y z
#
# Youngs Moduli (GPa) = 106.42745 13.69058 118.33146
#
# Poissons Ratio (x) = -0.12374 0.59361
# Poissons Ratio (y) = -0.96194 1.22744
# Poissons Ratio (z) = 0.53389 0.14201
#
# Static dielectric constant tensor:
#      x y z
#    x 4.734060 0.000000 0.006940 
#    y 0.000000 3.909350 0.000000 
#    z 0.006940 0.000000 4.762510 
# 
# 
# High freq. dielectric constant tensor:
#      x y z
#    x 1.950320 0.000000 -0.003180 
#    y 0.000000 1.894810 0.000000 
#    z -0.003180 0.000000 1.949870 
# 
# From -- ./inp_files/9248.got.cif
#   From: 2010.06.25/outbox.cif.g09.slc.cpg/sg9_5_cif.got.tgz:9248.got - 2010.06.27 21:40:51.
