data_PCOD8054509
_publ_section_title
;
Structure prediction by ZEFSAII (Michael W. Deem and Ramdas Pophale) SiO2 
 PCOD8054509
Probable space group: C C
;
_chemical_formula_sum "Si O2"
_cell_formula_units_Z 24
_cell_length_a 17.453955
_cell_length_b 8.570291
_cell_length_c 13.908259
_cell_angle_alpha 90.000000
_cell_angle_beta 143.814741
_cell_angle_gamma 90.000000
_cell_volume 1228.307469
_symmetry_space_group_name_H-M "C C"
_symmetry_group_IT_number 9
_symmetry_cell_setting 'monoclinic'
loop_
_space_group_symop_operation_xyz
x,y,z
x,-y,1/2+z
1/2+x,1/2+y,z
1/2+x,1/2-y,1/2+z
loop_
_atom_site_type_symbol
_atom_site_label
_atom_site_fract_x
_atom_site_fract_y
_atom_site_fract_z
Si Si1 0.143870 0.390689 0.864190
Si Si2 0.912401 0.806212 0.193681
Si Si3 0.667011 0.182993 0.775584
Si Si4 0.424250 0.682386 0.918824
Si Si5 0.673888 0.806457 0.495651
Si Si6 0.442798 0.390491 0.825160
O O1 0.146310 0.495740 0.769540
O O2 0.141939 0.507457 0.955437
O O3 0.018540 0.280695 0.736430
O O4 0.272796 0.283719 0.001544
O O5 0.909260 0.735481 0.298946
O O6 0.945000 0.992269 0.234351
O O7 0.548863 0.251168 0.597066
O O8 0.675813 0.265363 0.889420
O O9 0.798558 0.220092 0.853499
O O10 0.441502 0.494837 0.921131
O O11 0.567611 0.720248 0.452774
O O12 0.813624 0.783979 0.687711
#
# Coordination Sequence:
#
# PCOD8054509 Si02
#       6
#     4   4   4   4   4   4
#     4   9  20  35  61  81 117 148 197 229 282 345
#     4   9  19  37  58  85 111 155 190 234 276 349
#     4  10  20  36  58  84 115 149 186 239 290 332
#     4  10  20  36  58  84 115 149 186 239 290 332
#     4   9  19  37  58  85 111 155 190 234 276 349
#     4   9  20  35  61  81 117 148 197 229 282 345
#
# _framework density 19.539082000000001
#
# number of rings (size 3 to 8) (size 9 to 14) (size 15 to 20)
#    2.000    0.667    0.000    2.000    0.000    1.333 
#    0.000    1.667    0.000    0.000    0.000    0.000 
#    0.000    0.000    0.000    0.000    0.000    0.000 
#
# Total GULP energy -148677.973513 kJ/mol
# GULP energy per Si atom -12389.831126 kJ/mol
# Density = 1.949461 g / cm^3
# Si number density = 19.539082 Si / 1000 Ang^3
#
#
#
# Elastic Constant Matrix: (Units=GPa)
#
#
# Indices 1 2 3 4 5 6 
#
# 1 41.9075 17.7974 49.5661 0.0000 24.3318 0.0000
# 2 17.7974 41.7764 45.1428 0.0000 16.0475 0.0000
# 3 49.5661 45.1428 119.1808 0.0000 17.9786 0.0000
# 4 0.0000 0.0000 0.0000 32.9176 0.0000 3.8836
# 5 24.3318 16.0475 17.9786 0.0000 37.7049 0.0000
# 6 0.0000 0.0000 0.0000 3.8836 0.0000 38.8314
#
#
#
# Elastic Compliance Matrix: (Units=1/GPa)
#
#
# Indices 1 2 3 4 5 6 
#
# 1 0.084380 0.020590 -0.035941 0.000000 -0.046078 0.000000
# 2 0.020590 0.049991 -0.024011 0.000000 -0.023114 0.000000
# 3 -0.035941 -0.024011 0.029516 0.000000 0.019339 0.000000
# 4 0.000000 0.000000 0.000000 0.030742 0.000000 -0.003075
# 5 -0.046078 -0.023114 0.019339 0.000000 0.056873 0.000000
# 6 0.000000 0.000000 0.000000 -0.003075 0.000000 0.026060
#
#
# Mechanical properties :
#
#
# Convention : Reuss Voigt Hill
#
# Bulk Modulus (GPa) = 11.74244 47.54195 29.64219
# Shear Modulus (GPa) = 12.99802 27.91466 20.45634
#
# Velocity S-wave (km/s) = 2.58201 3.78386 3.23916
# Velocity P-wave (km/s) = 3.86158 6.59353 5.40308
#
# Compressibility (1/GPa) = 0.08516115
#
# Stress axis : x y z
#
# Youngs Moduli (GPa) = 11.85108 20.00379 33.88026
#
# Poissons Ratio (x) = -0.41187 1.21769
# Poissons Ratio (y) = -0.24401 0.81351
# Poissons Ratio (z) = 0.42594 0.48032
#
# Static dielectric constant tensor:
#      x y z
#    x 3.402750 0.000000 0.322380 
#    y 0.000000 3.204870 0.000000 
#    z 0.322380 0.000000 3.837470 
# 
# 
# High freq. dielectric constant tensor:
#      x y z
#    x 1.742280 0.000000 0.016430 
#    y 0.000000 1.727080 0.000000 
#    z 0.016430 0.000000 1.763560 
# 
# From -- ./inp_files/26759.got.cif
#   From: 2010.06.25/outbox.cif.g09.slc.cpg/sg9_14_cif.got.tgz:26759.got - 2010.06.27 21:40:51.
