data_PCOD8054794
_publ_section_title
;
Structure prediction by ZEFSAII (Michael W. Deem and Ramdas Pophale) SiO2 
 PCOD8054794
Probable space group: C C
;
_chemical_formula_sum "Si O2"
_cell_formula_units_Z 32
_cell_length_a 18.079449
_cell_length_b 16.860725
_cell_length_c 4.980157
_cell_angle_alpha 90.000000
_cell_angle_beta 74.995163
_cell_angle_gamma 90.000000
_cell_volume 1466.352629
_symmetry_space_group_name_H-M "C C"
_symmetry_group_IT_number 9
_symmetry_cell_setting 'monoclinic'
loop_
_space_group_symop_operation_xyz
x,y,z
x,-y,1/2+z
1/2+x,1/2+y,z
1/2+x,1/2-y,1/2+z
loop_
_atom_site_type_symbol
_atom_site_label
_atom_site_fract_x
_atom_site_fract_y
_atom_site_fract_z
Si Si1 0.261000 0.449151 0.665160
Si Si2 0.635278 0.279665 0.497847
Si Si3 0.582576 0.049543 0.259019
Si Si4 0.102386 0.049421 0.202881
Si Si5 0.551610 0.218889 0.080077
Si Si6 0.887641 0.774932 0.040846
Si Si7 0.422406 0.449641 0.875738
Si Si8 0.798519 0.227100 0.127981
O O1 0.283802 0.519664 0.440418
O O2 0.172399 0.432460 0.685679
O O3 0.305350 0.367456 0.596552
O O4 0.644753 0.368926 0.593640
O O5 0.574071 0.274978 0.311021
O O6 0.714255 0.251468 0.294889
O O7 0.612146 0.224148 0.774651
O O8 0.542539 0.130157 0.202280
O O9 0.558096 0.020629 0.577274
O O10 0.012656 0.066630 0.287612
O O11 0.127628 0.018755 0.470535
O O12 0.471536 0.246898 0.037827
O O13 0.825083 0.741733 0.312751
O O14 0.883227 0.869839 0.017116
O O15 0.860850 0.739320 0.781187
O O16 0.399884 0.476759 0.593556
#
# Coordination Sequence:
#
# PCOD8054794 Si02
#       8
#     4   4   4   4   4   4   4   4
#     4  10  21  37  59  88 126 169 208 248 308 389
#     4  12  24  42  69  94 125 173 221 270 321 382
#     4  10  21  38  64  95 122 158 215 274 317 370
#     4  10  21  38  64  95 122 158 215 274 317 370
#     4  12  24  42  69  94 125 173 221 270 321 382
#     4  12  26  41  60  92 132 170 209 261 325 385
#     4  10  21  37  59  88 126 169 208 248 308 389
#     4  12  26  41  60  92 132 170 209 261 325 385
#
# _framework density 21.822854
#
# number of rings (size 3 to 8) (size 9 to 14) (size 15 to 20)
#    0.000    1.000    2.500    4.500    7.000    3.000 
#    0.000    0.000    0.000    4.500    0.000    0.000 
#    0.000    0.000    0.000    0.000    0.000    0.000 
#
# Total GULP energy -198404.349372 kJ/mol
# GULP energy per Si atom -12400.271836 kJ/mol
# Density = 2.177318 g / cm^3
# Si number density = 21.822854 Si / 1000 Ang^3
#
#
#
# Elastic Constant Matrix: (Units=GPa)
#
#
# Indices 1 2 3 4 5 6 
#
# 1 76.0051 29.1806 25.6121 0.0000 14.3378 0.0000
# 2 29.1806 81.1220 22.6112 0.0000 -2.7037 0.0000
# 3 25.6121 22.6112 120.7896 0.0000 7.6233 0.0000
# 4 0.0000 0.0000 0.0000 30.8352 0.0000 -7.1409
# 5 14.3378 -2.7037 7.6233 0.0000 42.1737 0.0000
# 6 0.0000 0.0000 0.0000 -7.1409 0.0000 21.3150
#
#
#
# Elastic Compliance Matrix: (Units=1/GPa)
#
#
# Indices 1 2 3 4 5 6 
#
# 1 0.017214 -0.005772 -0.002202 0.000000 -0.005824 0.000000
# 2 -0.005772 0.015011 -0.001791 0.000000 0.003249 0.000000
# 3 -0.002202 -0.001791 0.009145 0.000000 -0.001019 0.000000
# 4 0.000000 0.000000 0.000000 0.035158 0.000000 0.011779
# 5 -0.005824 0.003249 -0.001019 0.000000 0.026084 0.000000
# 6 0.000000 0.000000 0.000000 0.011779 0.000000 0.050861
#
#
# Mechanical properties :
#
#
# Convention : Reuss Voigt Hill
#
# Bulk Modulus (GPa) = 45.78838 48.08050 46.93444
# Shear Modulus (GPa) = 27.73394 32.23229 29.98312
#
# Velocity S-wave (km/s) = 3.56879 3.84734 3.71068
# Velocity P-wave (km/s) = 6.16515 6.46653 6.31764
#
# Compressibility (1/GPa) = 0.02183960
#
# Stress axis : x y z
#
# Youngs Moduli (GPa) = 58.09252 66.61775 109.34527
#
# Poissons Ratio (x) = 0.38455 0.24076
# Poissons Ratio (y) = 0.33534 0.19584
# Poissons Ratio (z) = 0.12791 0.11931
#
# Static dielectric constant tensor:
#      x y z
#    x 3.928340 0.000000 0.236160 
#    y 0.000000 3.635310 0.000000 
#    z 0.236160 0.000000 4.372570 
# 
# 
# High freq. dielectric constant tensor:
#      x y z
#    x 1.853350 0.000000 0.017690 
#    y 0.000000 1.835570 0.000000 
#    z 0.017690 0.000000 1.881180 
# 
# From -- ./inp_files/2928.got.cif
#   From: 2010.06.25/outbox.cif.g09.slc.cpg/sg9_2_cif.got.tgz:2928.got - 2010.06.27 21:40:51.
