data_PCOD8054651
_publ_section_title
;
Structure prediction by ZEFSAII (Michael W. Deem and Ramdas Pophale) SiO2 
 PCOD8054651
Probable space group: C C
;
_chemical_formula_sum "Si O2"
_cell_formula_units_Z 32
_cell_length_a 7.952376
_cell_length_b 16.714165
_cell_length_c 11.027270
_cell_angle_alpha 90.000000
_cell_angle_beta 102.915033
_cell_angle_gamma 90.000000
_cell_volume 1428.636420
_symmetry_space_group_name_H-M "C C"
_symmetry_group_IT_number 9
_symmetry_cell_setting 'monoclinic'
loop_
_space_group_symop_operation_xyz
x,y,z
x,-y,1/2+z
1/2+x,1/2+y,z
1/2+x,1/2-y,1/2+z
loop_
_atom_site_type_symbol
_atom_site_label
_atom_site_fract_x
_atom_site_fract_y
_atom_site_fract_z
Si Si1 0.348620 0.328937 0.681290
Si Si2 0.124850 0.045704 0.270285
Si Si3 0.973079 0.579379 0.458935
Si Si4 0.438938 0.151292 0.709184
Si Si5 0.102328 0.124848 0.804528
Si Si6 0.117340 0.419904 0.463964
Si Si7 0.792688 0.606278 0.071295
Si Si8 0.504935 0.792516 0.769569
O O1 0.493684 0.381639 0.771913
O O2 0.438946 0.244046 0.665959
O O3 0.285117 0.378448 0.551435
O O4 0.190976 0.312414 0.744405
O O5 0.282155 0.046277 0.392198
O O6 0.199588 0.043102 0.145163
O O7 0.018322 0.963044 0.276460
O O8 0.984596 0.594528 0.604087
O O9 0.123597 0.516001 0.437541
O O10 0.001608 0.664302 0.398458
O O11 0.252770 0.128330 0.729784
O O12 0.575776 0.133522 0.839292
O O13 0.969509 0.197293 0.766582
O O14 0.164869 0.139757 0.951011
O O15 0.964383 0.427976 0.538571
O O16 0.844790 0.680635 0.163439
#
# Coordination Sequence:
#
# PCOD8054651 Si02
#       8
#     4   4   4   4   4   4   4   4
#     4  10  24  42  61  96 130 155 211 272 312 353
#     4  11  22  39  66  94 123 158 212 264 303 367
#     4  11  22  40  69  89 121 175 213 244 309 393
#     4  10  22  40  67  92 123 168 214 246 316 376
#     4  10  20  40  62  93 122 165 199 260 311 360
#     4  10  21  42  67  89 127 172 203 256 313 382
#     4   9  19  39  65  85 120 164 210 244 300 387
#     4   9  22  42  61  86 126 167 204 250 316 372
#
# _framework density 22.398980999999999
#
# number of rings (size 3 to 8) (size 9 to 14) (size 15 to 20)
#    0.000    2.000    2.500    0.750    7.000    0.000 
#    6.750    0.000    0.000    0.000    0.000    0.000 
#    0.000    0.000    0.000    0.000    0.000    0.000 
#
# Total GULP energy -198273.588930 kJ/mol
# GULP energy per Si atom -12392.099308 kJ/mol
# Density = 2.234800 g / cm^3
# Si number density = 22.398981 Si / 1000 Ang^3
#
#
#
# Elastic Constant Matrix: (Units=GPa)
#
#
# Indices 1 2 3 4 5 6 
#
# 1 28.7850 26.0224 23.1507 0.0000 1.9579 0.0000
# 2 26.0224 180.3236 57.2575 0.0000 9.5291 0.0000
# 3 23.1507 57.2575 113.5488 0.0000 -2.4547 0.0000
# 4 0.0000 0.0000 0.0000 19.6980 0.0000 -3.2046
# 5 1.9579 9.5291 -2.4547 0.0000 23.8484 0.0000
# 6 0.0000 0.0000 0.0000 -3.2046 0.0000 26.4715
#
#
#
# Elastic Compliance Matrix: (Units=1/GPa)
#
#
# Indices 1 2 3 4 5 6 
#
# 1 0.044217 -0.003993 -0.007061 0.000000 -0.002762 0.000000
# 2 -0.003993 0.007183 -0.002869 0.000000 -0.002838 0.000000
# 3 -0.007061 -0.002869 0.011757 0.000000 0.002936 0.000000
# 4 0.000000 0.000000 0.000000 0.051787 0.000000 0.006269
# 5 -0.002762 -0.002838 0.002936 0.000000 0.043594 0.000000
# 6 0.000000 0.000000 0.000000 0.006269 0.000000 0.038535
#
#
# Mechanical properties :
#
#
# Convention : Reuss Voigt Hill
#
# Bulk Modulus (GPa) = 28.32085 59.50207 43.91146
# Shear Modulus (GPa) = 21.12471 28.41869 24.77170
#
# Velocity S-wave (km/s) = 3.07434 3.56582 3.32916
# Velocity P-wave (km/s) = 5.02726 6.60119 5.86724
#
# Compressibility (1/GPa) = 0.03530967
#
# Stress axis : x y z
#
# Youngs Moduli (GPa) = 22.61573 139.22164 85.05725
#
# Poissons Ratio (x) = 0.55589 0.60062
# Poissons Ratio (y) = 0.09030 0.24405
# Poissons Ratio (z) = 0.15970 0.39946
#
# Static dielectric constant tensor:
#      x y z
#    x 3.639300 0.000000 -0.023650 
#    y 0.000000 4.438140 0.000000 
#    z -0.023650 0.000000 4.045080 
# 
# 
# High freq. dielectric constant tensor:
#      x y z
#    x 1.848730 0.000000 -0.007670 
#    y 0.000000 1.900040 0.000000 
#    z -0.007670 0.000000 1.882870 
# 
# From -- ./inp_files/14658.got.cif
#   From: 2010.06.25/outbox.cif.g09.slc.cpg/sg9_8_cif.got.tgz:14658.got - 2010.06.27 21:40:51.
