data_PCOD8054928
_publ_section_title
;
Structure prediction by ZEFSAII (Michael W. Deem and Ramdas Pophale) SiO2 
 PCOD8054928
Probable space group: C C
;
_chemical_formula_sum "Si O2"
_cell_formula_units_Z 32
_cell_length_a 7.635918
_cell_length_b 29.022522
_cell_length_c 12.745000
_cell_angle_alpha 90.000000
_cell_angle_beta 146.554842
_cell_angle_gamma 90.000000
_cell_volume 1556.671741
_symmetry_space_group_name_H-M "C C"
_symmetry_group_IT_number 9
_symmetry_cell_setting 'monoclinic'
loop_
_space_group_symop_operation_xyz
x,y,z
x,-y,1/2+z
1/2+x,1/2+y,z
1/2+x,1/2-y,1/2+z
loop_
_atom_site_type_symbol
_atom_site_label
_atom_site_fract_x
_atom_site_fract_y
_atom_site_fract_z
Si Si1 0.735100 0.552470 0.704380
Si Si2 0.363483 0.949247 0.026376
Si Si3 0.312951 0.306370 0.621885
Si Si4 0.773220 0.240538 0.732304
Si Si5 0.248480 0.842881 0.206654
Si Si6 0.430382 0.747757 0.599381
Si Si7 0.299676 0.513195 0.115115
Si Si8 0.378266 0.845142 0.031267
O O1 0.787795 0.539770 0.609349
O O2 0.624034 0.605308 0.662121
O O3 0.456830 0.520507 0.608780
O O4 0.055949 0.545344 0.930921
O O5 0.632994 0.984028 0.123234
O O6 0.496676 0.897525 0.079343
O O7 0.052404 0.954279 0.798706
O O8 0.481034 0.270635 0.627329
O O9 0.076275 0.336513 0.434169
O O10 0.118041 0.279805 0.613904
O O11 0.567415 0.339212 0.803904
O O12 0.039263 0.258193 0.774641
O O13 0.657232 0.189834 0.638647
O O14 0.063905 0.239531 0.959905
O O15 0.305738 0.833057 0.114202
O O16 0.983201 0.806555 0.108057
#
# Coordination Sequence:
#
# PCOD8054928 Si02
#       8
#     4   4   4   4   4   4   4   4
#     4  10  22  39  62  90 120 151 197 244 296 358
#     4  10  22  39  62  90 120 151 197 244 296 358
#     4  12  23  42  60  84 128 160 200 254 289 348
#     4  12  23  38  60  84 117 163 206 241 295 349
#     4  11  23  40  61  89 120 158 201 247 298 348
#     4  12  23  38  60  84 117 163 206 241 295 349
#     4  10  21  40  64  88 116 158 190 240 309 358
#     4  11  23  40  61  89 120 158 201 247 298 348
#
# _framework density 20.556678000000002
#
# number of rings (size 3 to 8) (size 9 to 14) (size 15 to 20)
#    0.000    1.000    3.750    3.750    1.750    0.000 
#    0.000    0.000    0.000   10.500    0.000    0.000 
#    0.000    0.000    0.000    0.000    0.000    0.000 
#
# Total GULP energy -198265.696708 kJ/mol
# GULP energy per Si atom -12391.606044 kJ/mol
# Density = 2.050989 g / cm^3
# Si number density = 20.556678 Si / 1000 Ang^3
#
#
#
# Elastic Constant Matrix: (Units=GPa)
#
#
# Indices 1 2 3 4 5 6 
#
# 1 95.6264 32.1117 8.6367 0.0000 -8.6470 0.0000
# 2 32.1117 72.8106 21.9116 0.0000 -6.6235 0.0000
# 3 8.6367 21.9116 69.3385 0.0000 5.7000 0.0000
# 4 0.0000 0.0000 0.0000 26.5405 0.0000 -9.3815
# 5 -8.6470 -6.6235 5.7000 0.0000 33.2124 0.0000
# 6 0.0000 0.0000 0.0000 -9.3815 0.0000 22.4391
#
#
#
# Elastic Compliance Matrix: (Units=1/GPa)
#
#
# Indices 1 2 3 4 5 6 
#
# 1 0.012429 -0.005262 -0.000066 0.000000 0.002198 0.000000
# 2 -0.005262 0.017922 -0.005263 0.000000 0.003107 0.000000
# 3 -0.000066 -0.005263 0.016413 0.000000 -0.003884 0.000000
# 4 0.000000 0.000000 0.000000 0.044212 0.000000 0.018484
# 5 0.002198 0.003107 -0.003884 0.000000 0.031968 0.000000
# 6 0.000000 0.000000 0.000000 0.018484 0.000000 0.052293
#
#
# Mechanical properties :
#
#
# Convention : Reuss Voigt Hill
#
# Bulk Modulus (GPa) = 39.09175 40.34394 39.71784
# Shear Modulus (GPa) = 24.39669 28.11274 26.25472
#
# Velocity S-wave (km/s) = 3.44874 3.70208 3.57765
# Velocity P-wave (km/s) = 5.90899 6.15972 6.03566
#
# Compressibility (1/GPa) = 0.02558085
#
# Stress axis : x y z
#
# Youngs Moduli (GPa) = 80.45698 55.79885 60.92811
#
# Poissons Ratio (x) = 0.29360 0.00402
# Poissons Ratio (y) = 0.42335 0.32069
# Poissons Ratio (z) = 0.00531 0.29369
#
# Static dielectric constant tensor:
#      x y z
#    x 3.808790 0.000000 -0.215060 
#    y 0.000000 3.642250 0.000000 
#    z -0.215060 0.000000 4.019110 
# 
# 
# High freq. dielectric constant tensor:
#      x y z
#    x 1.822770 0.000000 -0.017110 
#    y 0.000000 1.794000 0.000000 
#    z -0.017110 0.000000 1.827420 
# 
# From -- ./inp_files/23859.got.cif
#   From: 2010.06.25/outbox.cif.g09.slc.cpg/sg9_12_cif.got.tgz:23859.got - 2010.06.27 21:40:51.
