data_PCOD8054709
_publ_section_title
;
Structure prediction by ZEFSAII (Michael W. Deem and Ramdas Pophale) SiO2 
 PCOD8054709
Probable space group: C C
;
_chemical_formula_sum "Si O2"
_cell_formula_units_Z 32
_cell_length_a 16.854719
_cell_length_b 11.772730
_cell_length_c 14.922254
_cell_angle_alpha 90.000000
_cell_angle_beta 146.945381
_cell_angle_gamma 90.000000
_cell_volume 1615.023105
_symmetry_space_group_name_H-M "C C"
_symmetry_group_IT_number 9
_symmetry_cell_setting 'monoclinic'
loop_
_space_group_symop_operation_xyz
x,y,z
x,-y,1/2+z
1/2+x,1/2+y,z
1/2+x,1/2-y,1/2+z
loop_
_atom_site_type_symbol
_atom_site_label
_atom_site_fract_x
_atom_site_fract_y
_atom_site_fract_z
Si Si1 0.329850 0.796203 0.768400
Si Si2 0.115491 0.667748 0.449772
Si Si3 0.747383 0.294668 0.318963
Si Si4 0.799587 0.982390 0.554596
Si Si5 0.855317 0.103034 0.925405
Si Si6 0.139842 0.004427 0.143006
Si Si7 0.965871 0.800927 0.154407
Si Si8 0.367679 0.404429 0.812502
O O1 0.271514 0.713608 0.633550
O O2 0.494419 0.841857 0.912576
O O3 0.328303 0.728352 0.860572
O O4 0.222651 0.902491 0.663137
O O5 0.149116 0.548149 0.433893
O O6 0.041541 0.752442 0.311922
O O7 0.765192 0.427894 0.309506
O O8 0.823193 0.267506 0.486033
O O9 0.572986 0.289845 0.170306
O O10 0.802912 0.211868 0.292421
O O11 0.923771 0.069978 0.638201
O O12 0.774965 0.900208 0.445782
O O13 0.839332 0.908753 0.679424
O O14 0.790242 0.009173 0.793257
O O15 0.028155 0.074555 0.101499
O O16 0.042674 0.919495 0.988595
#
# Coordination Sequence:
#
# PCOD8054709 Si02
#       8
#     4   4   4   4   4   4   4   4
#     4  12  22  41  69  89 136 173 222 268 335 384
#     4  12  21  37  64 103 122 163 226 279 315 381
#     4  12  21  40  66  94 132 173 212 271 328 393
#     4  12  21  38  68  96 129 175 217 271 331 390
#     4  10  20  42  65  96 129 172 214 272 329 385
#     4  10  22  42  64  93 128 180 215 267 331 390
#     4  12  20  35  67  97 124 165 225 268 321 382
#     4  10  21  41  65  94 134 167 211 278 336 379
#
# _framework density 19.813958
#
# number of rings (size 3 to 8) (size 9 to 14) (size 15 to 20)
#    0.750    0.000    8.750    0.750    0.000    1.000 
#    2.250    1.250    0.000    0.000    0.000    0.000 
#    0.000    0.000    0.000    0.000    0.000    0.000 
#
# Total GULP energy -198216.081870 kJ/mol
# GULP energy per Si atom -12388.505117 kJ/mol
# Density = 1.976886 g / cm^3
# Si number density = 19.813958 Si / 1000 Ang^3
#
#
#
# Elastic Constant Matrix: (Units=GPa)
#
#
# Indices 1 2 3 4 5 6 
#
# 1 107.6187 42.1460 43.4019 0.0000 -5.3972 0.0000
# 2 42.1460 76.0451 27.4360 0.0000 3.7445 0.0000
# 3 43.4019 27.4360 69.0117 -0.0001 -2.7191 0.0000
# 4 0.0000 0.0000 -0.0001 21.7561 0.0000 -4.6554
# 5 -5.3972 3.7445 -2.7191 0.0000 36.6725 0.0000
# 6 0.0000 0.0000 0.0000 -4.6554 0.0000 41.3222
#
#
#
# Elastic Compliance Matrix: (Units=1/GPa)
#
#
# Indices 1 2 3 4 5 6 
#
# 1 0.014293 -0.005623 -0.006667 0.000000 0.002183 0.000000
# 2 -0.005623 0.017716 -0.003621 0.000000 -0.002905 0.000000
# 3 -0.006667 -0.003621 0.020158 0.000000 0.000883 0.000000
# 4 0.000000 0.000000 0.000000 0.047100 0.000000 0.005306
# 5 0.002183 -0.002905 0.000883 0.000000 0.027952 0.000000
# 6 0.000000 0.000000 0.000000 0.005306 0.000000 0.024798
#
#
# Mechanical properties :
#
#
# Convention : Reuss Voigt Hill
#
# Bulk Modulus (GPa) = 49.15605 53.18259 51.16932
# Shear Modulus (GPa) = 26.23023 29.26293 27.74658
#
# Velocity S-wave (km/s) = 3.64239 3.84720 3.74619
# Velocity P-wave (km/s) = 6.52319 6.82889 6.67779
#
# Compressibility (1/GPa) = 0.02034337
#
# Stress axis : x y z
#
# Youngs Moduli (GPa) = 69.96624 56.44560 49.60912
#
# Poissons Ratio (x) = 0.31742 0.33075
# Poissons Ratio (y) = 0.39345 0.17964
# Poissons Ratio (z) = 0.46647 0.20439
#
# Static dielectric constant tensor:
#      x y z
#    x 3.837330 0.000000 0.149340 
#    y 0.000000 3.403310 0.000000 
#    z 0.149340 0.000000 3.506340 
# 
# 
# High freq. dielectric constant tensor:
#      x y z
#    x 1.773100 0.000000 0.000890 
#    y 0.000000 1.749280 0.000000 
#    z 0.000890 0.000000 1.758900 
# 
# From -- ./inp_files/26854.got.cif
#   From: 2010.06.25/outbox.cif.g09.slc.cpg/sg9_14_cif.got.tgz:26854.got - 2010.06.27 21:40:51.
