data_PCOD8054117
_publ_section_title
;
Structure prediction by ZEFSAII (Michael W. Deem and Ramdas Pophale) SiO2 
 PCOD8054117
Probable space group: C M
;
_chemical_formula_sum "Si O2"
_cell_formula_units_Z 20
_cell_length_a 15.784410
_cell_length_b 11.202378
_cell_length_c 4.911250
_cell_angle_alpha 90.000000
_cell_angle_beta 93.379241
_cell_angle_gamma 90.000000
_cell_volume 866.911634
_symmetry_space_group_name_H-M "C M"
_symmetry_group_IT_number 8
_symmetry_cell_setting 'monoclinic'
loop_
_space_group_symop_operation_xyz
x,y,z
x,-y,z
1/2+x,1/2+y,z
1/2+x,1/2-y,z
loop_
_atom_site_type_symbol
_atom_site_label
_atom_site_fract_x
_atom_site_fract_y
_atom_site_fract_z
Si Si1 0.654780 0.243642 0.519230
Si Si2 0.561586 0.000000 0.418265
Si Si3 0.841874 0.743384 0.788400
Si Si4 0.935484 0.500000 0.889848
Si Si5 0.912697 0.139333 0.286687
Si Si6 0.583703 0.360678 0.020691
O O1 0.625393 0.111724 0.431543
O O2 0.748317 0.250554 0.653792
O O3 0.657465 0.324650 0.246772
O O4 0.590502 0.295251 0.733343
O O5 0.498551 0.000000 0.654098
O O6 0.498524 0.000000 0.154090
O O7 0.871701 0.611726 0.876582
O O8 0.905973 0.795320 0.574136
O O9 0.838936 0.824521 0.060648
O O10 0.998192 0.182639 0.153614
O O11 0.911308 0.000000 0.347927
O O12 0.585027 0.500000 0.959251
#
# Coordination Sequence:
#
# PCOD8054117 Si02
#       6
#     4   2   4   2   4   4
#     4  12  26  44  70 104 144 181 236 294 352 414
#     4  12  26  46  74 100 141 192 237 284 352 434
#     4  12  26  44  70 104 144 181 236 294 352 414
#     4  12  26  46  74 100 141 192 237 284 352 434
#     4  11  24  44  72 100 138 182 232 286 350 425
#     4  11  24  44  72 100 138 182 232 286 350 425
#
# _framework density 23.070402999999999
#
# number of rings (size 3 to 8) (size 9 to 14) (size 15 to 20)
#    0.000    0.400    0.000    9.600    5.600    3.200 
#    0.000    0.000    0.000    0.000    0.000    0.000 
#    0.000    0.000    0.000    0.000    0.000    0.000 
#
# Total GULP energy -124048.761751 kJ/mol
# GULP energy per Si atom -12404.876175 kJ/mol
# Density = 2.301789 g / cm^3
# Si number density = 23.070403 Si / 1000 Ang^3
#
#
#
# Elastic Constant Matrix: (Units=GPa)
#
#
# Indices 1 2 3 4 5 6 
#
# 1 92.1835 52.4293 2.2249 0.0000 23.6264 0.0000
# 2 52.4293 137.8209 51.5832 0.0000 5.0974 0.0000
# 3 2.2249 51.5832 131.3527 0.0000 10.0961 0.0000
# 4 0.0000 0.0000 0.0000 34.7845 0.0000 5.9139
# 5 23.6264 5.0974 10.0961 0.0000 45.6885 0.0000
# 6 0.0000 0.0000 0.0000 5.9139 0.0000 34.7607
#
#
#
# Elastic Compliance Matrix: (Units=1/GPa)
#
#
# Indices 1 2 3 4 5 6 
#
# 1 0.017302 -0.007502 0.003333 0.000000 -0.008847 0.000000
# 2 -0.007502 0.011761 -0.004770 0.000000 0.003621 0.000000
# 3 0.003333 -0.004770 0.009686 0.000000 -0.003332 0.000000
# 4 0.000000 0.000000 0.000000 0.029605 0.000000 -0.005037
# 5 -0.008847 0.003621 -0.003332 0.000000 0.026794 0.000000
# 6 0.000000 0.000000 0.000000 -0.005037 0.000000 0.029625
#
#
# Mechanical properties :
#
#
# Convention : Reuss Voigt Hill
#
# Bulk Modulus (GPa) = 47.91431 63.75910 55.83670
# Shear Modulus (GPa) = 33.42080 40.05472 36.73776
#
# Velocity S-wave (km/s) = 3.81023 4.17129 3.99484
# Velocity P-wave (km/s) = 6.33806 7.13416 6.74786
#
# Compressibility (1/GPa) = 0.02087059
#
# Stress axis : x y z
#
# Youngs Moduli (GPa) = 57.79807 85.02646 103.24282
#
# Poissons Ratio (x) = 0.63788 -0.34411
# Poissons Ratio (y) = 0.43361 0.49246
# Poissons Ratio (z) = -0.19264 0.40557
#
# Static dielectric constant tensor:
#      x y z
#    x 4.118130 0.000000 0.072010 
#    y 0.000000 4.305210 0.000000 
#    z 0.072010 0.000000 4.590540 
# 
# 
# High freq. dielectric constant tensor:
#      x y z
#    x 1.913600 0.000000 0.010980 
#    y 0.000000 1.919940 0.000000 
#    z 0.010980 0.000000 1.939400 
# 
# From -- ./inp_files/3711.got.cif
#   From: 2010.03.12/outbox.cif.g09.slc.cpg/sg8_2_cif.got.tgz:3711.got - 2010.03.31 10:45:26.
