data_PCOD8054200
_publ_section_title
;
Structure prediction by ZEFSAII (Michael W. Deem and Ramdas Pophale) SiO2 
 PCOD8054200
Probable space group: C C
;
_chemical_formula_sum "Si O2"
_cell_formula_units_Z 32
_cell_length_a 15.118008
_cell_length_b 13.055645
_cell_length_c 12.697433
_cell_angle_alpha 90.000000
_cell_angle_beta 40.462811
_cell_angle_gamma 90.000000
_cell_volume 1626.383592
_symmetry_space_group_name_H-M "C C"
_symmetry_group_IT_number 9
_symmetry_cell_setting 'monoclinic'
loop_
_space_group_symop_operation_xyz
x,y,z
x,-y,1/2+z
1/2+x,1/2+y,z
1/2+x,1/2-y,1/2+z
loop_
_atom_site_type_symbol
_atom_site_label
_atom_site_fract_x
_atom_site_fract_y
_atom_site_fract_z
Si Si1 0.886830 0.656558 0.313000
Si Si2 0.984572 0.324585 0.941902
Si Si3 0.595122 0.307124 0.016213
Si Si4 0.675477 0.137741 0.797285
Si Si5 0.786284 0.140706 0.140599
Si Si6 0.997984 0.489284 0.081764
Si Si7 0.732710 0.967321 0.035685
Si Si8 0.397970 0.478784 0.200502
O O1 0.732777 0.696137 0.460240
O O2 0.945179 0.615411 0.370921
O O3 0.883102 0.560190 0.236728
O O4 0.986925 0.744305 0.181369
O O5 0.147882 0.307526 0.811827
O O6 0.930496 0.388224 0.092111
O O7 0.901962 0.220171 0.004702
O O8 0.618920 0.251514 0.879517
O O9 0.546942 0.426401 0.051051
O O10 0.723537 0.125068 0.631123
O O11 0.799134 0.118075 0.766181
O O12 0.566022 0.048576 0.920864
O O13 0.732288 0.078050 0.089704
O O14 0.866949 0.066011 0.144826
O O15 0.107562 0.456283 0.069618
O O16 0.872011 0.968987 0.838976
#
# Coordination Sequence:
#
# PCOD8054200 Si02
#       8
#     4   4   4   4   4   4   4   4
#     4  11  22  35  64  89 123 161 208 262 322 377
#     4  12  22  38  61  92 121 165 215 259 312 385
#     4  11  21  37  61  99 121 160 215 274 308 385
#     4   9  18  34  61  86 119 160 211 250 320 386
#     4  11  23  37  63  90 122 165 213 259 313 381
#     4  10  19  36  60  84 120 160 210 255 316 381
#     4  10  17  39  63  82 117 169 203 246 319 389
#     4  10  20  38  61  88 125 166 211 261 324 382
#
# _framework density 19.675554999999999
#
# number of rings (size 3 to 8) (size 9 to 14) (size 15 to 20)
#    0.000    1.500    6.250    1.500    1.750    1.000 
#    0.000    3.750    2.750    0.000    0.000    0.000 
#    0.000    0.000    0.000    0.000    0.000    0.000 
#
# Total GULP energy -198216.642918 kJ/mol
# GULP energy per Si atom -12388.540182 kJ/mol
# Density = 1.963077 g / cm^3
# Si number density = 19.675555 Si / 1000 Ang^3
#
#
#
# Elastic Constant Matrix: (Units=GPa)
#
#
# Indices 1 2 3 4 5 6 
#
# 1 98.4683 48.0164 52.1780 0.0000 5.3375 0.0000
# 2 48.0164 58.8262 39.1782 0.0000 3.4485 0.0000
# 3 52.1780 39.1782 86.5954 0.0000 5.5231 0.0000
# 4 0.0000 0.0000 0.0000 32.0709 0.0000 -3.9523
# 5 5.3375 3.4485 5.5231 0.0000 40.4621 0.0000
# 6 0.0000 0.0000 0.0000 -3.9523 0.0000 26.6494
#
#
#
# Elastic Compliance Matrix: (Units=1/GPa)
#
#
# Indices 1 2 3 4 5 6 
#
# 1 0.019055 -0.011301 -0.006325 0.000000 -0.000687 0.000000
# 2 -0.011301 0.031046 -0.007226 0.000000 -0.000169 0.000000
# 3 -0.006325 -0.007226 0.018699 0.000000 -0.001102 0.000000
# 4 0.000000 0.000000 0.000000 0.031761 0.000000 0.004711
# 5 -0.000687 -0.000169 -0.001102 0.000000 0.024970 0.000000
# 6 0.000000 0.000000 0.000000 0.004711 0.000000 0.038223
#
#
# Mechanical properties :
#
#
# Convention : Reuss Voigt Hill
#
# Bulk Modulus (GPa) = 52.36703 58.07057 55.21880
# Shear Modulus (GPa) = 22.74565 26.80429 24.77497
#
# Velocity S-wave (km/s) = 3.40374 3.69496 3.55234
# Velocity P-wave (km/s) = 6.49002 6.91244 6.70455
#
# Compressibility (1/GPa) = 0.01909598
#
# Stress axis : x y z
#
# Youngs Moduli (GPa) = 52.47961 32.21056 53.48003
#
# Poissons Ratio (x) = 0.36400 0.33826
# Poissons Ratio (y) = 0.59306 0.38644
# Poissons Ratio (z) = 0.33193 0.23275
#
# Static dielectric constant tensor:
#      x y z
#    x 3.485020 0.000000 0.077290 
#    y 0.000000 3.418170 0.000000 
#    z 0.077290 0.000000 3.713460 
# 
# 
# High freq. dielectric constant tensor:
#      x y z
#    x 1.758520 0.000000 0.006610 
#    y 0.000000 1.742580 0.000000 
#    z 0.006610 0.000000 1.761570 
# 
# From -- ./inp_files/10869.got.cif
#   From: 2010.06.25/outbox.cif.g09.slc.cpg/sg9_6_cif.got.tgz:10869.got - 2010.06.27 21:40:51.
