data_PCOD8054962
_publ_section_title
;
Structure prediction by ZEFSAII (Michael W. Deem and Ramdas Pophale) SiO2 
 PCOD8054962
Probable space group: C C
;
_chemical_formula_sum "Si O2"
_cell_formula_units_Z 32
_cell_length_a 29.379401
_cell_length_b 8.600036
_cell_length_c 14.721406
_cell_angle_alpha 90.000000
_cell_angle_beta 25.222010
_cell_angle_gamma 90.000000
_cell_volume 1585.007760
_symmetry_space_group_name_H-M "C C"
_symmetry_group_IT_number 9
_symmetry_cell_setting 'monoclinic'
loop_
_space_group_symop_operation_xyz
x,y,z
x,-y,1/2+z
1/2+x,1/2+y,z
1/2+x,1/2-y,1/2+z
loop_
_atom_site_type_symbol
_atom_site_label
_atom_site_fract_x
_atom_site_fract_y
_atom_site_fract_z
Si Si1 0.967550 0.177257 0.070100
Si Si2 0.769929 0.550667 0.160323
Si Si3 0.969964 0.304713 0.257050
Si Si4 0.795332 0.395995 0.301905
Si Si5 0.700089 0.380223 0.121574
Si Si6 0.775519 0.960858 0.468351
Si Si7 0.282929 0.614310 0.645249
Si Si8 0.174689 0.404922 0.985671
O O1 0.906166 0.311666 0.126059
O O2 0.012405 0.244892 0.084163
O O3 0.889384 0.028173 0.226172
O O4 0.074899 0.136312 0.820358
O O5 0.806612 0.505555 0.194973
O O6 0.699138 0.430111 0.230521
O O7 0.715232 0.722820 0.268125
O O8 0.878060 0.567069 0.905076
O O9 0.910250 0.159968 0.417710
O O10 0.056670 0.397563 0.158841
O O11 0.751127 0.486293 0.468527
O O12 0.708748 0.272339 0.426740
O O13 0.770858 0.225742 0.978353
O O14 0.751634 0.022016 0.611474
O O15 0.679207 0.022272 0.578273
O O16 0.255463 0.508177 0.779992
#
# Coordination Sequence:
#
# PCOD8054962 Si02
#       8
#     4   4   4   4   4   4   4   4
#     4  10  22  43  63  90 128 169 207 260 316 367
#     4  10  21  41  62  90 133 159 207 273 298 371
#     4   9  20  39  63  88 124 161 208 254 309 365
#     4  11  23  40  59  96 127 159 217 261 305 380
#     4  12  23  43  65  92 129 166 208 261 315 365
#     4  10  22  39  62  93 122 163 212 252 305 383
#     4   9  20  40  59  86 127 156 203 258 302 369
#     4  11  21  39  63  89 124 165 206 253 316 368
#
# _framework density 20.189176
#
# number of rings (size 3 to 8) (size 9 to 14) (size 15 to 20)
#    0.750    1.000    1.250    3.750    1.750    2.000 
#    2.250    0.000    0.000    0.000    0.000    0.000 
#    0.000    0.000    0.000    0.000    0.000    0.000 
#
# Total GULP energy -198236.388756 kJ/mol
# GULP energy per Si atom -12389.774297 kJ/mol
# Density = 2.014322 g / cm^3
# Si number density = 20.189176 Si / 1000 Ang^3
#
#
#
# Elastic Constant Matrix: (Units=GPa)
#
#
# Indices 1 2 3 4 5 6 
#
# 1 80.0594 28.1092 32.4086 0.0000 -7.7997 0.0000
# 2 28.1092 108.9192 32.4805 0.0000 -2.1691 0.0000
# 3 32.4086 32.4805 62.0161 0.0000 -4.4371 0.0000
# 4 0.0000 0.0000 0.0000 29.3577 0.0000 3.5273
# 5 -7.7997 -2.1691 -4.4371 0.0000 22.6815 0.0000
# 6 0.0000 0.0000 0.0000 3.5273 0.0000 35.9996
#
#
#
# Elastic Compliance Matrix: (Units=1/GPa)
#
#
# Indices 1 2 3 4 5 6 
#
# 1 0.016550 -0.002012 -0.007304 0.000000 0.004070 0.000000
# 2 -0.002012 0.011125 -0.004816 0.000000 -0.000570 0.000000
# 3 -0.007304 -0.004816 0.022567 0.000000 0.001442 0.000000
# 4 0.000000 0.000000 0.000000 0.034468 0.000000 -0.003377
# 5 0.004070 -0.000570 0.001442 0.000000 0.045716 0.000000
# 6 0.000000 0.000000 0.000000 -0.003377 0.000000 0.028109
#
#
# Mechanical properties :
#
#
# Convention : Reuss Voigt Hill
#
# Bulk Modulus (GPa) = 45.49846 48.55459 47.02652
# Shear Modulus (GPa) = 25.75636 28.14085 26.94861
#
# Velocity S-wave (km/s) = 3.57564 3.73749 3.65746
# Velocity P-wave (km/s) = 6.29539 6.53660 6.41713
#
# Compressibility (1/GPa) = 0.02197877
#
# Stress axis : x y z
#
# Youngs Moduli (GPa) = 60.42156 89.88584 44.31182
#
# Poissons Ratio (x) = 0.18086 0.32365
# Poissons Ratio (y) = 0.12157 0.21341
# Poissons Ratio (z) = 0.44132 0.43290
#
# Static dielectric constant tensor:
#      x y z
#    x 3.615660 0.000000 0.067080 
#    y 0.000000 3.694660 0.000000 
#    z 0.067080 0.000000 3.368530 
# 
# 
# High freq. dielectric constant tensor:
#      x y z
#    x 1.796300 0.000000 0.006150 
#    y 0.000000 1.793130 0.000000 
#    z 0.006150 0.000000 1.765710 
# 
# From -- ./inp_files/28263.got.cif
#   From: 2010.06.25/outbox.cif.g09.slc.cpg/sg9_15_cif.got.tgz:28263.got - 2010.06.27 21:40:51.
