data_PCOD8054915
_publ_section_title
;
Structure prediction by ZEFSAII (Michael W. Deem and Ramdas Pophale) SiO2 
 PCOD8054915
Probable space group: C C
;
_chemical_formula_sum "Si O2"
_cell_formula_units_Z 32
_cell_length_a 10.853541
_cell_length_b 10.803166
_cell_length_c 19.391844
_cell_angle_alpha 90.000000
_cell_angle_beta 140.590049
_cell_angle_gamma 90.000000
_cell_volume 1443.519970
_symmetry_space_group_name_H-M "C C"
_symmetry_group_IT_number 9
_symmetry_cell_setting 'monoclinic'
loop_
_space_group_symop_operation_xyz
x,y,z
x,-y,1/2+z
1/2+x,1/2+y,z
1/2+x,1/2-y,1/2+z
loop_
_atom_site_type_symbol
_atom_site_label
_atom_site_fract_x
_atom_site_fract_y
_atom_site_fract_z
Si Si1 0.498490 0.410849 0.359820
Si Si2 0.545835 0.534044 0.252788
Si Si3 0.526564 0.701016 0.010020
Si Si4 0.404012 0.838337 0.743471
Si Si5 0.597550 0.975080 0.711867
Si Si6 0.594792 0.013121 0.555934
Si Si7 0.084206 0.689206 0.803228
Si Si8 0.900550 0.442487 0.338550
O O1 0.630860 0.492170 0.365257
O O2 0.608266 0.353027 0.472382
O O3 0.415575 0.299579 0.277019
O O4 0.328668 0.504125 0.311186
O O5 0.325631 0.494089 0.149494
O O6 0.572254 0.680574 0.259531
O O7 0.670501 0.463076 0.248865
O O8 0.672675 0.642502 0.129001
O O9 0.526592 0.848637 0.010392
O O10 0.303926 0.658130 0.923162
O O11 0.531570 0.854282 0.727844
O O12 0.481617 0.937102 0.832710
O O13 0.522461 0.967523 0.600190
O O14 0.506108 0.093714 0.711839
O O15 0.504740 0.926557 0.457436
O O16 0.945342 0.678276 0.810751
#
# Coordination Sequence:
#
# PCOD8054915 Si02
#       8
#     4   4   4   4   4   4   4   4
#     4  10  21  40  61  92 126 172 216 274 334 384
#     4  11  23  40  64  94 139 172 219 278 338 398
#     4  11  21  40  68  92 122 180 226 270 341 395
#     4  11  21  39  67  92 128 167 223 274 323 400
#     4   9  21  39  62  92 124 170 220 273 327 396
#     4  11  22  40  68  94 128 177 222 273 344 396
#     4  10  23  42  64  92 137 172 225 277 335 395
#     4  11  24  42  64 100 130 172 223 281 326 406
#
# _framework density 22.168033000000001
#
# number of rings (size 3 to 8) (size 9 to 14) (size 15 to 20)
#    0.000    1.500    5.000    0.750    3.500    2.000 
#    0.000    0.000    0.000    0.000    0.000    0.000 
#    0.000    0.000    0.000    0.000    0.000    0.000 
#
# Total GULP energy -198276.073023 kJ/mol
# GULP energy per Si atom -12392.254564 kJ/mol
# Density = 2.211758 g / cm^3
# Si number density = 22.168033 Si / 1000 Ang^3
#
#
#
# Elastic Constant Matrix: (Units=GPa)
#
#
# Indices 1 2 3 4 5 6 
#
# 1 120.8690 11.5897 21.1775 0.0000 -5.0378 0.0000
# 2 11.5897 32.3699 6.6575 0.0000 7.8965 0.0000
# 3 21.1775 6.6575 78.8307 0.0000 -17.7432 0.0000
# 4 0.0000 0.0000 0.0000 22.7022 0.0000 -0.9398
# 5 -5.0378 7.8965 -17.7432 0.0000 28.9737 0.0000
# 6 0.0000 0.0000 0.0000 -0.9398 0.0000 31.4760
#
#
#
# Elastic Compliance Matrix: (Units=1/GPa)
#
#
# Indices 1 2 3 4 5 6 
#
# 1 0.008952 -0.003135 -0.001853 0.000000 0.001276 0.000000
# 2 -0.003135 0.036466 -0.005332 0.000000 -0.013749 0.000000
# 3 -0.001853 -0.005332 0.016108 0.000000 0.010996 0.000000
# 4 0.000000 0.000000 0.000000 0.044103 0.000000 0.001317
# 5 0.001276 -0.013749 0.010996 0.000000 0.045217 0.000000
# 6 0.000000 0.000000 0.000000 0.001317 0.000000 0.031810
#
#
# Mechanical properties :
#
#
# Convention : Reuss Voigt Hill
#
# Bulk Modulus (GPa) = 24.45825 34.54656 29.50240
# Shear Modulus (GPa) = 23.04947 29.47338 26.26142
#
# Velocity S-wave (km/s) = 3.22803 3.65025 3.44561
# Velocity P-wave (km/s) = 4.99506 5.77785 5.40066
#
# Compressibility (1/GPa) = 0.04088600
#
# Stress axis : x y z
#
# Youngs Moduli (GPa) = 111.70809 27.42270 62.07960
#
# Poissons Ratio (x) = 0.08598 0.11502
# Poissons Ratio (y) = 0.35026 0.33100
# Poissons Ratio (z) = 0.20697 0.14622
#
# Static dielectric constant tensor:
#      x y z
#    x 4.323370 0.000000 -0.271100 
#    y 0.000000 3.784100 0.000000 
#    z -0.271100 0.000000 3.946980 
# 
# 
# High freq. dielectric constant tensor:
#      x y z
#    x 1.885470 0.000000 -0.013820 
#    y 0.000000 1.852510 0.000000 
#    z -0.013820 0.000000 1.859740 
# 
# From -- ./inp_files/20964.got.cif
#   From: 2010.06.25/outbox.cif.g09.slc.cpg/sg9_11_cif.got.tgz:20964.got - 2010.06.27 21:40:51.
