data_PCOD8054176
_publ_section_title
;
Structure prediction by ZEFSAII (Michael W. Deem and Ramdas Pophale) SiO2 
 PCOD8054176
Probable space group: C C
;
_chemical_formula_sum "Si O2"
_cell_formula_units_Z 32
_cell_length_a 17.706056
_cell_length_b 9.816184
_cell_length_c 14.399419
_cell_angle_alpha 90.000000
_cell_angle_beta 35.584743
_cell_angle_gamma 90.000000
_cell_volume 1456.339576
_symmetry_space_group_name_H-M "C C"
_symmetry_group_IT_number 9
_symmetry_cell_setting 'monoclinic'
loop_
_space_group_symop_operation_xyz
x,y,z
x,-y,1/2+z
1/2+x,1/2+y,z
1/2+x,1/2-y,1/2+z
loop_
_atom_site_type_symbol
_atom_site_label
_atom_site_fract_x
_atom_site_fract_y
_atom_site_fract_z
Si Si1 0.054270 0.881645 0.121210
Si Si2 0.554269 0.675232 0.103632
Si Si3 0.329685 0.985436 0.050054
Si Si4 0.054269 0.355207 0.923609
Si Si5 0.054269 0.076742 0.832709
Si Si6 0.804268 0.249997 0.926795
Si Si7 0.804269 0.250000 0.470677
Si Si8 0.278853 0.485440 0.600888
O O1 0.054269 0.949641 0.223104
O O2 0.925363 0.788655 0.238257
O O3 0.054272 0.020978 0.058828
O O4 0.183176 0.788652 0.980445
O O5 0.422293 0.692300 0.292718
O O6 0.554266 0.789512 0.024534
O O7 0.686244 0.692307 0.028766
O O8 0.427506 0.948184 0.035356
O O9 0.340561 0.876961 0.955684
O O10 0.364479 0.132511 0.975056
O O11 0.186246 0.988488 0.240974
O O12 0.054271 0.238561 0.845844
O O13 0.181032 0.448184 0.781832
O O14 0.922292 0.011515 0.004930
O O15 0.767976 0.123027 0.028265
O O16 0.744062 0.132519 0.595482
#
# Coordination Sequence:
#
# PCOD8054176 Si02
#       8
#     4   4   4   4   4   4   4   4
#     4  10  18  38  61 100 127 175 225 298 322 418
#     4  12  27  40  60 110 150 169 228 310 366 391
#     4  11  20  38  67  98 122 183 238 278 329 438
#     4  12  23  38  68 100 135 178 229 283 352 423
#     4  10  18  36  61  90 124 166 236 273 318 420
#     4  10  16  35  68  91 122 164 246 262 334 405
#     4  12  24  43  66 103 142 180 236 298 350 417
#     4  11  20  38  67  98 122 183 238 278 329 438
#
# _framework density 21.972895999999999
#
# number of rings (size 3 to 8) (size 9 to 14) (size 15 to 20)
#    0.000    1.000   10.000    0.750    3.500    0.000 
#    0.000    0.000    0.000    9.000    0.000    0.000 
#    0.000    0.000    0.000    0.000    0.000    0.000 
#
# Total GULP energy -198334.879968 kJ/mol
# GULP energy per Si atom -12395.929998 kJ/mol
# Density = 2.192288 g / cm^3
# Si number density = 21.972896 Si / 1000 Ang^3
#
#
#
# Elastic Constant Matrix: (Units=GPa)
#
#
# Indices 1 2 3 4 5 6 
#
# 1 57.3488 32.0401 48.9034 0.0000 -18.2949 0.0000
# 2 32.0401 141.0796 37.2607 0.0000 -4.7036 0.0000
# 3 48.9034 37.2607 128.9445 0.0000 -46.0680 0.0000
# 4 0.0000 0.0000 0.0000 28.8386 0.0000 -0.3546
# 5 -18.2949 -4.7036 -46.0680 0.0000 39.3611 0.0000
# 6 0.0000 0.0000 0.0000 -0.3546 0.0000 28.4460
#
#
#
# Elastic Compliance Matrix: (Units=1/GPa)
#
#
# Indices 1 2 3 4 5 6 
#
# 1 0.027655 -0.003965 -0.008455 0.000000 0.002484 0.000000
# 2 -0.003965 0.008438 -0.002119 0.000000 -0.003314 0.000000
# 3 -0.008455 -0.002119 0.017323 0.000000 0.016092 0.000000
# 4 0.000000 0.000000 0.000000 0.034681 0.000000 0.000432
# 5 0.002484 -0.003314 0.016092 0.000000 0.044998 0.000000
# 6 0.000000 0.000000 0.000000 0.000432 0.000000 0.035160
#
#
# Mechanical properties :
#
#
# Convention : Reuss Voigt Hill
#
# Bulk Modulus (GPa) = 41.08630 62.64234 51.86432
# Shear Modulus (GPa) = 24.33750 33.27373 28.80561
#
# Velocity S-wave (km/s) = 3.33169 3.89563 3.62465
# Velocity P-wave (km/s) = 5.79133 6.98609 6.41658
#
# Compressibility (1/GPa) = 0.02433901
#
# Stress axis : x y z
#
# Youngs Moduli (GPa) = 36.16036 118.51659 57.72561
#
# Poissons Ratio (x) = 0.46987 0.48807
# Poissons Ratio (y) = 0.14336 0.12230
# Poissons Ratio (z) = 0.30574 0.25109
#
# Static dielectric constant tensor:
#      x y z
#    x 3.693300 0.000000 -0.544950 
#    y 0.000000 4.000830 0.000000 
#    z -0.544950 0.000000 4.299480 
# 
# 
# High freq. dielectric constant tensor:
#      x y z
#    x 1.829160 0.000000 -0.035020 
#    y 0.000000 1.866190 0.000000 
#    z -0.035020 0.000000 1.868110 
# 
# From -- ./inp_files/31227.got.cif
#   From: 2010.06.25/outbox.cif.g09.slc.cpg/sg9_16_cif.got.tgz:31227.got - 2010.06.27 21:40:51.
