data_PCOD8054189
_publ_section_title
;
Structure prediction by ZEFSAII (Michael W. Deem and Ramdas Pophale) SiO2 
 PCOD8054189
Probable space group: C C
;
_chemical_formula_sum "Si O2"
_cell_formula_units_Z 32
_cell_length_a 17.675937
_cell_length_b 9.147438
_cell_length_c 12.447928
_cell_angle_alpha 90.000000
_cell_angle_beta 115.589670
_cell_angle_gamma 90.000000
_cell_volume 1815.274841
_symmetry_space_group_name_H-M "C C"
_symmetry_group_IT_number 9
_symmetry_cell_setting 'monoclinic'
loop_
_space_group_symop_operation_xyz
x,y,z
x,-y,1/2+z
1/2+x,1/2+y,z
1/2+x,1/2-y,1/2+z
loop_
_atom_site_type_symbol
_atom_site_label
_atom_site_fract_x
_atom_site_fract_y
_atom_site_fract_z
Si Si1 0.602430 0.029400 0.411480
Si Si2 0.842065 0.389385 0.719553
Si Si3 0.216424 0.911545 0.254559
Si Si4 0.465985 0.206171 0.462002
Si Si5 0.205454 0.802870 0.477775
Si Si6 0.488424 0.983161 0.652789
Si Si7 0.079015 0.034387 0.040405
Si Si8 0.095690 0.716293 0.069852
O O1 0.535269 0.122510 0.436009
O O2 0.681407 0.135082 0.437338
O O3 0.565586 0.970853 0.276639
O O4 0.628344 0.888232 0.495486
O O5 0.800547 0.536382 0.744491
O O6 0.879711 0.292331 0.840573
O O7 0.774706 0.294442 0.613433
O O8 0.912987 0.428472 0.678683
O O9 0.238465 0.889207 0.392923
O O10 0.180449 0.756618 0.188056
O O11 0.142085 0.031497 0.183663
O O12 0.495314 0.370640 0.509895
O O13 0.454100 0.121549 0.566447
O O14 0.125604 0.895591 0.467135
O O15 0.522463 0.855209 0.596422
O O16 0.054764 0.866358 0.997291
#
# Coordination Sequence:
#
# PCOD8054189 Si02
#       8
#     4   4   4   4   4   4   4   4
#     4   9  17  31  55  82  98 142 190 229 265 321
#     4  10  20  32  54  81 112 148 180 224 276 338
#     4   9  18  33  55  81 105 144 186 227 268 331
#     4   9  18  32  52  78 110 139 183 222 274 331
#     4  10  17  33  57  78 108 145 182 219 282 322
#     4  10  18  33  56  79 107 146 182 228 277 330
#     4   8  18  32  53  81 102 137 185 234 256 324
#     4   9  18  34  56  80 106 133 188 235 270 319
#
# _framework density 17.628184000000001
#
# number of rings (size 3 to 8) (size 9 to 14) (size 15 to 20)
#    0.750    2.000    1.250    0.750    0.000    1.000 
#    0.000    0.000   13.750    0.000    0.000    0.000 
#    0.000    0.000    0.000    0.000    0.000    0.000 
#
# Total GULP energy -198225.546383 kJ/mol
# GULP energy per Si atom -12389.096649 kJ/mol
# Density = 1.758806 g / cm^3
# Si number density = 17.628184 Si / 1000 Ang^3
#
#
#
# Elastic Constant Matrix: (Units=GPa)
#
#
# Indices 1 2 3 4 5 6 
#
# 1 68.1673 35.1243 30.7638 0.0000 0.6566 0.0000
# 2 35.1243 97.8308 45.0466 0.0000 -2.4067 0.0000
# 3 30.7638 45.0466 119.0743 0.0000 4.0027 0.0000
# 4 0.0000 0.0000 0.0000 24.0317 0.0000 0.5918
# 5 0.6566 -2.4067 4.0027 0.0000 21.6694 0.0000
# 6 0.0000 0.0000 0.0000 0.5918 0.0000 19.3644
#
#
#
# Elastic Compliance Matrix: (Units=1/GPa)
#
#
# Indices 1 2 3 4 5 6 
#
# 1 0.018739 -0.005480 -0.002746 0.000000 -0.000669 0.000000
# 2 -0.005480 0.014091 -0.003998 0.000000 0.002470 0.000000
# 3 -0.002746 -0.003998 0.010698 0.000000 -0.002337 0.000000
# 4 0.000000 0.000000 0.000000 0.041643 0.000000 -0.001273
# 5 -0.000669 0.002470 -0.002337 0.000000 0.046874 0.000000
# 6 0.000000 0.000000 0.000000 -0.001273 0.000000 0.051680
#
#
# Mechanical properties :
#
#
# Convention : Reuss Voigt Hill
#
# Bulk Modulus (GPa) = 52.40804 56.32686 54.36745
# Shear Modulus (GPa) = 23.30640 24.62229 23.96435
#
# Velocity S-wave (km/s) = 3.64003 3.74138 3.69105
# Velocity P-wave (km/s) = 6.88917 7.11941 7.00523
#
# Compressibility (1/GPa) = 0.01908104
#
# Stress axis : x y z
#
# Youngs Moduli (GPa) = 53.36431 70.96808 93.47132
#
# Poissons Ratio (x) = 0.38891 0.25665
# Poissons Ratio (y) = 0.29244 0.37368
# Poissons Ratio (z) = 0.14652 0.28372
#
# Static dielectric constant tensor:
#      x y z
#    x 3.067540 0.000000 0.038010 
#    y 0.000000 3.198800 0.000000 
#    z 0.038010 0.000000 3.461520 
# 
# 
# High freq. dielectric constant tensor:
#      x y z
#    x 1.658120 0.000000 -0.003350 
#    y 0.000000 1.662540 0.000000 
#    z -0.003350 0.000000 1.689040 
# 
# From -- ./inp_files/20034.got.cif
#   From: 2010.06.25/outbox.cif.g09.slc.cpg/sg9_11_cif.got.tgz:20034.got - 2010.06.27 21:40:51.
