data_PCOD8054335
_publ_section_title
;
Structure prediction by ZEFSAII (Michael W. Deem and Ramdas Pophale) SiO2 
 PCOD8054335
Probable space group: C C
;
_chemical_formula_sum "Si O2"
_cell_formula_units_Z 28
_cell_length_a 16.441176
_cell_length_b 11.055501
_cell_length_c 8.915162
_cell_angle_alpha 90.000000
_cell_angle_beta 122.909580
_cell_angle_gamma 90.000000
_cell_volume 1360.430204
_symmetry_space_group_name_H-M "C C"
_symmetry_group_IT_number 9
_symmetry_cell_setting 'monoclinic'
loop_
_space_group_symop_operation_xyz
x,y,z
x,-y,1/2+z
1/2+x,1/2+y,z
1/2+x,1/2-y,1/2+z
loop_
_atom_site_type_symbol
_atom_site_label
_atom_site_fract_x
_atom_site_fract_y
_atom_site_fract_z
Si Si1 0.306100 0.556145 0.899510
Si Si2 0.927564 0.735843 0.067764
Si Si3 0.440538 0.465102 0.271855
Si Si4 0.557821 0.690161 0.445073
Si Si5 0.068994 0.407509 0.879036
Si Si6 0.216492 0.700964 0.313394
Si Si7 0.109422 0.355599 0.250445
O O1 0.389069 0.592695 0.865158
O O2 0.251517 0.431745 0.793212
O O3 0.223823 0.659176 0.827332
O O4 0.358367 0.547355 0.111740
O O5 0.969317 0.741366 0.940423
O O6 0.966851 0.620132 0.196332
O O7 0.969901 0.857144 0.190246
O O8 0.812000 0.723842 0.952788
O O9 0.533789 0.546424 0.411669
O O10 0.658559 0.722449 0.629944
O O11 0.566213 0.734262 0.280402
O O12 0.150144 0.315540 0.894830
O O13 0.097611 0.543857 0.868719
O O14 0.054502 0.390022 0.042186
#
# Coordination Sequence:
#
# PCOD8054335 Si02
#       7
#     4   4   4   4   4   4   4
#     4  10  19  35  62  86 115 157 212 247 290 362
#     4  10  21  37  60  81 123 165 203 247 310 369
#     4  11  20  35  59  91 119 152 199 254 307 360
#     4  11  22  35  60  90 125 153 202 262 313 359
#     4  10  21  36  60  85 116 157 207 252 294 370
#     4   9  18  38  58  86 117 160 199 253 302 354
#     4  11  21  36  61  91 117 152 208 259 302 358
#
# _framework density 20.581724999999999
#
# number of rings (size 3 to 8) (size 9 to 14) (size 15 to 20)
#    0.000    1.714    2.857    6.000    2.000    0.000 
#    0.000    0.000   12.571    0.000    0.000    0.000 
#    0.000    0.000    0.000    0.000    0.000    0.000 
#
# Total GULP energy -173545.007608 kJ/mol
# GULP energy per Si atom -12396.071972 kJ/mol
# Density = 2.053488 g / cm^3
# Si number density = 20.581725 Si / 1000 Ang^3
#
#
#
# Elastic Constant Matrix: (Units=GPa)
#
#
# Indices 1 2 3 4 5 6 
#
# 1 105.6644 30.4584 34.0707 0.0000 -4.7301 0.0000
# 2 30.4584 41.5151 17.0955 0.0000 2.7247 0.0000
# 3 34.0707 17.0955 72.7108 0.0000 -4.0185 0.0000
# 4 0.0000 0.0000 0.0000 35.8176 0.0000 2.9949
# 5 -4.7301 2.7247 -4.0185 0.0000 45.0623 0.0000
# 6 0.0000 0.0000 0.0000 2.9949 0.0000 29.0701
#
#
#
# Elastic Compliance Matrix: (Units=1/GPa)
#
#
# Indices 1 2 3 4 5 6 
#
# 1 0.013212 -0.008056 -0.004214 0.000000 0.001498 0.000000
# 2 -0.008056 0.031798 -0.003873 0.000000 -0.003114 0.000000
# 3 -0.004214 -0.003873 0.016709 0.000000 0.001282 0.000000
# 4 0.000000 0.000000 0.000000 0.028162 0.000000 -0.002901
# 5 0.001498 -0.003114 0.001282 0.000000 0.022651 0.000000
# 6 0.000000 0.000000 0.000000 -0.002901 0.000000 0.034699
#
#
# Mechanical properties :
#
#
# Convention : Reuss Voigt Hill
#
# Bulk Modulus (GPa) = 33.97674 42.57106 38.27390
# Shear Modulus (GPa) = 26.40920 31.20773 28.80847
#
# Velocity S-wave (km/s) = 3.58598 3.89817 3.74533
# Velocity P-wave (km/s) = 5.80428 6.40233 6.11063
#
# Compressibility (1/GPa) = 0.02943190
#
# Stress axis : x y z
#
# Youngs Moduli (GPa) = 75.68870 31.44891 59.84747
#
# Poissons Ratio (x) = 0.25336 0.25219
# Poissons Ratio (y) = 0.60977 0.23180
# Poissons Ratio (z) = 0.31894 0.12181
#
# Static dielectric constant tensor:
#      x y z
#    x 3.887890 0.000000 -0.014380 
#    y 0.000000 3.372840 0.000000 
#    z -0.014380 0.000000 3.763710 
# 
# 
# High freq. dielectric constant tensor:
#      x y z
#    x 1.807250 0.000000 -0.010370 
#    y 0.000000 1.755140 0.000000 
#    z -0.010370 0.000000 1.809970 
# 
# From -- ./inp_files/8919.got.cif
#   From: 2010.06.25/outbox.cif.g09.slc.cpg/sg9_5_cif.got.tgz:8919.got - 2010.06.27 21:40:51.
