data_PCOD8054515
_publ_section_title
;
Structure prediction by ZEFSAII (Michael W. Deem and Ramdas Pophale) SiO2 
 PCOD8054515
Probable space group: C C
;
_chemical_formula_sum "Si O2"
_cell_formula_units_Z 32
_cell_length_a 14.377324
_cell_length_b 8.170080
_cell_length_c 25.132569
_cell_angle_alpha 90.000000
_cell_angle_beta 31.149220
_cell_angle_gamma 90.000000
_cell_volume 1527.064796
_symmetry_space_group_name_H-M "C C"
_symmetry_group_IT_number 9
_symmetry_cell_setting 'monoclinic'
loop_
_space_group_symop_operation_xyz
x,y,z
x,-y,1/2+z
1/2+x,1/2+y,z
1/2+x,1/2-y,1/2+z
loop_
_atom_site_type_symbol
_atom_site_label
_atom_site_fract_x
_atom_site_fract_y
_atom_site_fract_z
Si Si1 0.383200 0.837959 0.792320
Si Si2 0.855896 0.157302 0.656851
Si Si3 0.185618 0.558318 0.850509
Si Si4 0.258037 0.935852 0.966240
Si Si5 0.360058 0.243496 0.974465
Si Si6 0.034657 0.762717 0.400895
Si Si7 0.262546 0.483100 0.594289
Si Si8 0.179813 0.938959 0.786507
O O1 0.329356 0.642463 0.821073
O O2 0.334128 0.934793 0.869469
O O3 0.262028 0.906195 0.804453
O O4 0.593220 0.861168 0.676753
O O5 0.749135 0.081665 0.758605
O O6 0.795581 0.053929 0.636238
O O7 0.804600 0.353749 0.679930
O O8 0.067055 0.150631 0.562481
O O9 0.163522 0.363020 0.870577
O O10 0.989238 0.643877 0.952389
O O11 0.388231 0.837541 0.940689
O O12 0.243780 0.122493 0.994155
O O13 0.226542 0.361524 0.073206
O O14 0.483025 0.357594 0.876771
O O15 0.940105 0.884856 0.489011
O O16 0.152947 0.864456 0.298889
#
# Coordination Sequence:
#
# PCOD8054515 Si02
#       8
#     4   4   4   4   4   4   4   4
#     4  10  20  37  60  83 116 157 195 236 297 355
#     4  10  20  37  60  82 116 157 196 241 298 351
#     4   9  19  38  57  84 117 152 192 247 294 347
#     4  11  20  37  59  85 116 156 196 246 298 350
#     4   8  18  34  55  80 111 146 190 238 290 342
#     4  10  20  36  59  85 118 152 196 247 300 354
#     4  11  20  37  61  87 116 159 199 243 298 356
#     4   9  19  38  57  82 112 147 190 246 295 351
#
# _framework density 20.955234000000001
#
# number of rings (size 3 to 8) (size 9 to 14) (size 15 to 20)
#    0.000    2.500    0.000    6.000    0.000    1.000 
#    0.000   16.250    0.000    3.000    0.000    0.000 
#    0.000    0.000    0.000    0.000    0.000    0.000 
#
# Total GULP energy -198241.454222 kJ/mol
# GULP energy per Si atom -12390.090889 kJ/mol
# Density = 2.090754 g / cm^3
# Si number density = 20.955234 Si / 1000 Ang^3
#
#
#
# Elastic Constant Matrix: (Units=GPa)
#
#
# Indices 1 2 3 4 5 6 
#
# 1 71.9306 33.6540 28.8063 0.0002 4.8381 -0.0025
# 2 33.6540 152.8238 51.1863 0.0002 -8.8748 -0.0038
# 3 28.8063 51.1863 92.7392 -0.0011 -9.8228 -0.0009
# 4 0.0002 0.0002 -0.0011 30.2541 0.0001 -4.6285
# 5 4.8381 -8.8748 -9.8228 0.0001 31.1715 0.0012
# 6 -0.0025 -0.0038 -0.0009 -4.6285 0.0012 14.3694
#
#
#
# Elastic Compliance Matrix: (Units=1/GPa)
#
#
# Indices 1 2 3 4 5 6 
#
# 1 0.017208 -0.002586 -0.004426 0.000000 -0.004802 0.000003
# 2 -0.002586 0.008442 -0.003682 0.000000 0.001644 0.000001
# 3 -0.004426 -0.003682 0.014640 0.000000 0.004252 -0.000001
# 4 0.000000 0.000000 0.000000 0.034767 0.000000 0.011199
# 5 -0.004802 0.001644 0.004252 0.000000 0.034634 -0.000003
# 6 0.000003 0.000001 -0.000001 0.011199 -0.000003 0.073200
#
#
# Mechanical properties :
#
#
# Convention : Reuss Voigt Hill
#
# Bulk Modulus (GPa) = 52.90542 60.53188 56.71865
# Shear Modulus (GPa) = 23.74407 28.74878 26.24643
#
# Velocity S-wave (km/s) = 3.36979 3.70795 3.54291
# Velocity P-wave (km/s) = 6.35943 6.87611 6.62281
#
# Compressibility (1/GPa) = 0.01890165
#
# Stress axis : x y z
#
# Youngs Moduli (GPa) = 58.11350 118.46111 68.30392
#
# Poissons Ratio (x) = 0.30630 0.30235
# Poissons Ratio (y) = 0.15026 0.25149
# Poissons Ratio (z) = 0.25724 0.43616
#
# Static dielectric constant tensor:
#      x y z
#    x 3.572110 0.000000 -0.082820 
#    y 0.000000 4.466250 0.000000 
#    z -0.082820 0.000000 3.909390 
# 
# 
# High freq. dielectric constant tensor:
#      x y z
#    x 1.791460 0.000000 -0.006910 
#    y 0.000000 1.826130 0.000000 
#    z -0.006910 0.000000 1.816210 
# 
# From -- ./inp_files/27698.got.cif
#   From: 2010.06.25/outbox.cif.g09.slc.cpg/sg9_14_cif.got.tgz:27698.got - 2010.06.27 21:40:51.
