data_PCOD8054654
_publ_section_title
;
Structure prediction by ZEFSAII (Michael W. Deem and Ramdas Pophale) SiO2 
 PCOD8054654
Probable space group: C C
;
_chemical_formula_sum "Si O2"
_cell_formula_units_Z 32
_cell_length_a 18.642472
_cell_length_b 11.738346
_cell_length_c 9.256195
_cell_angle_alpha 90.000000
_cell_angle_beta 133.709898
_cell_angle_gamma 90.000000
_cell_volume 1464.164103
_symmetry_space_group_name_H-M "C C"
_symmetry_group_IT_number 9
_symmetry_cell_setting 'monoclinic'
loop_
_space_group_symop_operation_xyz
x,y,z
x,-y,1/2+z
1/2+x,1/2+y,z
1/2+x,1/2-y,1/2+z
loop_
_atom_site_type_symbol
_atom_site_label
_atom_site_fract_x
_atom_site_fract_y
_atom_site_fract_z
Si Si1 0.037710 0.596175 0.505390
Si Si2 0.674744 0.221546 0.217921
Si Si3 0.807105 0.896221 0.279754
Si Si4 0.365604 0.583118 0.565176
Si Si5 0.996536 0.722169 0.185674
Si Si6 0.824104 0.367575 0.806969
Si Si7 0.629697 0.054944 0.929094
Si Si8 0.298781 0.079356 0.948398
O O1 0.049911 0.707164 0.417723
O O2 0.122783 0.570265 0.745431
O O3 0.031976 0.489955 0.381675
O O4 0.942048 0.616565 0.469399
O O5 0.764290 0.155426 0.418706
O O6 0.574390 0.197988 0.167940
O O7 0.706027 0.352937 0.248689
O O8 0.660858 0.177037 0.035122
O O9 0.792165 0.762680 0.293895
O O10 0.850808 0.956659 0.483248
O O11 0.888964 0.919122 0.268713
O O12 0.706236 0.955254 0.082895
O O13 0.454920 0.649612 0.610244
O O14 0.904757 0.632687 0.047150
O O15 0.785226 0.448702 0.880738
O O16 0.781906 0.411220 0.596131
#
# Coordination Sequence:
#
# PCOD8054654 Si02
#       8
#     4   4   4   4   4   4   4   4
#     4  11  20  35  64  93 124 159 213 271 316 372
#     4  10  20  40  63  91 130 165 209 270 322 374
#     4  11  21  42  63  93 132 166 211 272 325 380
#     4  10  21  41  64  95 124 168 210 262 333 381
#     4  10  20  40  66  90 129 166 209 274 318 379
#     4  11  22  42  62  93 130 169 213 266 326 381
#     4  11  22  35  65 100 121 161 226 271 313 382
#     4  10  22  41  65  91 128 170 215 264 325 385
#
# _framework density 21.855473
#
# number of rings (size 3 to 8) (size 9 to 14) (size 15 to 20)
#    0.000    1.500    3.750    5.250    0.000    0.000 
#   11.250    2.500    0.000    0.000    0.000    0.000 
#    0.000    0.000    0.000    0.000    0.000    0.000 
#
# Total GULP energy -198217.998085 kJ/mol
# GULP energy per Si atom -12388.624880 kJ/mol
# Density = 2.180573 g / cm^3
# Si number density = 21.855473 Si / 1000 Ang^3
#
#
#
# Elastic Constant Matrix: (Units=GPa)
#
#
# Indices 1 2 3 4 5 6 
#
# 1 61.9010 34.3716 24.3925 0.0000 -5.0930 0.0000
# 2 34.3716 168.5005 65.8231 0.0000 -18.5235 0.0000
# 3 24.3925 65.8231 88.8750 0.0000 -15.4386 0.0000
# 4 0.0000 0.0000 0.0000 32.9931 0.0000 -4.8035
# 5 -5.0930 -18.5235 -15.4386 0.0000 27.7926 0.0000
# 6 0.0000 0.0000 0.0000 -4.8035 0.0000 21.3853
#
#
#
# Elastic Compliance Matrix: (Units=1/GPa)
#
#
# Indices 1 2 3 4 5 6 
#
# 1 0.018873 -0.002575 -0.003287 0.000000 -0.000084 0.000000
# 2 -0.002575 0.008844 -0.005425 0.000000 0.002409 0.000000
# 3 -0.003287 -0.005425 0.017088 0.000000 0.005274 0.000000
# 4 0.000000 0.000000 0.000000 0.031334 0.000000 0.007038
# 5 -0.000084 0.002409 0.005274 0.000000 0.040501 0.000000
# 6 0.000000 0.000000 0.000000 0.007038 0.000000 0.048342
#
#
# Mechanical properties :
#
#
# Convention : Reuss Voigt Hill
#
# Bulk Modulus (GPa) = 44.98275 63.16123 54.07199
# Shear Modulus (GPa) = 25.64544 29.41350 27.52947
#
# Velocity S-wave (km/s) = 3.42922 3.67252 3.55295
# Velocity P-wave (km/s) = 6.02545 6.85167 6.45180
#
# Compressibility (1/GPa) = 0.02223074
#
# Stress axis : x y z
#
# Youngs Moduli (GPa) = 52.98544 113.07178 58.52049
#
# Poissons Ratio (x) = 0.29114 0.19238
# Poissons Ratio (y) = 0.13643 0.31747
# Poissons Ratio (z) = 0.17419 0.61340
#
# Static dielectric constant tensor:
#      x y z
#    x 4.020700 0.000000 -0.079790 
#    y 0.000000 3.965180 0.000000 
#    z -0.079790 0.000000 3.971950 
# 
# 
# High freq. dielectric constant tensor:
#      x y z
#    x 1.852700 0.000000 -0.013830 
#    y 0.000000 1.847530 0.000000 
#    z -0.013830 0.000000 1.842510 
# 
# From -- ./inp_files/11603.got.cif
#   From: 2010.06.25/outbox.cif.g09.slc.cpg/sg9_6_cif.got.tgz:11603.got - 2010.06.27 21:40:51.
