data_PCOD8054014
_publ_section_title
;
Structure prediction by ZEFSAII (Michael W. Deem and Ramdas Pophale) SiO2 
 PCOD8054014
Probable space group: C M
;
_chemical_formula_sum "Si O2"
_cell_formula_units_Z 32
_cell_length_a 23.346542
_cell_length_b 8.455650
_cell_length_c 14.231639
_cell_angle_alpha 90.000000
_cell_angle_beta 147.722087
_cell_angle_gamma 90.000000
_cell_volume 1500.331626
_symmetry_space_group_name_H-M "C M"
_symmetry_group_IT_number 8
_symmetry_cell_setting 'monoclinic'
loop_
_space_group_symop_operation_xyz
x,y,z
x,-y,z
1/2+x,1/2+y,z
1/2+x,1/2-y,z
loop_
_atom_site_type_symbol
_atom_site_label
_atom_site_fract_x
_atom_site_fract_y
_atom_site_fract_z
Si Si1 0.908160 0.184128 0.133500
Si Si2 0.992257 0.680777 0.792713
Si Si3 0.614282 0.681362 0.298924
Si Si4 0.018567 0.682123 0.462986
Si Si5 0.668419 0.816210 0.181569
Si Si6 0.814904 0.181231 0.674143
Si Si7 0.750270 0.316100 0.776129
Si Si8 0.913331 0.182752 0.497012
O O1 0.933174 0.272559 0.264980
O O2 0.998746 0.219257 0.181720
O O3 0.894422 0.000000 0.136235
O O4 0.796673 0.253581 0.939333
O O5 0.985793 0.500000 0.749788
O O6 0.900635 0.707979 0.742642
O O7 0.977570 0.793421 0.682941
O O8 0.107301 0.718014 0.999209
O O9 0.646427 0.500000 0.362287
O O10 0.611304 0.715629 0.183922
O O11 0.699071 0.793907 0.467239
O O12 0.052236 0.500000 0.500238
O O13 0.965524 0.709951 0.490007
O O14 0.123323 0.789381 0.596198
O O15 0.791000 0.761583 0.341246
O O16 0.661388 0.000000 0.199373
O O17 0.810503 0.221659 0.777606
O O18 0.849611 0.000000 0.709380
O O19 0.773506 0.500000 0.795379
O O20 0.919576 0.000000 0.475673
#
# Coordination Sequence:
#
# PCOD8054014 Si02
#       8
#     4   4   4   4   4   4   4   4
#     4  11  24  43  67  98 133 170 213 264 324 387
#     4  11  23  41  65  96 130 168 214 262 319 383
#     4  11  22  37  64  96 130 168 209 257 316 384
#     4  12  26  45  68  94 127 171 219 270 325 382
#     4  10  23  41  64  93 129 168 207 258 319 377
#     4  12  23  38  63  95 132 171 211 260 324 386
#     4  12  25  43  67  97 131 170 216 267 325 387
#     4  11  24  44  66  91 126 170 217 268 322 378
#
# _framework density 21.328616
#
# number of rings (size 3 to 8) (size 9 to 14) (size 15 to 20)
#    0.000    0.750    2.500    5.625    0.000    6.000 
#    0.000    3.750    0.000    0.000    0.000    0.000 
#    0.000    0.000    0.000    0.000    0.000    0.000 
#
# Total GULP energy -198547.904672 kJ/mol
# GULP energy per Si atom -12409.244042 kJ/mol
# Density = 2.128007 g / cm^3
# Si number density = 21.328616 Si / 1000 Ang^3
#
#
#
# Elastic Constant Matrix: (Units=GPa)
#
#
# Indices 1 2 3 4 5 6 
#
# 1 94.3060 14.7561 22.7480 0.0000 -19.0661 0.0000
# 2 14.7561 81.5165 22.0014 0.0000 -2.4326 0.0000
# 3 22.7480 22.0014 106.2444 0.0000 -29.0153 0.0000
# 4 0.0000 0.0000 0.0000 33.0012 0.0000 -3.6387
# 5 -19.0661 -2.4326 -29.0153 0.0000 22.2554 0.0000
# 6 0.0000 0.0000 0.0000 -3.6387 0.0000 35.0298
#
#
#
# Elastic Compliance Matrix: (Units=1/GPa)
#
#
# Indices 1 2 3 4 5 6 
#
# 1 0.013228 -0.002305 0.001042 0.000000 0.012439 0.000000
# 2 -0.002305 0.013548 -0.003800 0.000000 -0.005447 0.000000
# 3 0.001042 -0.003800 0.015694 0.000000 0.020939 0.000000
# 4 0.000000 0.000000 0.000000 0.030653 0.000000 0.003184
# 5 0.012439 -0.005447 0.020939 0.000000 0.082293 0.000000
# 6 0.000000 0.000000 0.000000 0.003184 0.000000 0.028878
#
#
# Mechanical properties :
#
#
# Convention : Reuss Voigt Hill
#
# Bulk Modulus (GPa) = 30.91624 44.56422 37.74023
# Shear Modulus (GPa) = 24.36650 32.89471 28.63061
#
# Velocity S-wave (km/s) = 3.38366 3.93145 3.66779
# Velocity P-wave (km/s) = 5.45822 6.44576 5.97244
#
# Compressibility (1/GPa) = 0.03234546
#
# Stress axis : x y z
#
# Youngs Moduli (GPa) = 75.59822 73.81369 63.71699
#
# Poissons Ratio (x) = 0.17011 -0.06640
# Poissons Ratio (y) = 0.17422 0.24211
# Poissons Ratio (z) = -0.07878 0.28047
#
# Static dielectric constant tensor:
#      x y z
#    x 3.721210 0.000000 -0.061730 
#    y 0.000000 3.792730 0.000000 
#    z -0.061730 0.000000 3.982780 
# 
# 
# High freq. dielectric constant tensor:
#      x y z
#    x 1.828930 0.000000 -0.009150 
#    y 0.000000 1.842480 0.000000 
#    z -0.009150 0.000000 1.847980 
# 
# From -- ./inp_files/26528.got.cif
#   From: 2010.03.12/outbox.cif.g09.slc.cpg/sg8_14_cif.got.tgz:26528.got - 2010.03.31 10:45:26.
