data_PCOD8054878
_publ_section_title
;
Structure prediction by ZEFSAII (Michael W. Deem and Ramdas Pophale) SiO2 
 PCOD8054878
Probable space group: C C
;
_chemical_formula_sum "Si O2"
_cell_formula_units_Z 32
_cell_length_a 5.216404
_cell_length_b 22.896894
_cell_length_c 11.822914
_cell_angle_alpha 90.000000
_cell_angle_beta 80.125150
_cell_angle_gamma 90.000000
_cell_volume 1391.201322
_symmetry_space_group_name_H-M "C C"
_symmetry_group_IT_number 9
_symmetry_cell_setting 'monoclinic'
loop_
_space_group_symop_operation_xyz
x,y,z
x,-y,1/2+z
1/2+x,1/2+y,z
1/2+x,1/2-y,1/2+z
loop_
_atom_site_type_symbol
_atom_site_label
_atom_site_fract_x
_atom_site_fract_y
_atom_site_fract_z
Si Si1 0.747550 0.946489 0.218320
Si Si2 0.344634 0.329841 0.744096
Si Si3 0.976878 0.485728 0.038333
Si Si4 0.398389 0.451950 0.838059
Si Si5 0.881652 0.400194 0.435739
Si Si6 0.614512 0.607679 0.534224
Si Si7 0.860206 0.829352 0.485222
Si Si8 0.289039 0.791811 0.875147
O O1 0.653379 0.996382 0.135874
O O2 0.519037 0.918476 0.309138
O O3 0.862863 0.892175 0.135457
O O4 0.961875 0.984914 0.274427
O O5 0.389866 0.399247 0.748800
O O6 0.390390 0.309602 0.612511
O O7 0.550799 0.294114 0.804729
O O8 0.050811 0.318021 0.804227
O O9 0.815975 0.429330 0.092388
O O10 0.815215 0.543924 0.019781
O O11 0.119764 0.464008 0.914519
O O12 0.592472 0.432400 0.922414
O O13 0.611689 0.367363 0.429007
O O14 0.088446 0.362719 0.491876
O O15 0.701941 0.672627 0.494685
O O16 0.849171 0.773902 0.404741
#
# Coordination Sequence:
#
# PCOD8054878 Si02
#       8
#     4   4   4   4   4   4   4   4
#     4  10  23  39  66 105 143 184 221 293 362 411
#     4  11  23  45  74 100 131 191 225 287 349 412
#     4  10  21  39  64  99 137 183 223 278 347 430
#     4   9  20  38  61  98 139 173 231 271 343 422
#     4  11  27  44  68 105 147 179 233 294 350 414
#     4  10  22  40  69 100 135 184 227 282 344 426
#     4  12  27  49  70 104 140 183 237 296 343 415
#     4  11  25  48  72  99 138 181 245 281 340 420
#
# _framework density 23.001702999999999
#
# number of rings (size 3 to 8) (size 9 to 14) (size 15 to 20)
#    0.000    1.500    1.250    2.250    8.750    2.000 
#    2.250    0.000    0.000    0.000    0.000    0.000 
#    0.000    0.000    0.000    0.000    0.000    0.000 
#
# Total GULP energy -198255.131144 kJ/mol
# GULP energy per Si atom -12390.945697 kJ/mol
# Density = 2.294935 g / cm^3
# Si number density = 23.001703 Si / 1000 Ang^3
#
#
#
# Elastic Constant Matrix: (Units=GPa)
#
#
# Indices 1 2 3 4 5 6 
#
# 1 73.4842 16.8141 0.6909 0.0000 -4.9792 0.0000
# 2 16.8141 92.7969 18.4615 0.0000 5.2131 0.0000
# 3 0.6909 18.4615 92.6597 0.0000 0.8994 0.0000
# 4 0.0000 0.0000 0.0000 23.9007 0.0000 6.8552
# 5 -4.9792 5.2131 0.8994 0.0000 22.6094 0.0000
# 6 0.0000 0.0000 0.0000 6.8552 0.0000 39.9252
#
#
#
# Elastic Compliance Matrix: (Units=1/GPa)
#
#
# Indices 1 2 3 4 5 6 
#
# 1 0.014538 -0.002939 0.000440 0.000000 0.003862 0.000000
# 2 -0.002939 0.011958 -0.002328 0.000000 -0.003312 0.000000
# 3 0.000440 -0.002328 0.011251 0.000000 0.000186 0.000000
# 4 0.000000 0.000000 0.000000 0.044007 0.000000 -0.007556
# 5 0.003862 -0.003312 0.000186 0.000000 0.045836 0.000000
# 6 0.000000 0.000000 0.000000 -0.007556 0.000000 0.026344
#
#
# Mechanical properties :
#
#
# Convention : Reuss Voigt Hill
#
# Bulk Modulus (GPa) = 35.59692 36.76376 36.18034
# Shear Modulus (GPa) = 28.90951 32.15203 30.53077
#
# Velocity S-wave (km/s) = 3.54904 3.74279 3.64720
# Velocity P-wave (km/s) = 5.68363 5.89031 5.78789
#
# Compressibility (1/GPa) = 0.02809232
#
# Stress axis : x y z
#
# Youngs Moduli (GPa) = 68.78386 83.62633 88.88086
#
# Poissons Ratio (x) = 0.24575 -0.03907
# Poissons Ratio (y) = 0.20213 0.20695
# Poissons Ratio (z) = -0.03024 0.19472
#
# Static dielectric constant tensor:
#      x y z
#    x 4.152610 0.000000 0.056950 
#    y 0.000000 4.059150 0.000000 
#    z 0.056950 0.000000 4.214190 
# 
# 
# High freq. dielectric constant tensor:
#      x y z
#    x 1.912980 0.000000 0.004310 
#    y 0.000000 1.892970 0.000000 
#    z 0.004310 0.000000 1.917360 
# 
# From -- ./inp_files/13541.got.cif
#   From: 2010.06.25/outbox.cif.g09.slc.cpg/sg9_7_cif.got.tgz:13541.got - 2010.06.27 21:40:51.
