data_PCOD8054430
_publ_section_title
;
Structure prediction by ZEFSAII (Michael W. Deem and Ramdas Pophale) SiO2 
 PCOD8054430
Probable space group: C C
;
_chemical_formula_sum "Si O2"
_cell_formula_units_Z 32
_cell_length_a 8.042328
_cell_length_b 16.976551
_cell_length_c 14.307790
_cell_angle_alpha 90.000000
_cell_angle_beta 132.938040
_cell_angle_gamma 90.000000
_cell_volume 1430.107700
_symmetry_space_group_name_H-M "C C"
_symmetry_group_IT_number 9
_symmetry_cell_setting 'monoclinic'
loop_
_space_group_symop_operation_xyz
x,y,z
x,-y,1/2+z
1/2+x,1/2+y,z
1/2+x,1/2-y,1/2+z
loop_
_atom_site_type_symbol
_atom_site_label
_atom_site_fract_x
_atom_site_fract_y
_atom_site_fract_z
Si Si1 0.429170 0.542115 0.233820
Si Si2 0.067400 0.573835 0.344650
Si Si3 0.263485 0.102683 0.860188
Si Si4 0.840812 0.383754 0.955033
Si Si5 0.944556 0.529019 0.110886
Si Si6 0.017440 0.258861 0.785367
Si Si7 0.245890 0.578144 0.967365
Si Si8 0.027524 0.777739 0.503719
O O1 0.570984 0.462489 0.268917
O O2 0.573804 0.612888 0.333903
O O3 0.218033 0.528609 0.220464
O O4 0.342718 0.578082 0.106224
O O5 0.876455 0.547599 0.192820
O O6 0.267078 0.507982 0.426197
O O7 0.962452 0.580824 0.408494
O O8 0.159477 0.659080 0.344868
O O9 0.474287 0.094274 0.870006
O O10 0.161661 0.188389 0.795777
O O11 0.339426 0.093844 0.998862
O O12 0.914849 0.296805 0.013374
O O13 0.883123 0.440767 0.058596
O O14 0.974381 0.234714 0.875062
O O15 0.788964 0.277259 0.638085
O O16 0.391884 0.642197 0.969033
#
# Coordination Sequence:
#
# PCOD8054430 Si02
#       8
#     4   4   4   4   4   4   4   4
#     4  10  19  40  64  90 133 175 215 279 335 391
#     4  11  22  41  64  96 130 170 222 272 334 399
#     4  10  22  41  68  93 134 178 217 280 338 392
#     4  10  21  43  63  93 134 174 216 279 339 393
#     4  10  21  39  65  95 130 173 228 271 333 405
#     4  11  25  44  69  99 136 176 225 279 342 406
#     4  11  23  41  66  96 134 171 227 274 337 397
#     4  11  25  41  69  98 133 177 226 276 338 407
#
# _framework density 22.375937
#
# number of rings (size 3 to 8) (size 9 to 14) (size 15 to 20)
#    0.000    1.500    3.750    3.000    5.250    1.000 
#    2.250    1.250    0.000    0.000    0.000    0.000 
#    0.000    0.000    0.000    0.000    0.000    0.000 
#
# Total GULP energy -198210.631622 kJ/mol
# GULP energy per Si atom -12388.164476 kJ/mol
# Density = 2.232501 g / cm^3
# Si number density = 22.375937 Si / 1000 Ang^3
#
#
#
# Elastic Constant Matrix: (Units=GPa)
#
#
# Indices 1 2 3 4 5 6 
#
# 1 27.0328 16.9948 13.3252 0.0001 10.3014 0.0000
# 2 16.9948 153.9545 19.1153 0.0000 23.0063 0.0000
# 3 13.3252 19.1153 64.0833 0.0000 11.5990 0.0000
# 4 0.0001 0.0000 0.0000 -52.5062 0.0001 39.1065
# 5 10.3014 23.0063 11.5990 0.0001 40.5271 0.0000
# 6 0.0000 0.0000 0.0000 39.1065 0.0000 18.7051
#
#
#
# Elastic Compliance Matrix: (Units=1/GPa)
#
#
# Indices 1 2 3 4 5 6 
#
# 1 0.045340 -0.002953 -0.007134 0.000000 -0.007807 0.000000
# 2 -0.002953 0.007422 -0.001026 0.000000 -0.003169 0.000000
# 3 -0.007134 -0.001026 0.017887 0.000000 -0.002723 0.000000
# 4 0.000000 0.000000 0.000000 -0.007448 0.000000 0.015571
# 5 -0.007807 -0.003169 -0.002723 0.000000 0.029238 0.000000
# 6 0.000000 0.000000 0.000000 0.015571 0.000000 0.020907
#
#
# Mechanical properties :
#
#
# Convention : Reuss Voigt Hill
#
# Bulk Modulus (GPa) = 20.65117 38.21565 29.43341
# Shear Modulus (GPa) = 32.95693 14.38755 23.67224
#
# Velocity S-wave (km/s) = 3.84197 2.53848 3.25612
# Velocity P-wave (km/s) = 5.37868 5.07029 5.22676
#
# Compressibility (1/GPa) = 0.04842340
#
# Stress axis : x y z
#
# Youngs Moduli (GPa) = 22.05566 134.72729 55.90594
#
# Poissons Ratio (x) = 0.39780 0.39883
# Poissons Ratio (y) = 0.06512 0.05738
# Poissons Ratio (z) = 0.15734 0.13829
#
# Static dielectric constant tensor:
#      x y z
#    x 4.105360 0.000000 0.081080 
#    y 0.000000 4.539860 0.000000 
#    z 0.081080 0.000000 4.270480 
# 
# 
# High freq. dielectric constant tensor:
#      x y z
#    x 1.852170 0.000000 -0.006250 
#    y 0.000000 1.893300 0.000000 
#    z -0.006250 0.000000 1.893740 
# 
# From -- ./inp_files/23647.got.cif
#   From: 2010.06.25/outbox.cif.g09.slc.cpg/sg9_12_cif.got.tgz:23647.got - 2010.06.27 21:40:51.
