data_PCOD8054731
_publ_section_title
;
Structure prediction by ZEFSAII (Michael W. Deem and Ramdas Pophale) SiO2 
 PCOD8054731
Probable space group: C C
;
_chemical_formula_sum "Si O2"
_cell_formula_units_Z 32
_cell_length_a 26.009059
_cell_length_b 4.943329
_cell_length_c 13.095565
_cell_angle_alpha 90.000000
_cell_angle_beta 109.287546
_cell_angle_gamma 90.000000
_cell_volume 1589.212066
_symmetry_space_group_name_H-M "C C"
_symmetry_group_IT_number 9
_symmetry_cell_setting 'monoclinic'
loop_
_space_group_symop_operation_xyz
x,y,z
x,-y,1/2+z
1/2+x,1/2+y,z
1/2+x,1/2-y,1/2+z
loop_
_atom_site_type_symbol
_atom_site_label
_atom_site_fract_x
_atom_site_fract_y
_atom_site_fract_z
Si Si1 0.720370 0.714167 0.466490
Si Si2 0.194648 0.255590 0.216299
Si Si3 0.774067 0.204506 0.590126
Si Si4 0.491515 0.074052 0.660259
Si Si5 0.641045 0.746305 0.592552
Si Si6 0.451982 0.687532 0.324595
Si Si7 0.897636 0.648666 0.203507
Si Si8 0.023013 0.094811 0.561857
O O1 0.707533 0.789099 0.342709
O O2 0.741090 0.409447 0.495587
O O3 0.664999 0.762166 0.493991
O O4 0.768619 0.909456 0.537055
O O5 0.249563 0.308174 0.187986
O O6 0.146203 0.459079 0.149021
O O7 0.176466 0.949788 0.186688
O O8 0.836703 0.281098 0.636253
O O9 0.500258 0.202196 0.779240
O O10 0.507943 0.292691 0.586011
O O11 0.427985 0.967934 0.620605
O O12 0.526056 0.803580 0.659225
O O13 0.580826 0.621824 0.543887
O O14 0.430345 0.402927 0.269773
O O15 0.475569 0.677787 0.452996
O O16 0.402210 0.906666 0.290848
#
# Coordination Sequence:
#
# PCOD8054731 Si02
#       8
#     4   4   4   4   4   4   4   4
#     4  10  21  40  61  90 117 152 198 247 295 368
#     4  10  21  42  59  90 118 151 198 248 297 364
#     4  10  21  39  63  86 122 151 196 246 301 351
#     4  10  22  40  57  86 126 154 205 251 287 353
#     4  10  23  37  61  87 122 152 197 249 295 347
#     4  10  22  40  58  85 127 156 203 247 291 355
#     4  10  20  43  58  86 127 159 189 264 292 344
#     4  12  22  39  63  88 119 171 198 244 304 358
#
# _framework density 20.135763000000001
#
# number of rings (size 3 to 8) (size 9 to 14) (size 15 to 20)
#    0.750    1.000    1.250    3.000    0.000    2.000 
#    6.750    0.000    0.000    0.000    0.000    0.000 
#    0.000    0.000    0.000    0.000    0.000    0.000 
#
# Total GULP energy -198251.477423 kJ/mol
# GULP energy per Si atom -12390.717339 kJ/mol
# Density = 2.008993 g / cm^3
# Si number density = 20.135763 Si / 1000 Ang^3
#
#
#
# Elastic Constant Matrix: (Units=GPa)
#
#
# Indices 1 2 3 4 5 6 
#
# 1 95.6295 25.5676 26.3472 0.0000 -2.3649 0.0000
# 2 25.5676 108.8451 20.2086 0.0000 -7.6870 0.0000
# 3 26.3472 20.2086 78.7855 0.0000 -9.9689 0.0000
# 4 0.0000 0.0000 0.0000 16.8247 0.0000 -3.9509
# 5 -2.3649 -7.6870 -9.9689 0.0000 16.9257 0.0000
# 6 0.0000 0.0000 0.0000 -3.9509 0.0000 31.1498
#
#
#
# Elastic Compliance Matrix: (Units=1/GPa)
#
#
# Indices 1 2 3 4 5 6 
#
# 1 0.012023 -0.002255 -0.003630 0.000000 -0.001482 0.000000
# 2 -0.002255 0.010229 -0.001428 0.000000 0.003489 0.000000
# 3 -0.003630 -0.001428 0.015264 0.000000 0.007835 0.000000
# 4 0.000000 0.000000 0.000000 0.061261 0.000000 0.007770
# 5 -0.001482 0.003489 0.007835 0.000000 0.065074 0.000000
# 6 0.000000 0.000000 0.000000 0.007770 0.000000 0.033088
#
#
# Mechanical properties :
#
#
# Convention : Reuss Voigt Hill
#
# Bulk Modulus (GPa) = 43.68675 47.50075 45.59375
# Shear Modulus (GPa) = 22.81069 27.05583 24.93326
#
# Velocity S-wave (km/s) = 3.36943 3.66959 3.52271
# Velocity P-wave (km/s) = 6.07294 6.44949 6.26405
#
# Compressibility (1/GPa) = 0.02289024
#
# Stress axis : x y z
#
# Youngs Moduli (GPa) = 83.17138 97.76492 65.51265
#
# Poissons Ratio (x) = 0.22046 0.23781
# Poissons Ratio (y) = 0.18755 0.09355
# Poissons Ratio (z) = 0.30191 0.13961
#
# Static dielectric constant tensor:
#      x y z
#    x 3.511890 0.000000 -0.210770 
#    y 0.000000 3.950870 0.000000 
#    z -0.210770 0.000000 3.330590 
# 
# 
# High freq. dielectric constant tensor:
#      x y z
#    x 1.771240 0.000000 -0.014990 
#    y 0.000000 1.814270 0.000000 
#    z -0.014990 0.000000 1.762710 
# 
# From -- ./inp_files/20603.got.cif
#   From: 2010.06.25/outbox.cif.g09.slc.cpg/sg9_11_cif.got.tgz:20603.got - 2010.06.27 21:40:51.
