data_PCOD8054791
_publ_section_title
;
Structure prediction by ZEFSAII (Michael W. Deem and Ramdas Pophale) SiO2 
 PCOD8054791
Probable space group: C C
;
_chemical_formula_sum "Si O2"
_cell_formula_units_Z 16
_cell_length_a 10.767660
_cell_length_b 16.566437
_cell_length_c 5.385328
_cell_angle_alpha 90.000000
_cell_angle_beta 53.160254
_cell_angle_gamma 90.000000
_cell_volume 768.818648
_symmetry_space_group_name_H-M "C C"
_symmetry_group_IT_number 9
_symmetry_cell_setting 'monoclinic'
loop_
_space_group_symop_operation_xyz
x,y,z
x,-y,1/2+z
1/2+x,1/2+y,z
1/2+x,1/2-y,1/2+z
loop_
_atom_site_type_symbol
_atom_site_label
_atom_site_fract_x
_atom_site_fract_y
_atom_site_fract_z
Si Si1 0.898280 0.322768 0.944320
Si Si2 0.157765 0.050392 0.797559
Si Si3 0.188936 0.274102 0.335929
Si Si4 0.481272 0.309160 0.717300
O O1 0.759417 0.270845 0.989822
O O2 0.045152 0.331983 0.583461
O O3 0.829814 0.410063 0.098640
O O4 0.957026 0.276792 0.115967
O O5 0.135735 0.007947 0.559180
O O6 0.023514 0.118718 0.979024
O O7 0.125560 0.202903 0.232108
O O8 0.320735 0.329882 0.051975
#
# Coordination Sequence:
#
# PCOD8054791 Si02
#       4
#     4   4   4   4
#     4  11  21  41  68 100 127 182 230 275 323 412
#     4  12  27  44  66 103 144 176 214 286 359 392
#     4  10  21  36  72  97 128 164 252 270 313 384
#     4  11  21  41  68 100 127 182 230 275 323 412
#
# _framework density 20.811149
#
# number of rings (size 3 to 8) (size 9 to 14) (size 15 to 20)
#    0.000    1.000    5.000    1.500    7.000    0.000 
#    0.000    2.500    0.000    0.000    0.000    0.000 
#    0.000    0.000    0.000    0.000    0.000    0.000 
#
# Total GULP energy -99192.728577 kJ/mol
# GULP energy per Si atom -12399.091072 kJ/mol
# Density = 2.076378 g / cm^3
# Si number density = 20.811149 Si / 1000 Ang^3
#
#
#
# Elastic Constant Matrix: (Units=GPa)
#
#
# Indices 1 2 3 4 5 6 
#
# 1 73.3786 2.6832 30.1682 0.0000 -10.6971 0.0000
# 2 2.6832 52.5534 39.4547 0.0000 -12.3811 0.0000
# 3 30.1682 39.4547 114.3772 0.0000 -17.3196 0.0000
# 4 0.0000 0.0000 0.0000 53.3969 0.0000 -1.1787
# 5 -10.6971 -12.3811 -17.3196 0.0000 42.8513 0.0000
# 6 0.0000 0.0000 0.0000 -1.1787 0.0000 30.0357
#
#
#
# Elastic Compliance Matrix: (Units=1/GPa)
#
#
# Indices 1 2 3 4 5 6 
#
# 1 0.016002 0.003671 -0.005029 0.000000 0.003023 0.000000
# 2 0.003671 0.027211 -0.009614 0.000000 0.004893 0.000000
# 3 -0.005029 -0.009614 0.013608 0.000000 0.001467 0.000000
# 4 0.000000 0.000000 0.000000 0.018744 0.000000 0.000736
# 5 0.003023 0.004893 0.001467 0.000000 0.026098 0.000000
# 6 0.000000 0.000000 0.000000 0.000736 0.000000 0.033323
#
#
# Mechanical properties :
#
#
# Convention : Reuss Voigt Hill
#
# Bulk Modulus (GPa) = 28.67259 42.76906 35.72082
# Shear Modulus (GPa) = 29.66379 36.45696 33.06038
#
# Velocity S-wave (km/s) = 3.77952 4.18999 3.99004
# Velocity P-wave (km/s) = 5.73182 6.63353 6.19909
#
# Compressibility (1/GPa) = 0.03487652
#
# Stress axis : x y z
#
# Youngs Moduli (GPa) = 62.49205 36.74950 73.48626
#
# Poissons Ratio (x) = -0.13490 0.36958
# Poissons Ratio (y) = -0.22940 0.70649
# Poissons Ratio (z) = 0.31429 0.35331
#
# Static dielectric constant tensor:
#      x y z
#    x 3.743560 0.000000 -0.128160 
#    y 0.000000 3.417000 0.000000 
#    z -0.128160 0.000000 4.257920 
# 
# 
# High freq. dielectric constant tensor:
#      x y z
#    x 1.814780 0.000000 -0.001280 
#    y 0.000000 1.765460 0.000000 
#    z -0.001280 0.000000 1.851120 
# 
# From -- ./inp_files/414.got.cif
#   From: 2010.06.25/outbox.cif.g09.slc.cpg/sg9_1_cif.got.tgz:414.got - 2010.06.27 21:40:51.
