data_PCOD8054987
_publ_section_title
;
Structure prediction by ZEFSAII (Michael W. Deem and Ramdas Pophale) SiO2 
 PCOD8054987
Probable space group: C C
;
_chemical_formula_sum "Si O2"
_cell_formula_units_Z 32
_cell_length_a 10.173820
_cell_length_b 17.565723
_cell_length_c 9.739984
_cell_angle_alpha 90.000000
_cell_angle_beta 60.053192
_cell_angle_gamma 90.000000
_cell_volume 1508.243583
_symmetry_space_group_name_H-M "C C"
_symmetry_group_IT_number 9
_symmetry_cell_setting 'monoclinic'
loop_
_space_group_symop_operation_xyz
x,y,z
x,-y,1/2+z
1/2+x,1/2+y,z
1/2+x,1/2-y,1/2+z
loop_
_atom_site_type_symbol
_atom_site_label
_atom_site_fract_x
_atom_site_fract_y
_atom_site_fract_z
Si Si1 0.307920 0.044466 0.862380
Si Si2 0.332169 0.352606 0.593332
Si Si3 0.501634 0.106541 0.225292
Si Si4 0.073685 0.092549 0.766642
Si Si5 0.276917 0.803173 0.000004
Si Si6 0.142504 0.796191 0.784852
Si Si7 0.415982 0.175480 0.978199
Si Si8 0.035199 0.935205 0.704303
O O1 0.229075 0.074230 0.765962
O O2 0.410346 0.972322 0.769758
O O3 0.419682 0.106617 0.868897
O O4 0.174791 0.031943 0.041764
O O5 0.452731 0.356632 0.408598
O O6 0.288944 0.262423 0.611036
O O7 0.413290 0.383129 0.688412
O O8 0.181428 0.403897 0.654132
O O9 0.436225 0.153513 0.390685
O O10 0.483090 0.149973 0.090118
O O11 0.135204 0.141169 0.607076
O O12 0.973370 0.016215 0.788952
O O13 0.232636 0.771644 0.873480
O O14 0.248801 0.789162 0.593846
O O15 0.089520 0.885162 0.807093
O O16 0.002728 0.739872 0.848425
#
# Coordination Sequence:
#
# PCOD8054987 Si02
#       8
#     4   4   4   4   4   4   4   4
#     4  10  21  41  67  91 124 176 220 260 319 403
#     4  11  25  40  63 101 131 158 223 281 317 387
#     4  11  22  41  65  94 130 166 220 266 325 390
#     4  11  23  42  67  90 130 178 216 259 336 393
#     4  11  22  41  68  89 129 177 212 262 334 399
#     4  10  22  41  65  90 127 170 219 261 323 393
#     4  10  22  40  65  93 126 169 216 266 321 386
#     4  10  23  44  64  94 129 176 218 263 327 395
#
# _framework density 21.216733999999999
#
# number of rings (size 3 to 8) (size 9 to 14) (size 15 to 20)
#    0.000    1.500    2.500    3.000    5.250    1.000 
#    4.500    0.000    0.000    0.000    0.000    0.000 
#    0.000    0.000    0.000    0.000    0.000    0.000 
#
# Total GULP energy -198233.868381 kJ/mol
# GULP energy per Si atom -12389.616774 kJ/mol
# Density = 2.116844 g / cm^3
# Si number density = 21.216734 Si / 1000 Ang^3
#
#
#
# Elastic Constant Matrix: (Units=GPa)
#
#
# Indices 1 2 3 4 5 6 
#
# 1 72.2111 36.2942 33.7983 0.0000 -14.5636 0.0000
# 2 36.2942 109.6270 34.4301 0.0000 -11.2113 0.0000
# 3 33.7983 34.4301 68.1446 0.0000 -12.9627 0.0000
# 4 0.0000 0.0000 0.0000 39.7975 0.0000 -2.4897
# 5 -14.5636 -11.2113 -12.9627 0.0000 33.0909 0.0000
# 6 0.0000 0.0000 0.0000 -2.4897 0.0000 31.6505
#
#
#
# Elastic Compliance Matrix: (Units=1/GPa)
#
#
# Indices 1 2 3 4 5 6 
#
# 1 0.020098 -0.003948 -0.007072 0.000000 0.004737 0.000000
# 2 -0.003948 0.011702 -0.003815 0.000000 0.000733 0.000000
# 3 -0.007072 -0.003815 0.020824 0.000000 0.003752 0.000000
# 4 0.000000 0.000000 0.000000 0.025251 0.000000 0.001986
# 5 0.004737 0.000733 0.003752 0.000000 0.034023 0.000000
# 6 0.000000 0.000000 0.000000 0.001986 0.000000 0.031751
#
#
# Mechanical properties :
#
#
# Convention : Reuss Voigt Hill
#
# Bulk Modulus (GPa) = 43.56718 51.00313 47.28515
# Shear Modulus (GPa) = 27.62863 30.60511 29.11687
#
# Velocity S-wave (km/s) = 3.61253 3.80214 3.70855
# Velocity P-wave (km/s) = 6.16274 6.58531 6.37753
#
# Compressibility (1/GPa) = 0.02295306
#
# Stress axis : x y z
#
# Youngs Moduli (GPa) = 49.75521 85.45519 48.02239
#
# Poissons Ratio (x) = 0.33740 0.33963
# Poissons Ratio (y) = 0.19645 0.18320
# Poissons Ratio (z) = 0.35189 0.32600
#
# Static dielectric constant tensor:
#      x y z
#    x 3.724550 0.000000 -0.101140 
#    y 0.000000 3.850400 0.000000 
#    z -0.101140 0.000000 3.843720 
# 
# 
# High freq. dielectric constant tensor:
#      x y z
#    x 1.819090 0.000000 -0.003140 
#    y 0.000000 1.836300 0.000000 
#    z -0.003140 0.000000 1.827360 
# 
# From -- ./inp_files/16867.got.cif
#   From: 2010.06.25/outbox.cif.g09.slc.cpg/sg9_9_cif.got.tgz:16867.got - 2010.06.27 21:40:51.
