data_PCOD8054835
_publ_section_title
;
Structure prediction by ZEFSAII (Michael W. Deem and Ramdas Pophale) SiO2 
 PCOD8054835
Probable space group: C C
;
_chemical_formula_sum "Si O2"
_cell_formula_units_Z 32
_cell_length_a 20.180703
_cell_length_b 11.323824
_cell_length_c 8.759623
_cell_angle_alpha 90.000000
_cell_angle_beta 131.274200
_cell_angle_gamma 90.000000
_cell_volume 1504.454988
_symmetry_space_group_name_H-M "C C"
_symmetry_group_IT_number 9
_symmetry_cell_setting 'monoclinic'
loop_
_space_group_symop_operation_xyz
x,y,z
x,-y,1/2+z
1/2+x,1/2+y,z
1/2+x,1/2-y,1/2+z
loop_
_atom_site_type_symbol
_atom_site_label
_atom_site_fract_x
_atom_site_fract_y
_atom_site_fract_z
Si Si1 0.801840 0.067634 0.418600
Si Si2 0.214678 0.211975 0.675400
Si Si3 0.325301 0.033658 0.699868
Si Si4 0.398971 0.140091 0.514977
Si Si5 0.527835 0.667118 0.291975
Si Si6 0.775593 0.157981 0.710253
Si Si7 0.990442 0.057801 0.568475
Si Si8 0.670076 0.641647 0.938076
O O1 0.729658 0.150109 0.228279
O O2 0.806522 0.086738 0.607025
O O3 0.896789 0.097374 0.491497
O O4 0.767691 0.934646 0.336396
O O5 0.306203 0.159515 0.749568
O O6 0.132072 0.191165 0.437668
O O7 0.194386 0.146147 0.799554
O O8 0.345217 0.064072 0.556636
O O9 0.235251 0.959820 0.599104
O O10 0.408743 0.959510 0.896139
O O11 0.486742 0.200206 0.716870
O O12 0.348450 0.249094 0.366360
O O13 0.499018 0.601386 0.406269
O O14 0.499162 0.584860 0.104598
O O15 0.685524 0.231714 0.544985
O O16 0.066885 0.111276 0.794969
#
# Coordination Sequence:
#
# PCOD8054835 Si02
#       8
#     4   4   4   4   4   4   4   4
#     4  11  22  40  61  93 125 164 199 253 313 364
#     4  10  21  38  62  88 127 163 199 250 306 365
#     4  11  20  39  65  89 119 163 206 249 310 360
#     4  11  24  40  63  92 123 158 208 258 301 372
#     4  11  23  40  59  96 125 160 206 259 303 359
#     4  10  23  39  63  90 127 160 203 251 308 370
#     4  11  21  37  65  92 126 156 209 258 298 357
#     4   9  20  39  60  94 122 158 208 256 295 359
#
# _framework density 21.270160000000001
#
# number of rings (size 3 to 8) (size 9 to 14) (size 15 to 20)
#    0.000    1.500    3.750    1.500    1.750    0.000 
#    0.000    5.000    0.000    0.000    0.000    0.000 
#    0.000    0.000    0.000    0.000    0.000    0.000 
#
# Total GULP energy -198261.380710 kJ/mol
# GULP energy per Si atom -12391.336294 kJ/mol
# Density = 2.122175 g / cm^3
# Si number density = 21.270160 Si / 1000 Ang^3
#
#
#
# Elastic Constant Matrix: (Units=GPa)
#
#
# Indices 1 2 3 4 5 6 
#
# 1 42.0202 31.3119 26.9113 0.0000 3.8962 0.0000
# 2 31.3119 93.5013 44.5248 0.0000 -7.3184 0.0000
# 3 26.9113 44.5248 88.6099 0.0000 -4.4852 0.0000
# 4 0.0000 0.0000 0.0000 52.1107 0.0000 -5.1915
# 5 3.8962 -7.3184 -4.4852 0.0000 27.1790 0.0000
# 6 0.0000 0.0000 0.0000 -5.1915 0.0000 28.5512
#
#
#
# Elastic Compliance Matrix: (Units=1/GPa)
#
#
# Indices 1 2 3 4 5 6 
#
# 1 0.035975 -0.009626 -0.006536 0.000000 -0.008828 0.000000
# 2 -0.009626 0.016825 -0.005276 0.000000 0.005040 0.000000
# 3 -0.006536 -0.005276 0.016031 0.000000 0.002162 0.000000
# 4 0.000000 0.000000 0.000000 0.019544 0.000000 0.003554
# 5 -0.008828 0.005040 0.002162 0.000000 0.039772 0.000000
# 6 0.000000 0.000000 0.000000 0.003554 0.000000 0.035671
#
#
# Mechanical properties :
#
#
# Convention : Reuss Voigt Hill
#
# Bulk Modulus (GPa) = 38.52665 47.73638 43.13152
# Shear Modulus (GPa) = 23.21838 29.66041 26.43940
#
# Velocity S-wave (km/s) = 3.30751 3.73830 3.52948
# Velocity P-wave (km/s) = 5.72176 6.41286 6.07714
#
# Compressibility (1/GPa) = 0.02595606
#
# Stress axis : x y z
#
# Youngs Moduli (GPa) = 27.79680 59.43365 62.37985
#
# Poissons Ratio (x) = 0.57212 0.40770
# Poissons Ratio (y) = 0.26758 0.32911
# Poissons Ratio (z) = 0.18167 0.31356
#
# Static dielectric constant tensor:
#      x y z
#    x 3.584850 0.000000 0.118710 
#    y 0.000000 4.115730 0.000000 
#    z 0.118710 0.000000 4.204160 
# 
# 
# High freq. dielectric constant tensor:
#      x y z
#    x 1.798750 0.000000 -0.007720 
#    y 0.000000 1.843490 0.000000 
#    z -0.007720 0.000000 1.844410 
# 
# From -- ./inp_files/9114.got.cif
#   From: 2010.06.25/outbox.cif.g09.slc.cpg/sg9_5_cif.got.tgz:9114.got - 2010.06.27 21:40:51.
