data_PCOD8054979
_publ_section_title
;
Structure prediction by ZEFSAII (Michael W. Deem and Ramdas Pophale) SiO2 
 PCOD8054979
Probable space group: C C
;
_chemical_formula_sum "Si O2"
_cell_formula_units_Z 32
_cell_length_a 12.700656
_cell_length_b 4.951631
_cell_length_c 21.562393
_cell_angle_alpha 90.000000
_cell_angle_beta 83.245038
_cell_angle_gamma 90.000000
_cell_volume 1346.623280
_symmetry_space_group_name_H-M "C C"
_symmetry_group_IT_number 9
_symmetry_cell_setting 'monoclinic'
loop_
_space_group_symop_operation_xyz
x,y,z
x,-y,1/2+z
1/2+x,1/2+y,z
1/2+x,1/2-y,1/2+z
loop_
_atom_site_type_symbol
_atom_site_label
_atom_site_fract_x
_atom_site_fract_y
_atom_site_fract_z
Si Si1 0.306320 0.646609 0.189790
Si Si2 0.894011 0.373019 0.742168
Si Si3 0.696820 0.567791 0.990585
Si Si4 0.780959 0.043674 0.048088
Si Si5 0.609198 0.155313 0.857519
Si Si6 0.974048 0.997181 0.947424
Si Si7 0.604794 0.660295 0.774044
Si Si8 0.326264 0.869718 0.882361
O O1 0.315300 0.354460 0.220691
O O2 0.299385 0.616509 0.117310
O O3 0.205715 0.801167 0.224033
O O4 0.401252 0.858996 0.198777
O O5 0.854660 0.479120 0.812321
O O6 0.006744 0.228298 0.736600
O O7 0.583163 0.617812 0.967341
O O8 0.791534 0.611644 0.932011
O O9 0.715365 0.272716 0.017492
O O10 0.709050 0.778206 0.045845
O O11 0.894532 0.968469 0.010322
O O12 0.507280 0.217140 0.909626
O O13 0.602371 0.353832 0.798365
O O14 0.718727 0.188391 0.887263
O O15 0.603873 0.849410 0.834915
O O16 0.924938 0.194887 0.899215
#
# Coordination Sequence:
#
# PCOD8054979 Si02
#       8
#     4   4   4   4   4   4   4   4
#     4  12  26  46  66  97 136 178 223 271 323 398
#     4  12  25  41  69 100 133 178 215 270 339 396
#     4  10  25  43  68 100 129 177 221 279 327 389
#     4  11  26  46  69  94 133 180 226 271 325 390
#     4  11  23  39  66  96 134 170 212 268 332 389
#     4  10  24  43  69  99 134 172 218 276 333 391
#     4  12  24  41  63  97 133 173 213 267 325 393
#     4  10  21  41  66 101 136 166 214 270 340 394
#
# _framework density 23.763141999999998
#
# number of rings (size 3 to 8) (size 9 to 14) (size 15 to 20)
#    0.000    1.000    3.750    1.500    1.750   11.000 
#    0.000    0.000    0.000    0.000    0.000    0.000 
#    0.000    0.000    0.000    0.000    0.000    0.000 
#
# Total GULP energy -198403.657056 kJ/mol
# GULP energy per Si atom -12400.228566 kJ/mol
# Density = 2.370906 g / cm^3
# Si number density = 23.763142 Si / 1000 Ang^3
#
#
#
# Elastic Constant Matrix: (Units=GPa)
#
#
# Indices 1 2 3 4 5 6 
#
# 1 105.2553 9.2487 28.7192 0.0000 9.7618 0.0000
# 2 9.2487 70.7380 10.9644 0.0000 9.9838 0.0000
# 3 28.7192 10.9644 123.8995 0.0000 10.7371 0.0000
# 4 0.0000 0.0000 0.0000 28.4200 0.0000 3.1232
# 5 9.7618 9.9838 10.7371 0.0000 32.5441 0.0000
# 6 0.0000 0.0000 0.0000 3.1232 0.0000 21.1789
#
#
#
# Elastic Compliance Matrix: (Units=1/GPa)
#
#
# Indices 1 2 3 4 5 6 
#
# 1 0.010351 -0.000713 -0.002148 0.000000 -0.002178 0.000000
# 2 -0.000713 0.014933 -0.000801 0.000000 -0.004103 0.000000
# 3 -0.002148 -0.000801 0.008815 0.000000 -0.002018 0.000000
# 4 0.000000 0.000000 0.000000 0.035766 0.000000 -0.005274
# 5 -0.002178 -0.004103 -0.002018 0.000000 0.033305 0.000000
# 6 0.000000 0.000000 0.000000 -0.005274 0.000000 0.047995
#
#
# Mechanical properties :
#
#
# Convention : Reuss Voigt Hill
#
# Bulk Modulus (GPa) = 37.34640 44.19525 40.77082
# Shear Modulus (GPa) = 29.86623 33.15930 31.51277
#
# Velocity S-wave (km/s) = 3.54903 3.73957 3.64554
# Velocity P-wave (km/s) = 5.70476 6.10610 5.90884
#
# Compressibility (1/GPa) = 0.02677634
#
# Stress axis : x y z
#
# Youngs Moduli (GPa) = 96.60620 66.96531 113.44804
#
# Poissons Ratio (x) = 0.04776 0.24364
# Poissons Ratio (y) = 0.06890 0.09083
# Poissons Ratio (z) = 0.20747 0.05361
#
# Static dielectric constant tensor:
#      x y z
#    x 4.579190 0.000000 0.123260 
#    y 0.000000 4.123490 0.000000 
#    z 0.123260 0.000000 4.204720 
# 
# 
# High freq. dielectric constant tensor:
#      x y z
#    x 1.958320 0.000000 0.011830 
#    y 0.000000 1.942760 0.000000 
#    z 0.011830 0.000000 1.928990 
# 
# From -- ./inp_files/32976.got.cif
#   From: 2010.06.25/outbox.cif.g09.slc.cpg/sg9_17_cif.got.tgz:32976.got - 2010.06.27 21:40:51.
