data_PCOD8054700
_publ_section_title
;
Structure prediction by ZEFSAII (Michael W. Deem and Ramdas Pophale) SiO2 
 PCOD8054700
Probable space group: C C
;
_chemical_formula_sum "Si O2"
_cell_formula_units_Z 28
_cell_length_a 7.850318
_cell_length_b 20.778928
_cell_length_c 7.185055
_cell_angle_alpha 90.000000
_cell_angle_beta 89.592504
_cell_angle_gamma 90.000000
_cell_volume 1172.005098
_symmetry_space_group_name_H-M "C C"
_symmetry_group_IT_number 9
_symmetry_cell_setting 'monoclinic'
loop_
_space_group_symop_operation_xyz
x,y,z
x,-y,1/2+z
1/2+x,1/2+y,z
1/2+x,1/2-y,1/2+z
loop_
_atom_site_type_symbol
_atom_site_label
_atom_site_fract_x
_atom_site_fract_y
_atom_site_fract_z
Si Si1 0.037160 0.447243 0.082540
Si Si2 0.728492 0.633958 0.679379
Si Si3 0.424272 0.588583 0.184311
Si Si4 0.048764 0.410739 0.657986
Si Si5 0.917824 0.052564 0.607013
Si Si6 0.857229 0.710022 0.998189
Si Si7 0.632462 0.698477 0.313096
O O1 0.989193 0.522415 0.064340
O O2 0.222983 0.443420 0.187286
O O3 0.895189 0.410937 0.206864
O O4 0.037825 0.415841 0.880237
O O5 0.553178 0.594816 0.723411
O O6 0.738277 0.661049 0.469333
O O7 0.737035 0.692682 0.824297
O O8 0.242174 0.606759 0.098700
O O9 0.407832 0.580426 0.403891
O O10 0.486585 0.521056 0.095616
O O11 0.553963 0.647816 0.162212
O O12 0.931621 0.354762 0.583782
O O13 0.750731 0.741455 0.172693
O O14 0.995285 0.759784 0.924222
#
# Coordination Sequence:
#
# PCOD8054700 Si02
#       7
#     4   4   4   4   4   4   4
#     4  10  20  41  71 108 149 178 233 300 374 436
#     4  11  25  45  75 105 142 187 240 305 358 440
#     4   9  21  41  68 102 144 180 227 299 358 434
#     4  10  21  41  70 106 146 186 233 299 367 435
#     4   9  21  38  67 108 141 178 226 290 370 430
#     4  12  28  47  73 102 142 201 248 300 360 421
#     4  11  28  49  68 105 142 196 251 299 353 432
#
# _framework density 23.890681000000001
#
# number of rings (size 3 to 8) (size 9 to 14) (size 15 to 20)
#    0.000    1.714    1.429    0.857    6.000    6.857 
#    0.000    0.000    0.000    0.000    0.000    0.000 
#    0.000    0.000    0.000    0.000    0.000    0.000 
#
# Total GULP energy -173537.419393 kJ/mol
# GULP energy per Si atom -12395.529957 kJ/mol
# Density = 2.383630 g / cm^3
# Si number density = 23.890681 Si / 1000 Ang^3
#
#
#
# Elastic Constant Matrix: (Units=GPa)
#
#
# Indices 1 2 3 4 5 6 
#
# 1 123.3691 45.9243 34.8728 0.0000 -12.8098 0.0000
# 2 45.9243 79.2655 21.8395 0.0000 -10.5499 0.0000
# 3 34.8728 21.8395 54.5982 0.0000 -2.5245 0.0000
# 4 0.0000 0.0000 0.0000 3.6553 0.0000 2.6668
# 5 -12.8098 -10.5499 -2.5245 0.0000 24.2851 0.0000
# 6 0.0000 0.0000 0.0000 2.6668 0.0000 33.0543
#
#
#
# Elastic Compliance Matrix: (Units=1/GPa)
#
#
# Indices 1 2 3 4 5 6 
#
# 1 0.011829 -0.004882 -0.005438 0.000000 0.003553 0.000000
# 2 -0.004882 0.016993 -0.003473 0.000000 0.004446 0.000000
# 3 -0.005438 -0.003473 0.023087 0.000000 -0.001978 0.000000
# 4 0.000000 0.000000 0.000000 0.290682 0.000000 -0.023452
# 5 0.003553 0.004446 -0.001978 0.000000 0.044778 0.000000
# 6 0.000000 0.000000 0.000000 -0.023452 0.000000 0.032145
#
#
# Mechanical properties :
#
#
# Convention : Reuss Voigt Hill
#
# Bulk Modulus (GPa) = 41.11567 51.38952 46.25260
# Shear Modulus (GPa) = 10.98394 22.50536 16.74465
#
# Velocity S-wave (km/s) = 2.14652 3.07255 2.65030
# Velocity P-wave (km/s) = 4.83639 5.84332 5.36354
#
# Compressibility (1/GPa) = 0.02432163
#
# Stress axis : x y z
#
# Youngs Moduli (GPa) = 84.53485 58.84701 43.31409
#
# Poissons Ratio (x) = 0.28731 0.23556
# Poissons Ratio (y) = 0.41272 0.15045
# Poissons Ratio (z) = 0.45974 0.20440
#
# Static dielectric constant tensor:
#      x y z
#    x 4.741570 0.000000 0.083170 
#    y 0.000000 4.789640 0.000000 
#    z 0.083170 0.000000 4.244050 
# 
# 
# High freq. dielectric constant tensor:
#      x y z
#    x 1.951040 0.000000 0.003960 
#    y 0.000000 1.930270 0.000000 
#    z 0.003960 0.000000 1.951660 
# 
# From -- ./inp_files/5597.got.cif
#   From: 2010.06.25/outbox.cif.g09.slc.cpg/sg9_3_cif.got.tgz:5597.got - 2010.06.27 21:40:51.
