data_PCOD8054156
_publ_section_title
;
Structure prediction by ZEFSAII (Michael W. Deem and Ramdas Pophale) SiO2 
 PCOD8054156
Probable space group: C M
;
_chemical_formula_sum "Si O2"
_cell_formula_units_Z 16
_cell_length_a 15.000000
_cell_length_b 9.000000
_cell_length_c 24.000000
_cell_angle_alpha 90.000000
_cell_angle_beta 30.000000
_cell_angle_gamma 90.000000
_cell_volume 1620.000000
_symmetry_space_group_name_H-M "C M"
_symmetry_group_IT_number 8
_symmetry_cell_setting 'monoclinic'
loop_
_space_group_symop_operation_xyz
x,y,z
x,-y,z
1/2+x,1/2+y,z
1/2+x,1/2-y,z
loop_
_atom_site_type_symbol
_atom_site_label
_atom_site_fract_x
_atom_site_fract_y
_atom_site_fract_z
Si Si1 0.756560 0.823601 0.031120
Si Si2 0.410537 0.674565 0.569189
Si Si3 0.497177 0.176536 0.985534
Si Si4 0.364590 0.168526 0.767981
Si Si5 0.016684 0.331898 0.807759
Si Si6 0.905919 0.675132 0.158705
Si Si7 0.159714 0.823597 0.534516
Si Si8 0.002081 0.177950 0.396910
O O1 0.817077 0.739186 0.054352
O O2 0.555014 0.770852 0.123127
O O3 0.760946 0.000000 0.037613
O O4 0.902538 0.780402 0.906199
O O5 0.389198 0.500000 0.575652
O O6 0.218835 0.734067 0.694834
O O7 0.576030 0.716996 0.519478
O O8 0.451883 0.736998 0.485523
O O9 0.481319 0.224658 0.058207
O O10 0.508331 0.000000 0.972080
O O11 0.674705 0.249113 0.862669
O O12 0.419577 0.163313 0.801784
O O13 0.521532 0.258631 0.653550
O O14 0.349733 0.000000 0.752413
O O15 0.018608 0.500000 0.832229
O O16 0.891929 0.500000 0.170266
O O17 0.704534 0.737494 0.276353
O O18 0.356700 0.750311 0.433464
O O19 0.176782 0.000000 0.533401
O O20 0.990826 0.000000 0.396978
#
# Coordination Sequence:
#
# PCOD8054156 Si02
#       8
#     4   4   4   4   4   4   4   4
#     4  11  22  38  59  89 117 152 198 240 290 353
#     4   9  19  36  58  82 112 149 188 228 285 347
#     4  11  22  39  59  87 121 156 192 240 298 348
#     4  11  21  36  61  90 116 154 197 238 291 352
#     4  10  19  35  59  87 115 152 191 234 294 352
#     4   9  21  39  61  83 112 154 200 244 293 342
#     4  11  22  36  58  90 121 152 188 240 297 348
#     4  10  20  41  63  80 110 157 202 242 286 346
#
# _framework density 9.8765429999999999
#
# number of rings (size 3 to 8) (size 9 to 14) (size 15 to 20)
#    0.000    1.750    2.500    2.250    0.000    2.500 
#    0.000    5.625    0.000    0.000    0.000    0.000 
#    0.000    0.000    0.000    0.000    0.000    0.000 
#
# Total GULP energy -198348.616514 kJ/mol
# GULP energy per Si atom -12396.788532 kJ/mol
# Density = 0.985406 g / cm^3
# Si number density = 9.876543 Si / 1000 Ang^3
#
#
#
# Elastic Constant Matrix: (Units=GPa)
#
#
# Indices 1 2 3 4 5 6 
#
# 1 118.0900 32.4819 36.8944 -0.0001 -36.3789 0.0001
# 2 32.4819 79.1930 25.9700 -0.0004 -12.6959 0.0001
# 3 36.8944 25.9700 118.4062 -0.0028 -40.3300 0.0004
# 4 -0.0001 -0.0004 -0.0028 28.9188 0.0001 -8.5983
# 5 -36.3789 -12.6959 -40.3300 0.0001 43.5703 0.0001
# 6 0.0001 0.0001 0.0004 -8.5983 0.0001 32.8267
#
#
#
# Elastic Compliance Matrix: (Units=1/GPa)
#
#
# Indices 1 2 3 4 5 6 
#
# 1 0.012291 -0.003589 0.000141 0.000000 0.009347 0.000000
# 2 -0.003589 0.014747 -0.002444 0.000000 -0.000961 0.000000
# 3 0.000141 -0.002444 0.012757 0.000001 0.011214 0.000000
# 4 0.000000 0.000000 0.000001 0.037500 0.000001 0.009822
# 5 0.009347 -0.000961 0.011214 0.000001 0.040855 0.000000
# 6 0.000000 0.000000 0.000000 0.009822 0.000000 0.033036
#
#
# Mechanical properties :
#
#
# Convention : Reuss Voigt Hill
#
# Bulk Modulus (GPa) = 35.69962 56.26465 45.98213
# Shear Modulus (GPa) = 29.01822 35.75268 32.38545
#
# Velocity S-wave (km/s) = 3.83697 4.25900 4.05348
# Velocity P-wave (km/s) = 6.14345 7.26163 6.72582
#
# Compressibility (1/GPa) = 0.02801151
#
# Stress axis : x y z
#
# Youngs Moduli (GPa) = 81.36305 67.81212 78.38785
#
# Poissons Ratio (x) = 0.24337 -0.01106
# Poissons Ratio (y) = 0.29201 0.19154
# Poissons Ratio (z) = -0.01148 0.16570
#
# Static dielectric constant tensor:
#      x y z
#    x 4.029860 0.000000 -0.240150 
#    y 0.000000 3.523750 0.000000 
#    z -0.240150 0.000000 3.800860 
# 
# 
# High freq. dielectric constant tensor:
#      x y z
#    x 1.792350 0.000000 -0.021510 
#    y 0.000000 1.754000 0.000000 
#    z -0.021510 0.000000 1.775170 
# 
# From -- ./inp_files/26517.got.cif
#   From: 2010.03.12/outbox.ucp.g09.slc.cvg/sg8_14_cif.got.tgz:26517.got - 2010.06.21 13:25:46.
