data_PCOD8054004
_publ_section_title
;
Structure prediction by ZEFSAII (Michael W. Deem and Ramdas Pophale) SiO2 
 PCOD8054004
Probable space group: C M
;
_chemical_formula_sum "Si O2"
_cell_formula_units_Z 16
_cell_length_a 6.974131
_cell_length_b 18.557186
_cell_length_c 6.821387
_cell_angle_alpha 90.000000
_cell_angle_beta 140.363667
_cell_angle_gamma 90.000000
_cell_volume 563.165447
_symmetry_space_group_name_H-M "C M"
_symmetry_group_IT_number 8
_symmetry_cell_setting 'monoclinic'
loop_
_space_group_symop_operation_xyz
x,y,z
x,-y,z
1/2+x,1/2+y,z
1/2+x,1/2-y,z
loop_
_atom_site_type_symbol
_atom_site_label
_atom_site_fract_x
_atom_site_fract_y
_atom_site_fract_z
Si Si1 0.294370 0.000000 0.147861
Si Si2 0.918960 0.000000 0.494797
Si Si3 0.470828 0.659578 0.500844
Si Si4 0.329077 0.278195 0.969784
Si Si5 0.421115 0.151369 0.365703
O O1 0.558703 0.000000 0.191851
O O2 0.314705 0.069294 0.301494
O O3 0.985228 0.000000 0.781917
O O4 0.047199 0.075506 0.508297
O O5 0.414184 0.707045 0.263168
O O6 0.166383 0.665982 0.389934
O O7 0.748718 0.695548 0.839138
O O8 0.623413 0.301834 0.076190
O O9 0.047250 0.327500 0.679654
#
# Coordination Sequence:
#
# PCOD8054004 Si02
#       5
#     2   2   4   4   4
#     4  10  22  48  80 114 156 218 258 329 406 472
#     4  10  24  48  82 110 164 206 264 331 406 466
#     4  11  30  54  82 120 164 211 270 335 403 479
#     4  12  31  47  83 121 159 217 268 327 411 478
#     4  11  28  51  80 119 165 208 271 335 398 484
#
# _framework density 28.410834999999999
#
# number of rings (size 3 to 8) (size 9 to 14) (size 15 to 20)
#    0.000    1.000    0.000    3.000   10.500   12.000 
#    0.000    0.000    0.000    0.000    0.000    1.750 
#    0.000    0.000    0.000    0.000    0.000    0.000 
#
# Total GULP energy -99151.824709 kJ/mol
# GULP energy per Si atom -12393.978089 kJ/mol
# Density = 2.834617 g / cm^3
# Si number density = 28.410835 Si / 1000 Ang^3
#
#
#
# Elastic Constant Matrix: (Units=GPa)
#
#
# Indices 1 2 3 4 5 6 
#
# 1 76.2952 46.0945 35.8709 0.0000 -13.3168 0.0000
# 2 46.0945 290.1177 66.8561 0.0000 8.1686 0.0000
# 3 35.8709 66.8561 170.0341 0.0000 -2.0529 0.0000
# 4 0.0000 0.0000 0.0000 46.3012 0.0000 2.8714
# 5 -13.3168 8.1686 -2.0529 0.0000 51.2639 0.0000
# 6 0.0000 0.0000 0.0000 2.8714 0.0000 36.8133
#
#
#
# Elastic Compliance Matrix: (Units=1/GPa)
#
#
# Indices 1 2 3 4 5 6 
#
# 1 0.016389 -0.002140 -0.002562 0.000000 0.004496 0.000000
# 2 -0.002140 0.004093 -0.001173 0.000000 -0.001255 0.000000
# 3 -0.002562 -0.001173 0.006880 0.000000 -0.000203 0.000000
# 4 0.000000 0.000000 0.000000 0.021703 0.000000 -0.001693
# 5 0.004496 -0.001255 -0.000203 0.000000 0.020867 0.000000
# 6 0.000000 0.000000 0.000000 -0.001693 0.000000 0.027296
#
#
# Mechanical properties :
#
#
# Convention : Reuss Voigt Hill
#
# Bulk Modulus (GPa) = 64.05111 92.67668 78.36390
# Shear Modulus (GPa) = 43.79013 52.71738 48.25375
#
# Velocity S-wave (km/s) = 3.93022 4.31227 4.12567
# Velocity P-wave (km/s) = 6.57184 7.58190 7.09487
#
# Compressibility (1/GPa) = 0.01561253
#
# Stress axis : x y z
#
# Youngs Moduli (GPa) = 61.01602 244.34842 145.34286
#
# Poissons Ratio (x) = 0.52295 0.37233
# Poissons Ratio (y) = 0.13059 0.17046
# Poissons Ratio (z) = 0.15631 0.28657
#
# Static dielectric constant tensor:
#      x y z
#    x 5.170790 0.000000 0.471300 
#    y 0.000000 5.843580 0.000000 
#    z 0.471300 0.000000 5.608930 
# 
# 
# High freq. dielectric constant tensor:
#      x y z
#    x 2.134230 0.000000 0.010070 
#    y 0.000000 2.175680 0.000000 
#    z 0.010070 0.000000 2.182380 
# 
# From -- ./inp_files/82.got.cif
#   From: 2010.03.12/outbox.cif.g09.slc.cpg/sg8_1_cif.got.tgz:82.got - 2010.03.31 10:45:26.
