data_PCOD8054334
_publ_section_title
;
Structure prediction by ZEFSAII (Michael W. Deem and Ramdas Pophale) SiO2 
 PCOD8054334
Probable space group: C C
;
_chemical_formula_sum "Si O2"
_cell_formula_units_Z 32
_cell_length_a 21.356480
_cell_length_b 12.584896
_cell_length_c 10.227354
_cell_angle_alpha 90.000000
_cell_angle_beta 34.092748
_cell_angle_gamma 90.000000
_cell_volume 1540.794409
_symmetry_space_group_name_H-M "C C"
_symmetry_group_IT_number 9
_symmetry_cell_setting 'monoclinic'
loop_
_space_group_symop_operation_xyz
x,y,z
x,-y,1/2+z
1/2+x,1/2+y,z
1/2+x,1/2-y,1/2+z
loop_
_atom_site_type_symbol
_atom_site_label
_atom_site_fract_x
_atom_site_fract_y
_atom_site_fract_z
Si Si1 0.719220 0.086681 0.441890
Si Si2 0.300026 0.954279 0.746294
Si Si3 0.065697 0.040962 0.060819
Si Si4 0.323096 0.278977 0.171007
Si Si5 0.434697 0.979643 0.251355
Si Si6 0.043179 0.273893 0.129951
Si Si7 0.931691 0.981613 0.055607
Si Si8 0.151683 0.579275 0.843146
O O1 0.653834 0.196483 0.524967
O O2 0.674580 0.042295 0.656128
O O3 0.855538 0.088375 0.211452
O O4 0.696687 0.007462 0.363576
O O5 0.286197 0.829443 0.806566
O O6 0.388792 0.974963 0.477708
O O7 0.337028 0.014879 0.813656
O O8 0.183571 0.000047 0.903233
O O9 0.075071 0.164901 0.001862
O O10 0.977284 0.020659 0.329393
O O11 0.029714 0.977998 0.992903
O O12 0.353356 0.376850 0.215169
O O13 0.218526 0.310963 0.256679
O O14 0.436159 0.251639 0.901286
O O15 0.508474 0.872476 0.096376
O O16 0.516533 0.082799 0.095178
#
# Coordination Sequence:
#
# PCOD8054334 Si02
#       8
#     4   4   4   4   4   4   4   4
#     4  10  19  35  61  88 114 150 196 243 285 344
#     4  11  23  40  59  85 118 154 196 247 296 348
#     4  11  23  40  59  85 118 154 196 247 296 348
#     4   9  20  37  60  85 115 156 195 228 292 369
#     4  10  21  40  60  84 115 154 197 240 289 355
#     4   9  20  37  60  85 115 156 195 228 292 369
#     4  10  21  40  60  84 115 154 197 240 289 355
#     4  10  19  35  61  88 114 150 196 243 285 344
#
# _framework density 20.768507
#
# number of rings (size 3 to 8) (size 9 to 14) (size 15 to 20)
#    0.000    2.000    0.000    5.250    0.000    6.000 
#    0.000   17.500    0.000    0.000    0.000    0.000 
#    0.000    0.000    0.000    0.000    0.000    0.000 
#
# Total GULP energy -198225.467379 kJ/mol
# GULP energy per Si atom -12389.091711 kJ/mol
# Density = 2.072124 g / cm^3
# Si number density = 20.768507 Si / 1000 Ang^3
#
#
#
# Elastic Constant Matrix: (Units=GPa)
#
#
# Indices 1 2 3 4 5 6 
#
# 1 115.0613 43.1684 17.6867 0.0000 -12.9987 0.0000
# 2 43.1684 105.8517 31.5016 0.0000 -12.5295 0.0000
# 3 17.6867 31.5016 71.9578 0.0000 -14.0688 0.0000
# 4 0.0000 0.0000 0.0000 32.8047 0.0000 -13.1331
# 5 -12.9987 -12.5295 -14.0688 0.0000 47.1436 0.0000
# 6 0.0000 0.0000 0.0000 -13.1331 0.0000 32.8335
#
#
#
# Elastic Compliance Matrix: (Units=1/GPa)
#
#
# Indices 1 2 3 4 5 6 
#
# 1 0.010423 -0.003895 -0.000528 0.000000 0.001681 0.000000
# 2 -0.003895 0.012426 -0.004298 0.000000 0.000946 0.000000
# 3 -0.000528 -0.004298 0.016627 0.000000 0.003674 0.000000
# 4 0.000000 0.000000 0.000000 0.036295 0.000000 0.014518
# 5 0.001681 0.000946 0.003674 0.000000 0.023023 0.000000
# 6 0.000000 0.000000 0.000000 0.014518 0.000000 0.036264
#
#
# Mechanical properties :
#
#
# Convention : Reuss Voigt Hill
#
# Bulk Modulus (GPa) = 45.38211 53.06491 49.22351
# Shear Modulus (GPa) = 31.28025 35.92398 33.60212
#
# Velocity S-wave (km/s) = 3.88511 4.16352 4.02672
# Velocity P-wave (km/s) = 6.48261 6.97992 6.73586
#
# Compressibility (1/GPa) = 0.02203511
#
# Stress axis : x y z
#
# Youngs Moduli (GPa) = 95.93865 80.47320 60.14439
#
# Poissons Ratio (x) = 0.31341 0.03177
# Poissons Ratio (y) = 0.37364 0.25849
# Poissons Ratio (z) = 0.05068 0.34586
#
# Static dielectric constant tensor:
#      x y z
#    x 3.968000 0.000000 -0.414070 
#    y 0.000000 4.399090 0.000000 
#    z -0.414070 0.000000 3.977920 
# 
# 
# High freq. dielectric constant tensor:
#      x y z
#    x 1.818380 0.000000 -0.022900 
#    y 0.000000 1.798350 0.000000 
#    z -0.022900 0.000000 1.809060 
# 
# From -- ./inp_files/20950.got.cif
#   From: 2010.06.25/outbox.cif.g09.slc.cpg/sg9_11_cif.got.tgz:20950.got - 2010.06.27 21:40:51.
