data_PCOD8054678
_publ_section_title
;
Structure prediction by ZEFSAII (Michael W. Deem and Ramdas Pophale) SiO2 
 PCOD8054678
Probable space group: C C
;
_chemical_formula_sum "Si O2"
_cell_formula_units_Z 28
_cell_length_a 12.467755
_cell_length_b 8.932753
_cell_length_c 14.901243
_cell_angle_alpha 90.000000
_cell_angle_beta 115.272213
_cell_angle_gamma 90.000000
_cell_volume 1500.733809
_symmetry_space_group_name_H-M "C C"
_symmetry_group_IT_number 9
_symmetry_cell_setting 'monoclinic'
loop_
_space_group_symop_operation_xyz
x,y,z
x,-y,1/2+z
1/2+x,1/2+y,z
1/2+x,1/2-y,1/2+z
loop_
_atom_site_type_symbol
_atom_site_label
_atom_site_fract_x
_atom_site_fract_y
_atom_site_fract_z
Si Si1 0.734580 0.359367 0.751970
Si Si2 0.757434 0.937591 0.156166
Si Si3 0.818289 0.191363 0.946007
Si Si4 0.119360 0.507181 0.938852
Si Si5 0.455583 0.657401 0.165607
Si Si6 0.381401 0.135061 0.799863
Si Si7 0.260116 0.592997 0.335105
O O1 0.797577 0.328082 0.870628
O O2 0.594254 0.375831 0.714223
O O3 0.780916 0.518316 0.732660
O O4 0.774012 0.231815 0.695839
O O5 0.880795 0.005821 0.160576
O O6 0.710485 0.043274 0.219989
O O7 0.654540 0.931006 0.045055
O O8 0.694143 0.161435 0.954378
O O9 0.849899 0.038538 0.901531
O O10 0.920328 0.223704 0.055277
O O11 0.151667 0.394239 0.867444
O O12 0.981526 0.543135 0.888269
O O13 0.431953 0.784534 0.230394
O O14 0.328388 0.251088 0.852894
#
# Coordination Sequence:
#
# PCOD8054678 Si02
#       7
#     4   4   4   4   4   4   4
#     4  11  22  37  57  92 112 149 199 240 284 348
#     4   9  19  38  61  79 117 163 185 229 308 336
#     4   8  18  40  58  75 123 155 177 240 295 323
#     4   9  18  38  59  81 116 156 189 232 287 346
#     4  10  20  41  57  83 123 151 188 245 281 346
#     4  11  21  36  61  87 113 148 198 240 286 339
#     4   8  18  38  57  85 114 150 194 232 285 350
#
# _framework density 18.657537999999999
#
# number of rings (size 3 to 8) (size 9 to 14) (size 15 to 20)
#    0.857    1.714    1.429    0.000    2.000    1.143 
#   10.286    0.000    0.000    0.000    0.000    0.000 
#    0.000    0.000    0.000    0.000    0.000    0.000 
#
# Total GULP energy -173493.292497 kJ/mol
# GULP energy per Si atom -12392.378035 kJ/mol
# Density = 1.861507 g / cm^3
# Si number density = 18.657538 Si / 1000 Ang^3
#
#
#
# Elastic Constant Matrix: (Units=GPa)
#
#
# Indices 1 2 3 4 5 6 
#
# 1 95.2273 58.2026 48.4286 0.0000 13.2059 0.0000
# 2 58.2026 61.5716 33.2258 0.0000 17.4555 0.0000
# 3 48.4286 33.2258 115.9227 0.0000 2.5028 0.0000
# 4 0.0000 0.0000 0.0000 14.2524 0.0000 0.8354
# 5 13.2059 17.4555 2.5028 0.0000 24.1360 0.0000
# 6 0.0000 0.0000 0.0000 0.8354 0.0000 29.4441
#
#
#
# Elastic Compliance Matrix: (Units=1/GPa)
#
#
# Indices 1 2 3 4 5 6 
#
# 1 0.027013 -0.023976 -0.004479 0.000000 0.003024 0.000000
# 2 -0.023976 0.046023 -0.002746 0.000000 -0.019882 0.000000
# 3 -0.004479 -0.002746 0.011214 0.000000 0.003273 0.000000
# 4 0.000000 0.000000 0.000000 0.070281 0.000000 -0.001994
# 5 0.003024 -0.019882 0.003273 0.000000 0.053817 0.000000
# 6 0.000000 0.000000 0.000000 -0.001994 0.000000 0.034019
#
#
# Mechanical properties :
#
#
# Convention : Reuss Voigt Hill
#
# Bulk Modulus (GPa) = 45.76610 61.38173 53.57392
# Shear Modulus (GPa) = 16.02305 22.42415 19.22360
#
# Velocity S-wave (km/s) = 2.93370 3.47058 3.21337
# Velocity P-wave (km/s) = 6.00486 7.00217 6.52260
#
# Compressibility (1/GPa) = 0.02185023
#
# Stress axis : x y z
#
# Youngs Moduli (GPa) = 37.01858 21.72817 89.17625
#
# Poissons Ratio (x) = 0.52095 0.39939
# Poissons Ratio (y) = 0.88755 0.24485
# Poissons Ratio (z) = 0.16579 0.05966
#
# Static dielectric constant tensor:
#      x y z
#    x 3.225470 0.000000 -0.124040 
#    y 0.000000 3.255610 0.000000 
#    z -0.124040 0.000000 3.461160 
# 
# 
# High freq. dielectric constant tensor:
#      x y z
#    x 1.708840 0.000000 -0.008430 
#    y 0.000000 1.704480 0.000000 
#    z -0.008430 0.000000 1.729150 
# 
# From -- ./inp_files/24061.got.cif
#   From: 2010.06.25/outbox.cif.g09.slc.cpg/sg9_13_cif.got.tgz:24061.got - 2010.06.27 21:40:51.
