data_PCOD8054260
_publ_section_title
;
Structure prediction by ZEFSAII (Michael W. Deem and Ramdas Pophale) SiO2 
 PCOD8054260
Probable space group: C C
;
_chemical_formula_sum "Si O2"
_cell_formula_units_Z 32
_cell_length_a 14.179012
_cell_length_b 11.930413
_cell_length_c 12.954706
_cell_angle_alpha 90.000000
_cell_angle_beta 50.830799
_cell_angle_gamma 90.000000
_cell_volume 1698.986383
_symmetry_space_group_name_H-M "C C"
_symmetry_group_IT_number 9
_symmetry_cell_setting 'monoclinic'
loop_
_space_group_symop_operation_xyz
x,y,z
x,-y,1/2+z
1/2+x,1/2+y,z
1/2+x,1/2-y,1/2+z
loop_
_atom_site_type_symbol
_atom_site_label
_atom_site_fract_x
_atom_site_fract_y
_atom_site_fract_z
Si Si1 0.549480 0.152997 0.332740
Si Si2 0.311446 0.653830 0.230015
Si Si3 0.099488 0.897560 0.231322
Si Si4 0.440620 0.657912 0.665921
Si Si5 0.988911 0.585089 0.156666
Si Si6 0.421509 0.498071 0.499897
Si Si7 0.259210 0.475491 0.424599
Si Si8 0.359697 0.893381 0.136734
O O1 0.689747 0.124726 0.251392
O O2 0.538042 0.283614 0.314966
O O3 0.497796 0.078801 0.274333
O O4 0.476070 0.126012 0.486026
O O5 0.298169 0.595643 0.350089
O O6 0.335424 0.786163 0.227383
O O7 0.420820 0.599823 0.087453
O O8 0.243949 0.908727 0.141375
O O9 0.059639 0.900701 0.138181
O O10 0.039013 0.993784 0.343940
O O11 0.453149 0.790765 0.645688
O O12 0.425121 0.614884 0.559470
O O13 0.324079 0.625425 0.816892
O O14 0.882874 0.500555 0.193012
O O15 0.116148 0.548426 0.017393
O O16 0.300736 0.483127 0.514305
#
# Coordination Sequence:
#
# PCOD8054260 Si02
#       8
#     4   4   4   4   4   4   4   4
#     4  10  19  35  58  82 113 153 197 237 285 346
#     4  10  19  36  60  85 113 155 197 242 282 350
#     4   9  20  34  57  86 111 151 197 243 282 346
#     4   9  22  36  60  86 115 157 196 243 293 350
#     4  11  22  37  60  91 117 155 195 249 295 350
#     4  10  18  37  61  82 113 157 196 241 292 348
#     4  10  20  37  62  86 117 154 205 236 298 354
#     4  11  22  36  58  88 121 150 199 241 293 348
#
# _framework density 18.834758000000001
#
# number of rings (size 3 to 8) (size 9 to 14) (size 15 to 20)
#    0.000    2.000    3.750    0.000    0.000    2.000 
#    2.250    0.000    8.250    0.000    0.000    0.000 
#    0.000    0.000    0.000    0.000    0.000    0.000 
#
# Total GULP energy -198339.552489 kJ/mol
# GULP energy per Si atom -12396.222031 kJ/mol
# Density = 1.879189 g / cm^3
# Si number density = 18.834758 Si / 1000 Ang^3
#
#
#
# Elastic Constant Matrix: (Units=GPa)
#
#
# Indices 1 2 3 4 5 6 
#
# 1 70.6206 49.7196 21.9971 0.0000 -0.4844 0.0000
# 2 49.7196 104.1142 43.3430 0.0000 2.7092 0.0000
# 3 21.9971 43.3430 70.1902 0.0000 5.9924 0.0000
# 4 0.0000 0.0000 0.0000 21.3104 0.0000 3.4144
# 5 -0.4844 2.7092 5.9924 0.0000 29.1719 0.0000
# 6 0.0000 0.0000 0.0000 3.4144 0.0000 31.7827
#
#
#
# Elastic Compliance Matrix: (Units=1/GPa)
#
#
# Indices 1 2 3 4 5 6 
#
# 1 0.021405 -0.009982 -0.000665 0.000000 0.001419 0.000000
# 2 -0.009982 0.017589 -0.007715 0.000000 -0.000214 0.000000
# 3 -0.000665 -0.007715 0.019501 0.000000 -0.003301 0.000000
# 4 0.000000 0.000000 0.000000 0.047747 0.000000 -0.005129
# 5 0.001419 -0.000214 -0.003301 0.000000 0.035001 0.000000
# 6 0.000000 0.000000 0.000000 -0.005129 0.000000 0.032015
#
#
# Mechanical properties :
#
#
# Convention : Reuss Voigt Hill
#
# Bulk Modulus (GPa) = 45.93273 52.78271 49.35772
# Shear Modulus (GPa) = 23.01619 25.11069 24.06344
#
# Velocity S-wave (km/s) = 3.49951 3.65528 3.57824
# Velocity P-wave (km/s) = 6.38506 6.77493 6.58288
#
# Compressibility (1/GPa) = 0.02177097
#
# Stress axis : x y z
#
# Youngs Moduli (GPa) = 46.71878 56.85434 51.27882
#
# Poissons Ratio (x) = 0.56750 0.03413
# Poissons Ratio (y) = 0.46633 0.39560
# Poissons Ratio (z) = 0.03109 0.43862
#
# Static dielectric constant tensor:
#      x y z
#    x 3.511010 0.000000 0.051350 
#    y 0.000000 3.376090 0.000000 
#    z 0.051350 0.000000 3.302490 
# 
# 
# High freq. dielectric constant tensor:
#      x y z
#    x 1.729860 0.000000 -0.000400 
#    y 0.000000 1.715560 0.000000 
#    z -0.000400 0.000000 1.726120 
# 
# From -- ./inp_files/16797.got.cif
#   From: 2010.06.25/outbox.cif.g09.slc.cpg/sg9_9_cif.got.tgz:16797.got - 2010.06.27 21:40:51.
