data_PCOD8054527
_publ_section_title
;
Structure prediction by ZEFSAII (Michael W. Deem and Ramdas Pophale) SiO2 
 PCOD8054527
Probable space group: C C
;
_chemical_formula_sum "Si O2"
_cell_formula_units_Z 32
_cell_length_a 12.769403
_cell_length_b 25.465220
_cell_length_c 4.936189
_cell_angle_alpha 90.000000
_cell_angle_beta 108.785346
_cell_angle_gamma 90.000000
_cell_volume 1519.625956
_symmetry_space_group_name_H-M "C C"
_symmetry_group_IT_number 9
_symmetry_cell_setting 'monoclinic'
loop_
_space_group_symop_operation_xyz
x,y,z
x,-y,1/2+z
1/2+x,1/2+y,z
1/2+x,1/2-y,1/2+z
loop_
_atom_site_type_symbol
_atom_site_label
_atom_site_fract_x
_atom_site_fract_y
_atom_site_fract_z
Si Si1 0.804290 0.225722 0.509410
Si Si2 0.326988 0.391801 0.991489
Si Si3 0.680787 0.891332 0.338296
Si Si4 0.581614 0.194760 0.408171
Si Si5 0.389085 0.219567 0.564026
Si Si6 0.779533 0.535320 0.813339
Si Si7 0.959938 0.618606 0.890548
Si Si8 0.533043 0.535103 0.689058
O O1 0.853276 0.167632 0.610078
O O2 0.675372 0.223279 0.303749
O O3 0.880278 0.251535 0.342662
O O4 0.796712 0.262210 0.773355
O O5 0.264211 0.389385 0.656324
O O6 0.246132 0.420829 0.146150
O O7 0.442456 0.421042 0.051184
O O8 0.560078 0.914498 0.327373
O O9 0.652690 0.833351 0.204845
O O10 0.501510 0.235704 0.494430
O O11 0.513683 0.153243 0.172601
O O12 0.396190 0.156671 0.622919
O O13 0.796091 0.514158 0.524264
O O14 0.870732 0.579665 0.946180
O O15 0.656081 0.559275 0.749742
O O16 0.517366 0.484973 0.481241
#
# Coordination Sequence:
#
# PCOD8054527 Si02
#       8
#     4   4   4   4   4   4   4   4
#     4  11  22  39  61  90 133 166 215 253 323 375
#     4  11  21  39  66  94 125 170 211 262 313 393
#     4  10  20  36  67  91 122 171 201 247 336 371
#     4  10  22  41  65  86 132 175 203 264 330 374
#     4  11  24  38  61  94 123 176 209 255 312 387
#     4  10  25  44  69  93 124 169 217 269 323 383
#     4  11  22  44  68  92 131 168 215 263 329 381
#     4  10  22  45  67  90 128 173 211 263 332 376
#
# _framework density 21.057815000000002
#
# number of rings (size 3 to 8) (size 9 to 14) (size 15 to 20)
#    0.000    1.500    3.750    2.250    5.250    0.000 
#    4.500    3.750    0.000    0.000    0.000    0.000 
#    0.000    0.000    0.000    0.000    0.000    0.000 
#
# Total GULP energy -198227.594333 kJ/mol
# GULP energy per Si atom -12389.224646 kJ/mol
# Density = 2.100989 g / cm^3
# Si number density = 21.057815 Si / 1000 Ang^3
#
#
#
# Elastic Constant Matrix: (Units=GPa)
#
#
# Indices 1 2 3 4 5 6 
#
# 1 155.7329 62.1999 37.5371 0.0000 4.2207 0.0000
# 2 62.1999 60.7046 25.3220 0.0000 11.5461 0.0000
# 3 37.5371 25.3220 115.2070 0.0000 -0.0847 0.0000
# 4 0.0000 0.0000 0.0000 25.2686 0.0000 6.8712
# 5 4.2207 11.5461 -0.0847 0.0000 36.8901 0.0000
# 6 0.0000 0.0000 0.0000 6.8712 0.0000 32.9883
#
#
#
# Elastic Compliance Matrix: (Units=1/GPa)
#
#
# Indices 1 2 3 4 5 6 
#
# 1 0.011202 -0.011442 -0.001133 0.000000 0.002297 0.000000
# 2 -0.011442 0.031100 -0.003114 0.000000 -0.008432 0.000000
# 3 -0.001133 -0.003114 0.009734 0.000000 0.001127 0.000000
# 4 0.000000 0.000000 0.000000 0.041951 0.000000 -0.008738
# 5 0.002297 -0.008432 0.001127 0.000000 0.029486 0.000000
# 6 0.000000 0.000000 0.000000 -0.008738 0.000000 0.032134
#
#
# Mechanical properties :
#
#
# Convention : Reuss Voigt Hill
#
# Bulk Modulus (GPa) = 48.40709 64.64026 56.52368
# Shear Modulus (GPa) = 25.79014 32.80177 29.29596
#
# Velocity S-wave (km/s) = 3.50341 3.95105 3.73395
# Velocity P-wave (km/s) = 6.27716 7.18176 6.74464
#
# Compressibility (1/GPa) = 0.02065813
#
# Stress axis : x y z
#
# Youngs Moduli (GPa) = 89.26781 32.15431 102.72767
#
# Poissons Ratio (x) = 0.36792 0.11642
# Poissons Ratio (y) = 1.02143 0.31986
# Poissons Ratio (z) = 0.10116 0.10012
#
# Static dielectric constant tensor:
#      x y z
#    x 4.438040 0.000000 -0.106810 
#    y 0.000000 3.382330 0.000000 
#    z -0.106810 0.000000 3.868980 
# 
# 
# High freq. dielectric constant tensor:
#      x y z
#    x 1.847860 0.000000 -0.012660 
#    y 0.000000 1.770890 0.000000 
#    z -0.012660 0.000000 1.838670 
# 
# From -- ./inp_files/2176.got.cif
#   From: 2010.06.25/outbox.cif.g09.slc.cpg/sg9_2_cif.got.tgz:2176.got - 2010.06.27 21:40:51.
