data_PCOD8054559
_publ_section_title
;
Structure prediction by ZEFSAII (Michael W. Deem and Ramdas Pophale) SiO2 
 PCOD8054559
Probable space group: C C
;
_chemical_formula_sum "Si O2"
_cell_formula_units_Z 32
_cell_length_a 10.719242
_cell_length_b 14.318285
_cell_length_c 17.108672
_cell_angle_alpha 90.000000
_cell_angle_beta 148.901511
_cell_angle_gamma 90.000000
_cell_volume 1356.284321
_symmetry_space_group_name_H-M "C C"
_symmetry_group_IT_number 9
_symmetry_cell_setting 'monoclinic'
loop_
_space_group_symop_operation_xyz
x,y,z
x,-y,1/2+z
1/2+x,1/2+y,z
1/2+x,1/2-y,1/2+z
loop_
_atom_site_type_symbol
_atom_site_label
_atom_site_fract_x
_atom_site_fract_y
_atom_site_fract_z
Si Si1 0.184010 0.573066 0.099430
Si Si2 0.489144 0.114951 0.446978
Si Si3 0.004274 0.072430 0.134173
Si Si4 0.299805 0.431802 0.830789
Si Si5 0.378064 0.169151 0.806088
Si Si6 0.806622 0.270743 0.989158
Si Si7 0.859124 0.866356 0.019960
Si Si8 0.364306 0.929430 0.139744
O O1 0.112533 0.463546 0.066620
O O2 0.437569 0.577685 0.190234
O O3 0.223077 0.612754 0.206856
O O4 0.985190 0.631996 0.945423
O O5 0.292407 0.066366 0.284977
O O6 0.364451 0.191582 0.434344
O O7 0.669096 0.165976 0.482989
O O8 0.909952 0.165635 0.042127
O O9 0.891153 0.979624 0.036253
O O10 0.084878 0.504432 0.733963
O O11 0.286988 0.349293 0.890151
O O12 0.584333 0.468609 0.977398
O O13 0.397214 0.090610 0.749048
O O14 0.097747 0.191783 0.669522
O O15 0.518870 0.261762 0.852254
O O16 0.909703 0.335515 0.113225
#
# Coordination Sequence:
#
# PCOD8054559 Si02
#       8
#     4   4   4   4   4   4   4   4
#     4  10  20  37  64  98 132 179 235 279 335 419
#     4  11  20  38  63  98 137 175 227 278 346 411
#     4  10  21  37  66  96 130 180 223 284 342 411
#     4  11  23  38  65 100 138 182 237 295 339 425
#     4  10  22  44  70  96 136 185 232 286 352 421
#     4  11  22  39  68 100 138 178 235 286 352 410
#     4  10  23  41  69 101 138 181 230 284 350 419
#     4  11  23  42  65 103 137 182 241 292 356 414
#
# _framework density 23.593872999999999
#
# number of rings (size 3 to 8) (size 9 to 14) (size 15 to 20)
#    0.000    1.500    2.500    3.750    1.750    1.000 
#    0.000    2.500    2.750    0.000    0.000    0.000 
#    0.000    0.000    0.000    0.000    0.000    0.000 
#
# Total GULP energy -198232.410796 kJ/mol
# GULP energy per Si atom -12389.525675 kJ/mol
# Density = 2.354017 g / cm^3
# Si number density = 23.593873 Si / 1000 Ang^3
#
#
#
# Elastic Constant Matrix: (Units=GPa)
#
#
# Indices 1 2 3 4 5 6 
#
# 1 108.6644 23.5020 62.9076 0.0028 -4.8189 0.0001
# 2 23.5020 56.4059 19.8344 0.0030 9.3569 0.0002
# 3 62.9076 19.8344 139.0377 0.0060 1.1400 -0.0006
# 4 0.0028 0.0030 0.0060 28.5980 -0.0004 7.7941
# 5 -4.8189 9.3569 1.1400 -0.0004 49.7798 -0.0006
# 6 0.0001 0.0002 -0.0006 7.7941 -0.0006 38.2478
#
#
#
# Elastic Compliance Matrix: (Units=1/GPa)
#
#
# Indices 1 2 3 4 5 6 
#
# 1 0.013335 -0.003988 -0.005482 0.000000 0.002166 0.000000
# 2 -0.003988 0.020468 -0.001081 -0.000002 -0.004209 0.000000
# 3 -0.005482 -0.001081 0.009832 -0.000002 -0.000553 0.000000
# 4 0.000000 -0.000002 -0.000002 0.037024 0.000001 -0.007545
# 5 0.002166 -0.004209 -0.000553 0.000001 0.021102 0.000000
# 6 0.000000 0.000000 0.000000 -0.007545 0.000000 0.027683
#
#
# Mechanical properties :
#
#
# Convention : Reuss Voigt Hill
#
# Bulk Modulus (GPa) = 44.38006 57.39954 50.88980
# Shear Modulus (GPa) = 31.63428 36.51606 34.07517
#
# Velocity S-wave (km/s) = 3.66564 3.93834 3.80444
# Velocity P-wave (km/s) = 6.06356 6.71280 6.39642
#
# Compressibility (1/GPa) = 0.02253264
#
# Stress axis : x y z
#
# Youngs Moduli (GPa) = 74.99101 48.85565 101.71362
#
# Poissons Ratio (x) = 0.19482 0.55762
# Poissons Ratio (y) = 0.29904 0.10998
# Poissons Ratio (z) = 0.41112 0.05282
#
# Static dielectric constant tensor:
#      x y z
#    x 4.607360 0.000000 0.243540 
#    y 0.000000 3.914210 -0.000010 
#    z 0.243540 -0.000010 4.451900 
# 
# 
# High freq. dielectric constant tensor:
#      x y z
#    x 1.947590 0.000000 0.003170 
#    y 0.000000 1.904930 0.000000 
#    z 0.003170 0.000000 1.944270 
# 
# From -- ./inp_files/30151.got.cif
#   From: 2010.06.25/outbox.cif.g09.slc.cpg/sg9_16_cif.got.tgz:30151.got - 2010.06.27 21:40:51.
