data_PCOD8054705
_publ_section_title
;
Structure prediction by ZEFSAII (Michael W. Deem and Ramdas Pophale) SiO2 
 PCOD8054705
Probable space group: C C
;
_chemical_formula_sum "Si O2"
_cell_formula_units_Z 24
_cell_length_a 23.678318
_cell_length_b 7.975491
_cell_length_c 11.565756
_cell_angle_alpha 90.000000
_cell_angle_beta 29.533126
_cell_angle_gamma 90.000000
_cell_volume 1076.625421
_symmetry_space_group_name_H-M "C C"
_symmetry_group_IT_number 9
_symmetry_cell_setting 'monoclinic'
loop_
_space_group_symop_operation_xyz
x,y,z
x,-y,1/2+z
1/2+x,1/2+y,z
1/2+x,1/2-y,1/2+z
loop_
_atom_site_type_symbol
_atom_site_label
_atom_site_fract_x
_atom_site_fract_y
_atom_site_fract_z
Si Si1 0.881410 0.760770 0.770650
Si Si2 0.473498 0.716036 0.723078
Si Si3 0.803545 0.404052 0.194575
Si Si4 0.048689 0.159434 0.150615
Si Si5 0.231054 0.726207 0.749459
Si Si6 0.901720 0.103929 0.617362
O O1 0.846715 0.602851 0.751601
O O2 0.987465 0.715223 0.667445
O O3 0.920455 0.909552 0.615283
O O4 0.775347 0.816813 0.041643
O O5 0.502408 0.526836 0.706284
O O6 0.596134 0.805315 0.490426
O O7 0.399630 0.715825 0.736829
O O8 0.398867 0.815897 0.947647
O O9 0.682971 0.305663 0.401139
O O10 0.778026 0.590062 0.198928
O O11 0.006315 0.185562 0.357262
O O12 0.284158 0.607203 0.753588
#
# Coordination Sequence:
#
# PCOD8054705 Si02
#       6
#     4   4   4   4   4   4
#     4  10  21  41  64  88 123 170 212 254 320 381
#     4  10  21  39  61  92 127 164 208 260 318 372
#     4  11  22  39  66  92 124 166 212 259 319 371
#     4   9  20  40  65  88 123 170 208 255 315 378
#     4  10  24  41  60  95 128 160 213 266 309 376
#     4  10  20  42  64  85 127 166 207 258 319 374
#
# _framework density 22.291875999999998
#
# number of rings (size 3 to 8) (size 9 to 14) (size 15 to 20)
#    0.000    2.000    1.667    1.000    2.333    1.333 
#    9.000    0.000    0.000    0.000    0.000    0.000 
#    0.000    0.000    0.000    0.000    0.000    0.000 
#
# Total GULP energy -148715.293828 kJ/mol
# GULP energy per Si atom -12392.941152 kJ/mol
# Density = 2.224114 g / cm^3
# Si number density = 22.291876 Si / 1000 Ang^3
#
#
#
# Elastic Constant Matrix: (Units=GPa)
#
#
# Indices 1 2 3 4 5 6 
#
# 1 101.1856 23.2244 36.9286 0.0000 24.5663 0.0000
# 2 23.2244 28.9829 15.7517 0.0000 -1.2194 0.0000
# 3 36.9286 15.7517 128.2334 0.0000 -4.5125 0.0000
# 4 0.0000 0.0000 0.0000 24.3523 0.0000 -8.1127
# 5 24.5663 -1.2194 -4.5125 0.0000 32.0407 0.0000
# 6 0.0000 0.0000 0.0000 -8.1127 0.0000 23.4028
#
#
#
# Elastic Compliance Matrix: (Units=1/GPa)
#
#
# Indices 1 2 3 4 5 6 
#
# 1 0.017892 -0.012726 -0.004110 0.000000 -0.014781 0.000000
# 2 -0.012726 0.046041 -0.001594 0.000000 0.011285 0.000000
# 3 -0.004110 -0.001594 0.009333 0.000000 0.004405 0.000000
# 4 0.000000 0.000000 0.000000 0.046425 0.000000 0.016094
# 5 -0.014781 0.011285 0.004405 0.000000 0.043593 0.000000
# 6 0.000000 0.000000 0.000000 0.016094 0.000000 0.048309
#
#
# Mechanical properties :
#
#
# Convention : Reuss Voigt Hill
#
# Bulk Modulus (GPa) = 27.46638 45.57903 36.52271
# Shear Modulus (GPa) = 19.18742 28.12563 23.65653
#
# Velocity S-wave (km/s) = 2.93701 3.55589 3.26117
# Velocity P-wave (km/s) = 4.88358 6.11147 5.53170
#
# Compressibility (1/GPa) = 0.03640814
#
# Stress axis : x y z
#
# Youngs Moduli (GPa) = 55.89039 21.71964 107.15229
#
# Poissons Ratio (x) = 0.27640 0.44035
# Poissons Ratio (y) = 0.71124 0.17077
# Poissons Ratio (z) = 0.22969 0.03461
#
# Static dielectric constant tensor:
#      x y z
#    x 4.390790 0.000000 0.035830 
#    y 0.000000 3.786320 0.000000 
#    z 0.035830 0.000000 4.103070 
# 
# 
# High freq. dielectric constant tensor:
#      x y z
#    x 1.896120 0.000000 0.008510 
#    y 0.000000 1.849150 0.000000 
#    z 0.008510 0.000000 1.878580 
# 
# From -- ./inp_files/15844.got.cif
#   From: 2010.06.25/outbox.cif.g09.slc.cpg/sg9_8_cif.got.tgz:15844.got - 2010.06.27 21:40:51.
