data_PCOD8054424
_publ_section_title
;
Structure prediction by ZEFSAII (Michael W. Deem and Ramdas Pophale) SiO2 
 PCOD8054424
Probable space group: C C
;
_chemical_formula_sum "Si O2"
_cell_formula_units_Z 28
_cell_length_a 11.189079
_cell_length_b 8.859195
_cell_length_c 14.170335
_cell_angle_alpha 90.000000
_cell_angle_beta 100.141467
_cell_angle_gamma 90.000000
_cell_volume 1382.705648
_symmetry_space_group_name_H-M "C C"
_symmetry_group_IT_number 9
_symmetry_cell_setting 'monoclinic'
loop_
_space_group_symop_operation_xyz
x,y,z
x,-y,1/2+z
1/2+x,1/2+y,z
1/2+x,1/2-y,1/2+z
loop_
_atom_site_type_symbol
_atom_site_label
_atom_site_fract_x
_atom_site_fract_y
_atom_site_fract_z
Si Si1 0.685270 0.199378 0.804100
Si Si2 0.211246 0.571914 0.994959
Si Si3 0.550251 0.987783 0.143230
Si Si4 0.137742 0.008098 0.385266
Si Si5 0.278801 0.887031 0.079972
Si Si6 0.859766 0.043441 0.362385
Si Si7 0.681276 0.737472 0.748471
O O1 0.595071 0.158311 0.707067
O O2 0.700530 0.378865 0.817768
O O3 0.816402 0.116504 0.808752
O O4 0.629982 0.137277 0.896739
O O5 0.122708 0.489146 0.054871
O O6 0.287304 0.711392 0.050310
O O7 0.308005 0.452657 0.963502
O O8 0.408513 0.967303 0.105889
O O9 0.577249 0.142947 0.203469
O O10 0.136946 0.844014 0.337761
O O11 0.206339 0.010324 0.494750
O O12 0.001934 0.062623 0.384699
O O13 0.208307 0.884999 0.170252
O O14 0.805851 0.176781 0.290714
#
# Coordination Sequence:
#
# PCOD8054424 Si02
#       7
#     4   4   4   4   4   4   4
#     4   8  19  39  59  89 117 161 202 245 306 354
#     4   8  19  39  61  90 117 159 203 246 302 362
#     4  10  19  39  67  87 121 164 202 251 308 362
#     4  11  22  41  62  90 126 160 202 256 301 360
#     4  10  22  39  61  94 125 157 202 256 306 354
#     4   9  20  42  63  85 124 160 201 249 302 364
#     4  10  23  41  61  93 122 165 204 247 307 358
#
# _framework density 20.250152
#
# number of rings (size 3 to 8) (size 9 to 14) (size 15 to 20)
#    0.857    1.714    0.000    0.857    0.000    6.857 
#   12.857    0.000    0.000    0.000    0.000    0.000 
#    0.000    0.000    0.000    0.000    0.000    0.000 
#
# Total GULP energy -173461.463139 kJ/mol
# GULP energy per Si atom -12390.104510 kJ/mol
# Density = 2.020406 g / cm^3
# Si number density = 20.250152 Si / 1000 Ang^3
#
#
#
# Elastic Constant Matrix: (Units=GPa)
#
#
# Indices 1 2 3 4 5 6 
#
# 1 98.9902 31.5531 43.1338 0.0000 25.3973 0.0000
# 2 31.5531 55.3454 29.9967 0.0000 1.0767 0.0000
# 3 43.1338 29.9967 107.1861 0.0000 10.9989 0.0000
# 4 0.0000 0.0000 0.0000 39.6299 0.0000 -1.8899
# 5 25.3973 1.0767 10.9989 0.0000 33.5116 0.0000
# 6 0.0000 0.0000 0.0000 -1.8899 0.0000 21.4055
#
#
#
# Elastic Compliance Matrix: (Units=1/GPa)
#
#
# Indices 1 2 3 4 5 6 
#
# 1 0.016998 -0.007542 -0.003552 0.000000 -0.011474 0.000000
# 2 -0.007542 0.024702 -0.004536 0.000000 0.006411 0.000000
# 3 -0.003552 -0.004536 0.012146 0.000000 -0.001149 0.000000
# 4 0.000000 0.000000 0.000000 0.025340 0.000000 0.002237
# 5 -0.011474 0.006411 -0.001149 0.000000 0.038707 0.000000
# 6 0.000000 0.000000 0.000000 0.002237 0.000000 0.046914
#
#
# Mechanical properties :
#
#
# Convention : Reuss Voigt Hill
#
# Bulk Modulus (GPa) = 44.27566 52.32098 48.29832
# Shear Modulus (GPa) = 24.55850 29.36529 26.96190
#
# Velocity S-wave (km/s) = 3.48624 3.81218 3.65285
# Velocity P-wave (km/s) = 6.17390 6.72833 6.45707
#
# Compressibility (1/GPa) = 0.02258577
#
# Stress axis : x y z
#
# Youngs Moduli (GPa) = 58.83192 40.48293 82.33018
#
# Poissons Ratio (x) = 0.30533 0.29244
# Poissons Ratio (y) = 0.44372 0.37342
# Poissons Ratio (z) = 0.20898 0.18362
#
# Static dielectric constant tensor:
#      x y z
#    x 3.251930 0.000000 -0.000680 
#    y 0.000000 3.563890 0.000000 
#    z -0.000680 0.000000 3.850960 
# 
# 
# High freq. dielectric constant tensor:
#      x y z
#    x 1.762110 0.000000 0.004090 
#    y 0.000000 1.779870 0.000000 
#    z 0.004090 0.000000 1.802520 
# 
# From -- ./inp_files/24109.got.cif
#   From: 2010.06.25/outbox.cif.g09.slc.cpg/sg9_13_cif.got.tgz:24109.got - 2010.06.27 21:40:51.
