data_PCOD8054935
_publ_section_title
;
Structure prediction by ZEFSAII (Michael W. Deem and Ramdas Pophale) SiO2 
 PCOD8054935
Probable space group: C C
;
_chemical_formula_sum "Si O2"
_cell_formula_units_Z 32
_cell_length_a 11.157701
_cell_length_b 11.448289
_cell_length_c 11.769562
_cell_angle_alpha 90.000000
_cell_angle_beta 86.049333
_cell_angle_gamma 90.000000
_cell_volume 1499.831190
_symmetry_space_group_name_H-M "C C"
_symmetry_group_IT_number 9
_symmetry_cell_setting 'monoclinic'
loop_
_space_group_symop_operation_xyz
x,y,z
x,-y,1/2+z
1/2+x,1/2+y,z
1/2+x,1/2-y,1/2+z
loop_
_atom_site_type_symbol
_atom_site_label
_atom_site_fract_x
_atom_site_fract_y
_atom_site_fract_z
Si Si1 0.809780 0.299693 0.655970
Si Si2 0.693692 0.512227 0.536440
Si Si3 0.048452 0.379995 0.008057
Si Si4 0.849578 0.322298 0.173803
Si Si5 0.376137 0.024429 0.337246
Si Si6 0.261573 0.370025 0.843442
Si Si7 0.712065 0.060648 0.683384
Si Si8 0.426414 0.400923 0.030574
O O1 0.727368 0.387049 0.587706
O O2 0.877103 0.364505 0.753943
O O3 0.719352 0.200024 0.710781
O O4 0.914488 0.234948 0.574417
O O5 0.744185 0.612552 0.614336
O O6 0.746463 0.517070 0.405968
O O7 0.553206 0.536875 0.534322
O O8 0.161161 0.315409 0.937354
O O9 0.976910 0.462729 0.926846
O O10 0.101514 0.463017 0.104390
O O11 0.955560 0.290149 0.076030
O O12 0.904082 0.405748 0.268063
O O13 0.790643 0.210448 0.234827
O O14 0.198620 0.487047 0.799004
O O15 0.383717 0.401459 0.901747
O O16 0.835086 0.020931 0.611739
#
# Coordination Sequence:
#
# PCOD8054935 Si02
#       8
#     4   4   4   4   4   4   4   4
#     4   9  21  43  61  95 140 165 225 290 333 413
#     4  10  21  41  65 100 130 177 230 277 346 417
#     4  10  22  42  63  94 128 177 225 274 343 412
#     4  10  23  40  64  98 126 177 229 279 345 417
#     4  10  21  40  66  94 129 176 223 281 347 405
#     4  11  22  43  63  94 135 178 226 277 356 412
#     4   9  22  42  60  94 134 176 219 282 343 406
#     4   9  22  41  62  99 132 178 223 288 339 410
#
# _framework density 21.335735
#
# number of rings (size 3 to 8) (size 9 to 14) (size 15 to 20)
#    0.750    1.500    0.000    1.500    1.750    4.000 
#   13.500    0.000    0.000    0.000    0.000    0.000 
#    0.000    0.000    0.000    0.000    0.000    0.000 
#
# Total GULP energy -198255.793947 kJ/mol
# GULP energy per Si atom -12390.987122 kJ/mol
# Density = 2.128717 g / cm^3
# Si number density = 21.335735 Si / 1000 Ang^3
#
#
#
# Elastic Constant Matrix: (Units=GPa)
#
#
# Indices 1 2 3 4 5 6 
#
# 1 122.2438 26.7153 32.6408 0.0000 -3.0838 0.0000
# 2 26.7153 94.0628 43.0532 0.0000 0.5270 0.0000
# 3 32.6408 43.0532 93.3122 0.0000 4.3913 0.0000
# 4 0.0000 0.0000 0.0000 25.6431 0.0000 -2.6641
# 5 -3.0838 0.5270 4.3913 0.0000 41.4342 0.0000
# 6 0.0000 0.0000 0.0000 -2.6641 0.0000 24.5876
#
#
#
# Elastic Compliance Matrix: (Units=1/GPa)
#
#
# Indices 1 2 3 4 5 6 
#
# 1 0.009214 -0.001428 -0.002611 0.000000 0.000981 0.000000
# 2 -0.001428 0.013708 -0.005841 0.000000 0.000339 0.000000
# 3 -0.002611 -0.005841 0.014403 0.000000 -0.001646 0.000000
# 4 0.000000 0.000000 0.000000 0.039441 0.000000 0.004274
# 5 0.000981 0.000339 -0.001646 0.000000 0.024378 0.000000
# 6 0.000000 0.000000 0.000000 0.004274 0.000000 0.041134
#
#
# Mechanical properties :
#
#
# Convention : Reuss Voigt Hill
#
# Bulk Modulus (GPa) = 56.92863 57.15972 57.04417
# Shear Modulus (GPa) = 29.78097 32.14694 30.96395
#
# Velocity S-wave (km/s) = 3.74013 3.88586 3.81369
# Velocity P-wave (km/s) = 6.73733 6.85434 6.79609
#
# Compressibility (1/GPa) = 0.01756585
#
# Stress axis : x y z
#
# Youngs Moduli (GPa) = 108.52849 72.94781 69.43191
#
# Poissons Ratio (x) = 0.10414 0.18126
# Poissons Ratio (y) = 0.15493 0.40559
# Poissons Ratio (z) = 0.28333 0.42612
#
# Static dielectric constant tensor:
#      x y z
#    x 3.749090 0.000000 -0.069940 
#    y 0.000000 3.521180 0.000000 
#    z -0.069940 0.000000 4.041550 
# 
# 
# High freq. dielectric constant tensor:
#      x y z
#    x 1.836180 0.000000 0.002780 
#    y 0.000000 1.807610 0.000000 
#    z 0.002780 0.000000 1.849780 
# 
# From -- ./inp_files/16446.got.cif
#   From: 2010.06.25/outbox.cif.g09.slc.cpg/sg9_9_cif.got.tgz:16446.got - 2010.06.27 21:40:51.
