data_PCOD8054674
_publ_section_title
;
Structure prediction by ZEFSAII (Michael W. Deem and Ramdas Pophale) SiO2 
 PCOD8054674
Probable space group: C C
;
_chemical_formula_sum "Si O2"
_cell_formula_units_Z 28
_cell_length_a 20.128678
_cell_length_b 9.034554
_cell_length_c 14.112025
_cell_angle_alpha 90.000000
_cell_angle_beta 31.959754
_cell_angle_gamma 90.000000
_cell_volume 1358.414900
_symmetry_space_group_name_H-M "C C"
_symmetry_group_IT_number 9
_symmetry_cell_setting 'monoclinic'
loop_
_space_group_symop_operation_xyz
x,y,z
x,-y,1/2+z
1/2+x,1/2+y,z
1/2+x,1/2-y,1/2+z
loop_
_atom_site_type_symbol
_atom_site_label
_atom_site_fract_x
_atom_site_fract_y
_atom_site_fract_z
Si Si1 0.418390 0.133323 0.850190
Si Si2 0.857065 0.251831 0.179957
Si Si3 0.629720 0.042145 0.444474
Si Si4 0.744742 0.840723 0.454347
Si Si5 0.738867 0.499073 0.938212
Si Si6 0.454706 0.569081 0.234114
Si Si7 0.035513 0.427837 0.855186
O O1 0.518587 0.098321 0.645820
O O2 0.410786 0.312349 0.867813
O O3 0.462709 0.063202 0.894333
O O4 0.280063 0.071231 0.989586
O O5 0.728467 0.173709 0.309432
O O6 0.822739 0.414864 0.260444
O O7 0.939882 0.152162 0.151264
O O8 0.943406 0.287264 0.984492
O O9 0.583979 0.001754 0.394869
O O10 0.695751 0.902204 0.413198
O O11 0.779156 0.671458 0.393768
O O12 0.643301 0.861413 0.659205
O O13 0.869080 0.923957 0.339611
O O14 0.593684 0.516315 0.089905
#
# Coordination Sequence:
#
# PCOD8054674 Si02
#       7
#     4   4   4   4   4   4   4
#     4  10  22  39  65  91 120 172 211 252 315 380
#     4  10  20  40  71  92 119 173 212 252 323 386
#     4  10  20  43  64  89 128 165 209 259 317 380
#     4  10  26  38  65  95 125 166 212 267 315 366
#     4  11  21  40  66  91 127 165 209 263 313 376
#     4  10  21  43  66  88 128 173 209 253 324 379
#     4  11  22  39  67  90 125 162 218 262 305 375
#
# _framework density 20.612259999999999
#
# number of rings (size 3 to 8) (size 9 to 14) (size 15 to 20)
#    0.000    1.714    4.286    0.000    8.000    0.000 
#    2.571    0.000    0.000    0.000    0.000    0.000 
#    0.000    0.000    0.000    0.000    0.000    0.000 
#
# Total GULP energy -173514.183966 kJ/mol
# GULP energy per Si atom -12393.870283 kJ/mol
# Density = 2.056535 g / cm^3
# Si number density = 20.612260 Si / 1000 Ang^3
#
#
#
# Elastic Constant Matrix: (Units=GPa)
#
#
# Indices 1 2 3 4 5 6 
#
# 1 144.7050 51.0003 58.4426 0.0000 -13.2965 0.0000
# 2 51.0003 155.0450 46.6950 0.0000 -14.5516 0.0000
# 3 58.4426 46.6950 95.3782 0.0000 -15.2509 0.0000
# 4 0.0000 0.0000 0.0000 28.3533 0.0000 -7.2496
# 5 -13.2965 -14.5516 -15.2509 0.0000 40.5476 0.0000
# 6 0.0000 0.0000 0.0000 -7.2496 0.0000 29.0469
#
#
#
# Elastic Compliance Matrix: (Units=1/GPa)
#
#
# Indices 1 2 3 4 5 6 
#
# 1 0.009533 -0.001577 -0.004958 0.000000 0.000695 0.000000
# 2 -0.001577 0.007902 -0.002694 0.000000 0.001306 0.000000
# 3 -0.004958 -0.002694 0.015350 0.000000 0.003181 0.000000
# 4 0.000000 0.000000 0.000000 0.037673 0.000000 0.009403
# 5 0.000695 0.001306 0.003181 0.000000 0.026555 0.000000
# 6 0.000000 0.000000 0.000000 0.009403 0.000000 0.036774
#
#
# Mechanical properties :
#
#
# Convention : Reuss Voigt Hill
#
# Bulk Modulus (GPa) = 69.79538 78.60044 74.19791
# Shear Modulus (GPa) = 31.84299 35.52224 33.68262
#
# Velocity S-wave (km/s) = 3.93473 4.15583 4.04679
# Velocity P-wave (km/s) = 7.38765 7.82583 7.60990
#
# Compressibility (1/GPa) = 0.01432759
#
# Stress axis : x y z
#
# Youngs Moduli (GPa) = 104.90198 126.54494 65.14760
#
# Poissons Ratio (x) = 0.19960 0.32299
# Poissons Ratio (y) = 0.16546 0.17548
# Poissons Ratio (z) = 0.52008 0.34086
#
# Static dielectric constant tensor:
#      x y z
#    x 3.991410 0.000000 -0.251850 
#    y 0.000000 3.852120 0.000000 
#    z -0.251850 0.000000 3.599810 
# 
# 
# High freq. dielectric constant tensor:
#      x y z
#    x 1.816570 0.000000 -0.027330 
#    y 0.000000 1.805810 0.000000 
#    z -0.027330 0.000000 1.791540 
# 
# From -- ./inp_files/17806.got.cif
#   From: 2010.06.25/outbox.cif.g09.slc.cpg/sg9_9_cif.got.tgz:17806.got - 2010.06.27 21:40:51.
