data_PCOD8054482
_publ_section_title
;
Structure prediction by ZEFSAII (Michael W. Deem and Ramdas Pophale) SiO2 
 PCOD8054482
Probable space group: C C
;
_chemical_formula_sum "Si O2"
_cell_formula_units_Z 28
_cell_length_a 18.583902
_cell_length_b 15.684845
_cell_length_c 5.187898
_cell_angle_alpha 90.000000
_cell_angle_beta 105.107434
_cell_angle_gamma 90.000000
_cell_volume 1459.934346
_symmetry_space_group_name_H-M "C C"
_symmetry_group_IT_number 9
_symmetry_cell_setting 'monoclinic'
loop_
_space_group_symop_operation_xyz
x,y,z
x,-y,1/2+z
1/2+x,1/2+y,z
1/2+x,1/2-y,1/2+z
loop_
_atom_site_type_symbol
_atom_site_label
_atom_site_fract_x
_atom_site_fract_y
_atom_site_fract_z
Si Si1 0.835800 0.957141 0.645360
Si Si2 0.997510 0.756512 0.765357
Si Si3 0.006493 0.957345 0.786513
Si Si4 0.682006 0.944991 0.847745
Si Si5 0.326570 0.741018 0.063529
Si Si6 0.579277 0.200383 0.343204
Si Si7 0.240936 0.266429 0.973852
O O1 0.796654 0.009774 0.374665
O O2 0.826486 0.859813 0.582669
O O3 0.920898 0.986509 0.740118
O O4 0.911871 0.728400 0.646975
O O5 0.012095 0.856956 0.746017
O O6 0.044546 0.707061 0.594864
O O7 0.020752 0.730506 0.074340
O O8 0.044782 0.008887 0.585728
O O9 0.601581 0.898444 0.813744
O O10 0.687882 0.975860 0.553100
O O11 0.744067 0.869652 0.954438
O O12 0.280830 0.777530 0.264401
O O13 0.285300 0.768452 0.763989
O O14 0.653538 0.260653 0.402202
#
# Coordination Sequence:
#
# PCOD8054482 Si02
#       7
#     4   4   4   4   4   4   4
#     4   9  17  26  38  61  95 131 164 194 235 288
#     4  11  20  35  55  75 109 149 184 233 268 313
#     4   9  17  29  45  69 101 132 169 209 254 311
#     4  10  20  35  54  75 109 150 190 223 263 328
#     4  11  20  32  48  75 101 142 177 228 251 320
#     4  10  22  36  53  75 109 145 189 227 275 323
#     4  10  22  33  49  72 110 133 181 220 264 329
#
# _framework density 19.178944999999999
#
# number of rings (size 3 to 8) (size 9 to 14) (size 15 to 20)
#    0.857    1.143    0.000    5.143    0.000    8.000 
#    0.000    0.000    0.000    0.000    0.000    0.000 
#    0.000   80.000    0.000    0.000    0.000    0.000 
#
# Total GULP energy -173524.640797 kJ/mol
# GULP energy per Si atom -12394.617200 kJ/mol
# Density = 1.913529 g / cm^3
# Si number density = 19.178945 Si / 1000 Ang^3
#
#
#
# Elastic Constant Matrix: (Units=GPa)
#
#
# Indices 1 2 3 4 5 6 
#
# 1 94.4434 8.2701 35.3773 0.0000 -1.4383 0.0000
# 2 8.2701 26.0961 12.2675 0.0000 -2.7599 0.0000
# 3 35.3773 12.2675 140.6250 0.0000 -10.3276 0.0000
# 4 0.0000 0.0000 0.0000 18.8282 0.0000 -4.1841
# 5 -1.4383 -2.7599 -10.3276 0.0000 42.1467 0.0000
# 6 0.0000 0.0000 0.0000 -4.1841 0.0000 27.8584
#
#
#
# Elastic Compliance Matrix: (Units=1/GPa)
#
#
# Indices 1 2 3 4 5 6 
#
# 1 0.011847 -0.002487 -0.002796 0.000000 -0.000444 0.000000
# 2 -0.002487 0.040614 -0.002778 0.000000 0.001894 0.000000
# 3 -0.002796 -0.002778 0.008184 0.000000 0.001728 0.000000
# 4 0.000000 0.000000 0.000000 0.054946 0.000000 0.008252
# 5 -0.000444 0.001894 0.001728 0.000000 0.024259 0.000000
# 6 0.000000 0.000000 0.000000 0.008252 0.000000 0.037135
#
#
# Mechanical properties :
#
#
# Convention : Reuss Voigt Hill
#
# Bulk Modulus (GPa) = 22.46055 41.44381 31.95218
# Shear Modulus (GPa) = 24.04450 31.44996 27.74723
#
# Velocity S-wave (km/s) = 3.54459 4.05386 3.80775
# Velocity P-wave (km/s) = 5.33748 6.60058 6.00234
#
# Compressibility (1/GPa) = 0.04452250
#
# Stress axis : x y z
#
# Youngs Moduli (GPa) = 84.41174 24.62186 122.19324
#
# Poissons Ratio (x) = 0.06123 0.34164
# Poissons Ratio (y) = 0.20993 0.33949
# Poissons Ratio (z) = 0.23601 0.06841
#
# Static dielectric constant tensor:
#      x y z
#    x 3.658040 0.000000 -0.075830 
#    y 0.000000 2.962270 0.000000 
#    z -0.075830 0.000000 3.790080 
# 
# 
# High freq. dielectric constant tensor:
#      x y z
#    x 1.745780 0.000000 -0.013870 
#    y 0.000000 1.685250 0.000000 
#    z -0.013870 0.000000 1.772480 
# 
# From -- ./inp_files/2902.got.cif
#   From: 2010.06.25/outbox.cif.g09.slc.cpg/sg9_2_cif.got.tgz:2902.got - 2010.06.27 21:40:51.
