data_PCOD8054317
_publ_section_title
;
Structure prediction by ZEFSAII (Michael W. Deem and Ramdas Pophale) SiO2 
 PCOD8054317
Probable space group: C C
;
_chemical_formula_sum "Si O2"
_cell_formula_units_Z 32
_cell_length_a 13.043998
_cell_length_b 21.892820
_cell_length_c 10.257124
_cell_angle_alpha 90.000000
_cell_angle_beta 32.608317
_cell_angle_gamma 90.000000
_cell_volume 1578.485634
_symmetry_space_group_name_H-M "C C"
_symmetry_group_IT_number 9
_symmetry_cell_setting 'monoclinic'
loop_
_space_group_symop_operation_xyz
x,y,z
x,-y,1/2+z
1/2+x,1/2+y,z
1/2+x,1/2-y,1/2+z
loop_
_atom_site_type_symbol
_atom_site_label
_atom_site_fract_x
_atom_site_fract_y
_atom_site_fract_z
Si Si1 0.988740 0.397128 0.694750
Si Si2 0.987184 0.178532 0.246977
Si Si3 0.682678 0.452105 0.847492
Si Si4 0.011394 0.472988 0.289994
Si Si5 0.686724 0.222623 0.390832
Si Si6 0.298342 0.604732 0.650027
Si Si7 0.243758 0.076687 0.880693
Si Si8 0.874063 0.329042 0.057830
O O1 0.791153 0.406003 0.828886
O O2 0.056576 0.457056 0.702220
O O3 0.156302 0.377385 0.417823
O O4 0.955958 0.339384 0.825961
O O5 0.861507 0.181149 0.249614
O O6 0.854980 0.168549 0.516163
O O7 0.114290 0.240306 0.099355
O O8 0.120254 0.119040 0.108141
O O9 0.827894 0.471498 0.579022
O O10 0.630435 0.513644 0.982008
O O11 0.487781 0.424653 0.005453
O O12 0.950730 0.436249 0.224427
O O13 0.195752 0.442439 0.159797
O O14 0.742457 0.268978 0.212744
O O15 0.533450 0.177074 0.498524
O O16 0.263898 0.109797 0.719171
#
# Coordination Sequence:
#
# PCOD8054317 Si02
#       8
#     4   4   4   4   4   4   4   4
#     4  10  23  38  56  87 129 158 188 232 297 355
#     4  10  20  38  60  88 110 152 199 256 292 337
#     4  10  21  38  55  89 125 158 190 225 286 372
#     4  10  20  37  57  88 123 155 194 232 281 361
#     4   9  21  38  64  85 107 145 217 253 293 334
#     4  11  23  37  60  89 123 158 195 233 293 357
#     4  10  19  34  62  84 119 155 186 246 298 335
#     4  10  19  40  58  84 116 151 193 257 294 339
#
# _framework density 20.272596
#
# number of rings (size 3 to 8) (size 9 to 14) (size 15 to 20)
#    0.000    2.000    2.500    0.750    1.750    1.000 
#    6.750    1.250    0.000    0.000    0.000    0.000 
#    0.000    0.000    0.000    0.000    0.000    0.000 
#
# Total GULP energy -198284.214778 kJ/mol
# GULP energy per Si atom -12392.763424 kJ/mol
# Density = 2.022645 g / cm^3
# Si number density = 20.272596 Si / 1000 Ang^3
#
#
#
# Elastic Constant Matrix: (Units=GPa)
#
#
# Indices 1 2 3 4 5 6 
#
# 1 85.9084 36.5747 38.3164 0.0000 -6.5211 0.0000
# 2 36.5747 68.6056 35.5500 0.0006 5.4147 0.0001
# 3 38.3164 35.5500 98.4519 -0.0050 9.6890 0.0002
# 4 0.0000 0.0006 -0.0050 19.1014 0.0018 7.5713
# 5 -6.5211 5.4147 9.6890 0.0018 41.9241 -0.0006
# 6 0.0000 0.0001 0.0002 7.5713 -0.0006 24.1589
#
#
#
# Elastic Compliance Matrix: (Units=1/GPa)
#
#
# Indices 1 2 3 4 5 6 
#
# 1 0.017028 -0.007101 -0.004517 -0.000002 0.004610 0.000001
# 2 -0.007101 0.020922 -0.004519 -0.000002 -0.002762 0.000000
# 3 -0.004517 -0.004519 0.013874 0.000005 -0.003325 -0.000002
# 4 -0.000002 -0.000002 0.000005 0.059778 -0.000004 -0.018734
# 5 0.004610 -0.002762 -0.003325 -0.000004 0.025695 0.000002
# 6 0.000001 0.000000 -0.000002 -0.018734 0.000002 0.047264
#
#
# Mechanical properties :
#
#
# Convention : Reuss Voigt Hill
#
# Bulk Modulus (GPa) = 51.15107 52.64980 51.90044
# Shear Modulus (GPa) = 22.38637 26.53852 24.46245
#
# Velocity S-wave (km/s) = 3.32666 3.62205 3.47749
# Velocity P-wave (km/s) = 6.32787 6.59694 6.46381
#
# Compressibility (1/GPa) = 0.01954993
#
# Stress axis : x y z
#
# Youngs Moduli (GPa) = 58.72689 47.79761 72.07706
#
# Poissons Ratio (x) = 0.33943 0.32554
# Poissons Ratio (y) = 0.41704 0.32571
# Poissons Ratio (z) = 0.26524 0.21600
#
# Static dielectric constant tensor:
#      x y z
#    x 3.658790 0.000000 0.012050 
#    y 0.000000 3.523950 0.000000 
#    z 0.012050 0.000000 3.824320 
# 
# 
# High freq. dielectric constant tensor:
#      x y z
#    x 1.782830 0.000000 -0.005030 
#    y 0.000000 1.776490 0.000000 
#    z -0.005030 0.000000 1.793010 
# 
# From -- ./inp_files/18622.got.cif
#   From: 2010.06.25/outbox.cif.g09.slc.cpg/sg9_10_cif.got.tgz:18622.got - 2010.06.27 21:40:51.
