data_PCOD8054441
_publ_section_title
;
Structure prediction by ZEFSAII (Michael W. Deem and Ramdas Pophale) SiO2 
 PCOD8054441
Probable space group: C C
;
_chemical_formula_sum "Si O2"
_cell_formula_units_Z 32
_cell_length_a 7.213009
_cell_length_b 25.911317
_cell_length_c 9.345262
_cell_angle_alpha 90.000000
_cell_angle_beta 73.925596
_cell_angle_gamma 90.000000
_cell_volume 1678.328492
_symmetry_space_group_name_H-M "C C"
_symmetry_group_IT_number 9
_symmetry_cell_setting 'monoclinic'
loop_
_space_group_symop_operation_xyz
x,y,z
x,-y,1/2+z
1/2+x,1/2+y,z
1/2+x,1/2-y,1/2+z
loop_
_atom_site_type_symbol
_atom_site_label
_atom_site_fract_x
_atom_site_fract_y
_atom_site_fract_z
Si Si1 0.300170 0.413707 0.488530
Si Si2 0.790174 0.270121 0.783048
Si Si3 0.852067 0.118832 0.660689
Si Si4 0.150181 0.203100 0.614532
Si Si5 0.938598 0.021461 0.465387
Si Si6 0.407680 0.862371 0.575795
Si Si7 0.995310 0.688003 0.760399
Si Si8 0.098302 0.944532 0.628606
O O1 0.377461 0.391454 0.323264
O O2 0.277124 0.476387 0.473156
O O3 0.450435 0.404051 0.585520
O O4 0.117007 0.381503 0.578494
O O5 0.808853 0.328123 0.719767
O O6 0.606544 0.242663 0.747807
O O7 0.990615 0.240490 0.716807
O O8 0.754527 0.269785 0.959726
O O9 0.837934 0.067750 0.569992
O O10 0.650292 0.146810 0.669958
O O11 0.040702 0.152145 0.579446
O O12 0.314766 0.190680 0.693875
O O13 0.032649 0.041707 0.301236
O O14 0.106963 0.996771 0.530439
O O15 0.411884 0.828912 0.431177
O O16 0.301979 0.916878 0.581873
#
# Coordination Sequence:
#
# PCOD8054441 Si02
#       8
#     4   4   4   4   4   4   4   4
#     4   9  20  39  57  86 122 157 194 248 299 352
#     4  11  24  42  62  95 128 153 213 258 300 380
#     4  10  20  41  61  88 125 154 207 248 298 371
#     4  11  24  40  65  91 124 166 200 257 314 360
#     4  10  19  41  59  86 125 159 195 256 295 357
#     4  11  22  41  63  91 120 161 205 250 304 371
#     4  10  24  41  65  92 121 164 199 255 315 366
#     4  10  21  37  60  87 121 162 199 244 305 355
#
# _framework density 19.066589
#
# number of rings (size 3 to 8) (size 9 to 14) (size 15 to 20)
#    0.750    1.000    2.500    1.500    1.750    2.000 
#    9.000    0.000    0.000    0.000    0.000    0.000 
#    0.000    0.000    0.000    0.000    0.000    0.000 
#
# Total GULP energy -198315.080524 kJ/mol
# GULP energy per Si atom -12394.692533 kJ/mol
# Density = 1.902319 g / cm^3
# Si number density = 19.066589 Si / 1000 Ang^3
#
#
#
# Elastic Constant Matrix: (Units=GPa)
#
#
# Indices 1 2 3 4 5 6 
#
# 1 73.6774 20.4881 34.8601 0.0000 2.3461 0.0000
# 2 20.4881 83.2203 31.1266 0.0000 -9.3992 0.0000
# 3 34.8601 31.1266 98.6747 0.0000 -11.4668 0.0000
# 4 0.0000 0.0000 0.0000 27.9206 0.0000 -4.2893
# 5 2.3461 -9.3992 -11.4668 0.0000 20.1255 0.0000
# 6 0.0000 0.0000 0.0000 -4.2893 0.0000 24.5253
#
#
#
# Elastic Compliance Matrix: (Units=1/GPa)
#
#
# Indices 1 2 3 4 5 6 
#
# 1 0.017437 -0.002790 -0.006069 0.000000 -0.006794 0.000000
# 2 -0.002790 0.014408 -0.002934 0.000000 0.005383 0.000000
# 3 -0.006069 -0.002934 0.014058 0.000000 0.007347 0.000000
# 4 0.000000 0.000000 0.000000 0.036805 0.000000 0.006437
# 5 -0.006794 0.005383 0.007347 0.000000 0.057180 0.000000
# 6 0.000000 0.000000 0.000000 0.006437 0.000000 0.041900
#
#
# Mechanical properties :
#
#
# Convention : Reuss Voigt Hill
#
# Bulk Modulus (GPa) = 44.81050 47.61357 46.21203
# Shear Modulus (GPa) = 23.49478 25.78744 24.64111
#
# Velocity S-wave (km/s) = 3.51415 3.68162 3.59886
# Velocity P-wave (km/s) = 6.32604 6.56497 6.44661
#
# Compressibility (1/GPa) = 0.02231620
#
# Stress axis : x y z
#
# Youngs Moduli (GPa) = 57.35073 69.40362 71.13462
#
# Poissons Ratio (x) = 0.19363 0.43175
# Poissons Ratio (y) = 0.16000 0.20871
# Poissons Ratio (z) = 0.34809 0.20363
#
# Static dielectric constant tensor:
#      x y z
#    x 3.337010 0.000000 -0.036870 
#    y 0.000000 3.617890 0.000000 
#    z -0.036870 0.000000 3.447900 
# 
# 
# High freq. dielectric constant tensor:
#      x y z
#    x 1.728020 0.000000 -0.000930 
#    y 0.000000 1.749730 0.000000 
#    z -0.000930 0.000000 1.746590 
# 
# From -- ./inp_files/4341.got.cif
#   From: 2010.06.25/outbox.cif.g09.slc.cpg/sg9_3_cif.got.tgz:4341.got - 2010.06.27 21:40:51.
