data_PCOD8054675
_publ_section_title
;
Structure prediction by ZEFSAII (Michael W. Deem and Ramdas Pophale) SiO2 
 PCOD8054675
Probable space group: C C
;
_chemical_formula_sum "Si O2"
_cell_formula_units_Z 32
_cell_length_a 6.156171
_cell_length_b 18.772607
_cell_length_c 14.893329
_cell_angle_alpha 90.000000
_cell_angle_beta 55.662048
_cell_angle_gamma 90.000000
_cell_volume 1421.223554
_symmetry_space_group_name_H-M "C C"
_symmetry_group_IT_number 9
_symmetry_cell_setting 'monoclinic'
loop_
_space_group_symop_operation_xyz
x,y,z
x,-y,1/2+z
1/2+x,1/2+y,z
1/2+x,1/2-y,1/2+z
loop_
_atom_site_type_symbol
_atom_site_label
_atom_site_fract_x
_atom_site_fract_y
_atom_site_fract_z
Si Si1 0.003520 0.188960 0.445500
Si Si2 0.559025 0.177439 0.260609
Si Si3 0.014952 0.973354 0.270658
Si Si4 0.117699 0.186459 0.067437
Si Si5 0.595482 0.417558 0.071956
Si Si6 0.916295 0.590219 0.130931
Si Si7 0.492526 0.556505 0.972403
Si Si8 0.673976 0.092932 0.405560
O O1 0.284493 0.220573 0.342590
O O2 0.024892 0.157816 0.541510
O O3 0.781081 0.248482 0.488811
O O4 0.915334 0.119711 0.409864
O O5 0.486620 0.110278 0.216276
O O6 0.650920 0.150417 0.334063
O O7 0.819322 0.215870 0.157994
O O8 0.957429 0.917101 0.203106
O O9 0.123304 0.945023 0.341733
O O10 0.228538 0.023143 0.172985
O O11 0.746703 0.016183 0.348690
O O12 0.271702 0.157682 0.118623
O O13 0.114556 0.123480 0.995450
O O14 0.525554 0.484862 0.023757
O O15 0.905293 0.416714 0.021584
O O16 0.186430 0.568925 0.019468
#
# Coordination Sequence:
#
# PCOD8054675 Si02
#       8
#     4   4   4   4   4   4   4   4
#     4  11  24  44  68  98 139 182 231 288 351 426
#     4  10  20  40  71  96 123 186 230 272 358 426
#     4  12  20  40  71  96 135 174 230 292 354 396
#     4  11  24  44  68  98 139 182 231 288 351 426
#     4  11  24  41  68 103 134 180 235 288 344 422
#     4  11  21  43  69  97 131 180 228 282 349 418
#     4  11  24  41  68 103 134 180 235 288 344 422
#     4  11  21  43  69  97 131 180 228 282 349 418
#
# _framework density 22.515810999999999
#
# number of rings (size 3 to 8) (size 9 to 14) (size 15 to 20)
#    0.000    1.000    5.000    2.250    0.000    4.000 
#    0.000    7.500    0.000    0.000    0.000    0.000 
#    0.000    0.000    0.000    0.000    0.000    0.000 
#
# Total GULP energy -198252.235941 kJ/mol
# GULP energy per Si atom -12390.764746 kJ/mol
# Density = 2.246456 g / cm^3
# Si number density = 22.515811 Si / 1000 Ang^3
#
#
#
# Elastic Constant Matrix: (Units=GPa)
#
#
# Indices 1 2 3 4 5 6 
#
# 1 99.3599 21.8159 36.4681 0.0000 -13.6211 0.0000
# 2 21.8159 65.7475 35.7042 0.0000 -13.2399 0.0000
# 3 36.4681 35.7042 110.3566 0.0000 7.4670 0.0000
# 4 0.0000 0.0000 0.0000 26.7600 0.0000 -12.2888
# 5 -13.6211 -13.2399 7.4670 0.0000 42.3122 0.0000
# 6 0.0000 0.0000 0.0000 -12.2888 0.0000 23.0367
#
#
#
# Elastic Compliance Matrix: (Units=1/GPa)
#
#
# Indices 1 2 3 4 5 6 
#
# 1 0.012378 -0.001022 -0.004056 0.000000 0.004381 0.000000
# 2 -0.001022 0.020774 -0.006883 0.000000 0.007386 0.000000
# 3 -0.004056 -0.006883 0.013018 0.000000 -0.005757 0.000000
# 4 0.000000 0.000000 0.000000 0.049494 0.000000 0.026402
# 5 0.004381 0.007386 -0.005757 0.000000 0.028371 0.000000
# 6 0.000000 0.000000 0.000000 0.026402 0.000000 0.057493
#
#
# Mechanical properties :
#
#
# Convention : Reuss Voigt Hill
#
# Bulk Modulus (GPa) = 44.94879 51.49338 48.22109
# Shear Modulus (GPa) = 23.48883 30.52018 27.00451
#
# Velocity S-wave (km/s) = 3.23339 3.68571 3.46693
# Velocity P-wave (km/s) = 5.82634 6.40563 6.12284
#
# Compressibility (1/GPa) = 0.02224754
#
# Stress axis : x y z
#
# Youngs Moduli (GPa) = 80.78763 48.13673 76.81491
#
# Poissons Ratio (x) = 0.04922 0.31156
# Poissons Ratio (y) = 0.08260 0.52872
# Poissons Ratio (z) = 0.32768 0.33133
#
# Static dielectric constant tensor:
#      x y z
#    x 4.347390 0.000000 -0.139970 
#    y 0.000000 3.645740 0.000000 
#    z -0.139970 0.000000 4.221640 
# 
# 
# High freq. dielectric constant tensor:
#      x y z
#    x 1.904800 0.000000 0.002310 
#    y 0.000000 1.848070 0.000000 
#    z 0.002310 0.000000 1.895200 
# 
# From -- ./inp_files/13382.got.cif
#   From: 2010.06.25/outbox.cif.g09.slc.cpg/sg9_7_cif.got.tgz:13382.got - 2010.06.27 21:40:51.
