data_PCOD8054111
_publ_section_title
;
Structure prediction by ZEFSAII (Michael W. Deem and Ramdas Pophale) SiO2 
 PCOD8054111
Probable space group: C M
;
_chemical_formula_sum "Si O2"
_cell_formula_units_Z 24
_cell_length_a 9.060592
_cell_length_b 17.592715
_cell_length_c 9.502068
_cell_angle_alpha 90.000000
_cell_angle_beta 134.481294
_cell_angle_gamma 90.000000
_cell_volume 1080.659610
_symmetry_space_group_name_H-M "C M"
_symmetry_group_IT_number 8
_symmetry_cell_setting 'monoclinic'
loop_
_space_group_symop_operation_xyz
x,y,z
x,-y,z
1/2+x,1/2+y,z
1/2+x,1/2-y,z
loop_
_atom_site_type_symbol
_atom_site_label
_atom_site_fract_x
_atom_site_fract_y
_atom_site_fract_z
Si Si1 0.180061 0.000000 0.079381
Si Si2 0.875542 0.000000 0.653895
Si Si3 0.835487 0.332587 0.183891
Si Si4 0.133452 0.642449 0.608503
Si Si5 0.324309 0.500000 0.069129
Si Si6 0.594714 0.500000 0.527821
Si Si7 0.460230 0.889808 0.768759
Si Si8 0.432429 0.243847 0.953381
O O1 0.316603 0.075785 0.191410
O O2 0.965718 0.000000 0.024235
O O3 0.108328 0.000000 0.869711
O O4 0.767976 0.923406 0.631111
O O5 0.898845 0.000000 0.501592
O O6 0.029599 0.310021 0.411982
O O7 0.640133 0.290688 0.121132
O O8 0.873690 0.307262 0.049120
O O9 0.962257 0.607910 0.599627
O O10 0.258155 0.696042 0.798142
O O11 0.487989 0.500000 0.304791
O O12 0.169695 0.428356 0.969047
O O13 0.740962 0.428046 0.656852
O O14 0.461070 0.806892 0.835111
#
# Coordination Sequence:
#
# PCOD8054111 Si02
#       8
#     2   2   4   4   2   2   4   4
#     4  12  22  49  78 100 142 187 246 295 350 425
#     4  12  23  46  73 105 143 184 239 305 350 413
#     4  12  28  46  77 106 141 193 241 292 363 425
#     4  12  26  48  74 101 146 193 238 292 361 429
#     4  11  23  45  71 102 145 187 237 291 359 425
#     4  11  26  40  72 107 138 186 242 295 349 427
#     4  11  24  46  69 100 144 187 234 294 357 420
#     4  12  27  47  69 106 147 184 237 302 354 425
#
# _framework density 22.208659000000001
#
# number of rings (size 3 to 8) (size 9 to 14) (size 15 to 20)
#    0.000    0.333    5.000    3.000    4.667    2.000 
#    0.000    0.000    0.000    0.000    0.000    0.000 
#    0.000    0.000    0.000    0.000    0.000    0.000 
#
# Total GULP energy -148781.375272 kJ/mol
# GULP energy per Si atom -12398.447939 kJ/mol
# Density = 2.215811 g / cm^3
# Si number density = 22.208659 Si / 1000 Ang^3
#
#
#
# Elastic Constant Matrix: (Units=GPa)
#
#
# Indices 1 2 3 4 5 6 
#
# 1 120.5674 46.3413 34.5549 0.0000 -13.6548 0.0000
# 2 46.3413 117.5709 33.8962 0.0000 -1.6805 0.0000
# 3 34.5549 33.8962 139.8527 0.0000 2.9609 0.0000
# 4 0.0000 0.0000 0.0000 51.2782 0.0000 1.7330
# 5 -13.6548 -1.6805 2.9609 0.0000 24.5706 0.0000
# 6 0.0000 0.0000 0.0000 1.7330 0.0000 32.3510
#
#
#
# Elastic Compliance Matrix: (Units=1/GPa)
#
#
# Indices 1 2 3 4 5 6 
#
# 1 0.010949 -0.003668 -0.001945 0.000000 0.006068 0.000000
# 2 -0.003668 0.010393 -0.001589 0.000000 -0.001136 0.000000
# 3 -0.001945 -0.001589 0.008062 0.000000 -0.002161 0.000000
# 4 0.000000 0.000000 0.000000 0.019537 0.000000 -0.001047
# 5 0.006068 -0.001136 -0.002161 0.000000 0.044254 0.000000
# 6 0.000000 0.000000 0.000000 -0.001047 0.000000 0.030967
#
#
# Mechanical properties :
#
#
# Convention : Reuss Voigt Hill
#
# Bulk Modulus (GPa) = 66.66373 67.50844 67.08609
# Shear Modulus (GPa) = 34.82772 39.18654 37.00713
#
# Velocity S-wave (km/s) = 3.96435 4.20512 4.08651
# Velocity P-wave (km/s) = 7.14401 7.35124 7.24837
#
# Compressibility (1/GPa) = 0.01500066
#
# Stress axis : x y z
#
# Youngs Moduli (GPa) = 91.33644 96.21809 124.04432
#
# Poissons Ratio (x) = 0.35293 0.24122
# Poissons Ratio (y) = 0.33503 0.19706
# Poissons Ratio (z) = 0.17761 0.15285
#
# Static dielectric constant tensor:
#      x y z
#    x 3.969150 0.000000 0.038680 
#    y 0.000000 3.848260 0.000000 
#    z 0.038680 0.000000 4.056720 
# 
# 
# High freq. dielectric constant tensor:
#      x y z
#    x 1.883890 0.000000 -0.002340 
#    y 0.000000 1.877810 0.000000 
#    z -0.002340 0.000000 1.883510 
# 
# From -- ./inp_files/8679.got.cif
#   From: 2010.03.12/outbox.cif.g09.slc.cpg/sg8_5_cif.got.tgz:8679.got - 2010.03.31 10:45:26.
