data_PCOD8054367
_publ_section_title
;
Structure prediction by ZEFSAII (Michael W. Deem and Ramdas Pophale) SiO2 
 PCOD8054367
Probable space group: C C
;
_chemical_formula_sum "Si O2"
_cell_formula_units_Z 32
_cell_length_a 16.114761
_cell_length_b 26.266229
_cell_length_c 10.124938
_cell_angle_alpha 90.000000
_cell_angle_beta 24.331754
_cell_angle_gamma 90.000000
_cell_volume 1765.759856
_symmetry_space_group_name_H-M "C C"
_symmetry_group_IT_number 9
_symmetry_cell_setting 'monoclinic'
loop_
_space_group_symop_operation_xyz
x,y,z
x,-y,1/2+z
1/2+x,1/2+y,z
1/2+x,1/2-y,1/2+z
loop_
_atom_site_type_symbol
_atom_site_label
_atom_site_fract_x
_atom_site_fract_y
_atom_site_fract_z
Si Si1 0.983500 0.684048 0.817450
Si Si2 0.840814 0.815972 0.283568
Si Si3 0.166934 0.269356 0.290725
Si Si4 0.664938 0.399196 0.817803
Si Si5 0.166444 0.639023 0.291631
Si Si6 0.540296 0.966091 0.903468
Si Si7 0.968757 0.942390 0.349299
Si Si8 0.801803 0.497556 0.494081
O O1 0.148259 0.694808 0.689987
O O2 0.079683 0.671258 0.537376
O O3 0.860084 0.735663 0.978192
O O4 0.850234 0.638670 0.068783
O O5 0.690487 0.806961 0.380578
O O6 0.714886 0.823034 0.600675
O O7 0.976770 0.765859 0.100517
O O8 0.967122 0.866884 0.066220
O O9 0.726411 0.439670 0.617985
O O10 0.627573 0.431017 0.004036
O O11 0.010102 0.595064 0.469014
O O12 0.372278 0.610698 0.042145
O O13 0.782936 0.977279 0.561793
O O14 0.447491 0.982503 0.898311
O O15 0.431116 0.999253 0.173300
O O16 0.097971 0.968775 0.277742
#
# Coordination Sequence:
#
# PCOD8054367 Si02
#       8
#     4   4   4   4   4   4   4   4
#     4  10  19  38  58  82 117 143 196 239 297 341
#     4   9  19  37  57  77 114 141 190 233 291 347
#     4   9  20  36  58  85 104 154 188 232 299 358
#     4  10  19  37  56  78 113 151 184 243 280 343
#     4   9  20  39  54  85 117 149 190 249 278 347
#     4  10  24  37  59  86 117 157 199 239 289 340
#     4   9  22  38  56  85 117 155 196 238 288 339
#     4  12  21  40  58  84 119 162 193 241 288 343
#
# _framework density 18.122509000000001
#
# number of rings (size 3 to 8) (size 9 to 14) (size 15 to 20)
#    0.750    1.500    2.500    0.000    1.750    2.000 
#    4.500    0.000    0.000    0.000    0.000    0.000 
#    0.000    0.000    0.000    0.000    0.000    0.000 
#
# Total GULP energy -198287.407094 kJ/mol
# GULP energy per Si atom -12392.962943 kJ/mol
# Density = 1.808126 g / cm^3
# Si number density = 18.122509 Si / 1000 Ang^3
#
#
#
# Elastic Constant Matrix: (Units=GPa)
#
#
# Indices 1 2 3 4 5 6 
#
# 1 139.9352 54.2554 55.8965 -0.0101 -1.0780 -0.0079
# 2 54.2554 77.1542 33.7951 -0.0028 5.8716 0.0029
# 3 55.8965 33.7951 95.5353 -0.0054 8.1806 -0.0022
# 4 -0.0101 -0.0028 -0.0054 18.1284 0.0080 4.9817
# 5 -1.0780 5.8716 8.1806 0.0080 19.6992 0.0050
# 6 -0.0079 0.0029 -0.0022 4.9817 0.0050 23.5481
#
#
#
# Elastic Compliance Matrix: (Units=1/GPa)
#
#
# Indices 1 2 3 4 5 6 
#
# 1 0.011620 -0.006355 -0.004943 0.000001 0.004583 0.000003
# 2 -0.006355 0.018923 -0.002554 0.000002 -0.004928 -0.000004
# 3 -0.004943 -0.002554 0.014745 0.000004 -0.005633 0.000000
# 4 0.000001 0.000002 0.000004 0.058567 -0.000023 -0.012390
# 5 0.004583 -0.004928 -0.005633 -0.000023 0.054822 -0.000005
# 6 0.000003 -0.000004 0.000000 -0.012390 -0.000005 0.045087
#
#
# Mechanical properties :
#
#
# Convention : Reuss Voigt Hill
#
# Bulk Modulus (GPa) = 56.86722 66.72430 61.79576
# Shear Modulus (GPa) = 21.06768 23.52030 22.29399
#
# Velocity S-wave (km/s) = 3.41327 3.60648 3.51120
# Velocity P-wave (km/s) = 6.85429 7.36482 7.11414
#
# Compressibility (1/GPa) = 0.01758482
#
# Stress axis : x y z
#
# Youngs Moduli (GPa) = 86.05997 52.84445 67.81839
#
# Poissons Ratio (x) = 0.33581 0.33523
# Poissons Ratio (y) = 0.54689 0.17321
# Poissons Ratio (z) = 0.42540 0.13497
#
# Static dielectric constant tensor:
#      x y z
#    x 3.231540 0.000000 -0.031190 
#    y 0.000000 3.331830 0.000000 
#    z -0.031190 0.000000 3.325980 
# 
# 
# High freq. dielectric constant tensor:
#      x y z
#    x 1.689430 0.000000 0.002270 
#    y 0.000000 1.699650 0.000000 
#    z 0.002270 0.000000 1.703420 
# 
# From -- ./inp_files/6154.got.cif
#   From: 2010.06.25/outbox.cif.g09.slc.cpg/sg9_4_cif.got.tgz:6154.got - 2010.06.27 21:40:51.
