data_PCOD8054456
_publ_section_title
;
Structure prediction by ZEFSAII (Michael W. Deem and Ramdas Pophale) SiO2 
 PCOD8054456
Probable space group: C C
;
_chemical_formula_sum "Si O2"
_cell_formula_units_Z 28
_cell_length_a 5.292172
_cell_length_b 13.569813
_cell_length_c 15.489426
_cell_angle_alpha 90.000000
_cell_angle_beta 112.738836
_cell_angle_gamma 90.000000
_cell_volume 1025.898012
_symmetry_space_group_name_H-M "C C"
_symmetry_group_IT_number 9
_symmetry_cell_setting 'monoclinic'
loop_
_space_group_symop_operation_xyz
x,y,z
x,-y,1/2+z
1/2+x,1/2+y,z
1/2+x,1/2-y,1/2+z
loop_
_atom_site_type_symbol
_atom_site_label
_atom_site_fract_x
_atom_site_fract_y
_atom_site_fract_z
Si Si1 0.750000 0.270043 0.129850
Si Si2 0.228413 0.488394 0.105284
Si Si3 0.846502 0.360167 0.321935
Si Si4 0.115983 0.957489 0.006051
Si Si5 0.375956 0.742713 0.871737
Si Si6 0.091367 0.058898 0.305646
Si Si7 0.192980 0.736365 0.579614
O O1 0.861910 0.328085 0.225145
O O2 0.664394 0.346227 0.042940
O O3 0.480719 0.203750 0.113148
O O4 0.991158 0.204924 0.118174
O O5 0.406975 0.514008 0.042799
O O6 0.338910 0.546365 0.205090
O O7 0.262433 0.371358 0.130376
O O8 0.909285 0.515534 0.044848
O O9 0.580821 0.313751 0.333897
O O10 0.825788 0.477746 0.320160
O O11 0.151898 0.326943 0.391759
O O12 0.992336 0.952502 0.892421
O O13 0.220333 0.833390 0.805037
O O14 0.571989 0.786353 0.970407
#
# Coordination Sequence:
#
# PCOD8054456 Si02
#       7
#     4   4   4   4   4   4   4
#     4  10  19  43  72  96 152 198 229 314 388 416
#     4  10  22  41  74 106 142 207 240 302 397 430
#     4  12  28  46  74 117 146 200 266 307 380 457
#     4  10  22  41  74 106 142 207 240 302 397 430
#     4  12  28  46  74 117 146 200 266 307 380 457
#     4  12  26  50  84 104 164 200 256 324 378 456
#     4  10  19  43  72  96 152 198 229 314 388 416
#
# _framework density 27.29316
#
# number of rings (size 3 to 8) (size 9 to 14) (size 15 to 20)
#    0.000    1.143    5.714    1.714    4.000    4.571 
#    0.000    8.571    0.000    0.000    0.000    0.000 
#    0.000    0.000    0.000    0.000    0.000    0.000 
#
# Total GULP energy -173461.407573 kJ/mol
# GULP energy per Si atom -12390.100541 kJ/mol
# Density = 2.723104 g / cm^3
# Si number density = 27.293160 Si / 1000 Ang^3
#
#
#
# Elastic Constant Matrix: (Units=GPa)
#
#
# Indices 1 2 3 4 5 6 
#
# 1 220.2087 -0.8217 33.0278 0.0000 -37.4209 0.0000
# 2 -0.8217 73.5320 -18.5178 0.0000 -7.9763 0.0000
# 3 33.0278 -18.5178 129.8507 0.0000 -13.2197 0.0000
# 4 0.0000 0.0000 0.0000 26.6342 0.0000 6.7069
# 5 -37.4209 -7.9763 -13.2197 0.0000 41.0812 0.0000
# 6 0.0000 0.0000 0.0000 6.7069 0.0000 10.2749
#
#
#
# Elastic Compliance Matrix: (Units=1/GPa)
#
#
# Indices 1 2 3 4 5 6 
#
# 1 0.005485 0.000366 -0.000855 0.000000 0.004792 0.000000
# 2 0.000366 0.014635 0.002396 0.000000 0.003946 0.000000
# 3 -0.000855 0.002396 0.008507 0.000000 0.002424 0.000000
# 4 0.000000 0.000000 0.000000 0.044931 0.000000 -0.029328
# 5 0.004792 0.003946 0.002424 0.000000 0.030253 0.000000
# 6 0.000000 0.000000 0.000000 -0.029328 0.000000 0.116468
#
#
# Mechanical properties :
#
#
# Convention : Reuss Voigt Hill
#
# Bulk Modulus (GPa) = 30.82623 50.10757 40.46690
# Shear Modulus (GPa) = 21.99933 42.92493 32.46213
#
# Velocity S-wave (km/s) = 2.84216 3.97008 3.45249
# Velocity P-wave (km/s) = 4.69995 6.27807 5.54544
#
# Compressibility (1/GPa) = 0.03243991
#
# Stress axis : x y z
#
# Youngs Moduli (GPa) = 182.31112 68.32965 117.54947
#
# Poissons Ratio (x) = -0.02499 0.10052
# Poissons Ratio (y) = -0.06669 -0.28162
# Poissons Ratio (z) = 0.15590 -0.16370
#
# Static dielectric constant tensor:
#      x y z
#    x 6.628790 0.000000 -0.111680 
#    y 0.000000 4.653760 0.000000 
#    z -0.111680 0.000000 5.008760 
# 
# 
# High freq. dielectric constant tensor:
#      x y z
#    x 2.121400 0.000000 -0.000660 
#    y 0.000000 2.070790 0.000000 
#    z -0.000660 0.000000 2.110920 
# 
# From -- ./inp_files/21784.got.cif
#   From: 2010.06.25/outbox.cif.g09.slc.cpg/sg9_11_cif.got.tgz:21784.got - 2010.06.27 21:40:51.
