data_PCOD8054336
_publ_section_title
;
Structure prediction by ZEFSAII (Michael W. Deem and Ramdas Pophale) SiO2 
 PCOD8054336
Probable space group: C C
;
_chemical_formula_sum "Si O2"
_cell_formula_units_Z 32
_cell_length_a 7.145105
_cell_length_b 32.403665
_cell_length_c 5.620482
_cell_angle_alpha 90.000000
_cell_angle_beta 100.802536
_cell_angle_gamma 90.000000
_cell_volume 1278.236310
_symmetry_space_group_name_H-M "C C"
_symmetry_group_IT_number 9
_symmetry_cell_setting 'monoclinic'
loop_
_space_group_symop_operation_xyz
x,y,z
x,-y,1/2+z
1/2+x,1/2+y,z
1/2+x,1/2-y,1/2+z
loop_
_atom_site_type_symbol
_atom_site_label
_atom_site_fract_x
_atom_site_fract_y
_atom_site_fract_z
Si Si1 0.084210 0.334927 0.073000
Si Si2 0.982468 0.399987 0.681524
Si Si3 0.439645 0.291260 0.105607
Si Si4 0.771243 0.980401 0.263506
Si Si5 0.171611 0.153917 0.975515
Si Si6 0.273628 0.778176 0.876905
Si Si7 0.813521 0.892932 0.444719
Si Si8 0.846592 0.489553 0.683677
O O1 0.245080 0.310628 0.949531
O O2 0.195778 0.352948 0.324974
O O3 0.987484 0.372711 0.917109
O O4 0.918035 0.301683 0.094587
O O5 0.855060 0.374507 0.457453
O O6 0.881814 0.441715 0.729695
O O7 0.195212 0.409833 0.642309
O O8 0.573267 0.329724 0.213672
O O9 0.378480 0.263108 0.314503
O O10 0.570346 0.266331 0.948951
O O11 0.827288 0.931731 0.266723
O O12 0.852016 0.999777 0.534355
O O13 0.541583 0.984064 0.211451
O O14 0.233515 0.192892 0.144040
O O15 0.020120 0.123621 0.073650
O O16 0.735889 0.496050 0.401515
#
# Coordination Sequence:
#
# PCOD8054336 Si02
#       8
#     4   4   4   4   4   4   4   4
#     4  10  23  38  62  92 122 172 214 264 342 394
#     4  11  21  38  65  86 130 170 214 274 329 391
#     4  11  24  43  66  94 130 167 218 273 333 410
#     4  10  19  35  62  95 128 176 231 272 330 404
#     4  10  25  42  60 100 126 164 222 266 332 396
#     4  11  24  43  66  94 130 167 218 273 333 410
#     4  11  21  38  65  86 130 170 214 274 329 391
#     4  10  19  35  62  95 128 176 231 272 330 404
#
# _framework density 25.034493999999999
#
# number of rings (size 3 to 8) (size 9 to 14) (size 15 to 20)
#    0.000    1.500    2.500    3.750    0.000    8.000 
#    0.000    1.250    0.000    0.000    0.000    0.000 
#    0.000    0.000    0.000    0.000    0.000    0.000 
#
# Total GULP energy -198266.909499 kJ/mol
# GULP energy per Si atom -12391.681844 kJ/mol
# Density = 2.497751 g / cm^3
# Si number density = 25.034494 Si / 1000 Ang^3
#
#
#
# Elastic Constant Matrix: (Units=GPa)
#
#
# Indices 1 2 3 4 5 6 
#
# 1 87.5453 24.8387 7.0052 0.0000 -15.0469 0.0000
# 2 24.8387 113.0494 17.1810 0.0000 -0.1270 0.0000
# 3 7.0052 17.1810 91.8241 0.0000 -11.4027 0.0000
# 4 0.0000 0.0000 0.0000 24.9960 0.0000 0.2561
# 5 -15.0469 -0.1270 -11.4027 0.0000 38.2679 0.0000
# 6 0.0000 0.0000 0.0000 0.2561 0.0000 21.1167
#
#
#
# Elastic Compliance Matrix: (Units=1/GPa)
#
#
# Indices 1 2 3 4 5 6 
#
# 1 0.013128 -0.002907 0.000189 0.000000 0.005209 0.000000
# 2 -0.002907 0.009757 -0.001809 0.000000 -0.001650 0.000000
# 3 0.000189 -0.001809 0.011654 0.000000 0.003541 0.000000
# 4 0.000000 0.000000 0.000000 0.040011 0.000000 -0.000485
# 5 0.005209 -0.001650 0.003541 0.000000 0.029229 0.000000
# 6 0.000000 0.000000 0.000000 -0.000485 0.000000 0.047362
#
#
# Mechanical properties :
#
#
# Convention : Reuss Voigt Hill
#
# Bulk Modulus (GPa) = 39.23773 43.38541 41.31157
# Shear Modulus (GPa) = 29.64013 33.10239 31.37126
#
# Velocity S-wave (km/s) = 3.44462 3.64025 3.54379
# Velocity P-wave (km/s) = 5.61498 5.91916 5.76908
#
# Compressibility (1/GPa) = 0.02548567
#
# Stress axis : x y z
#
# Youngs Moduli (GPa) = 76.17544 102.48530 85.80675
#
# Poissons Ratio (x) = 0.29795 -0.01624
# Poissons Ratio (y) = 0.22146 0.15520
# Poissons Ratio (z) = -0.01442 0.18537
#
# Static dielectric constant tensor:
#      x y z
#    x 4.742960 0.000000 0.214950 
#    y 0.000000 4.607680 0.000000 
#    z 0.214950 0.000000 4.408340 
# 
# 
# High freq. dielectric constant tensor:
#      x y z
#    x 1.991630 0.000000 0.010070 
#    y 0.000000 2.010280 0.000000 
#    z 0.010070 0.000000 1.969420 
# 
# From -- ./inp_files/1318.got.cif
#   From: 2010.06.25/outbox.cif.g09.slc.cpg/sg9_1_cif.got.tgz:1318.got - 2010.06.27 21:40:51.
