data_PCOD8054105
_publ_section_title
;
Structure prediction by ZEFSAII (Michael W. Deem and Ramdas Pophale) SiO2 
 PCOD8054105
Probable space group: C M
;
_chemical_formula_sum "Si O2"
_cell_formula_units_Z 32
_cell_length_a 17.367216
_cell_length_b 14.449676
_cell_length_c 11.505477
_cell_angle_alpha 90.000000
_cell_angle_beta 149.491056
_cell_angle_gamma 90.000000
_cell_volume 1465.807331
_symmetry_space_group_name_H-M "C M"
_symmetry_group_IT_number 8
_symmetry_cell_setting 'monoclinic'
loop_
_space_group_symop_operation_xyz
x,y,z
x,-y,z
1/2+x,1/2+y,z
1/2+x,1/2-y,z
loop_
_atom_site_type_symbol
_atom_site_label
_atom_site_fract_x
_atom_site_fract_y
_atom_site_fract_z
Si Si1 0.132330 0.601991 0.866010
Si Si2 0.508973 0.893194 0.170242
Si Si3 0.798526 0.603520 0.504095
Si Si4 0.513215 0.398292 0.690618
Si Si5 0.585680 0.340925 0.036610
Si Si6 0.219169 0.767182 0.824099
Si Si7 0.751847 0.224898 0.612126
Si Si8 0.191539 0.643135 0.195653
O O1 0.142866 0.500000 0.821548
O O2 0.229085 0.673276 0.913636
O O3 0.956673 0.634265 0.649014
O O4 0.200100 0.591629 0.083908
O O5 0.658104 0.855101 0.427373
O O6 0.540315 0.885953 0.071859
O O7 0.477080 0.000000 0.163738
O O8 0.371640 0.827603 0.030903
O O9 0.815582 0.500000 0.581360
O O10 0.755743 0.680272 0.543556
O O11 0.663757 0.594695 0.234456
O O12 0.550753 0.500000 0.692670
O O13 0.584994 0.389615 0.911370
O O14 0.579382 0.325960 0.687394
O O15 0.333011 0.382328 0.461532
O O16 0.417386 0.314125 0.856538
O O17 0.691345 0.251070 0.166555
O O18 0.174178 0.744520 0.634187
#
# Coordination Sequence:
#
# PCOD8054105 Si02
#       8
#     4   4   4   4   4   4   4   4
#     4  11  24  44  70 103 139 184 230 283 347 410
#     4  12  26  45  71  99 134 180 230 282 341 408
#     4  11  23  43  72 106 137 179 234 286 340 407
#     4  12  26  43  70 104 138 179 229 287 345 406
#     4  12  21  44  71 102 134 181 228 286 341 401
#     4  12  26  44  67 100 143 180 225 282 345 407
#     4  12  24  44  67  97 138 186 227 278 345 406
#     4  12  22  45  74  99 131 181 235 284 336 407
#
# _framework density 21.830971999999999
#
# number of rings (size 3 to 8) (size 9 to 14) (size 15 to 20)
#    0.000    0.250    6.250    2.625    1.750    4.000 
#    0.000    3.125    0.000    0.000    0.000    0.000 
#    0.000    0.000    0.000    0.000    0.000    0.000 
#
# Total GULP energy -198420.825473 kJ/mol
# GULP energy per Si atom -12401.301592 kJ/mol
# Density = 2.178128 g / cm^3
# Si number density = 21.830972 Si / 1000 Ang^3
#
#
#
# Elastic Constant Matrix: (Units=GPa)
#
#
# Indices 1 2 3 4 5 6 
#
# 1 130.9141 59.2489 36.7593 0.0000 -5.9680 0.0000
# 2 59.2489 156.7319 35.7745 0.0000 1.7373 0.0000
# 3 36.7593 35.7745 96.9417 0.0000 -12.7560 0.0000
# 4 0.0000 0.0000 0.0000 25.5565 0.0000 -1.6959
# 5 -5.9680 1.7373 -12.7560 0.0000 24.6319 0.0000
# 6 0.0000 0.0000 0.0000 -1.6959 0.0000 16.5666
#
#
#
# Elastic Compliance Matrix: (Units=1/GPa)
#
#
# Indices 1 2 3 4 5 6 
#
# 1 0.009805 -0.003183 -0.002362 0.000000 0.001377 0.000000
# 2 -0.003183 0.008089 -0.002098 0.000000 -0.002428 0.000000
# 3 -0.002362 -0.002098 0.012802 0.000000 0.006205 0.000000
# 4 0.000000 0.000000 0.000000 0.039397 0.000000 0.004033
# 5 0.001377 -0.002428 0.006205 0.000000 0.044316 0.000000
# 6 0.000000 0.000000 0.000000 0.004033 0.000000 0.060775
#
#
# Mechanical properties :
#
#
# Convention : Reuss Voigt Hill
#
# Bulk Modulus (GPa) = 64.89043 72.01701 68.45372
# Shear Modulus (GPa) = 25.56153 30.20467 27.88310
#
# Velocity S-wave (km/s) = 3.42553 3.72367 3.57771
# Velocity P-wave (km/s) = 6.74049 7.17967 6.96355
#
# Compressibility (1/GPa) = 0.01541059
#
# Stress axis : x y z
#
# Youngs Moduli (GPa) = 101.98804 123.62174 78.11322
#
# Poissons Ratio (x) = 0.39344 0.18453
# Poissons Ratio (y) = 0.32459 0.16387
# Poissons Ratio (z) = 0.24093 0.25934
#
# Static dielectric constant tensor:
#      x y z
#    x 3.856170 0.000000 -0.015060 
#    y 0.000000 4.118930 0.000000 
#    z -0.015060 0.000000 4.037970 
# 
# 
# High freq. dielectric constant tensor:
#      x y z
#    x 1.843740 0.000000 -0.005260 
#    y 0.000000 1.873970 0.000000 
#    z -0.005260 0.000000 1.861510 
# 
# From -- ./inp_files/23339.got.cif
#   From: 2010.03.12/outbox.cif.g09.slc.cpg/sg8_12_cif.got.tgz:23339.got - 2010.03.31 10:45:26.
