data_PCOD8054001
_publ_section_title
;
Structure prediction by ZEFSAII (Michael W. Deem and Ramdas Pophale) SiO2 
 PCOD8054001
Probable space group: C M
;
_chemical_formula_sum "Si O2"
_cell_formula_units_Z 22
_cell_length_a 11.303014
_cell_length_b 13.096929
_cell_length_c 12.626994
_cell_angle_alpha 90.000000
_cell_angle_beta 147.315626
_cell_angle_gamma 90.000000
_cell_volume 1009.406641
_symmetry_space_group_name_H-M "C M"
_symmetry_group_IT_number 8
_symmetry_cell_setting 'monoclinic'
loop_
_space_group_symop_operation_xyz
x,y,z
x,-y,z
1/2+x,1/2+y,z
1/2+x,1/2-y,z
loop_
_atom_site_type_symbol
_atom_site_label
_atom_site_fract_x
_atom_site_fract_y
_atom_site_fract_z
Si Si1 0.185630 0.291239 0.833520
Si Si2 0.513799 0.180050 0.229721
Si Si3 0.488606 0.388103 0.544705
Si Si4 0.759475 0.000000 0.770888
Si Si5 0.780939 0.500000 0.375461
Si Si6 0.218503 0.157787 0.511542
Si Si7 0.219991 0.000000 0.088873
O O1 0.120888 0.201465 0.702500
O O2 0.267526 0.395838 0.844081
O O3 0.967047 0.317631 0.736650
O O4 0.386803 0.254607 0.055314
O O5 0.589372 0.237784 0.392635
O O6 0.345010 0.097277 0.142420
O O7 0.730091 0.134791 0.336543
O O8 0.516851 0.500000 0.621634
O O9 0.591178 0.402467 0.505620
O O10 0.537758 0.000000 0.535916
O O11 0.972579 0.000000 0.854444
O O12 0.723726 0.598203 0.403288
O O13 0.666102 0.500000 0.174932
#
# Coordination Sequence:
#
# PCOD8054001 Si02
#       7
#     4   4   4   2   2   4   2
#     4  10  25  44  67  98 134 175 225 272 331 392
#     4  11  26  42  64 100 134 176 220 269 338 393
#     4  11  24  45  69  99 133 173 222 277 336 391
#     4  10  24  42  66  94 130 174 226 266 322 392
#     4  10  22  45  66  93 126 176 219 277 321 390
#     4  10  23  43  70  92 129 173 225 274 328 388
#     4  12  26  39  66  95 136 174 219 271 331 398
#
# _framework density 21.794982999999998
#
# number of rings (size 3 to 8) (size 9 to 14) (size 15 to 20)
#    0.000    1.455    1.818    1.091   14.000    1.455 
#    0.000    0.000    0.000    0.000    0.000    0.000 
#    0.000    0.000    0.000    0.000    0.000    0.000 
#
# Total GULP energy -136342.622991 kJ/mol
# GULP energy per Si atom -12394.783908 kJ/mol
# Density = 2.174538 g / cm^3
# Si number density = 21.794983 Si / 1000 Ang^3
#
#
#
# Elastic Constant Matrix: (Units=GPa)
#
#
# Indices 1 2 3 4 5 6 
#
# 1 82.9914 23.6701 32.4865 -0.0016 24.4406 -0.0017
# 2 23.6701 152.7695 40.4676 -0.0023 16.8566 -0.0028
# 3 32.4865 40.4676 97.7115 -0.0052 30.0062 -0.0056
# 4 -0.0016 -0.0023 -0.0052 31.6000 -0.0006 -0.5039
# 5 24.4406 16.8566 30.0062 -0.0006 34.9992 -0.0017
# 6 -0.0017 -0.0028 -0.0056 -0.5039 -0.0017 15.5630
#
#
#
# Elastic Compliance Matrix: (Units=1/GPa)
#
#
# Indices 1 2 3 4 5 6 
#
# 1 0.015715 -0.000898 -0.002193 0.000000 -0.008661 0.000000
# 2 -0.000898 0.007445 -0.002547 0.000000 -0.000775 0.000000
# 3 -0.002193 -0.002547 0.015163 0.000002 -0.010242 0.000004
# 4 0.000000 0.000000 0.000002 0.031662 -0.000001 0.001025
# 5 -0.008661 -0.000775 -0.010242 -0.000001 0.043775 0.000000
# 6 0.000000 0.000000 0.000004 0.001025 0.000000 0.064288
#
#
# Mechanical properties :
#
#
# Convention : Reuss Voigt Hill
#
# Bulk Modulus (GPa) = 36.97239 58.52452 47.74846
# Shear Modulus (GPa) = 25.20926 32.22230 28.71578
#
# Velocity S-wave (km/s) = 3.40465 3.84920 3.63373
# Velocity P-wave (km/s) = 5.69702 6.83123 6.28975
#
# Compressibility (1/GPa) = 0.02704721
#
# Stress axis : x y z
#
# Youngs Moduli (GPa) = 63.63450 134.31608 65.94870
#
# Poissons Ratio (x) = 0.12065 0.14462
# Poissons Ratio (y) = 0.05716 0.16796
# Poissons Ratio (z) = 0.13955 0.34207
#
# Static dielectric constant tensor:
#      x y z
#    x 3.647570 0.000000 0.335930 
#    y 0.000000 4.251250 0.000000 
#    z 0.335930 0.000000 4.047530 
# 
# 
# High freq. dielectric constant tensor:
#      x y z
#    x 1.837730 0.000000 0.028330 
#    y 0.000000 1.883600 0.000000 
#    z 0.028330 0.000000 1.862300 
# 
# From -- ./inp_files/25981.got.cif
#   From: 2010.03.12/outbox.cif.g09.slc.cpg/sg8_13_cif.got.tgz:25981.got - 2010.03.31 10:45:26.
