data_PCOD8054183
_publ_section_title
;
Structure prediction by ZEFSAII (Michael W. Deem and Ramdas Pophale) SiO2 
 PCOD8054183
Probable space group: C C
;
_chemical_formula_sum "Si O2"
_cell_formula_units_Z 32
_cell_length_a 9.508519
_cell_length_b 20.582205
_cell_length_c 10.339563
_cell_angle_alpha 90.000000
_cell_angle_beta 121.862354
_cell_angle_gamma 90.000000
_cell_volume 1718.611268
_symmetry_space_group_name_H-M "C C"
_symmetry_group_IT_number 9
_symmetry_cell_setting 'monoclinic'
loop_
_space_group_symop_operation_xyz
x,y,z
x,-y,1/2+z
1/2+x,1/2+y,z
1/2+x,1/2-y,1/2+z
loop_
_atom_site_type_symbol
_atom_site_label
_atom_site_fract_x
_atom_site_fract_y
_atom_site_fract_z
Si Si1 0.708690 0.659147 0.043630
Si Si2 0.864944 0.260607 0.995851
Si Si3 0.666488 0.805479 0.992001
Si Si4 0.558665 0.101857 0.216592
Si Si5 0.251827 0.485398 0.383000
Si Si6 0.574315 0.324428 0.758477
Si Si7 0.851024 0.859457 0.305659
Si Si8 0.842750 0.938573 0.698627
O O1 0.726721 0.731687 0.991957
O O2 0.689301 0.667604 0.188055
O O3 0.867733 0.614810 0.088403
O O4 0.546626 0.622484 0.908560
O O5 0.694454 0.300750 0.933307
O O6 0.821630 0.206720 0.868239
O O7 0.926683 0.227290 0.158717
O O8 0.007041 0.307070 0.008125
O O9 0.805684 0.847792 0.133848
O O10 0.627228 0.840085 0.838517
O O11 0.670534 0.101464 0.139780
O O12 0.584085 0.030234 0.297358
O O13 0.232182 0.412483 0.317745
O O14 0.321745 0.483874 0.562281
O O15 0.381806 0.518319 0.344931
O O16 0.499514 0.392936 0.759255
#
# Coordination Sequence:
#
# PCOD8054183 Si02
#       8
#     4   4   4   4   4   4   4   4
#     4  10  18  34  62  88 115 147 201 249 291 351
#     4  10  17  30  64  87 115 146 202 237 294 350
#     4  10  17  33  59  93 110 154 192 243 289 360
#     4  10  22  36  58  88 117 155 198 243 295 350
#     4  10  21  38  58  81 116 164 193 236 297 356
#     4  10  18  36  59  88 117 154 195 248 291 355
#     4  10  17  32  61  83 114 154 192 236 292 352
#     4  10  22  39  59  82 120 162 195 246 301 346
#
# _framework density 18.619683999999999
#
# number of rings (size 3 to 8) (size 9 to 14) (size 15 to 20)
#    0.750    1.500    6.250    1.500    0.000    0.000 
#    2.250    2.500    0.000    0.000    0.000    0.000 
#    0.000    0.000    0.000    0.000    0.000    0.000 
#
# Total GULP energy -198210.173185 kJ/mol
# GULP energy per Si atom -12388.135824 kJ/mol
# Density = 1.857730 g / cm^3
# Si number density = 18.619684 Si / 1000 Ang^3
#
#
#
# Elastic Constant Matrix: (Units=GPa)
#
#
# Indices 1 2 3 4 5 6 
#
# 1 58.8183 43.8013 37.3690 0.0000 7.1540 0.0000
# 2 43.8013 81.5864 37.3938 0.0000 8.9217 0.0000
# 3 37.3690 37.3938 86.2772 0.0000 12.4261 0.0000
# 4 0.0000 0.0000 0.0000 14.2388 0.0000 2.7262
# 5 7.1540 8.9217 12.4261 0.0000 32.5447 0.0000
# 6 0.0000 0.0000 0.0000 2.7262 0.0000 32.8278
#
#
#
# Elastic Compliance Matrix: (Units=1/GPa)
#
#
# Indices 1 2 3 4 5 6 
#
# 1 0.032285 -0.013616 -0.008040 0.000000 -0.000295 0.000000
# 2 -0.013616 0.021133 -0.003025 0.000000 -0.001645 0.000000
# 3 -0.008040 -0.003025 0.016942 0.000000 -0.003872 0.000000
# 4 0.000000 0.000000 0.000000 0.071365 0.000000 -0.005926
# 5 -0.000295 -0.001645 -0.003872 0.000000 0.032721 0.000000
# 6 0.000000 0.000000 0.000000 -0.005926 0.000000 0.030954
#
#
# Mechanical properties :
#
#
# Convention : Reuss Voigt Hill
#
# Bulk Modulus (GPa) = 47.62263 51.53449 49.57856
# Shear Modulus (GPa) = 19.10146 23.13012 21.11579
#
# Velocity S-wave (km/s) = 3.20640 3.52837 3.37123
# Velocity P-wave (km/s) = 6.27216 6.65858 6.46826
#
# Compressibility (1/GPa) = 0.02099842
#
# Stress axis : x y z
#
# Youngs Moduli (GPa) = 30.97461 47.31889 59.02632
#
# Poissons Ratio (x) = 0.64427 0.47455
# Poissons Ratio (y) = 0.42174 0.17857
# Poissons Ratio (z) = 0.24903 0.14315
#
# Static dielectric constant tensor:
#      x y z
#    x 3.168300 0.000000 0.159120 
#    y 0.000000 3.413150 0.000000 
#    z 0.159120 0.000000 3.392170 
# 
# 
# High freq. dielectric constant tensor:
#      x y z
#    x 1.684260 0.000000 0.010290 
#    y 0.000000 1.721140 0.000000 
#    z 0.010290 0.000000 1.713830 
# 
# From -- ./inp_files/15341.got.cif
#   From: 2010.06.25/outbox.cif.g09.slc.cpg/sg9_8_cif.got.tgz:15341.got - 2010.06.27 21:40:51.
