data_PCOD8054710
_publ_section_title
;
Structure prediction by ZEFSAII (Michael W. Deem and Ramdas Pophale) SiO2 
 PCOD8054710
Probable space group: C C
;
_chemical_formula_sum "Si O2"
_cell_formula_units_Z 28
_cell_length_a 8.594118
_cell_length_b 11.588821
_cell_length_c 16.185086
_cell_angle_alpha 90.000000
_cell_angle_beta 122.072368
_cell_angle_gamma 90.000000
_cell_volume 1365.943747
_symmetry_space_group_name_H-M "C C"
_symmetry_group_IT_number 9
_symmetry_cell_setting 'monoclinic'
loop_
_space_group_symop_operation_xyz
x,y,z
x,-y,1/2+z
1/2+x,1/2+y,z
1/2+x,1/2-y,1/2+z
loop_
_atom_site_type_symbol
_atom_site_label
_atom_site_fract_x
_atom_site_fract_y
_atom_site_fract_z
Si Si1 0.782870 0.456303 0.167060
Si Si2 0.103503 0.456303 0.487693
Si Si3 0.831073 0.621010 0.327376
Si Si4 0.335041 0.872398 0.534334
Si Si5 0.421126 0.372398 0.120419
Si Si6 0.489006 0.346403 0.327376
Si Si7 0.643035 0.163959 0.827376
O O1 0.745671 0.544923 0.231027
O O2 0.815773 0.523088 0.092094
O O3 0.597800 0.380439 0.110058
O O4 0.954128 0.372260 0.231190
O O5 0.286338 0.523088 0.562659
O O6 0.146501 0.372260 0.423563
O O7 0.938370 0.544923 0.423726
O O8 0.032437 0.380439 0.544695
O O9 0.670882 0.696736 0.327376
O O10 0.980164 0.706891 0.327376
O O11 0.320955 0.750000 0.577376
O O12 0.176179 0.887696 0.421679
O O13 0.487574 0.387696 0.233074
O O14 0.312692 0.398339 0.327376
#
# Coordination Sequence:
#
# PCOD8054710 Si02
#       7
#     4   4   4   4   4   4   4
#     4  11  23  40  65  95 127 166 208 251 317 370
#     4  11  23  40  65  95 127 166 208 251 317 370
#     4   9  20  41  68  84 127 164 203 256 309 367
#     4  12  24  41  63  95 125 164 210 259 309 374
#     4  12  24  41  63  95 125 164 210 259 309 374
#     4  10  20  42  66  81 127 166 195 264 313 349
#     4   9  20  41  64  91 124 164 204 256 302 370
#
# _framework density 20.498647999999999
#
# number of rings (size 3 to 8) (size 9 to 14) (size 15 to 20)
#    0.857    0.571    2.857    3.429    0.000    2.286 
#    0.000    2.857    0.000    0.000    0.000    0.000 
#    0.000    0.000    0.000    0.000    0.000    0.000 
#
# Total GULP energy -173577.445484 kJ/mol
# GULP energy per Si atom -12398.388963 kJ/mol
# Density = 2.045199 g / cm^3
# Si number density = 20.498648 Si / 1000 Ang^3
#
#
#
# Elastic Constant Matrix: (Units=GPa)
#
#
# Indices 1 2 3 4 5 6 
#
# 1 126.3572 30.6183 36.8610 0.0000 -1.1284 0.0000
# 2 30.6183 68.7168 25.1028 0.0000 -0.3034 0.0000
# 3 36.8610 25.1028 116.7366 0.0000 0.5993 0.0000
# 4 0.0000 0.0000 0.0000 10.7981 0.0000 -1.8366
# 5 -1.1284 -0.3034 0.5993 0.0000 34.5854 0.0000
# 6 0.0000 0.0000 0.0000 -1.8366 0.0000 44.1888
#
#
#
# Elastic Compliance Matrix: (Units=1/GPa)
#
#
# Indices 1 2 3 4 5 6 
#
# 1 0.009386 -0.003361 -0.002242 0.000000 0.000316 0.000000
# 2 -0.003361 0.016998 -0.002594 0.000000 0.000084 0.000000
# 3 -0.002242 -0.002594 0.009834 0.000000 -0.000266 0.000000
# 4 0.000000 0.000000 0.000000 0.093268 0.000000 0.003876
# 5 0.000316 0.000084 -0.000266 0.000000 0.028930 0.000000
# 6 0.000000 0.000000 0.000000 0.003876 0.000000 0.022791
#
#
# Mechanical properties :
#
#
# Convention : Reuss Voigt Hill
#
# Bulk Modulus (GPa) = 50.45086 55.21943 52.83515
# Shear Modulus (GPa) = 24.48463 32.52969 28.50716
#
# Velocity S-wave (km/s) = 3.45983 3.98794 3.73323
# Velocity P-wave (km/s) = 6.37384 6.94272 6.66435
#
# Compressibility (1/GPa) = 0.01982127
#
# Stress axis : x y z
#
# Youngs Moduli (GPa) = 106.54665 58.82939 101.69214
#
# Poissons Ratio (x) = 0.19775 0.22803
# Poissons Ratio (y) = 0.35814 0.26382
# Poissons Ratio (z) = 0.23892 0.15262
#
# Static dielectric constant tensor:
#      x y z
#    x 3.627070 0.000000 0.002610 
#    y 0.000000 3.572660 0.000000 
#    z 0.002610 0.000000 3.674510 
# 
# 
# High freq. dielectric constant tensor:
#      x y z
#    x 1.802260 0.000000 0.000110 
#    y 0.000000 1.795970 0.000000 
#    z 0.000110 0.000000 1.804280 
# 
# From -- ./inp_files/22647.got.cif
#   From: 2010.06.25/outbox.cif.g09.slc.cpg/sg9_12_cif.got.tgz:22647.got - 2010.06.27 21:40:51.
