data_PCOD8054776
_publ_section_title
;
Structure prediction by ZEFSAII (Michael W. Deem and Ramdas Pophale) SiO2 
 PCOD8054776
Probable space group: C C
;
_chemical_formula_sum "Si O2"
_cell_formula_units_Z 32
_cell_length_a 14.605937
_cell_length_b 12.971381
_cell_length_c 13.385440
_cell_angle_alpha 90.000000
_cell_angle_beta 138.822679
_cell_angle_gamma 90.000000
_cell_volume 1669.677374
_symmetry_space_group_name_H-M "C C"
_symmetry_group_IT_number 9
_symmetry_cell_setting 'monoclinic'
loop_
_space_group_symop_operation_xyz
x,y,z
x,-y,1/2+z
1/2+x,1/2+y,z
1/2+x,1/2-y,1/2+z
loop_
_atom_site_type_symbol
_atom_site_label
_atom_site_fract_x
_atom_site_fract_y
_atom_site_fract_z
Si Si1 0.459300 0.401957 0.366180
Si Si2 0.304514 0.028128 0.381324
Si Si3 0.234874 0.116171 0.993247
Si Si4 0.033550 0.841571 0.628696
Si Si5 0.029218 0.377939 0.202423
Si Si6 0.310890 0.511723 0.916249
Si Si7 0.241828 0.646680 0.520570
Si Si8 0.467603 0.977097 0.818607
O O1 0.599700 0.441457 0.428127
O O2 0.498697 0.313981 0.482765
O O3 0.388983 0.497117 0.371877
O O4 0.356471 0.353124 0.201277
O O5 0.172576 0.091889 0.237812
O O6 0.393795 0.100857 0.526039
O O7 0.395672 0.993015 0.362476
O O8 0.257712 0.924892 0.400091
O O9 0.202749 0.237140 0.961062
O O10 0.370338 0.093867 0.169986
O O11 0.057373 0.743928 0.719236
O O12 0.903457 0.910553 0.562314
O O13 0.160588 0.440660 0.268805
O O14 0.001199 0.413710 0.292905
O O15 0.299053 0.404151 0.964850
O O16 0.108611 0.586121 0.452461
#
# Coordination Sequence:
#
# PCOD8054776 Si02
#       8
#     4   4   4   4   4   4   4   4
#     4  10  22  34  60  87 113 145 193 236 284 325
#     4  11  22  38  57  83 124 148 188 235 287 339
#     4  11  23  37  58  89 114 155 189 237 282 343
#     4  10  21  35  61  84 113 147 190 236 283 330
#     4  10  21  35  58  87 116 145 196 234 283 337
#     4   9  21  37  55  87 116 147 185 241 286 331
#     4  11  22  38  60  86 117 147 195 235 284 341
#     4  10  22  38  57  85 117 154 186 236 285 340
#
# _framework density 19.165379000000001
#
# number of rings (size 3 to 8) (size 9 to 14) (size 15 to 20)
#    0.750    1.000    1.250    3.000    5.250    0.000 
#    0.000    2.500    0.000   10.500    0.000    0.000 
#    0.000    0.000    0.000    0.000    0.000    0.000 
#
# Total GULP energy -198314.678696 kJ/mol
# GULP energy per Si atom -12394.667418 kJ/mol
# Density = 1.912176 g / cm^3
# Si number density = 19.165379 Si / 1000 Ang^3
#
#
#
# Elastic Constant Matrix: (Units=GPa)
#
#
# Indices 1 2 3 4 5 6 
#
# 1 136.3480 54.1164 26.9929 0.0000 -0.4852 0.0000
# 2 54.1164 69.6715 27.4658 0.0000 -8.2950 0.0000
# 3 26.9929 27.4658 95.1993 0.0000 12.0013 0.0000
# 4 0.0000 0.0000 0.0000 15.1371 0.0000 3.1984
# 5 -0.4852 -8.2950 12.0013 0.0000 26.6263 0.0000
# 6 0.0000 0.0000 0.0000 3.1984 0.0000 15.9505
#
#
#
# Elastic Compliance Matrix: (Units=1/GPa)
#
#
# Indices 1 2 3 4 5 6 
#
# 1 0.010768 -0.008521 -0.000302 0.000000 -0.002322 0.000000
# 2 -0.008521 0.024523 -0.005940 0.000000 0.010162 0.000000
# 3 -0.000302 -0.005940 0.013293 0.000000 -0.007848 0.000000
# 4 0.000000 0.000000 0.000000 0.068986 0.000000 -0.013833
# 5 -0.002322 0.010162 -0.007848 0.000000 0.044217 0.000000
# 6 0.000000 0.000000 0.000000 -0.013833 0.000000 0.065468
#
#
# Mechanical properties :
#
#
# Convention : Reuss Voigt Hill
#
# Bulk Modulus (GPa) = 52.47249 57.59656 55.03453
# Shear Modulus (GPa) = 19.00173 24.38571 21.69372
#
# Velocity S-wave (km/s) = 3.15216 3.57092 3.36806
# Velocity P-wave (km/s) = 6.37859 6.86437 6.62593
#
# Compressibility (1/GPa) = 0.01905761
#
# Stress axis : x y z
#
# Youngs Moduli (GPa) = 92.87018 40.77746 75.22775
#
# Poissons Ratio (x) = 0.34747 0.02271
# Poissons Ratio (y) = 0.79136 0.44686
# Poissons Ratio (z) = 0.02804 0.24222
#
# Static dielectric constant tensor:
#      x y z
#    x 3.658130 0.000000 0.143300 
#    y 0.000000 3.223040 0.000000 
#    z 0.143300 0.000000 3.603910 
# 
# 
# High freq. dielectric constant tensor:
#      x y z
#    x 1.750140 0.000000 0.017320 
#    y 0.000000 1.709890 0.000000 
#    z 0.017320 0.000000 1.762220 
# 
# From -- ./inp_files/25867.got.cif
#   From: 2010.06.25/outbox.cif.g09.slc.cpg/sg9_13_cif.got.tgz:25867.got - 2010.06.27 21:40:51.
