data_PCOD8054404
_publ_section_title
;
Structure prediction by ZEFSAII (Michael W. Deem and Ramdas Pophale) SiO2 
 PCOD8054404
Probable space group: C C
;
_chemical_formula_sum "Si O2"
_cell_formula_units_Z 32
_cell_length_a 11.525199
_cell_length_b 9.247670
_cell_length_c 14.437748
_cell_angle_alpha 90.000000
_cell_angle_beta 118.674266
_cell_angle_gamma 90.000000
_cell_volume 1350.078178
_symmetry_space_group_name_H-M "C C"
_symmetry_group_IT_number 9
_symmetry_cell_setting 'monoclinic'
loop_
_space_group_symop_operation_xyz
x,y,z
x,-y,1/2+z
1/2+x,1/2+y,z
1/2+x,1/2-y,1/2+z
loop_
_atom_site_type_symbol
_atom_site_label
_atom_site_fract_x
_atom_site_fract_y
_atom_site_fract_z
Si Si1 0.731260 0.065730 0.008100
Si Si2 0.865154 0.648021 0.169758
Si Si3 0.404509 0.270033 0.366776
Si Si4 0.043961 0.978469 0.827377
Si Si5 0.108431 0.659425 0.588869
Si Si6 0.109557 0.316917 0.294352
Si Si7 0.218700 0.108730 0.550518
Si Si8 0.494237 0.389560 0.116423
O O1 0.765123 0.230031 0.047633
O O2 0.656931 0.990772 0.064542
O O3 0.870379 0.989546 0.039457
O O4 0.632617 0.058793 0.880777
O O5 0.943761 0.662983 0.296950
O O6 0.723858 0.723593 0.130813
O O7 0.843205 0.478374 0.140792
O O8 0.943355 0.726556 0.116584
O O9 0.427914 0.435206 0.337472
O O10 0.488602 0.231126 0.488458
O O11 0.254348 0.245544 0.337794
O O12 0.067937 0.050621 0.736398
O O13 0.010201 0.808143 0.795545
O O14 0.175472 0.980071 0.941648
O O15 0.062155 0.623525 0.676523
O O16 0.094081 0.113547 0.570740
#
# Coordination Sequence:
#
# PCOD8054404 Si02
#       8
#     4   4   4   4   4   4   4   4
#     4  10  24  41  60  98 127 164 223 259 311 399
#     4   9  20  38  65  95 121 167 221 255 321 395
#     4  10  19  38  67  91 124 171 210 260 326 374
#     4  10  21  37  66  94 121 169 217 260 316 390
#     4  10  20  42  63  88 137 166 205 274 318 379
#     4  10  22  39  64  97 123 171 219 253 332 381
#     4  11  21  44  62  91 134 161 213 272 308 383
#     4  10  21  41  65  88 127 173 204 265 336 357
#
# _framework density 23.702331000000001
#
# number of rings (size 3 to 8) (size 9 to 14) (size 15 to 20)
#    0.000    2.000    1.250    3.000    1.750    0.000 
#   13.500    1.250    0.000    0.000    0.000    0.000 
#    0.000    0.000    0.000    0.000    0.000    0.000 
#
# Total GULP energy -198295.590128 kJ/mol
# GULP energy per Si atom -12393.474383 kJ/mol
# Density = 2.364838 g / cm^3
# Si number density = 23.702331 Si / 1000 Ang^3
#
#
#
# Elastic Constant Matrix: (Units=GPa)
#
#
# Indices 1 2 3 4 5 6 
#
# 1 70.7172 42.0250 29.4676 0.0000 -5.9180 0.0000
# 2 42.0250 114.3014 40.9686 0.0000 -14.3999 0.0000
# 3 29.4676 40.9686 154.2792 0.0000 -28.1733 0.0000
# 4 0.0000 0.0000 0.0000 34.3566 0.0000 5.7648
# 5 -5.9180 -14.3999 -28.1733 0.0000 19.0020 0.0000
# 6 0.0000 0.0000 0.0000 5.7648 0.0000 26.9704
#
#
#
# Elastic Compliance Matrix: (Units=1/GPa)
#
#
# Indices 1 2 3 4 5 6 
#
# 1 0.018674 -0.006338 -0.002329 0.000000 -0.002441 0.000000
# 2 -0.006338 0.012155 -0.000954 0.000000 0.005823 0.000000
# 3 -0.002329 -0.000954 0.009483 0.000000 0.012612 0.000000
# 4 0.000000 0.000000 0.000000 0.030189 0.000000 -0.006453
# 5 -0.002441 0.005823 0.012612 0.000000 0.074977 0.000000
# 6 0.000000 0.000000 0.000000 -0.006453 0.000000 0.038457
#
#
# Mechanical properties :
#
#
# Convention : Reuss Voigt Hill
#
# Bulk Modulus (GPa) = 47.46405 62.69114 55.07760
# Shear Modulus (GPa) = 23.78679 31.18824 27.48751
#
# Velocity S-wave (km/s) = 3.17134 3.63137 3.40913
# Velocity P-wave (km/s) = 5.78605 6.63997 6.22767
#
# Compressibility (1/GPa) = 0.02106858
#
# Stress axis : x y z
#
# Youngs Moduli (GPa) = 53.55059 82.27306 105.45223
#
# Poissons Ratio (x) = 0.52148 0.24564
# Poissons Ratio (y) = 0.33943 0.10056
# Poissons Ratio (z) = 0.12474 0.07846
#
# Static dielectric constant tensor:
#      x y z
#    x 4.014220 0.000000 -0.255970 
#    y 0.000000 4.270570 0.000000 
#    z -0.255970 0.000000 4.874710 
# 
# 
# High freq. dielectric constant tensor:
#      x y z
#    x 1.921490 0.000000 -0.012340 
#    y 0.000000 1.929990 0.000000 
#    z -0.012340 0.000000 1.959930 
# 
# From -- ./inp_files/24344.got.cif
#   From: 2010.06.25/outbox.cif.g09.slc.cpg/sg9_13_cif.got.tgz:24344.got - 2010.06.27 21:40:51.
