data_PCOD8054305
_publ_section_title
;
Structure prediction by ZEFSAII (Michael W. Deem and Ramdas Pophale) SiO2 
 PCOD8054305
Probable space group: C C
;
_chemical_formula_sum "Si O2"
_cell_formula_units_Z 32
_cell_length_a 21.190795
_cell_length_b 9.383436
_cell_length_c 8.933195
_cell_angle_alpha 90.000000
_cell_angle_beta 61.050196
_cell_angle_gamma 90.000000
_cell_volume 1554.339574
_symmetry_space_group_name_H-M "C C"
_symmetry_group_IT_number 9
_symmetry_cell_setting 'monoclinic'
loop_
_space_group_symop_operation_xyz
x,y,z
x,-y,1/2+z
1/2+x,1/2+y,z
1/2+x,1/2-y,1/2+z
loop_
_atom_site_type_symbol
_atom_site_label
_atom_site_fract_x
_atom_site_fract_y
_atom_site_fract_z
Si Si1 0.232270 0.528082 0.660350
Si Si2 0.891960 0.905306 0.893178
Si Si3 0.273997 0.799676 0.137514
Si Si4 0.306816 0.993424 0.842659
Si Si5 0.535373 0.104955 0.383982
Si Si6 0.907279 0.610645 0.976848
Si Si7 0.920287 0.170702 0.030212
Si Si8 0.633197 0.980102 0.522246
O O1 0.309800 0.594044 0.546364
O O2 0.235036 0.353587 0.676155
O O3 0.179330 0.573594 0.586635
O O4 0.194723 0.597723 0.850700
O O5 0.891404 0.900068 0.715093
O O6 0.932314 0.773910 0.925962
O O7 0.932636 0.048345 0.893788
O O8 0.256869 0.891095 0.309012
O O9 0.361428 0.783279 0.037024
O O10 0.257140 0.894202 0.007916
O O11 0.349093 0.896077 0.675542
O O12 0.368740 0.073778 0.864655
O O13 0.496178 0.252368 0.464031
O O14 0.582020 0.124509 0.177896
O O15 0.479458 0.976744 0.425568
O O16 0.585676 0.078740 0.468917
#
# Coordination Sequence:
#
# PCOD8054305 Si02
#       8
#     4   4   4   4   4   4   4   4
#     4  10  22  40  58  90 126 154 212 252 301 378
#     4  11  23  35  61  95 124 154 188 268 338 363
#     4  10  20  35  57  87 131 151 196 262 314 367
#     4  10  19  32  56  94 121 162 184 246 336 365
#     4  11  21  40  63  89 122 154 219 250 294 376
#     4  11  20  34  60  94 119 152 200 254 319 371
#     4  11  22  36  56  93 126 156 192 267 324 359
#     4  10  23  38  61  82 111 179 201 249 276 357
#
# _framework density 20.587520999999999
#
# number of rings (size 3 to 8) (size 9 to 14) (size 15 to 20)
#    0.000    1.500    3.750    3.000    5.250    0.000 
#    0.000    0.000    0.000   12.000    0.000    0.000 
#    0.000    0.000    0.000    0.000    0.000    0.000 
#
# Total GULP energy -198310.604168 kJ/mol
# GULP energy per Si atom -12394.412760 kJ/mol
# Density = 2.054066 g / cm^3
# Si number density = 20.587521 Si / 1000 Ang^3
#
#
#
# Elastic Constant Matrix: (Units=GPa)
#
#
# Indices 1 2 3 4 5 6 
#
# 1 79.8095 28.3376 37.7255 0.0000 3.9755 0.0000
# 2 28.3376 84.9535 33.9544 0.0000 6.4478 0.0000
# 3 37.7255 33.9544 125.6761 0.0000 11.5700 0.0000
# 4 0.0000 0.0000 0.0000 27.9225 0.0000 3.8068
# 5 3.9755 6.4478 11.5700 0.0000 34.8321 0.0000
# 6 0.0000 0.0000 0.0000 3.8068 0.0000 19.2214
#
#
#
# Elastic Compliance Matrix: (Units=1/GPa)
#
#
# Indices 1 2 3 4 5 6 
#
# 1 0.015591 -0.003739 -0.003683 0.000000 0.000136 0.000000
# 2 -0.003739 0.014150 -0.002577 0.000000 -0.001336 0.000000
# 3 -0.003683 -0.002577 0.009981 0.000000 -0.002418 0.000000
# 4 0.000000 0.000000 0.000000 0.036807 0.000000 -0.007290
# 5 0.000136 -0.001336 -0.002418 0.000000 0.029744 0.000000
# 6 0.000000 0.000000 0.000000 -0.007290 0.000000 0.053469
#
#
# Mechanical properties :
#
#
# Convention : Reuss Voigt Hill
#
# Bulk Modulus (GPa) = 50.69878 54.49714 52.59796
# Shear Modulus (GPa) = 26.83604 29.08997 27.96301
#
# Velocity S-wave (km/s) = 3.61433 3.76305 3.68944
# Velocity P-wave (km/s) = 6.48824 6.73863 6.61462
#
# Compressibility (1/GPa) = 0.01972434
#
# Stress axis : x y z
#
# Youngs Moduli (GPa) = 64.13777 70.67118 100.18680
#
# Poissons Ratio (x) = 0.26426 0.36894
# Poissons Ratio (y) = 0.23983 0.25823
# Poissons Ratio (z) = 0.23619 0.18215
#
# Static dielectric constant tensor:
#      x y z
#    x 3.637340 0.000000 0.186260 
#    y 0.000000 3.604400 0.000000 
#    z 0.186260 0.000000 4.046040 
# 
# 
# High freq. dielectric constant tensor:
#      x y z
#    x 1.788420 0.000000 0.023250 
#    y 0.000000 1.783050 0.000000 
#    z 0.023250 0.000000 1.820070 
# 
# From -- ./inp_files/12057.got.cif
#   From: 2010.06.25/outbox.cif.g09.slc.cpg/sg9_7_cif.got.tgz:12057.got - 2010.06.27 21:40:51.
