data_PCOD8054729
_publ_section_title
;
Structure prediction by ZEFSAII (Michael W. Deem and Ramdas Pophale) SiO2 
 PCOD8054729
Probable space group: C C
;
_chemical_formula_sum "Si O2"
_cell_formula_units_Z 20
_cell_length_a 7.225512
_cell_length_b 11.252661
_cell_length_c 10.422176
_cell_angle_alpha 90.000000
_cell_angle_beta 57.583455
_cell_angle_gamma 90.000000
_cell_volume 715.342134
_symmetry_space_group_name_H-M "C C"
_symmetry_group_IT_number 9
_symmetry_cell_setting 'monoclinic'
loop_
_space_group_symop_operation_xyz
x,y,z
x,-y,1/2+z
1/2+x,1/2+y,z
1/2+x,1/2-y,1/2+z
loop_
_atom_site_type_symbol
_atom_site_label
_atom_site_fract_x
_atom_site_fract_y
_atom_site_fract_z
Si Si1 0.887020 0.282305 0.482560
Si Si2 0.413178 0.326829 0.703784
Si Si3 0.978529 0.574947 0.315579
Si Si4 0.795352 0.574551 0.649368
Si Si5 0.860775 0.172937 0.761352
O O1 0.669750 0.364065 0.591721
O O2 0.851064 0.197673 0.374495
O O3 0.923119 0.197779 0.590644
O O4 0.104120 0.364169 0.373292
O O5 0.246936 0.428952 0.714615
O O6 0.377367 0.209262 0.632442
O O7 0.886821 0.522376 0.482387
O O8 0.886954 0.500580 0.232178
O O9 0.896832 0.709786 0.333050
O O10 0.526941 0.570694 0.750349
#
# Coordination Sequence:
#
# PCOD8054729 Si02
#       5
#     4   4   4   4   4
#     4  10  20  42  78 108 142 212 244 314 384 464
#     4  10  22  44  77 108 153 201 260 306 405 449
#     4  11  24  45  74 114 153 202 265 318 378 469
#     4  11  24  45  74 114 153 202 265 318 378 469
#     4  10  22  44  77 108 153 201 260 306 405 449
#
# _framework density 27.958648
#
# number of rings (size 3 to 8) (size 9 to 14) (size 15 to 20)
#    0.000    1.600    4.000    0.000    2.800    0.000 
#    0.000   12.000    0.000    0.000    0.000    0.000 
#    0.000    0.000    0.000    0.000    0.000    0.000 
#
# Total GULP energy -124035.599807 kJ/mol
# GULP energy per Si atom -12403.559981 kJ/mol
# Density = 2.789501 g / cm^3
# Si number density = 27.958648 Si / 1000 Ang^3
#
#
#
# Elastic Constant Matrix: (Units=GPa)
#
#
# Indices 1 2 3 4 5 6 
#
# 1 261.5961 64.4315 129.1269 0.0000 -30.8808 0.0000
# 2 64.4315 55.7382 54.3114 0.0000 -15.2487 0.0000
# 3 129.1269 54.3114 224.5624 0.0000 -3.2043 0.0000
# 4 0.0000 0.0000 0.0000 25.1121 0.0000 -19.9680
# 5 -30.8808 -15.2487 -3.2043 0.0000 75.3225 0.0000
# 6 0.0000 0.0000 0.0000 -19.9680 0.0000 57.3803
#
#
#
# Elastic Compliance Matrix: (Units=1/GPa)
#
#
# Indices 1 2 3 4 5 6 
#
# 1 0.006370 -0.004418 -0.002571 0.000000 0.001608 0.000000
# 2 -0.004418 0.028177 -0.004221 0.000000 0.003713 0.000000
# 3 -0.002571 -0.004221 0.006930 0.000000 -0.001614 0.000000
# 4 0.000000 0.000000 0.000000 0.055056 0.000000 0.019159
# 5 0.001608 0.003713 -0.001614 0.000000 0.014619 0.000000
# 6 0.000000 0.000000 0.000000 0.019159 0.000000 0.024095
#
#
# Mechanical properties :
#
#
# Convention : Reuss Voigt Hill
#
# Bulk Modulus (GPa) = 52.47871 115.29293 83.88582
# Shear Modulus (GPa) = 30.48421 51.16477 40.82449
#
# Velocity S-wave (km/s) = 3.30560 4.28251 3.82537
# Velocity P-wave (km/s) = 5.77756 8.11047 7.04130
#
# Compressibility (1/GPa) = 0.01905535
#
# Stress axis : x y z
#
# Youngs Moduli (GPa) = 156.98882 35.48947 144.30886
#
# Poissons Ratio (x) = 0.15679 0.37106
# Poissons Ratio (y) = 0.69358 0.60918
# Poissons Ratio (z) = 0.40367 0.14981
#
# Static dielectric constant tensor:
#      x y z
#    x 6.312660 0.000000 -1.325340 
#    y 0.000000 4.965630 0.000000 
#    z -1.325340 0.000000 7.908620 
# 
# 
# High freq. dielectric constant tensor:
#      x y z
#    x 2.159890 0.000000 -0.009000 
#    y 0.000000 2.136940 0.000000 
#    z -0.009000 0.000000 2.132110 
# 
# From -- ./inp_files/14155.got.cif
#   From: 2010.06.25/outbox.cif.g09.slc.cpg/sg9_8_cif.got.tgz:14155.got - 2010.06.27 21:40:51.
