data_PCOD8054721
_publ_section_title
;
Structure prediction by ZEFSAII (Michael W. Deem and Ramdas Pophale) SiO2 
 PCOD8054721
Probable space group: C C
;
_chemical_formula_sum "Si O2"
_cell_formula_units_Z 28
_cell_length_a 5.561847
_cell_length_b 18.386684
_cell_length_c 14.756006
_cell_angle_alpha 90.000000
_cell_angle_beta 117.170179
_cell_angle_gamma 90.000000
_cell_volume 1342.494414
_symmetry_space_group_name_H-M "C C"
_symmetry_group_IT_number 9
_symmetry_cell_setting 'monoclinic'
loop_
_space_group_symop_operation_xyz
x,y,z
x,-y,1/2+z
1/2+x,1/2+y,z
1/2+x,1/2-y,1/2+z
loop_
_atom_site_type_symbol
_atom_site_label
_atom_site_fract_x
_atom_site_fract_y
_atom_site_fract_z
Si Si1 0.855480 0.515172 0.001480
Si Si2 0.627409 0.630782 0.520927
Si Si3 0.526987 0.420213 0.302839
Si Si4 0.459354 0.156515 0.745855
Si Si5 0.067042 0.418749 0.877698
Si Si6 0.120737 0.815474 0.825484
Si Si7 0.753404 0.059039 0.219432
O O1 0.731015 0.452291 0.041607
O O2 0.060482 0.559853 0.099360
O O3 0.628595 0.570760 0.924484
O O4 0.979453 0.480774 0.932171
O O5 0.759484 0.672535 0.627635
O O6 0.305531 0.625646 0.468758
O O7 0.709461 0.673490 0.444865
O O8 0.762603 0.377501 0.288779
O O9 0.492062 0.499161 0.246860
O O10 0.224228 0.386676 0.255768
O O11 0.585594 0.231287 0.802152
O O12 0.128820 0.462563 0.795865
O O13 0.858475 0.355479 0.811584
O O14 0.851395 0.858428 0.750191
#
# Coordination Sequence:
#
# PCOD8054721 Si02
#       7
#     4   4   4   4   4   4   4
#     4  11  22  39  67 107 131 180 233 296 341 408
#     4  10  22  41  72  95 137 188 223 283 362 405
#     4  12  25  45  69 106 137 176 243 288 340 414
#     4  12  28  46  70 104 143 184 228 295 349 419
#     4  10  20  42  69  98 141 179 237 280 356 417
#     4  10  25  45  65  99 141 183 233 283 350 427
#     4  11  22  42  70  99 134 190 229 293 346 418
#
# _framework density 20.856697
#
# number of rings (size 3 to 8) (size 9 to 14) (size 15 to 20)
#    0.000    1.143    5.714    1.714    6.000    2.286 
#    2.571    0.000    0.000    0.000    0.000    0.000 
#    0.000    0.000    0.000    0.000    0.000    0.000 
#
# Total GULP energy -173459.752743 kJ/mol
# GULP energy per Si atom -12389.982339 kJ/mol
# Density = 2.080923 g / cm^3
# Si number density = 20.856697 Si / 1000 Ang^3
#
#
#
# Elastic Constant Matrix: (Units=GPa)
#
#
# Indices 1 2 3 4 5 6 
#
# 1 89.1288 12.5263 18.0751 0.0000 2.1694 0.0000
# 2 12.5263 70.0779 27.6270 0.0000 -6.7967 0.0000
# 3 18.0751 27.6270 149.8408 0.0000 23.5967 0.0000
# 4 0.0000 0.0000 0.0000 29.8020 0.0000 9.2070
# 5 2.1694 -6.7967 23.5967 0.0000 18.1969 0.0000
# 6 0.0000 0.0000 0.0000 9.2070 0.0000 21.4289
#
#
#
# Elastic Compliance Matrix: (Units=1/GPa)
#
#
# Indices 1 2 3 4 5 6 
#
# 1 0.011685 -0.001797 -0.000946 0.000000 -0.000837 0.000000
# 2 -0.001797 0.018006 -0.005273 0.000000 0.013777 0.000000
# 3 -0.000946 -0.005273 0.010119 0.000000 -0.014978 0.000000
# 4 0.000000 0.000000 0.000000 0.038691 0.000000 -0.016624
# 5 -0.000837 0.013777 -0.014978 0.000000 0.079623 0.000000
# 6 0.000000 0.000000 0.000000 -0.016624 0.000000 0.053808
#
#
# Mechanical properties :
#
#
# Convention : Reuss Voigt Hill
#
# Bulk Modulus (GPa) = 42.05632 47.27825 44.66729
# Shear Modulus (GPa) = 21.19648 30.60683 25.90165
#
# Velocity S-wave (km/s) = 3.19139 3.83493 3.52786
# Velocity P-wave (km/s) = 5.81276 6.50586 6.16905
#
# Compressibility (1/GPa) = 0.02377764
#
# Stress axis : x y z
#
# Youngs Moduli (GPa) = 85.58329 55.53755 98.82585
#
# Poissons Ratio (x) = 0.09978 0.09353
# Poissons Ratio (y) = 0.15376 0.52108
# Poissons Ratio (z) = 0.08100 0.29283
#
# Static dielectric constant tensor:
#      x y z
#    x 4.005180 0.000000 0.166820 
#    y 0.000000 3.508040 0.000000 
#    z 0.166820 0.000000 3.812780 
# 
# 
# High freq. dielectric constant tensor:
#      x y z
#    x 1.822330 0.000000 0.013610 
#    y 0.000000 1.793560 0.000000 
#    z 0.013610 0.000000 1.824620 
# 
# From -- ./inp_files/13110.got.cif
#   From: 2010.06.25/outbox.cif.g09.slc.cpg/sg9_7_cif.got.tgz:13110.got - 2010.06.27 21:40:51.
