data_PCOD8054195
_publ_section_title
;
Structure prediction by ZEFSAII (Michael W. Deem and Ramdas Pophale) SiO2 
 PCOD8054195
Probable space group: C C
;
_chemical_formula_sum "Si O2"
_cell_formula_units_Z 28
_cell_length_a 16.114804
_cell_length_b 17.465338
_cell_length_c 9.918969
_cell_angle_alpha 90.000000
_cell_angle_beta 145.759247
_cell_angle_gamma 90.000000
_cell_volume 1570.809381
_symmetry_space_group_name_H-M "C C"
_symmetry_group_IT_number 9
_symmetry_cell_setting 'monoclinic'
loop_
_space_group_symop_operation_xyz
x,y,z
x,-y,1/2+z
1/2+x,1/2+y,z
1/2+x,1/2-y,1/2+z
loop_
_atom_site_type_symbol
_atom_site_label
_atom_site_fract_x
_atom_site_fract_y
_atom_site_fract_z
Si Si1 0.464950 0.928563 0.111140
Si Si2 0.803469 0.298436 0.034102
Si Si3 0.600268 0.407148 0.907308
Si Si4 0.821663 0.467759 0.640674
Si Si5 0.781687 0.867584 0.537193
Si Si6 0.700515 0.333274 0.315929
Si Si7 0.893478 0.227154 0.411726
O O1 0.640968 0.921635 0.334304
O O2 0.426846 0.986598 0.179984
O O3 0.394035 0.845126 0.043777
O O4 0.406257 0.963019 0.894312
O O5 0.653117 0.342350 0.872563
O O6 0.761930 0.212780 0.926876
O O7 0.907814 0.289586 0.308346
O O8 0.423175 0.412473 0.667292
O O9 0.666561 0.488582 0.952844
O O10 0.658648 0.386034 0.133467
O O11 0.785898 0.383150 0.540609
O O12 0.808089 0.846013 0.730985
O O13 0.804683 0.262335 0.416600
O O14 0.552995 0.297056 0.181423
#
# Coordination Sequence:
#
# PCOD8054195 Si02
#       7
#     4   4   4   4   4   4   4
#     4  11  21  37  54  80 107 146 176 215 265 316
#     4   8  16  31  59  78 102 132 174 220 263 306
#     4   9  17  34  55  81 101 143 177 214 259 318
#     4  11  23  37  54  73 116 147 174 207 267 331
#     4   9  17  33  58  83 102 133 186 224 255 308
#     4  10  17  36  55  79 102 139 180 213 266 310
#     4   8  17  32  61  80 100 132 179 225 259 311
#
# _framework density 17.825205
#
# number of rings (size 3 to 8) (size 9 to 14) (size 15 to 20)
#    0.857    1.714    1.429    1.714    0.000    0.000 
#    7.714    0.000    0.000    0.000    0.000    0.000 
#    0.000    0.000    0.000    0.000    0.000    0.000 
#
# Total GULP energy -173509.402986 kJ/mol
# GULP energy per Si atom -12393.528785 kJ/mol
# Density = 1.778463 g / cm^3
# Si number density = 17.825205 Si / 1000 Ang^3
#
#
#
# Elastic Constant Matrix: (Units=GPa)
#
#
# Indices 1 2 3 4 5 6 
#
# 1 84.3882 39.0627 63.7665 0.0000 22.7903 0.0000
# 2 39.0627 71.3205 47.7653 0.0000 15.9968 0.0000
# 3 63.7665 47.7653 74.7960 0.0000 18.4457 0.0000
# 4 0.0000 0.0000 0.0000 19.5875 0.0000 0.6018
# 5 22.7903 15.9968 18.4457 0.0000 32.2281 0.0000
# 6 0.0000 0.0000 0.0000 0.6018 0.0000 22.9381
#
#
#
# Elastic Compliance Matrix: (Units=1/GPa)
#
#
# Indices 1 2 3 4 5 6 
#
# 1 0.035669 0.002429 -0.029624 0.000000 -0.009474 0.000000
# 2 0.002429 0.025057 -0.016978 0.000000 -0.004438 0.000000
# 3 -0.029624 -0.016978 0.049162 0.000000 0.001238 0.000000
# 4 0.000000 0.000000 0.000000 0.051094 0.000000 -0.001340
# 5 -0.009474 -0.004438 0.001238 0.000000 0.039223 0.000000
# 6 0.000000 0.000000 0.000000 -0.001340 0.000000 0.043631
#
#
# Mechanical properties :
#
#
# Convention : Reuss Voigt Hill
#
# Bulk Modulus (GPa) = 46.42053 59.07708 52.74880
# Shear Modulus (GPa) = 14.73353 20.27807 17.50580
#
# Velocity S-wave (km/s) = 2.87811 3.37650 3.13722
# Velocity P-wave (km/s) = 6.09453 6.95812 6.54059
#
# Compressibility (1/GPa) = 0.02154219
#
# Stress axis : x y z
#
# Youngs Moduli (GPa) = 28.03530 39.90954 20.34090
#
# Poissons Ratio (x) = -0.09693 0.60258
# Poissons Ratio (y) = -0.06809 0.34534
# Poissons Ratio (z) = 0.83052 0.67757
#
# Static dielectric constant tensor:
#      x y z
#    x 3.216190 0.000000 0.149340 
#    y 0.000000 3.213790 0.000000 
#    z 0.149340 0.000000 2.948140 
# 
# 
# High freq. dielectric constant tensor:
#      x y z
#    x 1.682990 0.000000 0.020120 
#    y 0.000000 1.679900 0.000000 
#    z 0.020120 0.000000 1.655940 
# 
# From -- ./inp_files/5655.got.cif
#   From: 2010.06.25/outbox.cif.g09.slc.cpg/sg9_3_cif.got.tgz:5655.got - 2010.06.27 21:40:51.
