data_PCOD8054333
_publ_section_title
;
Structure prediction by ZEFSAII (Michael W. Deem and Ramdas Pophale) SiO2 
 PCOD8054333
Probable space group: C C
;
_chemical_formula_sum "Si O2"
_cell_formula_units_Z 32
_cell_length_a 22.908328
_cell_length_b 13.669749
_cell_length_c 8.640688
_cell_angle_alpha 90.000000
_cell_angle_beta 31.953240
_cell_angle_gamma 90.000000
_cell_volume 1432.004013
_symmetry_space_group_name_H-M "C C"
_symmetry_group_IT_number 9
_symmetry_cell_setting 'monoclinic'
loop_
_space_group_symop_operation_xyz
x,y,z
x,-y,1/2+z
1/2+x,1/2+y,z
1/2+x,1/2-y,1/2+z
loop_
_atom_site_type_symbol
_atom_site_label
_atom_site_fract_x
_atom_site_fract_y
_atom_site_fract_z
Si Si1 0.564280 0.754009 0.021930
Si Si2 0.991556 0.814623 0.352859
Si Si3 0.571443 0.034114 0.390743
Si Si4 0.312021 0.454941 0.878285
Si Si5 0.207085 0.103138 0.859001
Si Si6 0.101176 0.965407 0.898681
Si Si7 0.951945 0.392176 0.861334
Si Si8 0.912081 0.099898 0.446043
O O1 0.453485 0.713115 0.362734
O O2 0.551441 0.717757 0.875235
O O3 0.576074 0.872018 0.997795
O O4 0.672276 0.708109 0.863337
O O5 0.872973 0.868835 0.643918
O O6 0.972548 0.721711 0.285943
O O7 0.080047 0.876359 0.060455
O O8 0.530240 0.069367 0.319300
O O9 0.481054 0.955345 0.646468
O O10 0.687084 0.977449 0.110845
O O11 0.383177 0.554899 0.679446
O O12 0.307159 0.421730 0.069593
O O13 0.321943 0.102667 0.690460
O O14 0.210601 0.021513 0.714862
O O15 0.112987 0.070735 0.195458
O O16 0.005557 0.046307 0.130951
#
# Coordination Sequence:
#
# PCOD8054333 Si02
#       8
#     4   4   4   4   4   4   4   4
#     4   9  20  39  60  86 120 152 198 254 303 358
#     4   9  21  40  61  87 117 151 202 258 301 350
#     4  11  24  42  59  86 126 163 198 247 301 360
#     4  10  19  35  61  84 113 154 195 240 297 351
#     4  11  21  38  62  89 118 159 199 243 300 361
#     4  10  19  35  62  89 116 150 199 252 298 347
#     4  11  25  41  57  85 125 162 200 246 297 360
#     4   9  17  34  58  88 113 143 193 250 293 343
#
# _framework density 22.346305999999998
#
# number of rings (size 3 to 8) (size 9 to 14) (size 15 to 20)
#    0.000    2.000    0.000    5.250    0.000    5.000 
#    0.000   11.250    0.000    0.000    0.000    0.000 
#    0.000    0.000    0.000    0.000    0.000    0.000 
#
# Total GULP energy -198222.432616 kJ/mol
# GULP energy per Si atom -12388.902038 kJ/mol
# Density = 2.229544 g / cm^3
# Si number density = 22.346306 Si / 1000 Ang^3
#
#
#
# Elastic Constant Matrix: (Units=GPa)
#
#
# Indices 1 2 3 4 5 6 
#
# 1 56.3777 22.6848 15.7711 0.0000 -23.9450 0.0000
# 2 22.6848 115.1338 20.8723 0.0000 -4.9735 0.0000
# 3 15.7711 20.8723 61.1691 0.0000 -17.9951 0.0000
# 4 0.0000 0.0000 0.0000 25.0198 0.0000 -0.8796
# 5 -23.9450 -4.9735 -17.9951 0.0000 40.2481 0.0000
# 6 0.0000 0.0000 0.0000 -0.8796 0.0000 29.1548
#
#
#
# Elastic Compliance Matrix: (Units=1/GPa)
#
#
# Indices 1 2 3 4 5 6 
#
# 1 0.025863 -0.004299 -0.000957 0.000000 0.014428 0.000000
# 2 -0.004299 0.009976 -0.003092 0.000000 -0.002707 0.000000
# 3 -0.000957 -0.003092 0.020001 0.000000 0.007991 0.000000
# 4 0.000000 0.000000 0.000000 0.040011 0.000000 0.001207
# 5 0.014428 -0.002707 0.007991 0.000000 0.036668 0.000000
# 6 0.000000 0.000000 0.000000 0.001207 0.000000 0.034336
#
#
# Mechanical properties :
#
#
# Convention : Reuss Voigt Hill
#
# Bulk Modulus (GPa) = 25.54687 39.03744 32.29216
# Shear Modulus (GPa) = 25.43257 30.44137 27.93697
#
# Velocity S-wave (km/s) = 3.37725 3.69488 3.53963
# Velocity P-wave (km/s) = 5.16380 5.97579 5.58457
#
# Compressibility (1/GPa) = 0.03914373
#
# Stress axis : x y z
#
# Youngs Moduli (GPa) = 38.66562 100.23848 49.99797
#
# Poissons Ratio (x) = 0.43093 0.04784
# Poissons Ratio (y) = 0.16622 0.15460
# Poissons Ratio (z) = 0.03700 0.30996
#
# Static dielectric constant tensor:
#      x y z
#    x 4.184900 0.000000 -0.018370 
#    y 0.000000 4.422220 0.000000 
#    z -0.018370 0.000000 3.706380 
# 
# 
# High freq. dielectric constant tensor:
#      x y z
#    x 1.885850 0.000000 -0.003280 
#    y 0.000000 1.879860 0.000000 
#    z -0.003280 0.000000 1.853260 
# 
# From -- ./inp_files/12247.got.cif
#   From: 2010.06.25/outbox.cif.g09.slc.cpg/sg9_7_cif.got.tgz:12247.got - 2010.06.27 21:40:51.
