data_PCOD8054257
_publ_section_title
;
Structure prediction by ZEFSAII (Michael W. Deem and Ramdas Pophale) SiO2 
 PCOD8054257
Probable space group: C C
;
_chemical_formula_sum "Si O2"
_cell_formula_units_Z 32
_cell_length_a 9.031455
_cell_length_b 26.883683
_cell_length_c 7.991603
_cell_angle_alpha 90.000000
_cell_angle_beta 114.817906
_cell_angle_gamma 90.000000
_cell_volume 1761.152866
_symmetry_space_group_name_H-M "C C"
_symmetry_group_IT_number 9
_symmetry_cell_setting 'monoclinic'
loop_
_space_group_symop_operation_xyz
x,y,z
x,-y,1/2+z
1/2+x,1/2+y,z
1/2+x,1/2-y,1/2+z
loop_
_atom_site_type_symbol
_atom_site_label
_atom_site_fract_x
_atom_site_fract_y
_atom_site_fract_z
Si Si1 0.559120 0.382910 0.612580
Si Si2 0.989956 0.167409 0.420245
Si Si3 0.403274 0.930465 0.748186
Si Si4 0.058707 0.484390 0.108835
Si Si5 0.080362 0.187034 0.815537
Si Si6 0.930612 0.734654 0.038396
Si Si7 0.633357 0.859050 0.687190
Si Si8 0.729056 0.062827 0.983082
O O1 0.582350 0.351978 0.797446
O O2 0.718188 0.413712 0.640534
O O3 0.515397 0.345845 0.438795
O O4 0.419247 0.424126 0.564588
O O5 0.960017 0.227485 0.395859
O O6 0.814005 0.141170 0.350011
O O7 0.088810 0.155838 0.641756
O O8 0.515078 0.882224 0.770127
O O9 0.444254 0.975121 0.642152
O O10 0.434213 0.950616 0.947064
O O11 0.201188 0.511485 0.070854
O O12 0.153294 0.445109 0.266478
O O13 0.257268 0.208021 0.948587
O O14 0.952920 0.232589 0.720939
O O15 0.075628 0.695051 0.104213
O O16 0.629163 0.892352 0.518984
#
# Coordination Sequence:
#
# PCOD8054257 Si02
#       8
#     4   4   4   4   4   4   4   4
#     4  11  22  39  58  95 113 149 201 239 281 348
#     4   9  21  38  56  82 119 156 189 234 284 336
#     4  10  21  36  60  82 118 143 197 242 288 351
#     4   9  20  41  56  84 112 154 187 236 308 343
#     4  10  21  38  58  83 122 154 196 231 289 328
#     4  10  18  38  56  78 120 161 179 236 284 332
#     4  10  18  37  58  80 114 155 189 234 287 342
#     4   9  21  37  60  82 112 148 194 238 287 360
#
# _framework density 18.169916000000001
#
# number of rings (size 3 to 8) (size 9 to 14) (size 15 to 20)
#    0.750    1.500    2.500    0.000    1.750    2.000 
#    9.000    0.000    0.000    0.000    0.000    0.000 
#    0.000    0.000    0.000    0.000    0.000    0.000 
#
# Total GULP energy -198265.036398 kJ/mol
# GULP energy per Si atom -12391.564775 kJ/mol
# Density = 1.812856 g / cm^3
# Si number density = 18.169916 Si / 1000 Ang^3
#
#
#
# Elastic Constant Matrix: (Units=GPa)
#
#
# Indices 1 2 3 4 5 6 
#
# 1 86.1533 29.9941 39.5550 0.0000 8.2569 0.0000
# 2 29.9941 82.2889 42.2011 0.0000 2.2708 0.0000
# 3 39.5550 42.2011 118.9126 0.0000 -1.9147 0.0000
# 4 0.0000 0.0000 0.0000 34.3848 0.0000 4.3977
# 5 8.2569 2.2708 -1.9147 0.0000 25.2128 0.0000
# 6 0.0000 0.0000 0.0000 4.3977 0.0000 4.3801
#
#
#
# Elastic Compliance Matrix: (Units=1/GPa)
#
#
# Indices 1 2 3 4 5 6 
#
# 1 0.015030 -0.003347 -0.003891 0.000000 -0.004916 0.000000
# 2 -0.003347 0.015678 -0.004461 0.000000 -0.000655 0.000000
# 3 -0.003891 -0.004461 0.011328 0.000000 0.002536 0.000000
# 4 0.000000 0.000000 0.000000 0.033367 0.000000 -0.033501
# 5 -0.004916 -0.000655 0.002536 0.000000 0.041524 0.000000
# 6 0.000000 0.000000 0.000000 -0.033501 0.000000 0.261940
#
#
# Mechanical properties :
#
#
# Convention : Reuss Voigt Hill
#
# Bulk Modulus (GPa) = 53.65513 56.76169 55.20841
# Shear Modulus (GPa) = 12.24052 24.50251 18.37151
#
# Velocity S-wave (km/s) = 2.59833 3.67621 3.18322
# Velocity P-wave (km/s) = 6.21253 7.02328 6.63031
#
# Compressibility (1/GPa) = 0.01863755
#
# Stress axis : x y z
#
# Youngs Moduli (GPa) = 66.53290 63.78214 88.27810
#
# Poissons Ratio (x) = 0.21351 0.34347
# Poissons Ratio (y) = 0.22271 0.39382
# Poissons Ratio (z) = 0.25887 0.28454
#
# Static dielectric constant tensor:
#      x y z
#    x 3.155400 0.000000 -0.040840 
#    y 0.000000 3.446160 0.000000 
#    z -0.040840 0.000000 3.409400 
# 
# 
# High freq. dielectric constant tensor:
#      x y z
#    x 1.689460 0.000000 0.005250 
#    y 0.000000 1.708870 0.000000 
#    z 0.005250 0.000000 1.703530 
# 
# From -- ./inp_files/6089.got.cif
#   From: 2010.06.25/outbox.cif.g09.slc.cpg/sg9_4_cif.got.tgz:6089.got - 2010.06.27 21:40:51.
