data_PCOD8054836
_publ_section_title
;
Structure prediction by ZEFSAII (Michael W. Deem and Ramdas Pophale) SiO2 
 PCOD8054836
Probable space group: C C
;
_chemical_formula_sum "Si O2"
_cell_formula_units_Z 32
_cell_length_a 15.092513
_cell_length_b 21.401951
_cell_length_c 8.456493
_cell_angle_alpha 90.000000
_cell_angle_beta 36.047076
_cell_angle_gamma 90.000000
_cell_volume 1607.365392
_symmetry_space_group_name_H-M "C C"
_symmetry_group_IT_number 9
_symmetry_cell_setting 'monoclinic'
loop_
_space_group_symop_operation_xyz
x,y,z
x,-y,1/2+z
1/2+x,1/2+y,z
1/2+x,1/2-y,1/2+z
loop_
_atom_site_type_symbol
_atom_site_label
_atom_site_fract_x
_atom_site_fract_y
_atom_site_fract_z
Si Si1 0.235040 0.575405 0.468160
Si Si2 0.190523 0.815968 0.314806
Si Si3 0.891681 0.003903 0.480908
Si Si4 0.871918 0.195411 0.133490
Si Si5 0.894693 0.545950 0.975853
Si Si6 0.130525 0.102006 0.195622
Si Si7 0.280718 0.923378 0.979789
Si Si8 0.986254 0.111165 0.719693
O O1 0.275961 0.558250 0.591437
O O2 0.341805 0.533364 0.206551
O O3 0.274205 0.648353 0.384460
O O4 0.064749 0.556206 0.675714
O O5 0.284910 0.759969 0.251484
O O6 0.120634 0.856335 0.556721
O O7 0.302212 0.857238 0.041824
O O8 0.041752 0.790185 0.443853
O O9 0.056085 0.034593 0.270212
O O10 0.890313 0.952527 0.338301
O O11 0.886597 0.166546 0.936366
O O12 0.802828 0.593281 0.997978
O O13 0.825255 0.476763 0.044229
O O14 0.883298 0.565241 0.177014
O O15 0.047363 0.135265 0.464222
O O16 0.108304 0.916367 0.171033
#
# Coordination Sequence:
#
# PCOD8054836 Si02
#       8
#     4   4   4   4   4   4   4   4
#     4  11  23  38  61  94 131 152 198 261 312 373
#     4  11  24  44  64  87 121 171 213 258 300 370
#     4  11  19  36  61  91 122 155 192 252 320 371
#     4  10  24  44  62  85 123 167 214 248 312 366
#     4  11  22  37  62 100 127 157 200 257 321 372
#     4  11  21  37  67  91 119 163 207 248 316 374
#     4  10  21  38  62  91 127 158 203 253 308 372
#     4   9  20  38  63  93 118 159 203 255 307 378
#
# _framework density 19.908355
#
# number of rings (size 3 to 8) (size 9 to 14) (size 15 to 20)
#    0.000    1.500    3.750    1.500    3.500    0.000 
#    4.500    1.250    0.000    0.000    0.000    0.000 
#    0.000    0.000    0.000    0.000    0.000    0.000 
#
# Total GULP energy -198244.116813 kJ/mol
# GULP energy per Si atom -12390.257301 kJ/mol
# Density = 1.986304 g / cm^3
# Si number density = 19.908355 Si / 1000 Ang^3
#
#
#
# Elastic Constant Matrix: (Units=GPa)
#
#
# Indices 1 2 3 4 5 6 
#
# 1 64.9778 26.3910 20.3191 0.0001 2.5499 -0.0001
# 2 26.3910 99.4418 33.0610 0.0000 8.2000 0.0000
# 3 20.3191 33.0610 75.6750 0.0001 -2.5912 -0.0001
# 4 0.0001 0.0000 0.0001 23.0617 -0.0001 -3.6621
# 5 2.5499 8.2000 -2.5912 -0.0001 28.3600 0.0001
# 6 -0.0001 0.0000 -0.0001 -3.6621 0.0001 30.0296
#
#
#
# Elastic Compliance Matrix: (Units=1/GPa)
#
#
# Indices 1 2 3 4 5 6 
#
# 1 0.017905 -0.003594 -0.003267 0.000000 -0.000869 0.000000
# 2 -0.003594 0.012929 -0.004815 0.000000 -0.003855 0.000000
# 3 -0.003267 -0.004815 0.016304 0.000000 0.003176 0.000000
# 4 0.000000 0.000000 0.000000 0.044218 0.000000 0.005392
# 5 -0.000869 -0.003855 0.003176 0.000000 0.036744 0.000000
# 6 0.000000 0.000000 0.000000 0.005392 0.000000 0.033958
#
#
# Mechanical properties :
#
#
# Convention : Reuss Voigt Hill
#
# Bulk Modulus (GPa) = 42.04315 44.40408 43.22362
# Shear Modulus (GPa) = 25.86116 26.97850 26.41983
#
# Velocity S-wave (km/s) = 3.60809 3.68521 3.64685
# Velocity P-wave (km/s) = 6.20660 6.36085 6.28420
#
# Compressibility (1/GPa) = 0.02378508
#
# Stress axis : x y z
#
# Youngs Moduli (GPa) = 55.84903 77.34677 61.33399
#
# Poissons Ratio (x) = 0.27798 0.20040
# Poissons Ratio (y) = 0.20072 0.29534
# Poissons Ratio (z) = 0.18247 0.37245
#
# Static dielectric constant tensor:
#      x y z
#    x 3.595730 0.000000 0.113610 
#    y 0.000000 3.470830 0.000000 
#    z 0.113610 0.000000 3.503210 
# 
# 
# High freq. dielectric constant tensor:
#      x y z
#    x 1.780120 0.000000 0.006810 
#    y 0.000000 1.759670 0.000000 
#    z 0.006810 0.000000 1.770130 
# 
# From -- ./inp_files/8007.got.cif
#   From: 2010.06.25/outbox.cif.g09.slc.cpg/sg9_5_cif.got.tgz:8007.got - 2010.06.27 21:40:51.
