data_PCOD8054880
_publ_section_title
;
Structure prediction by ZEFSAII (Michael W. Deem and Ramdas Pophale) SiO2 
 PCOD8054880
Probable space group: C C
;
_chemical_formula_sum "Si O2"
_cell_formula_units_Z 28
_cell_length_a 11.952652
_cell_length_b 17.721332
_cell_length_c 8.745467
_cell_angle_alpha 90.000000
_cell_angle_beta 140.995819
_cell_angle_gamma 90.000000
_cell_volume 1165.881951
_symmetry_space_group_name_H-M "C C"
_symmetry_group_IT_number 9
_symmetry_cell_setting 'monoclinic'
loop_
_space_group_symop_operation_xyz
x,y,z
x,-y,1/2+z
1/2+x,1/2+y,z
1/2+x,1/2-y,1/2+z
loop_
_atom_site_type_symbol
_atom_site_label
_atom_site_fract_x
_atom_site_fract_y
_atom_site_fract_z
Si Si1 0.008300 0.204149 0.623630
Si Si2 0.348694 0.162227 0.126513
Si Si3 0.280165 0.431510 0.813368
Si Si4 0.680243 0.644038 0.513987
Si Si5 0.347985 0.584445 0.047016
Si Si6 0.957695 0.633252 0.568600
Si Si7 0.885539 0.461757 0.443393
O O1 0.107529 0.204918 0.561827
O O2 0.941372 0.287360 0.592471
O O3 0.841570 0.146169 0.459620
O O4 0.139972 0.179624 0.899943
O O5 0.425232 0.178260 0.376319
O O6 0.379692 0.075656 0.106993
O O7 0.370226 0.433252 0.747111
O O8 0.071061 0.437450 0.565436
O O9 0.357144 0.504448 0.977462
O O10 0.532164 0.630875 0.221577
O O11 0.854574 0.672327 0.602804
O O12 0.730768 0.569339 0.668034
O O13 0.170374 0.631885 0.819805
O O14 0.872009 0.550487 0.456973
#
# Coordination Sequence:
#
# PCOD8054880 Si02
#       7
#     4   4   4   4   4   4   4
#     4  10  24  45  68  97 135 195 229 282 348 424
#     4  11  24  44  69  97 137 186 234 281 342 422
#     4  10  21  39  65 100 138 176 230 276 347 403
#     4  10  22  41  67  99 137 183 229 280 347 410
#     4  10  23  37  64 106 139 178 222 293 335 409
#     4  11  23  41  68 105 138 176 233 293 342 395
#     4  10  21  39  69 100 138 178 225 283 347 409
#
# _framework density 24.016152999999999
#
# number of rings (size 3 to 8) (size 9 to 14) (size 15 to 20)
#    0.000    1.714    1.429    1.714   14.000    0.000 
#    2.571    2.857    3.143    0.000    0.000    0.000 
#    0.000    0.000    0.000    0.000    0.000    0.000 
#
# Total GULP energy -173510.655060 kJ/mol
# GULP energy per Si atom -12393.618219 kJ/mol
# Density = 2.396149 g / cm^3
# Si number density = 24.016153 Si / 1000 Ang^3
#
#
#
# Elastic Constant Matrix: (Units=GPa)
#
#
# Indices 1 2 3 4 5 6 
#
# 1 77.1518 24.8274 28.2527 0.0000 0.1157 0.0000
# 2 24.8274 49.5499 29.6881 0.0000 -2.4808 0.0000
# 3 28.2527 29.6881 144.7547 0.0000 1.0937 0.0000
# 4 0.0000 0.0000 0.0000 23.9087 0.0000 -4.0771
# 5 0.1157 -2.4808 1.0937 0.0000 32.8637 0.0000
# 6 0.0000 0.0000 0.0000 -4.0771 0.0000 50.5493
#
#
#
# Elastic Compliance Matrix: (Units=1/GPa)
#
#
# Indices 1 2 3 4 5 6 
#
# 1 0.015806 -0.006955 -0.001655 0.000000 -0.000526 0.000000
# 2 -0.006955 0.026188 -0.004030 0.000000 0.002135 0.000000
# 3 -0.001655 -0.004030 0.008062 0.000000 -0.000567 0.000000
# 4 0.000000 0.000000 0.000000 0.042409 0.000000 0.003421
# 5 -0.000526 0.002135 -0.000567 0.000000 0.030611 0.000000
# 6 0.000000 0.000000 0.000000 0.003421 0.000000 0.020059
#
#
# Mechanical properties :
#
#
# Convention : Reuss Voigt Hill
#
# Bulk Modulus (GPa) = 40.35879 48.55476 44.45678
# Shear Modulus (GPa) = 28.30113 34.04355 31.17234
#
# Velocity S-wave (km/s) = 3.43654 3.76909 3.60665
# Velocity P-wave (km/s) = 5.70857 6.26122 5.99127
#
# Compressibility (1/GPa) = 0.02477775
#
# Stress axis : x y z
#
# Youngs Moduli (GPa) = 63.26632 38.18587 124.03998
#
# Poissons Ratio (x) = 0.26557 0.20524
# Poissons Ratio (y) = 0.44000 0.49984
# Poissons Ratio (z) = 0.10468 0.15388
#
# Static dielectric constant tensor:
#      x y z
#    x 4.322430 0.000000 0.228720 
#    y 0.000000 3.817670 0.000000 
#    z 0.228720 0.000000 4.558860 
# 
# 
# High freq. dielectric constant tensor:
#      x y z
#    x 1.946290 0.000000 0.012330 
#    y 0.000000 1.923600 0.000000 
#    z 0.012330 0.000000 1.971950 
# 
# From -- ./inp_files/8238.got.cif
#   From: 2010.06.25/outbox.cif.g09.slc.cpg/sg9_5_cif.got.tgz:8238.got - 2010.06.27 21:40:51.
