data_PCOD8054872
_publ_section_title
;
Structure prediction by ZEFSAII (Michael W. Deem and Ramdas Pophale) SiO2 
 PCOD8054872
Probable space group: C C
;
_chemical_formula_sum "Si O2"
_cell_formula_units_Z 32
_cell_length_a 8.787443
_cell_length_b 10.278536
_cell_length_c 23.536560
_cell_angle_alpha 90.000000
_cell_angle_beta 134.772077
_cell_angle_gamma 90.000000
_cell_volume 1509.185226
_symmetry_space_group_name_H-M "C C"
_symmetry_group_IT_number 9
_symmetry_cell_setting 'monoclinic'
loop_
_space_group_symop_operation_xyz
x,y,z
x,-y,1/2+z
1/2+x,1/2+y,z
1/2+x,1/2-y,1/2+z
loop_
_atom_site_type_symbol
_atom_site_label
_atom_site_fract_x
_atom_site_fract_y
_atom_site_fract_z
Si Si1 0.759440 0.872565 0.081890
Si Si2 0.305314 0.349426 0.605705
Si Si3 0.126913 0.546711 0.422261
Si Si4 0.507451 0.494302 0.938131
Si Si5 0.514107 0.304953 0.345351
Si Si6 0.633116 0.860589 0.171600
Si Si7 0.945691 0.389943 0.600561
Si Si8 0.983593 0.294776 0.425397
O O1 0.598916 0.861248 0.093912
O O2 0.888791 0.739156 0.120129
O O3 0.901209 0.003215 0.129697
O O4 0.642743 0.893998 0.990690
O O5 0.496165 0.249392 0.667664
O O6 0.117126 0.336398 0.601314
O O7 0.197909 0.314567 0.518020
O O8 0.359932 0.522826 0.455290
O O9 0.983045 0.652875 0.351766
O O10 0.999532 0.410045 0.383119
O O11 0.423711 0.601254 0.871421
O O12 0.500851 0.352031 0.905354
O O13 0.741106 0.540462 0.018638
O O14 0.380622 0.338543 0.253592
O O15 0.767453 0.324878 0.403439
O O16 0.552350 0.003495 0.170802
#
# Coordination Sequence:
#
# PCOD8054872 Si02
#       8
#     4   4   4   4   4   4   4   4
#     4  10  23  39  64  96 124 168 220 265 323 388
#     4  10  21  39  62  97 120 166 219 266 316 394
#     4  10  23  38  67  98 122 168 224 269 322 394
#     4  11  21  38  67  97 125 165 219 274 322 387
#     4  11  24  44  61  95 137 167 211 278 331 383
#     4  11  26  41  64  94 136 172 212 276 337 373
#     4  11  21  38  64  96 124 166 218 267 320 391
#     4  10  21  39  67  91 126 166 219 263 317 394
#
# _framework density 21.203493000000002
#
# number of rings (size 3 to 8) (size 9 to 14) (size 15 to 20)
#    0.000    1.500    3.750    0.750    3.500    5.000 
#    0.000    1.250    0.000    0.000    0.000    0.000 
#    0.000    0.000    0.000    0.000    0.000    0.000 
#
# Total GULP energy -198211.525673 kJ/mol
# GULP energy per Si atom -12388.220355 kJ/mol
# Density = 2.115523 g / cm^3
# Si number density = 21.203493 Si / 1000 Ang^3
#
#
#
# Elastic Constant Matrix: (Units=GPa)
#
#
# Indices 1 2 3 4 5 6 
#
# 1 81.9827 58.1934 29.5765 0.0000 4.0873 0.0000
# 2 58.1934 188.5378 15.1011 0.0000 15.9566 0.0000
# 3 29.5765 15.1011 53.1735 0.0000 6.2889 0.0000
# 4 0.0000 0.0000 0.0000 22.1045 0.0000 4.8115
# 5 4.0873 15.9566 6.2889 0.0000 14.8710 0.0000
# 6 0.0000 0.0000 0.0000 4.8115 0.0000 39.8577
#
#
#
# Elastic Compliance Matrix: (Units=1/GPa)
#
#
# Indices 1 2 3 4 5 6 
#
# 1 0.019505 -0.005644 -0.009820 0.000000 0.004848 0.000000
# 2 -0.005644 0.007514 0.001869 0.000000 -0.007302 0.000000
# 3 -0.009820 0.001869 0.024901 0.000000 -0.009837 0.000000
# 4 0.000000 0.000000 0.000000 0.046460 0.000000 -0.005609
# 5 0.004848 -0.007302 -0.009837 0.000000 0.077907 0.000000
# 6 0.000000 0.000000 0.000000 -0.005609 0.000000 0.025766
#
#
# Mechanical properties :
#
#
# Convention : Reuss Voigt Hill
#
# Bulk Modulus (GPa) = 40.43556 58.82622 49.63089
# Shear Modulus (GPa) = 21.05377 30.08820 25.57098
#
# Velocity S-wave (km/s) = 3.15451 3.77108 3.47649
# Velocity P-wave (km/s) = 5.69030 6.83851 6.29066
#
# Compressibility (1/GPa) = 0.02473071
#
# Stress axis : x y z
#
# Youngs Moduli (GPa) = 51.26925 133.07877 40.15917
#
# Poissons Ratio (x) = 0.75111 0.39435
# Poissons Ratio (y) = 0.28937 -0.07506
# Poissons Ratio (z) = 0.50344 -0.24872
#
# Static dielectric constant tensor:
#      x y z
#    x 3.711910 0.000000 0.021970 
#    y 0.000000 4.596230 0.000000 
#    z 0.021970 0.000000 3.369990 
# 
# 
# High freq. dielectric constant tensor:
#      x y z
#    x 1.819970 0.000000 0.008620 
#    y 0.000000 1.866310 0.000000 
#    z 0.008620 0.000000 1.785710 
# 
# From -- ./inp_files/36375.got.cif
#   From: 2010.06.25/outbox.cif.g09.slc.cpg/sg9_19_cif.got.tgz:36375.got - 2010.06.27 21:40:51.
