data_PCOD8054196
_publ_section_title
;
Structure prediction by ZEFSAII (Michael W. Deem and Ramdas Pophale) SiO2 
 PCOD8054196
Probable space group: C C
;
_chemical_formula_sum "Si O2"
_cell_formula_units_Z 28
_cell_length_a 15.777297
_cell_length_b 16.808755
_cell_length_c 7.841497
_cell_angle_alpha 90.000000
_cell_angle_beta 35.424870
_cell_angle_gamma 90.000000
_cell_volume 1205.373617
_symmetry_space_group_name_H-M "C C"
_symmetry_group_IT_number 9
_symmetry_cell_setting 'monoclinic'
loop_
_space_group_symop_operation_xyz
x,y,z
x,-y,1/2+z
1/2+x,1/2+y,z
1/2+x,1/2-y,1/2+z
loop_
_atom_site_type_symbol
_atom_site_label
_atom_site_fract_x
_atom_site_fract_y
_atom_site_fract_z
Si Si1 0.726160 0.226084 0.120570
Si Si2 0.950245 0.100209 0.792270
Si Si3 0.562234 0.866390 0.175580
Si Si4 0.825609 0.602949 0.501788
Si Si5 0.771815 0.438223 0.718673
Si Si6 0.633433 0.851055 0.436855
Si Si7 0.790901 0.002760 0.780180
O O1 0.607073 0.188461 0.443137
O O2 0.723358 0.319144 0.169679
O O3 0.887329 0.189999 0.902954
O O4 0.699852 0.215526 0.958637
O O5 0.113390 0.102368 0.451871
O O6 0.831006 0.048588 0.885718
O O7 0.934045 0.051376 0.996454
O O8 0.393208 0.890342 0.409780
O O9 0.588539 0.821461 0.317920
O O10 0.650321 0.948131 0.035616
O O11 0.754390 0.533221 0.729054
O O12 0.835736 0.567434 0.299296
O O13 0.992148 0.621544 0.278492
O O14 0.746217 0.924644 0.225714
#
# Coordination Sequence:
#
# PCOD8054196 Si02
#       7
#     4   4   4   4   4   4   4
#     4  10  25  44  70  97 140 182 229 289 353 406
#     4  10  21  37  64  99 135 172 222 293 341 400
#     4  10  21  42  72 100 129 191 233 276 348 423
#     4  11  25  44  69 101 138 184 227 294 344 411
#     4  11  24  42  70 101 138 176 238 284 350 408
#     4  10  21  41  70  98 135 178 239 280 333 428
#     4  10  17  36  65  96 129 177 232 274 335 418
#
# _framework density 23.229312
#
# number of rings (size 3 to 8) (size 9 to 14) (size 15 to 20)
#    0.000    1.714    2.857    0.857    4.000    0.000 
#    2.571    5.714    0.000    0.000    0.000    0.000 
#    0.000    0.000    0.000    0.000    0.000    0.000 
#
# Total GULP energy -173438.085491 kJ/mol
# GULP energy per Si atom -12388.434678 kJ/mol
# Density = 2.317644 g / cm^3
# Si number density = 23.229312 Si / 1000 Ang^3
#
#
#
# Elastic Constant Matrix: (Units=GPa)
#
#
# Indices 1 2 3 4 5 6 
#
# 1 49.0282 30.2656 21.1406 0.0000 0.3391 0.0000
# 2 30.2656 125.1970 48.3636 0.0001 1.8702 -0.0001
# 3 21.1406 48.3636 132.5495 0.0000 -21.1973 -0.0001
# 4 0.0000 0.0001 0.0000 14.7992 -0.0001 4.0882
# 5 0.3391 1.8702 -21.1973 -0.0001 35.7957 0.0001
# 6 0.0000 -0.0001 -0.0001 4.0882 0.0001 26.0604
#
#
#
# Elastic Compliance Matrix: (Units=1/GPa)
#
#
# Indices 1 2 3 4 5 6 
#
# 1 0.024489 -0.005017 -0.002287 0.000000 -0.001324 0.000000
# 2 -0.005017 0.010578 -0.003469 0.000000 -0.002559 0.000000
# 3 -0.002287 -0.003469 0.010170 0.000000 0.006226 0.000000
# 4 0.000000 0.000000 0.000000 0.070632 0.000000 -0.011080
# 5 -0.001324 -0.002559 0.006226 0.000000 0.031769 0.000000
# 6 0.000000 0.000000 0.000000 -0.011080 0.000000 0.040111
#
#
# Mechanical properties :
#
#
# Convention : Reuss Voigt Hill
#
# Bulk Modulus (GPa) = 42.20818 56.25713 49.23265
# Shear Modulus (GPa) = 23.02107 29.13139 26.07623
#
# Velocity S-wave (km/s) = 3.15149 3.54514 3.35409
# Velocity P-wave (km/s) = 5.60822 6.40532 6.01998
#
# Compressibility (1/GPa) = 0.02369209
#
# Stress axis : x y z
#
# Youngs Moduli (GPa) = 40.83532 94.53179 98.32411
#
# Poissons Ratio (x) = 0.47424 0.22487
# Poissons Ratio (y) = 0.20486 0.34108
# Poissons Ratio (z) = 0.09339 0.32793
#
# Static dielectric constant tensor:
#      x y z
#    x 4.141010 0.000000 0.050850 
#    y 0.000000 4.598330 0.000000 
#    z 0.050850 0.000000 4.045540 
# 
# 
# High freq. dielectric constant tensor:
#      x y z
#    x 1.915510 0.000000 -0.004550 
#    y 0.000000 1.910230 0.000000 
#    z -0.004550 0.000000 1.907430 
# 
# From -- ./inp_files/5392.got.cif
#   From: 2010.06.25/outbox.cif.g09.slc.cpg/sg9_3_cif.got.tgz:5392.got - 2010.06.27 21:40:51.
