data_PCOD8054295
_publ_section_title
;
Structure prediction by ZEFSAII (Michael W. Deem and Ramdas Pophale) SiO2 
 PCOD8054295
Probable space group: C C
;
_chemical_formula_sum "Si O2"
_cell_formula_units_Z 24
_cell_length_a 7.137440
_cell_length_b 18.538036
_cell_length_c 9.131914
_cell_angle_alpha 90.000000
_cell_angle_beta 119.447091
_cell_angle_gamma 90.000000
_cell_volume 1052.183375
_symmetry_space_group_name_H-M "C C"
_symmetry_group_IT_number 9
_symmetry_cell_setting 'monoclinic'
loop_
_space_group_symop_operation_xyz
x,y,z
x,-y,1/2+z
1/2+x,1/2+y,z
1/2+x,1/2-y,1/2+z
loop_
_atom_site_type_symbol
_atom_site_label
_atom_site_fract_x
_atom_site_fract_y
_atom_site_fract_z
Si Si1 0.684340 0.418811 0.101340
Si Si2 0.392953 0.842294 0.642874
Si Si3 0.647106 0.961766 0.581930
Si Si4 0.521821 0.315017 0.271096
Si Si5 0.698587 0.086243 0.798108
Si Si6 0.740140 0.450597 0.810377
O O1 0.555634 0.353719 0.127512
O O2 0.618477 0.492523 0.159434
O O3 0.940901 0.403117 0.199700
O O4 0.603958 0.427949 0.902304
O O5 0.572714 0.897327 0.657276
O O6 0.504376 0.769288 0.736587
O O7 0.280541 0.876560 0.740793
O O8 0.227683 0.829906 0.448910
O O9 0.779734 0.927410 0.496941
O O10 0.779717 0.017754 0.733335
O O11 0.454266 0.008815 0.442412
O O12 0.308665 0.342727 0.273018
#
# Coordination Sequence:
#
# PCOD8054295 Si02
#       6
#     4   4   4   4   4   4
#     4  10  20  43  71  99 133 181 230 283 335 406
#     4  12  25  46  68 104 143 183 222 293 340 410
#     4  10  19  43  73  96 131 177 229 284 331 397
#     4  12  28  44  67 102 146 180 230 276 357 408
#     4  10  22  42  70  99 131 179 231 276 337 405
#     4  10  18  40  75  94 132 180 226 286 332 392
#
# _framework density 22.809712999999999
#
# number of rings (size 3 to 8) (size 9 to 14) (size 15 to 20)
#    0.000    1.333    8.333    0.000    4.667    4.000 
#    0.000    0.000    0.000    0.000    0.000    0.000 
#    0.000    0.000    0.000    0.000    0.000    0.000 
#
# Total GULP energy -148782.815559 kJ/mol
# GULP energy per Si atom -12398.567963 kJ/mol
# Density = 2.275780 g / cm^3
# Si number density = 22.809713 Si / 1000 Ang^3
#
#
#
# Elastic Constant Matrix: (Units=GPa)
#
#
# Indices 1 2 3 4 5 6 
#
# 1 48.2418 3.4726 8.9538 0.0000 -4.6409 0.0000
# 2 3.4726 136.0356 42.0798 0.0000 -4.2881 0.0000
# 3 8.9538 42.0798 102.9501 0.0000 -55.2735 0.0000
# 4 0.0000 0.0000 0.0000 35.2523 0.0000 -4.9975
# 5 -4.6409 -4.2881 -55.2735 0.0000 19.4336 0.0000
# 6 0.0000 0.0000 0.0000 -4.9975 0.0000 12.0073
#
#
#
# Elastic Compliance Matrix: (Units=1/GPa)
#
#
# Indices 1 2 3 4 5 6 
#
# 1 0.021068 -0.000015 -0.001657 0.000000 0.000315 0.000000
# 2 -0.000015 0.006599 0.003635 0.000000 0.011792 0.000000
# 3 -0.001657 0.003635 -0.016298 0.000000 -0.045949 0.000000
# 4 0.000000 0.000000 0.000000 0.030146 0.000000 0.012547
# 5 0.000315 0.011792 -0.045949 0.000000 -0.076554 0.000000
# 6 0.000000 0.000000 0.000000 0.012547 0.000000 0.088505
#
#
# Mechanical properties :
#
#
# Convention : Reuss Voigt Hill
#
# Bulk Modulus (GPa) = 65.38341 44.02666 54.70504
# Shear Modulus (GPa) = 91.51284 28.85339 60.18311
#
# Velocity S-wave (km/s) = 6.34092 3.56049 5.14219
# Velocity P-wave (km/s) = 9.07395 6.02050 7.70010
#
# Compressibility (1/GPa) = 0.01529440
#
# Stress axis : x y z
#
# Youngs Moduli (GPa) = 47.46572 151.54741 -61.35687
#
# Poissons Ratio (x) = 0.00232 -0.10167
# Poissons Ratio (y) = 0.00073 0.22306
# Poissons Ratio (z) = 0.07865 -0.55093
#
# Static dielectric constant tensor:
#      x y z
#    x 3.975260 0.000000 -0.505730 
#    y 0.000000 4.314570 0.000000 
#    z -0.505730 0.000000 4.859470 
# 
# 
# High freq. dielectric constant tensor:
#      x y z
#    x 1.895920 0.000000 -0.017970 
#    y 0.000000 1.885800 0.000000 
#    z -0.017970 0.000000 1.919810 
# 
# From -- ./inp_files/5146.got.cif
#   From: 2010.06.25/outbox.cif.g09.slc.cpg/sg9_3_cif.got.tgz:5146.got - 2010.06.27 21:40:51.
