data_PCOD8054366
_publ_section_title
;
Structure prediction by ZEFSAII (Michael W. Deem and Ramdas Pophale) SiO2 
 PCOD8054366
Probable space group: C C
;
_chemical_formula_sum "Si O2"
_cell_formula_units_Z 32
_cell_length_a 9.187373
_cell_length_b 14.324271
_cell_length_c 22.468554
_cell_angle_alpha 90.000000
_cell_angle_beta 36.835172
_cell_angle_gamma 90.000000
_cell_volume 1772.715636
_symmetry_space_group_name_H-M "C C"
_symmetry_group_IT_number 9
_symmetry_cell_setting 'monoclinic'
loop_
_space_group_symop_operation_xyz
x,y,z
x,-y,1/2+z
1/2+x,1/2+y,z
1/2+x,1/2-y,1/2+z
loop_
_atom_site_type_symbol
_atom_site_label
_atom_site_fract_x
_atom_site_fract_y
_atom_site_fract_z
Si Si1 0.707420 0.654473 0.666630
Si Si2 0.437284 0.352504 0.134793
Si Si3 0.979442 0.528842 0.784466
Si Si4 0.640492 0.155358 0.047476
Si Si5 0.050570 0.490563 0.004439
Si Si6 0.535623 0.574218 0.845927
Si Si7 0.748694 0.516986 0.988144
Si Si8 0.790535 0.865166 0.633087
O O1 0.502147 0.644298 0.683419
O O2 0.617450 0.602071 0.753948
O O3 0.763584 0.760401 0.665927
O O4 0.952890 0.608316 0.559852
O O5 0.156584 0.381580 0.219994
O O6 0.485438 0.249622 0.093304
O O7 0.598091 0.421508 0.042360
O O8 0.116449 0.432393 0.727272
O O9 0.763619 0.541265 0.808878
O O10 0.884076 0.521035 0.881868
O O11 0.719083 0.129978 0.087891
O O12 0.472602 0.071300 0.077393
O O13 0.889708 0.159579 0.926201
O O14 0.344922 0.487168 0.903361
O O15 0.946204 0.521482 0.975227
O O16 0.568492 0.604952 0.051867
#
# Coordination Sequence:
#
# PCOD8054366 Si02
#       8
#     4   4   4   4   4   4   4   4
#     4  10  20  39  58  83 113 149 189 229 288 333
#     4   9  21  36  60  79 116 146 186 239 279 336
#     4  11  21  35  60  84 114 150 190 230 282 341
#     4   9  19  39  56  81 115 148 182 238 282 322
#     4   9  20  36  59  78 116 147 181 239 274 336
#     4  10  21  35  60  81 114 145 192 228 282 336
#     4  10  19  37  55  85 112 147 189 226 288 329
#     4  10  21  37  58  85 114 148 185 241 275 337
#
# _framework density 18.051399
#
# number of rings (size 3 to 8) (size 9 to 14) (size 15 to 20)
#    0.750    1.500    1.250    1.500    1.750    1.000 
#    0.000    5.000    0.000    0.000    0.000    0.000 
#    0.000    0.000    0.000    0.000    0.000    0.000 
#
# Total GULP energy -198329.389072 kJ/mol
# GULP energy per Si atom -12395.586817 kJ/mol
# Density = 1.801031 g / cm^3
# Si number density = 18.051399 Si / 1000 Ang^3
#
#
#
# Elastic Constant Matrix: (Units=GPa)
#
#
# Indices 1 2 3 4 5 6 
#
# 1 89.9517 36.0861 47.2942 0.0016 -21.0975 -0.0031
# 2 36.0861 95.7442 38.2710 -0.0092 -15.1765 0.0005
# 3 47.2942 38.2710 109.1109 -0.0192 -8.7542 -0.0096
# 4 0.0016 -0.0092 -0.0192 14.9786 -0.0025 -0.3230
# 5 -21.0975 -15.1765 -8.7542 -0.0025 27.6206 0.0023
# 6 -0.0031 0.0005 -0.0096 -0.3230 0.0023 23.3005
#
#
#
# Elastic Compliance Matrix: (Units=1/GPa)
#
#
# Indices 1 2 3 4 5 6 
#
# 1 0.017685 -0.002695 -0.005906 -0.000009 0.010156 -0.000001
# 2 -0.002695 0.013419 -0.003193 0.000005 0.004302 -0.000002
# 3 -0.005906 -0.003193 0.012664 0.000015 -0.002252 0.000005
# 4 -0.000009 0.000005 0.000015 0.066782 0.000006 0.000926
# 5 0.010156 0.004302 -0.002252 0.000006 0.045613 -0.000004
# 6 -0.000001 -0.000002 0.000005 0.000926 -0.000004 0.042930
#
#
# Mechanical properties :
#
#
# Convention : Reuss Voigt Hill
#
# Bulk Modulus (GPa) = 49.55353 59.78994 54.67173
# Shear Modulus (GPa) = 21.79528 24.72365 23.25947
#
# Velocity S-wave (km/s) = 3.47854 3.70486 3.59348
# Velocity P-wave (km/s) = 6.60640 7.17602 6.89710
#
# Compressibility (1/GPa) = 0.02018020
#
# Stress axis : x y z
#
# Youngs Moduli (GPa) = 56.54422 74.52286 78.96326
#
# Poissons Ratio (x) = 0.20086 0.46632
# Poissons Ratio (y) = 0.15240 0.25215
# Poissons Ratio (z) = 0.33392 0.23797
#
# Static dielectric constant tensor:
#      x y z
#    x 3.409780 0.000000 0.001860 
#    y 0.000000 3.278510 0.000010 
#    z 0.001860 0.000010 3.318120 
# 
# 
# High freq. dielectric constant tensor:
#      x y z
#    x 1.706590 0.000000 0.006510 
#    y 0.000000 1.688050 0.000000 
#    z 0.006510 0.000000 1.703110 
# 
# From -- ./inp_files/23097.got.cif
#   From: 2010.06.25/outbox.cif.g09.slc.cpg/sg9_12_cif.got.tgz:23097.got - 2010.06.27 21:40:51.
