data_PCOD8054811
_publ_section_title
;
Structure prediction by ZEFSAII (Michael W. Deem and Ramdas Pophale) SiO2 
 PCOD8054811
Probable space group: C C
;
_chemical_formula_sum "Si O2"
_cell_formula_units_Z 32
_cell_length_a 16.948311
_cell_length_b 9.582304
_cell_length_c 8.621629
_cell_angle_alpha 90.000000
_cell_angle_beta 80.241198
_cell_angle_gamma 90.000000
_cell_volume 1379.925254
_symmetry_space_group_name_H-M "C C"
_symmetry_group_IT_number 9
_symmetry_cell_setting 'monoclinic'
loop_
_space_group_symop_operation_xyz
x,y,z
x,-y,1/2+z
1/2+x,1/2+y,z
1/2+x,1/2-y,1/2+z
loop_
_atom_site_type_symbol
_atom_site_label
_atom_site_fract_x
_atom_site_fract_y
_atom_site_fract_z
Si Si1 0.652900 0.634946 0.864940
Si Si2 0.677767 0.889833 0.041929
Si Si3 0.664217 0.179257 0.907917
Si Si4 0.082192 0.927613 0.078563
Si Si5 0.852804 0.161616 0.354920
Si Si6 0.423159 0.442829 0.525411
Si Si7 0.328479 0.065479 0.724378
Si Si8 0.338338 0.198986 0.407928
O O1 0.583522 0.601968 0.761377
O O2 0.737504 0.622244 0.752831
O O3 0.630306 0.783291 0.946720
O O4 0.658387 0.519846 0.999682
O O5 0.664254 0.852955 0.225783
O O6 0.769100 0.874343 0.961407
O O7 0.645274 0.043111 0.016629
O O8 0.750428 0.234441 0.935003
O O9 0.591727 0.285148 0.975442
O O10 0.011595 0.039857 0.065652
O O11 0.858998 0.088577 0.183005
O O12 0.871873 0.326611 0.329563
O O13 0.915159 0.095658 0.453146
O O14 0.405784 0.322936 0.398186
O O15 0.356616 0.091629 0.540893
O O16 0.345965 0.902786 0.755264
#
# Coordination Sequence:
#
# PCOD8054811 Si02
#       8
#     4   4   4   4   4   4   4   4
#     4  11  21  39  63  98 138 182 236 297 350 420
#     4  11  24  39  69 104 138 180 244 306 359 410
#     4  12  23  40  67 106 139 183 237 307 362 418
#     4  12  24  41  67  98 143 190 235 285 362 441
#     4  10  22  39  64  97 140 180 235 293 349 420
#     4  11  24  42  64 100 139 191 230 279 359 441
#     4  10  21  37  62  99 130 173 237 296 349 399
#     4  11  23  39  66 100 139 177 236 301 350 417
#
# _framework density 23.189661000000001
#
# number of rings (size 3 to 8) (size 9 to 14) (size 15 to 20)
#    0.000    1.000    3.750    3.000    5.250    0.000 
#    0.000    1.250    0.000    3.000    0.000    0.000 
#    0.000    0.000    0.000    0.000    0.000    0.000 
#
# Total GULP energy -198220.238997 kJ/mol
# GULP energy per Si atom -12388.764937 kJ/mol
# Density = 2.313688 g / cm^3
# Si number density = 23.189661 Si / 1000 Ang^3
#
#
#
# Elastic Constant Matrix: (Units=GPa)
#
#
# Indices 1 2 3 4 5 6 
#
# 1 49.8708 41.4843 26.7580 0.0000 18.4307 0.0000
# 2 41.4843 152.3263 47.8547 0.0000 14.3961 0.0000
# 3 26.7580 47.8547 106.0667 0.0000 11.6228 0.0000
# 4 0.0000 0.0000 0.0000 47.9893 0.0000 7.1746
# 5 18.4307 14.3961 11.6228 0.0000 24.0950 0.0000
# 6 0.0000 0.0000 0.0000 7.1746 0.0000 36.7862
#
#
#
# Elastic Compliance Matrix: (Units=1/GPa)
#
#
# Indices 1 2 3 4 5 6 
#
# 1 0.035261 -0.006437 -0.003650 0.000000 -0.021365 0.000000
# 2 -0.006437 0.009045 -0.002539 0.000000 0.000744 0.000000
# 3 -0.003650 -0.002539 0.011637 0.000000 -0.001305 0.000000
# 4 0.000000 0.000000 0.000000 0.021464 0.000000 -0.004186
# 5 -0.021365 0.000744 -0.001305 0.000000 0.058030 0.000000
# 6 0.000000 0.000000 0.000000 -0.004186 0.000000 0.028001
#
#
# Mechanical properties :
#
#
# Convention : Reuss Voigt Hill
#
# Bulk Modulus (GPa) = 32.58207 60.05086 46.31647
# Shear Modulus (GPa) = 25.13591 34.58520 29.86055
#
# Velocity S-wave (km/s) = 3.29588 3.86606 3.59230
# Velocity P-wave (km/s) = 5.34458 6.77350 6.10102
#
# Compressibility (1/GPa) = 0.03069172
#
# Stress axis : x y z
#
# Youngs Moduli (GPa) = 28.36029 110.55731 85.93172
#
# Poissons Ratio (x) = 0.71166 0.31365
# Poissons Ratio (y) = 0.18255 0.21814
# Poissons Ratio (z) = 0.10351 0.28066
#
# Static dielectric constant tensor:
#      x y z
#    x 3.750620 0.000000 0.074790 
#    y 0.000000 4.549460 0.000000 
#    z 0.074790 0.000000 4.293980 
# 
# 
# High freq. dielectric constant tensor:
#      x y z
#    x 1.870730 0.000000 0.005630 
#    y 0.000000 1.931920 0.000000 
#    z 0.005630 0.000000 1.930400 
# 
# From -- ./inp_files/11242.got.cif
#   From: 2010.06.25/outbox.cif.g09.slc.cpg/sg9_6_cif.got.tgz:11242.got - 2010.06.27 21:40:51.
