data_PCOD8054389
_publ_section_title
;
Structure prediction by ZEFSAII (Michael W. Deem and Ramdas Pophale) SiO2 
 PCOD8054389
Probable space group: C C
;
_chemical_formula_sum "Si O2"
_cell_formula_units_Z 20
_cell_length_a 23.548188
_cell_length_b 7.269210
_cell_length_c 5.241668
_cell_angle_alpha 90.000000
_cell_angle_beta 90.030295
_cell_angle_gamma 90.000000
_cell_volume 897.251429
_symmetry_space_group_name_H-M "C C"
_symmetry_group_IT_number 9
_symmetry_cell_setting 'monoclinic'
loop_
_space_group_symop_operation_xyz
x,y,z
x,-y,1/2+z
1/2+x,1/2+y,z
1/2+x,1/2-y,1/2+z
loop_
_atom_site_type_symbol
_atom_site_label
_atom_site_fract_x
_atom_site_fract_y
_atom_site_fract_z
Si Si1 0.337750 0.115243 0.389980
Si Si2 0.540519 0.881797 0.930626
Si Si3 0.206151 0.803578 0.866187
Si Si4 0.157639 0.790081 0.365784
Si Si5 0.436941 0.382319 0.428336
O O1 0.272454 0.170134 0.406743
O O2 0.373628 0.301609 0.409430
O O3 0.353057 0.982430 0.624576
O O4 0.590415 0.732515 0.897615
O O5 0.480629 0.783591 0.895368
O O6 0.545642 0.036045 0.713659
O O7 0.192082 0.697681 0.602388
O O8 0.173638 0.996992 0.828707
O O9 0.179589 0.691971 0.104925
O O10 0.446544 0.472097 0.703771
#
# Coordination Sequence:
#
# PCOD8054389 Si02
#       5
#     4   4   4   4   4
#     4  12  21  43  72  97 133 178 233 267 329 410
#     4  12  26  46  68 101 137 178 225 282 339 399
#     4  10  19  37  66  99 122 181 213 259 325 402
#     4  10  20  36  64  98 128 164 227 257 324 395
#     4  12  28  46  68 101 132 181 228 285 337 392
#
# _framework density 22.290292999999998
#
# number of rings (size 3 to 8) (size 9 to 14) (size 15 to 20)
#    0.000    0.800    4.000    4.800    5.600    0.000 
#    0.000    6.000    0.000    0.000    0.000    0.000 
#    0.000    0.000    0.000    0.000    0.000    0.000 
#
# Total GULP energy -124010.027455 kJ/mol
# GULP energy per Si atom -12401.002745 kJ/mol
# Density = 2.223956 g / cm^3
# Si number density = 22.290293 Si / 1000 Ang^3
#
#
#
# Elastic Constant Matrix: (Units=GPa)
#
#
# Indices 1 2 3 4 5 6 
#
# 1 108.8281 36.3200 8.7003 0.0000 -4.7261 0.0000
# 2 36.3200 38.6232 -6.7043 0.0000 -6.3185 0.0000
# 3 8.7003 -6.7043 151.5917 0.0000 11.8291 0.0000
# 4 0.0000 0.0000 0.0000 18.9148 0.0000 19.2275
# 5 -4.7261 -6.3185 11.8291 0.0000 34.9219 0.0000
# 6 0.0000 0.0000 0.0000 19.2275 0.0000 -28.6891
#
#
#
# Elastic Compliance Matrix: (Units=1/GPa)
#
#
# Indices 1 2 3 4 5 6 
#
# 1 0.013666 -0.013096 -0.001359 0.000000 -0.000060 0.000000
# 2 -0.013096 0.039333 0.002130 0.000000 0.004623 0.000000
# 3 -0.001359 0.002130 0.006936 0.000000 -0.002148 0.000000
# 4 0.000000 0.000000 0.000000 0.031445 0.000000 0.021075
# 5 -0.000060 0.004623 -0.002148 0.000000 0.030191 0.000000
# 6 0.000000 0.000000 0.000000 0.021075 0.000000 -0.020732
#
#
# Mechanical properties :
#
#
# Convention : Reuss Voigt Hill
#
# Bulk Modulus (GPa) = 28.34050 41.74168 35.04109
# Shear Modulus (GPa) = 36.42975 22.41130 29.42053
#
# Velocity S-wave (km/s) = 4.04707 3.17429 3.63696
# Velocity P-wave (km/s) = 5.88050 5.67467 5.77850
#
# Compressibility (1/GPa) = 0.03528520
#
# Stress axis : x y z
#
# Youngs Moduli (GPa) = 73.17652 25.42421 144.16502
#
# Poissons Ratio (x) = 0.33296 0.19590
# Poissons Ratio (y) = 0.95835 -0.30714
# Poissons Ratio (z) = 0.09943 -0.05417
#
# Static dielectric constant tensor:
#      x y z
#    x 4.032550 0.000000 0.025660 
#    y 0.000000 3.864720 0.000000 
#    z 0.025660 0.000000 5.420080 
# 
# 
# High freq. dielectric constant tensor:
#      x y z
#    x 1.886800 0.000000 0.002730 
#    y 0.000000 1.849820 0.000000 
#    z 0.002730 0.000000 1.917370 
# 
# From -- ./inp_files/3261.got.cif
#   From: 2010.06.25/outbox.cif.g09.slc.cpg/sg9_2_cif.got.tgz:3261.got - 2010.06.27 21:40:51.
