data_PCOD8054574
_publ_section_title
;
Structure prediction by ZEFSAII (Michael W. Deem and Ramdas Pophale) SiO2 
 PCOD8054574
Probable space group: C C
;
_chemical_formula_sum "Si O2"
_cell_formula_units_Z 32
_cell_length_a 13.245114
_cell_length_b 27.018061
_cell_length_c 8.939352
_cell_angle_alpha 90.000000
_cell_angle_beta 31.655733
_cell_angle_gamma 90.000000
_cell_volume 1678.886960
_symmetry_space_group_name_H-M "C C"
_symmetry_group_IT_number 9
_symmetry_cell_setting 'monoclinic'
loop_
_space_group_symop_operation_xyz
x,y,z
x,-y,1/2+z
1/2+x,1/2+y,z
1/2+x,1/2-y,1/2+z
loop_
_atom_site_type_symbol
_atom_site_label
_atom_site_fract_x
_atom_site_fract_y
_atom_site_fract_z
Si Si1 0.063800 0.444497 0.260600
Si Si2 0.439764 0.397423 0.331133
Si Si3 0.344664 0.361748 0.983867
Si Si4 0.867426 0.733211 0.459135
Si Si5 0.276700 0.512550 0.205916
Si Si6 0.231528 0.686651 0.920949
Si Si7 0.019721 0.821245 0.468172
Si Si8 0.608291 0.564931 0.328290
O O1 0.111037 0.477674 0.345979
O O2 0.835238 0.444526 0.510704
O O3 0.146176 0.390090 0.194651
O O4 0.187809 0.464986 0.967102
O O5 0.319358 0.444843 0.532837
O O6 0.291151 0.359480 0.446283
O O7 0.538963 0.371863 0.348577
O O8 0.598086 0.412162 0.007662
O O9 0.407764 0.331065 0.760786
O O10 0.517490 0.398127 0.818884
O O11 0.300907 0.320933 0.164564
O O12 0.794921 0.759065 0.398504
O O13 0.925360 0.777495 0.493157
O O14 0.728524 0.700214 0.737628
O O15 0.004668 0.690477 0.223557
O O16 0.479048 0.484864 0.986142
#
# Coordination Sequence:
#
# PCOD8054574 Si02
#       8
#     4   4   4   4   4   4   4   4
#     4  11  24  39  61  89 121 160 198 239 301 341
#     4  10  20  39  59  80 121 152 192 248 285 347
#     4  10  22  40  59  90 124 150 197 249 282 356
#     4   9  20  38  60  85 113 154 195 238 303 357
#     4  11  22  41  58  86 125 154 197 248 282 353
#     4   9  20  38  59  84 115 151 193 241 297 353
#     4  10  20  38  60  86 117 150 195 245 294 350
#     4  10  24  41  58  88 122 159 197 240 298 347
#
# _framework density 19.060245999999999
#
# number of rings (size 3 to 8) (size 9 to 14) (size 15 to 20)
#    0.000    2.000    2.500    0.000    3.500    2.000 
#    4.500    0.000    0.000    0.000    0.000    0.000 
#    0.000    0.000    0.000    0.000    0.000    0.000 
#
# Total GULP energy -198261.450909 kJ/mol
# GULP energy per Si atom -12391.340682 kJ/mol
# Density = 1.901686 g / cm^3
# Si number density = 19.060246 Si / 1000 Ang^3
#
#
#
# Elastic Constant Matrix: (Units=GPa)
#
#
# Indices 1 2 3 4 5 6 
#
# 1 65.9042 23.3869 48.2389 0.0000 0.4980 0.0000
# 2 23.3869 87.2286 54.9159 0.0000 2.8180 0.0000
# 3 48.2389 54.9159 115.4949 0.0000 -1.0634 0.0000
# 4 0.0000 0.0000 0.0000 26.0594 0.0000 -16.2330
# 5 0.4980 2.8180 -1.0634 0.0000 44.1401 0.0000
# 6 0.0000 0.0000 0.0000 -16.2330 0.0000 -44.3069
#
#
#
# Elastic Compliance Matrix: (Units=1/GPa)
#
#
# Indices 1 2 3 4 5 6 
#
# 1 0.021866 -0.000136 -0.009072 0.000000 -0.000457 0.000000
# 2 -0.000136 0.016430 -0.007767 0.000000 -0.001235 0.000000
# 3 -0.009072 -0.007767 0.016150 0.000000 0.000987 0.000000
# 4 0.000000 0.000000 0.000000 0.031243 0.000000 -0.011447
# 5 -0.000457 -0.001235 0.000987 0.000000 0.022763 0.000000
# 6 0.000000 0.000000 0.000000 -0.011447 0.000000 -0.018376
#
#
# Mechanical properties :
#
#
# Convention : Reuss Voigt Hill
#
# Bulk Modulus (GPa) = 48.79157 57.96790 53.37973
# Shear Modulus (GPa) = 38.20946 14.65092 26.43019
#
# Velocity S-wave (km/s) = 4.48221 2.77549 3.72784
# Velocity P-wave (km/s) = 7.24162 6.38358 6.82610
#
# Compressibility (1/GPa) = 0.02049534
#
# Stress axis : x y z
#
# Youngs Moduli (GPa) = 45.73374 60.86358 61.92101
#
# Poissons Ratio (x) = 0.00829 0.56175
# Poissons Ratio (y) = 0.00623 0.48093
# Poissons Ratio (z) = 0.41490 0.47271
#
# Static dielectric constant tensor:
#      x y z
#    x 3.604550 0.000000 0.001280 
#    y 0.000000 3.749230 0.000000 
#    z 0.001280 0.000000 3.436710 
# 
# 
# High freq. dielectric constant tensor:
#      x y z
#    x 1.738740 0.000000 0.008040 
#    y 0.000000 1.749830 0.000000 
#    z 0.008040 0.000000 1.738610 
# 
# From -- ./inp_files/6096.got.cif
#   From: 2010.06.25/outbox.cif.g09.slc.cpg/sg9_4_cif.got.tgz:6096.got - 2010.06.27 21:40:51.
