data_PCOD8054168
_publ_section_title
;
Structure prediction by ZEFSAII (Michael W. Deem and Ramdas Pophale) SiO2 
 PCOD8054168
Probable space group: C C
;
_chemical_formula_sum "Si O2"
_cell_formula_units_Z 28
_cell_length_a 30.589179
_cell_length_b 6.978987
_cell_length_c 5.365763
_cell_angle_alpha 90.000000
_cell_angle_beta 89.985743
_cell_angle_gamma 90.000000
_cell_volume 1145.491005
_symmetry_space_group_name_H-M "C C"
_symmetry_group_IT_number 9
_symmetry_cell_setting 'monoclinic'
loop_
_space_group_symop_operation_xyz
x,y,z
x,-y,1/2+z
1/2+x,1/2+y,z
1/2+x,1/2-y,1/2+z
loop_
_atom_site_type_symbol
_atom_site_label
_atom_site_fract_x
_atom_site_fract_y
_atom_site_fract_z
Si Si1 0.543850 0.279233 0.140010
Si Si2 0.447612 0.377037 0.151413
Si Si3 0.353870 0.727503 0.639281
Si Si4 0.181472 0.270194 0.139137
Si Si5 0.318356 0.695466 0.139316
Si Si6 0.080053 0.210201 0.139966
Si Si7 0.216770 0.692665 0.139089
O O1 0.491711 0.253223 0.137564
O O2 0.558647 0.500558 0.141755
O O3 0.563363 0.180618 0.390369
O O4 0.563634 0.180693 0.890315
O O5 0.446417 0.482320 0.416284
O O6 0.405928 0.234749 0.137661
O O7 0.331560 0.815053 0.388463
O O8 0.346006 0.499099 0.641223
O O9 0.331683 0.815207 0.890578
O O10 0.131975 0.201638 0.138879
O O11 0.187748 0.499811 0.139257
O O12 0.204407 0.187277 0.390432
O O13 0.204456 0.187323 0.887894
O O14 0.267616 0.640523 0.138808
#
# Coordination Sequence:
#
# PCOD8054168 Si02
#       7
#     4   4   4   4   4   4   4
#     4  10  19  30  42  59  83 110 139 174 202 243
#     4  12  16  27  38  57  81 106 141 165 191 233
#     4  10  16  22  36  56  74 104 138 158 174 234
#     4  10  18  29  43  58  76 105 145 177 204 241
#     4  10  16  25  36  53  79 104 135 159 187 227
#     4  10  18  29  43  58  76 105 145 175 208 239
#     4  10  19  30  42  59  83 110 141 172 202 239
#
# _framework density 24.443670000000001
#
# number of rings (size 3 to 8) (size 9 to 14) (size 15 to 20)
#    0.000    1.714    5.714    5.143    0.000    0.000 
#    0.000    0.000    0.000    0.000    0.000    0.000 
#    0.000    0.000    0.000    0.000    0.000 1394.286 
#
# Total GULP energy -173471.504791 kJ/mol
# GULP energy per Si atom -12390.821771 kJ/mol
# Density = 2.438803 g / cm^3
# Si number density = 24.443670 Si / 1000 Ang^3
#
#
#
# Elastic Constant Matrix: (Units=GPa)
#
#
# Indices 1 2 3 4 5 6 
#
# 1 189.3844 3.2403 71.4004 0.0000 -0.3784 0.0000
# 2 3.2403 29.6334 -14.8798 0.0000 -0.2148 0.0000
# 3 71.4004 -14.8798 303.7723 0.0000 1.0613 0.0000
# 4 0.0000 0.0000 0.0000 -21.5708 0.0000 -0.0702
# 5 -0.3784 -0.2148 1.0613 0.0000 51.0490 0.0000
# 6 0.0000 0.0000 0.0000 -0.0702 0.0000 2.0681
#
#
#
# Elastic Compliance Matrix: (Units=1/GPa)
#
#
# Indices 1 2 3 4 5 6 
#
# 1 0.005847 -0.001363 -0.001441 0.000000 0.000068 0.000000
# 2 -0.001363 0.034915 0.002030 0.000000 0.000095 0.000000
# 3 -0.001441 0.002030 0.003730 0.000000 -0.000080 0.000000
# 4 0.000000 0.000000 0.000000 -0.046354 0.000000 -0.001574
# 5 0.000068 0.000095 -0.000080 0.000000 0.019592 0.000000
# 6 0.000000 0.000000 0.000000 -0.001574 0.000000 0.483485
#
#
# Mechanical properties :
#
#
# Convention : Reuss Voigt Hill
#
# Bulk Modulus (GPa) = 23.28567 71.36797 47.32682
# Shear Modulus (GPa) = 9.66973 37.17787 23.42380
#
# Velocity S-wave (km/s) = 1.99111 3.90418 3.09896
# Velocity P-wave (km/s) = 3.85136 7.04158 5.67524
#
# Compressibility (1/GPa) = 0.04294486
#
# Stress axis : x y z
#
# Youngs Moduli (GPa) = 171.02471 28.64119 268.06494
#
# Poissons Ratio (x) = 0.03903 0.38637
# Poissons Ratio (y) = 0.23304 -0.54422
# Poissons Ratio (z) = 0.24650 -0.05815
#
# Static dielectric constant tensor:
#      x y z
#    x 4.379610 0.000000 0.001110 
#    y 0.000000 3.321230 0.000000 
#    z 0.001110 0.000000 8.185220 
# 
# 
# High freq. dielectric constant tensor:
#      x y z
#    x 1.974750 0.000000 -0.000010 
#    y 0.000000 1.894760 0.000000 
#    z -0.000010 0.000000 2.024520 
# 
# From -- ./inp_files/3364.got.cif
#   From: 2010.06.25/outbox.cif.g09.slc.cpg/sg9_2_cif.got.tgz:3364.got - 2010.06.27 21:40:51.
