data_PCOD8054470
_publ_section_title
;
Structure prediction by ZEFSAII (Michael W. Deem and Ramdas Pophale) SiO2 
 PCOD8054470
Probable space group: C C
;
_chemical_formula_sum "Si O2"
_cell_formula_units_Z 32
_cell_length_a 9.561958
_cell_length_b 19.418947
_cell_length_c 9.139549
_cell_angle_alpha 90.000000
_cell_angle_beta 59.870998
_cell_angle_gamma 90.000000
_cell_volume 1467.783134
_symmetry_space_group_name_H-M "C C"
_symmetry_group_IT_number 9
_symmetry_cell_setting 'monoclinic'
loop_
_space_group_symop_operation_xyz
x,y,z
x,-y,1/2+z
1/2+x,1/2+y,z
1/2+x,1/2-y,1/2+z
loop_
_atom_site_type_symbol
_atom_site_label
_atom_site_fract_x
_atom_site_fract_y
_atom_site_fract_z
Si Si1 0.917660 0.559038 0.148810
Si Si2 0.735854 0.924985 0.975686
Si Si3 0.808707 0.197681 0.810795
Si Si4 0.215070 0.723537 0.423569
Si Si5 0.891477 0.430101 0.007042
Si Si6 0.930159 0.702127 0.016910
Si Si7 0.757890 0.050488 0.805489
Si Si8 0.351125 0.220644 0.580432
O O1 0.913657 0.551921 0.325094
O O2 0.857717 0.634677 0.135086
O O3 0.811294 0.496587 0.131646
O O4 0.095843 0.550709 0.988385
O O5 0.724481 0.950870 0.149336
O O6 0.805633 0.847383 0.926519
O O7 0.562394 0.916210 0.992012
O O8 0.841360 0.979577 0.821424
O O9 0.911472 0.231722 0.629095
O O10 0.863869 0.117565 0.791309
O O11 0.617219 0.196234 0.871183
O O12 0.852999 0.237787 0.930968
O O13 0.314305 0.787322 0.439157
O O14 0.223488 0.737599 0.245592
O O15 0.026880 0.724233 0.565767
O O16 0.793548 0.358483 0.080898
#
# Coordination Sequence:
#
# PCOD8054470 Si02
#       8
#     4   4   4   4   4   4   4   4
#     4  10  20  33  58  85 118 154 202 250 293 344
#     4  10  20  34  56  87 117 154 202 250 293 344
#     4  11  22  39  62  89 119 157 198 244 300 354
#     4  11  24  39  62  91 122 156 200 247 299 355
#     4  10  20  34  56  87 117 154 202 250 293 344
#     4  11  22  39  62  89 119 157 198 244 300 354
#     4  10  20  33  58  85 118 154 202 250 293 344
#     4  11  24  39  62  91 122 156 200 247 299 355
#
# _framework density 21.801586
#
# number of rings (size 3 to 8) (size 9 to 14) (size 15 to 20)
#    0.000    1.500    2.500    4.500   14.000    0.000 
#    0.000    0.000    0.000    9.000    0.000    0.000 
#    0.000    0.000    0.000    0.000    0.000    0.000 
#
# Total GULP energy -198238.033037 kJ/mol
# GULP energy per Si atom -12389.877065 kJ/mol
# Density = 2.175196 g / cm^3
# Si number density = 21.801586 Si / 1000 Ang^3
#
#
#
# Elastic Constant Matrix: (Units=GPa)
#
#
# Indices 1 2 3 4 5 6 
#
# 1 42.3789 18.6382 4.8106 0.0000 14.2607 0.0000
# 2 18.6382 147.4714 31.1277 0.0000 21.5371 0.0000
# 3 4.8106 31.1277 99.0363 0.0000 22.6638 0.0000
# 4 0.0000 0.0000 0.0000 39.9395 0.0000 11.7622
# 5 14.2607 21.5371 22.6638 0.0000 23.0591 0.0000
# 6 0.0000 0.0000 0.0000 11.7622 0.0000 25.4297
#
#
#
# Elastic Compliance Matrix: (Units=1/GPa)
#
#
# Indices 1 2 3 4 5 6 
#
# 1 0.031134 -0.001609 0.003943 0.000000 -0.021627 0.000000
# 2 -0.001609 0.008016 -0.001233 0.000000 -0.005280 0.000000
# 3 0.003943 -0.001233 0.013660 0.000000 -0.014713 0.000000
# 4 0.000000 0.000000 0.000000 0.028986 0.000000 -0.013407
# 5 -0.021627 -0.005280 -0.014713 0.000000 0.076134 0.000000
# 6 0.000000 0.000000 0.000000 -0.013407 0.000000 0.045525
#
#
# Mechanical properties :
#
#
# Convention : Reuss Voigt Hill
#
# Bulk Modulus (GPa) = 18.17784 44.22662 31.20223
# Shear Modulus (GPa) = 22.76959 33.30633 28.03796
#
# Velocity S-wave (km/s) = 3.23522 3.91282 3.59005
# Velocity P-wave (km/s) = 4.72351 6.38307 5.61494
#
# Compressibility (1/GPa) = 0.05501203
#
# Stress axis : x y z
#
# Youngs Moduli (GPa) = 32.11898 124.75642 73.20516
#
# Poissons Ratio (x) = 0.20068 -0.28861
# Poissons Ratio (y) = 0.05167 0.09026
# Poissons Ratio (z) = -0.12663 0.15382
#
# Static dielectric constant tensor:
#      x y z
#    x 3.500660 0.000000 0.353290 
#    y 0.000000 5.435880 0.000000 
#    z 0.353290 0.000000 4.089520 
# 
# 
# High freq. dielectric constant tensor:
#      x y z
#    x 1.805200 0.000000 0.036900 
#    y 0.000000 1.891420 0.000000 
#    z 0.036900 0.000000 1.854530 
# 
# From -- ./inp_files/8300.got.cif
#   From: 2010.06.25/outbox.cif.g09.slc.cpg/sg9_5_cif.got.tgz:8300.got - 2010.06.27 21:40:51.
