data_PCOD8054006
_publ_section_title
;
Structure prediction by ZEFSAII (Michael W. Deem and Ramdas Pophale) SiO2 
 PCOD8054006
Probable space group: C M
;
_chemical_formula_sum "Si O2"
_cell_formula_units_Z 24
_cell_length_a 8.022324
_cell_length_b 21.222730
_cell_length_c 8.896083
_cell_angle_alpha 90.000000
_cell_angle_beta 51.100807
_cell_angle_gamma 90.000000
_cell_volume 1178.746767
_symmetry_space_group_name_H-M "C M"
_symmetry_group_IT_number 8
_symmetry_cell_setting 'monoclinic'
loop_
_space_group_symop_operation_xyz
x,y,z
x,-y,z
1/2+x,1/2+y,z
1/2+x,1/2-y,z
loop_
_atom_site_type_symbol
_atom_site_label
_atom_site_fract_x
_atom_site_fract_y
_atom_site_fract_z
Si Si1 0.785640 0.319880 0.460940
Si Si2 0.201104 0.573848 0.868234
Si Si3 0.024957 0.150389 0.891586
Si Si4 0.233284 0.872698 0.064550
Si Si5 0.559732 0.429210 0.437647
Si Si6 0.218875 0.740528 0.220827
O O1 0.671414 0.314399 0.686194
O O2 0.740130 0.388027 0.417367
O O3 0.705492 0.263415 0.400183
O O4 0.039043 0.313044 0.318441
O O5 0.170378 0.500000 0.924376
O O6 0.343439 0.606292 0.919041
O O7 0.325165 0.583147 0.639902
O O8 0.973750 0.607557 0.975488
O O9 0.180515 0.112123 0.919270
O O10 0.931666 0.205191 0.049354
O O11 0.061888 0.912825 0.259713
O O12 0.193505 0.799377 0.123335
O O13 0.632899 0.500000 0.425418
#
# Coordination Sequence:
#
# PCOD8054006 Si02
#       6
#     4   4   4   4   4   4
#     4  10  23  38  62  91 125 168 203 260 314 373
#     4  10  23  43  66  93 128 167 210 261 318 370
#     4  11  24  40  64  95 126 167 213 258 311 378
#     4  11  23  38  65  93 124 168 213 256 313 374
#     4   9  20  41  64  90 126 164 207 262 317 372
#     4  11  22  40  57  92 130 164 210 253 313 377
#
# _framework density 20.360609
#
# number of rings (size 3 to 8) (size 9 to 14) (size 15 to 20)
#    0.000    1.667    1.667    2.500    2.333    5.333 
#    0.000    0.000    0.000    4.000    0.000    0.000 
#    0.000    0.000    0.000    0.000    0.000    0.000 
#
# Total GULP energy -148715.412437 kJ/mol
# GULP energy per Si atom -12392.951036 kJ/mol
# Density = 2.031427 g / cm^3
# Si number density = 20.360609 Si / 1000 Ang^3
#
#
#
# Elastic Constant Matrix: (Units=GPa)
#
#
# Indices 1 2 3 4 5 6 
#
# 1 115.7106 27.9119 70.8717 0.0000 16.7541 0.0000
# 2 27.9119 97.4066 61.3425 0.0000 -1.5205 0.0000
# 3 70.8717 61.3425 126.9654 0.0000 4.4279 0.0000
# 4 0.0000 0.0000 0.0000 22.2597 0.0000 -14.9855
# 5 16.7541 -1.5205 4.4279 0.0000 28.0517 0.0000
# 6 0.0000 0.0000 0.0000 -14.9855 0.0000 13.5887
#
#
#
# Elastic Compliance Matrix: (Units=1/GPa)
#
#
# Indices 1 2 3 4 5 6 
#
# 1 0.014589 0.000966 -0.008354 0.000000 -0.007343 0.000000
# 2 0.000966 0.014925 -0.007801 0.000000 0.001463 0.000000
# 3 -0.008354 -0.007801 0.016239 0.000000 0.002004 0.000000
# 4 0.000000 0.000000 0.000000 0.174401 0.000000 0.192327
# 5 -0.007343 0.001463 0.002004 0.000000 0.039797 0.000000
# 6 0.000000 0.000000 0.000000 0.192327 0.000000 0.285687
#
#
# Mechanical properties :
#
#
# Convention : Reuss Voigt Hill
#
# Bulk Modulus (GPa) = 65.04455 73.37054 69.20754
# Shear Modulus (GPa) = 8.60374 24.77713 16.69044
#
# Velocity S-wave (km/s) = 2.05788 3.49222 2.86622
# Velocity P-wave (km/s) = 6.13694 7.23702 6.70957
#
# Compressibility (1/GPa) = 0.01537408
#
# Stress axis : x y z
#
# Youngs Moduli (GPa) = 68.54305 67.00089 61.58081
#
# Poissons Ratio (x) = -0.06473 0.51447
# Poissons Ratio (y) = -0.06622 0.48041
# Poissons Ratio (z) = 0.57264 0.52269
#
# Static dielectric constant tensor:
#      x y z
#    x 3.643530 0.000000 0.099290 
#    y 0.000000 3.656960 0.000000 
#    z 0.099290 0.000000 4.092450 
# 
# 
# High freq. dielectric constant tensor:
#      x y z
#    x 1.785020 0.000000 0.000360 
#    y 0.000000 1.791160 0.000000 
#    z 0.000360 0.000000 1.813890 
# 
# From -- ./inp_files/1618.got.cif
#   From: 2010.03.12/outbox.cif.g09.slc.cpg/sg8_1_cif.got.tgz:1618.got - 2010.03.31 10:45:26.
