data_PCOD8054625
_publ_section_title
;
Structure prediction by ZEFSAII (Michael W. Deem and Ramdas Pophale) SiO2 
 PCOD8054625
Probable space group: C C
;
_chemical_formula_sum "Si O2"
_cell_formula_units_Z 32
_cell_length_a 21.746381
_cell_length_b 7.141198
_cell_length_c 12.957770
_cell_angle_alpha 90.000000
_cell_angle_beta 37.799435
_cell_angle_gamma 90.000000
_cell_volume 1233.324709
_symmetry_space_group_name_H-M "C C"
_symmetry_group_IT_number 9
_symmetry_cell_setting 'monoclinic'
loop_
_space_group_symop_operation_xyz
x,y,z
x,-y,1/2+z
1/2+x,1/2+y,z
1/2+x,1/2-y,1/2+z
loop_
_atom_site_type_symbol
_atom_site_label
_atom_site_fract_x
_atom_site_fract_y
_atom_site_fract_z
Si Si1 0.981490 0.353245 0.089870
Si Si2 0.601411 0.801161 0.523937
Si Si3 0.984507 0.813391 0.375617
Si Si4 0.305229 0.081525 0.321118
Si Si5 0.267135 0.701650 0.069687
Si Si6 0.656331 0.348858 0.412633
Si Si7 0.461686 0.394273 0.064030
Si Si8 0.262630 0.452438 0.897525
O O1 0.862080 0.381536 0.267896
O O2 0.044284 0.513625 0.064003
O O3 0.998585 0.346557 0.943770
O O4 0.033755 0.161007 0.068993
O O5 0.567053 0.725205 0.680766
O O6 0.567174 0.639826 0.486557
O O7 0.719041 0.864733 0.386748
O O8 0.875521 0.798638 0.473717
O O9 0.996344 0.024603 0.407464
O O10 0.208929 0.051211 0.369358
O O11 0.265006 0.141838 0.484568
O O12 0.395924 0.204151 0.150146
O O13 0.188262 0.754055 0.262097
O O14 0.245547 0.501040 0.041900
O O15 0.699301 0.228198 0.451604
O O16 0.382849 0.554423 0.213503
#
# Coordination Sequence:
#
# PCOD8054625 Si02
#       8
#     4   4   4   4   4   4   4   4
#     4  10  21  38  66  93 124 175 220 271 335 390
#     4  10  22  41  62  92 137 171 223 285 323 388
#     4  12  20  39  65  93 132 179 214 273 336 396
#     4  10  21  42  63  98 135 172 220 279 337 396
#     4  11  21  38  63  92 132 173 213 273 332 392
#     4  11  22  41  66  92 132 172 222 277 336 392
#     4  10  21  38  63  94 128 174 220 266 336 393
#     4  10  20  39  64  92 124 174 218 270 331 395
#
# _framework density 25.946128000000002
#
# number of rings (size 3 to 8) (size 9 to 14) (size 15 to 20)
#    0.000    1.500    6.250    0.750    0.000    2.000 
#    2.250    2.500    0.000   10.500    0.000    0.000 
#    0.000    0.000    0.000    0.000    0.000    0.000 
#
# Total GULP energy -198211.626127 kJ/mol
# GULP energy per Si atom -12388.226633 kJ/mol
# Density = 2.588707 g / cm^3
# Si number density = 25.946128 Si / 1000 Ang^3
#
#
#
# Elastic Constant Matrix: (Units=GPa)
#
#
# Indices 1 2 3 4 5 6 
#
# 1 210.0662 26.9570 61.6618 0.0008 -28.5029 -0.0048
# 2 26.9570 63.1359 16.7250 0.0061 6.6800 -0.0120
# 3 61.6618 16.7250 79.4157 0.0044 -0.2871 -0.0077
# 4 0.0008 0.0061 0.0044 42.3417 -0.0024 10.4182
# 5 -28.5029 6.6800 -0.2871 -0.0024 57.5156 0.0047
# 6 -0.0048 -0.0120 -0.0077 10.4182 0.0047 58.0005
#
#
#
# Elastic Compliance Matrix: (Units=1/GPa)
#
#
# Indices 1 2 3 4 5 6 
#
# 1 0.006983 -0.002052 -0.004976 0.000001 0.003674 -0.000001
# 2 -0.002052 0.017603 -0.002125 -0.000003 -0.003072 0.000004
# 3 -0.004976 -0.002125 0.016896 -0.000002 -0.002135 0.000002
# 4 0.000001 -0.000003 -0.000002 0.024709 0.000002 -0.004438
# 5 0.003674 -0.003072 -0.002135 0.000002 0.019553 -0.000003
# 6 -0.000001 0.000004 0.000002 -0.004438 -0.000003 0.018038
#
#
# Mechanical properties :
#
#
# Convention : Reuss Voigt Hill
#
# Bulk Modulus (GPa) = 43.15057 62.58950 52.87003
# Shear Modulus (GPa) = 38.51636 48.05650 43.28643
#
# Velocity S-wave (km/s) = 3.85707 4.30835 4.08894
# Velocity P-wave (km/s) = 6.04176 6.99460 6.53557
#
# Compressibility (1/GPa) = 0.02317466
#
# Stress axis : x y z
#
# Youngs Moduli (GPa) = 143.20474 56.80875 59.18644
#
# Poissons Ratio (x) = 0.11657 0.29454
# Poissons Ratio (y) = 0.29385 0.12578
# Poissons Ratio (z) = 0.71266 0.12072
#
# Static dielectric constant tensor:
#      x y z
#    x 5.723740 -0.000050 -0.341830 
#    y -0.000050 5.260650 0.000010 
#    z -0.341830 0.000010 4.537390 
# 
# 
# High freq. dielectric constant tensor:
#      x y z
#    x 2.102720 0.000000 -0.039940 
#    y 0.000000 2.077420 0.000000 
#    z -0.039940 0.000000 1.992550 
# 
# From -- ./inp_files/20004.got.cif
#   From: 2010.06.25/outbox.cif.g09.slc.cpg/sg9_11_cif.got.tgz:20004.got - 2010.06.27 21:40:51.
