data_PCOD8054112
_publ_section_title
;
Structure prediction by ZEFSAII (Michael W. Deem and Ramdas Pophale) SiO2 
 PCOD8054112
Probable space group: C M
;
_chemical_formula_sum "Si O2"
_cell_formula_units_Z 24
_cell_length_a 10.154756
_cell_length_b 8.560044
_cell_length_c 13.323661
_cell_angle_alpha 90.000000
_cell_angle_beta 79.521925
_cell_angle_gamma 90.000000
_cell_volume 1138.848502
_symmetry_space_group_name_H-M "C M"
_symmetry_group_IT_number 8
_symmetry_cell_setting 'monoclinic'
loop_
_space_group_symop_operation_xyz
x,y,z
x,-y,z
1/2+x,1/2+y,z
1/2+x,1/2-y,z
loop_
_atom_site_type_symbol
_atom_site_label
_atom_site_fract_x
_atom_site_fract_y
_atom_site_fract_z
Si Si1 0.925440 0.820028 0.397910
Si Si2 0.591611 0.818987 0.732689
Si Si3 0.965478 0.681028 0.181409
Si Si4 0.757082 0.818880 0.065316
Si Si5 0.299661 0.181131 0.848759
Si Si6 0.159592 0.819951 0.514583
O O1 0.969442 0.714260 0.298908
O O2 0.774853 0.785907 0.451915
O O3 0.021992 0.779587 0.477322
O O4 0.937692 0.000000 0.364491
O O5 0.440389 0.772385 0.779806
O O6 0.683560 0.784756 0.815998
O O7 0.641611 0.715048 0.633962
O O8 0.603036 0.000000 0.702222
O O9 0.933587 0.500000 0.168059
O O10 0.849996 0.784088 0.147631
O O11 0.106480 0.728856 0.113676
O O12 0.767455 0.000000 0.035622
O O13 0.806985 0.716057 0.965604
O O14 0.267398 0.000000 0.836516
O O15 0.200505 0.000000 0.495946
#
# Coordination Sequence:
#
# PCOD8054112 Si02
#       6
#     4   4   4   4   4   4
#     4  11  24  41  63  91 122 159 202 248 301 359
#     4  11  24  41  62  90 123 159 202 250 300 357
#     4  11  24  41  62  90 123 159 202 250 300 357
#     4  11  24  41  63  91 123 160 202 249 301 357
#     4  11  24  41  63  91 123 160 202 249 301 357
#     4  11  24  41  63  91 122 159 202 248 301 359
#
# _framework density 21.073917999999999
#
# number of rings (size 3 to 8) (size 9 to 14) (size 15 to 20)
#    0.000    1.000    0.000    6.000    0.000   17.333 
#    0.000    0.000    0.000    0.000    0.000    0.000 
#    0.000    0.000    0.000    0.000    0.000    0.000 
#
# Total GULP energy -148921.932086 kJ/mol
# GULP energy per Si atom -12410.161007 kJ/mol
# Density = 2.102595 g / cm^3
# Si number density = 21.073918 Si / 1000 Ang^3
#
#
#
# Elastic Constant Matrix: (Units=GPa)
#
#
# Indices 1 2 3 4 5 6 
#
# 1 104.3886 53.8091 14.0964 0.0000 -2.2838 0.0000
# 2 53.8091 45.4562 26.1412 0.0000 -9.0584 0.0000
# 3 14.0964 26.1412 102.6117 0.0000 -5.0655 0.0000
# 4 0.0000 0.0000 0.0000 40.8896 0.0000 1.8191
# 5 -2.2838 -9.0584 -5.0655 0.0000 41.2291 0.0000
# 6 0.0000 0.0000 0.0000 1.8191 0.0000 34.2065
#
#
#
# Elastic Compliance Matrix: (Units=1/GPa)
#
#
# Indices 1 2 3 4 5 6 
#
# 1 0.028065 -0.037533 0.005409 0.000000 -0.006027 0.000000
# 2 -0.037533 0.076989 -0.013809 0.000000 0.013139 0.000000
# 3 0.005409 -0.013809 0.012461 0.000000 -0.001203 0.000000
# 4 0.000000 0.000000 0.000000 0.024514 0.000000 -0.001304
# 5 -0.006027 0.013139 -0.001203 0.000000 0.026660 0.000000
# 6 0.000000 0.000000 0.000000 -0.001304 0.000000 0.029304
#
#
# Mechanical properties :
#
#
# Convention : Reuss Voigt Hill
#
# Bulk Modulus (GPa) = 38.98885 48.94998 43.96941
# Shear Modulus (GPa) = 16.75558 33.82572 25.29065
#
# Velocity S-wave (km/s) = 2.82279 4.01071 3.46799
# Velocity P-wave (km/s) = 5.40049 6.68775 6.07829
#
# Compressibility (1/GPa) = 0.02564836
#
# Stress axis : x y z
#
# Youngs Moduli (GPa) = 35.63206 12.98882 80.25097
#
# Poissons Ratio (x) = 0.48751 -0.43408
# Poissons Ratio (y) = 1.33739 1.10817
# Poissons Ratio (z) = -0.19273 0.17936
#
# Static dielectric constant tensor:
#      x y z
#    x 3.868560 0.000000 -0.046320 
#    y 0.000000 3.730250 0.000000 
#    z -0.046320 0.000000 3.800530 
# 
# 
# High freq. dielectric constant tensor:
#      x y z
#    x 1.839650 0.000000 0.000460 
#    y 0.000000 1.833140 0.000000 
#    z 0.000460 0.000000 1.837230 
# 
# From -- ./inp_files/19724.got.cif
#   From: 2010.03.12/outbox.cif.g09.slc.cpg/sg8_10_cif.got.tgz:19724.got - 2010.03.31 10:45:26.
