data_PCOD8054487
_publ_section_title
;
Structure prediction by ZEFSAII (Michael W. Deem and Ramdas Pophale) SiO2 
 PCOD8054487
Probable space group: C C
;
_chemical_formula_sum "Si O2"
_cell_formula_units_Z 32
_cell_length_a 11.465674
_cell_length_b 30.586866
_cell_length_c 5.385969
_cell_angle_alpha 90.000000
_cell_angle_beta 127.696172
_cell_angle_gamma 90.000000
_cell_volume 1494.583005
_symmetry_space_group_name_H-M "C C"
_symmetry_group_IT_number 9
_symmetry_cell_setting 'monoclinic'
loop_
_space_group_symop_operation_xyz
x,y,z
x,-y,1/2+z
1/2+x,1/2+y,z
1/2+x,1/2-y,1/2+z
loop_
_atom_site_type_symbol
_atom_site_label
_atom_site_fract_x
_atom_site_fract_y
_atom_site_fract_z
Si Si1 0.729430 0.622028 0.289490
Si Si2 0.683351 0.236660 0.784787
Si Si3 0.751336 0.476519 0.808715
Si Si4 0.882664 0.294990 0.750194
Si Si5 0.853847 0.830905 0.781055
Si Si6 0.161075 0.813993 0.077270
Si Si7 0.896774 0.120796 0.810541
Si Si8 0.900288 0.022757 0.851247
O O1 0.804404 0.574225 0.379676
O O2 0.836985 0.658543 0.312478
O O3 0.697027 0.636685 0.531571
O O4 0.568931 0.620711 0.949965
O O5 0.821860 0.250490 0.797324
O O6 0.559142 0.209689 0.470783
O O7 0.736486 0.207622 0.088205
O O8 0.616119 0.282481 0.791128
O O9 0.812783 0.499666 0.637985
O O10 0.576097 0.478480 0.586220
O O11 0.811466 0.294894 0.386290
O O12 0.865631 0.855647 0.531284
O O13 0.804613 0.858801 0.958089
O O14 0.017972 0.813360 0.068163
O O15 0.839311 0.071751 0.768060
O O16 0.839164 0.999193 0.524074
#
# Coordination Sequence:
#
# PCOD8054487 Si02
#       8
#     4   4   4   4   4   4   4   4
#     4   9  20  34  54  86 116 158 198 245 306 351
#     4  11  25  38  57  87 116 162 208 251 300 358
#     4   9  18  29  51  81 120 151 188 240 298 358
#     4  11  23  39  59  84 121 159 207 254 301 360
#     4  11  22  39  57  84 118 160 198 241 300 356
#     4  10  22  36  58  80 118 159 199 247 303 355
#     4  10  20  35  57  84 121 156 196 246 299 358
#     4   9  16  28  49  82 116 149 186 238 299 354
#
# _framework density 21.410654000000001
#
# number of rings (size 3 to 8) (size 9 to 14) (size 15 to 20)
#    0.000    2.000    2.500    0.750    5.250    3.000 
#    0.000    0.000    0.000    0.000    0.000    5.250 
#    0.000    0.000    0.000    0.000    0.000    0.000 
#
# Total GULP energy -198242.976661 kJ/mol
# GULP energy per Si atom -12390.186041 kJ/mol
# Density = 2.136192 g / cm^3
# Si number density = 21.410654 Si / 1000 Ang^3
#
#
#
# Elastic Constant Matrix: (Units=GPa)
#
#
# Indices 1 2 3 4 5 6 
#
# 1 35.8107 23.5875 25.9128 0.0000 -12.1485 0.0000
# 2 23.5875 141.2998 53.3235 0.0000 -6.4247 0.0000
# 3 25.9128 53.3235 109.7223 0.0000 -20.0659 0.0000
# 4 0.0000 0.0000 0.0000 35.4809 0.0000 -9.2593
# 5 -12.1485 -6.4247 -20.0659 0.0000 33.3653 0.0000
# 6 0.0000 0.0000 0.0000 -9.2593 0.0000 12.7775
#
#
#
# Elastic Compliance Matrix: (Units=1/GPa)
#
#
# Indices 1 2 3 4 5 6 
#
# 1 0.037557 -0.003861 -0.005200 0.000000 0.009804 0.000000
# 2 -0.003861 0.009092 -0.003869 0.000000 -0.001982 0.000000
# 3 -0.005200 -0.003869 0.013191 0.000000 0.005294 0.000000
# 4 0.000000 0.000000 0.000000 0.034757 0.000000 0.025187
# 5 0.009804 -0.001982 0.005294 0.000000 0.036343 0.000000
# 6 0.000000 0.000000 0.000000 0.025187 0.000000 0.096515
#
#
# Mechanical properties :
#
#
# Convention : Reuss Voigt Hill
#
# Bulk Modulus (GPa) = 29.43087 54.72003 42.07545
# Shear Modulus (GPa) = 18.89353 28.59201 23.74277
#
# Velocity S-wave (km/s) = 2.97381 3.65829 3.33366
# Velocity P-wave (km/s) = 5.05639 6.59219 5.87470
#
# Compressibility (1/GPa) = 0.03397792
#
# Stress axis : x y z
#
# Youngs Moduli (GPa) = 26.62647 109.99084 75.81185
#
# Poissons Ratio (x) = 0.42469 0.39424
# Poissons Ratio (y) = 0.10281 0.29332
# Poissons Ratio (z) = 0.13846 0.42556
#
# Static dielectric constant tensor:
#      x y z
#    x 3.393860 0.000000 -0.262590 
#    y 0.000000 4.003500 0.000000 
#    z -0.262590 0.000000 3.765960 
# 
# 
# High freq. dielectric constant tensor:
#      x y z
#    x 1.794750 0.000000 -0.031130 
#    y 0.000000 1.849140 0.000000 
#    z -0.031130 0.000000 1.827110 
# 
# From -- ./inp_files/1229.got.cif
#   From: 2010.06.25/outbox.cif.g09.slc.cpg/sg9_1_cif.got.tgz:1229.got - 2010.06.27 21:40:51.
