data_PCOD8054982
_publ_section_title
;
Structure prediction by ZEFSAII (Michael W. Deem and Ramdas Pophale) SiO2 
 PCOD8054982
Probable space group: C C
;
_chemical_formula_sum "Si O2"
_cell_formula_units_Z 32
_cell_length_a 28.074668
_cell_length_b 9.064417
_cell_length_c 11.091770
_cell_angle_alpha 90.000000
_cell_angle_beta 146.465033
_cell_angle_gamma 90.000000
_cell_volume 1559.355128
_symmetry_space_group_name_H-M "C C"
_symmetry_group_IT_number 9
_symmetry_cell_setting 'monoclinic'
loop_
_space_group_symop_operation_xyz
x,y,z
x,-y,1/2+z
1/2+x,1/2+y,z
1/2+x,1/2-y,1/2+z
loop_
_atom_site_type_symbol
_atom_site_label
_atom_site_fract_x
_atom_site_fract_y
_atom_site_fract_z
Si Si1 0.639780 0.902253 0.095220
Si Si2 0.951396 0.788514 0.785885
Si Si3 0.029041 0.223592 0.685133
Si Si4 0.202263 0.244144 0.452392
Si Si5 0.693548 0.410554 0.412851
Si Si6 0.872534 0.062497 0.322317
Si Si7 0.126225 0.254084 0.552337
Si Si8 0.304518 0.283229 0.306497
O O1 0.641354 0.831495 0.230910
O O2 0.728845 0.869687 0.215120
O O3 0.560063 0.839580 0.849492
O O4 0.625036 0.074090 0.081863
O O5 0.909931 0.935856 0.762599
O O6 0.873505 0.714615 0.546392
O O7 0.031491 0.819624 0.866305
O O8 0.989920 0.693137 0.981583
O O9 0.105728 0.115348 0.802682
O O10 0.950093 0.124852 0.572172
O O11 0.291727 0.327476 0.659969
O O12 0.153559 0.227996 0.474651
O O13 0.214249 0.079822 0.426273
O O14 0.772041 0.351784 0.658963
O O15 0.692062 0.325542 0.282345
O O16 0.850090 0.898595 0.313482
#
# Coordination Sequence:
#
# PCOD8054982 Si02
#       8
#     4   4   4   4   4   4   4   4
#     4  11  22  42  70  97 129 177 228 272 328 405
#     4   9  22  40  64  93 132 163 214 283 322 379
#     4   8  21  41  65  90 132 170 220 279 322 383
#     4  12  25  40  69  99 135 177 219 275 341 394
#     4  10  25  41  64  97 134 172 221 275 336 396
#     4  10  21  41  66  95 125 171 223 271 329 387
#     4  11  25  42  67  99 136 175 227 269 341 400
#     4  11  21  41  71  92 127 177 224 276 329 398
#
# _framework density 20.521301999999999
#
# number of rings (size 3 to 8) (size 9 to 14) (size 15 to 20)
#    0.750    1.000    2.500    0.750    8.750    2.000 
#    0.000    1.250    0.000    0.000    0.000    0.000 
#    0.000    0.000    0.000    0.000    0.000    0.000 
#
# Total GULP energy -198238.941616 kJ/mol
# GULP energy per Si atom -12389.933851 kJ/mol
# Density = 2.047459 g / cm^3
# Si number density = 20.521302 Si / 1000 Ang^3
#
#
#
# Elastic Constant Matrix: (Units=GPa)
#
#
# Indices 1 2 3 4 5 6 
#
# 1 95.7315 7.8288 29.2414 0.0000 -2.5017 0.0000
# 2 7.8288 93.2391 34.4001 0.0000 -6.9794 0.0000
# 3 29.2414 34.4001 162.4910 0.0000 -12.9813 0.0000
# 4 0.0000 0.0000 0.0000 21.3961 0.0000 -6.3539
# 5 -2.5017 -6.9794 -12.9813 0.0000 30.5993 0.0000
# 6 0.0000 0.0000 0.0000 -6.3539 0.0000 21.6705
#
#
#
# Elastic Compliance Matrix: (Units=1/GPa)
#
#
# Indices 1 2 3 4 5 6 
#
# 1 0.011057 -0.000209 -0.001943 0.000000 0.000032 0.000000
# 2 -0.000209 0.011720 -0.002310 0.000000 0.001676 0.000000
# 3 -0.001943 -0.002310 0.007181 0.000000 0.002361 0.000000
# 4 0.000000 0.000000 0.000000 0.051195 0.000000 0.015011
# 5 0.000032 0.001676 0.002361 0.000000 0.034067 0.000000
# 6 0.000000 0.000000 0.000000 0.015011 0.000000 0.050547
#
#
# Mechanical properties :
#
#
# Convention : Reuss Voigt Hill
#
# Bulk Modulus (GPa) = 47.53902 54.93357 51.23630
# Shear Modulus (GPa) = 27.51734 33.39927 30.45831
#
# Velocity S-wave (km/s) = 3.66582 4.03866 3.85675
# Velocity P-wave (km/s) = 6.41355 6.96956 6.69733
#
# Compressibility (1/GPa) = 0.02103535
#
# Stress axis : x y z
#
# Youngs Moduli (GPa) = 90.43784 85.32208 139.24812
#
# Poissons Ratio (x) = 0.01785 0.27056
# Poissons Ratio (y) = 0.01892 0.32162
# Poissons Ratio (z) = 0.17572 0.19707
#
# Static dielectric constant tensor:
#      x y z
#    x 3.759760 0.000000 0.011060 
#    y 0.000000 3.398230 0.000000 
#    z 0.011060 0.000000 4.072250 
# 
# 
# High freq. dielectric constant tensor:
#      x y z
#    x 1.801080 0.000000 -0.004340 
#    y 0.000000 1.770300 0.000000 
#    z -0.004340 0.000000 1.821110 
# 
# From -- ./inp_files/21466.got.cif
#   From: 2010.06.25/outbox.cif.g09.slc.cpg/sg9_11_cif.got.tgz:21466.got - 2010.06.27 21:40:51.
