data_PCOD8054350
_publ_section_title
;
Structure prediction by ZEFSAII (Michael W. Deem and Ramdas Pophale) SiO2 
 PCOD8054350
Probable space group: C C
;
_chemical_formula_sum "Si O2"
_cell_formula_units_Z 32
_cell_length_a 21.572728
_cell_length_b 16.166719
_cell_length_c 8.890432
_cell_angle_alpha 90.000000
_cell_angle_beta 147.960396
_cell_angle_gamma 90.000000
_cell_volume 1644.900263
_symmetry_space_group_name_H-M "C C"
_symmetry_group_IT_number 9
_symmetry_cell_setting 'monoclinic'
loop_
_space_group_symop_operation_xyz
x,y,z
x,-y,1/2+z
1/2+x,1/2+y,z
1/2+x,1/2-y,1/2+z
loop_
_atom_site_type_symbol
_atom_site_label
_atom_site_fract_x
_atom_site_fract_y
_atom_site_fract_z
Si Si1 0.065210 0.938374 0.763880
Si Si2 0.398380 0.301449 0.345090
Si Si3 0.448172 0.830844 0.188964
Si Si4 0.623420 0.784579 0.790020
Si Si5 0.624857 0.597516 0.728735
Si Si6 0.461671 0.820534 0.721804
Si Si7 0.305810 0.877475 0.151784
Si Si8 0.392477 0.942534 0.814774
O O1 0.946686 0.894494 0.463873
O O2 0.061989 0.035441 0.716932
O O3 0.085449 0.928725 0.981801
O O4 0.170324 0.897366 0.884926
O O5 0.450180 0.250093 0.590647
O O6 0.446003 0.261333 0.289748
O O7 0.259439 0.302993 0.060645
O O8 0.561964 0.835325 0.529120
O O9 0.330816 0.826175 0.051160
O O10 0.444679 0.913721 0.081683
O O11 0.585705 0.689435 0.689764
O O12 0.577444 0.814110 0.858199
O O13 0.764021 0.595870 0.029750
O O14 0.346457 0.826000 0.380215
O O15 0.471319 0.903574 0.843611
O O16 0.388019 0.959027 0.304880
#
# Coordination Sequence:
#
# PCOD8054350 Si02
#       8
#     4   4   4   4   4   4   4   4
#     4  11  24  37  63  92 123 158 199 269 319 367
#     4  11  23  39  61  88 132 157 207 253 314 376
#     4  10  21  35  60  87 119 163 197 253 311 366
#     4  11  22  40  61  87 129 162 208 254 306 383
#     4  11  22  38  61  93 123 153 204 259 315 368
#     4  10  21  36  59  91 118 162 199 251 314 369
#     4  10  20  35  63  93 119 147 202 264 316 362
#     4  10  19  36  60  93 119 144 200 269 307 357
#
# _framework density 19.454066000000001
#
# number of rings (size 3 to 8) (size 9 to 14) (size 15 to 20)
#    0.000    1.500    5.000    0.750    8.750    0.000 
#    0.000    0.000   11.000    0.000    0.000    0.000 
#    0.000    0.000    0.000    0.000    0.000    0.000 
#
# Total GULP energy -198402.950221 kJ/mol
# GULP energy per Si atom -12400.184389 kJ/mol
# Density = 1.940979 g / cm^3
# Si number density = 19.454066 Si / 1000 Ang^3
#
#
#
# Elastic Constant Matrix: (Units=GPa)
#
#
# Indices 1 2 3 4 5 6 
#
# 1 106.2943 32.8569 58.5925 0.0000 -17.1213 0.0000
# 2 32.8569 85.6733 35.7200 0.0000 -3.6441 0.0000
# 3 58.5925 35.7200 93.1473 0.0000 -2.8217 0.0000
# 4 0.0000 0.0000 0.0000 23.1243 0.0000 6.6145
# 5 -17.1213 -3.6441 -2.8217 0.0000 32.2929 0.0000
# 6 0.0000 0.0000 0.0000 6.6145 0.0000 25.7411
#
#
#
# Elastic Compliance Matrix: (Units=1/GPa)
#
#
# Indices 1 2 3 4 5 6 
#
# 1 0.016406 -0.002095 -0.009284 0.000000 0.007650 0.000000
# 2 -0.002095 0.014201 -0.004124 0.000000 0.000131 0.000000
# 3 -0.009284 -0.004124 0.018042 0.000000 -0.003811 0.000000
# 4 0.000000 0.000000 0.000000 0.046675 0.000000 -0.011994
# 5 0.007650 0.000131 -0.003811 0.000000 0.034704 0.000000
# 6 0.000000 0.000000 0.000000 -0.011994 0.000000 0.041930
#
#
# Mechanical properties :
#
#
# Convention : Reuss Voigt Hill
#
# Bulk Modulus (GPa) = 56.68527 59.93932 58.31229
# Shear Modulus (GPa) = 23.94115 26.76134 25.35124
#
# Velocity S-wave (km/s) = 3.51187 3.71295 3.61381
# Velocity P-wave (km/s) = 6.75615 7.01847 6.88856
#
# Compressibility (1/GPa) = 0.01764127
#
# Stress axis : x y z
#
# Youngs Moduli (GPa) = 60.95461 70.41889 55.42717
#
# Poissons Ratio (x) = 0.14756 0.51461
# Poissons Ratio (y) = 0.12773 0.22856
# Poissons Ratio (z) = 0.56592 0.29038
#
# Static dielectric constant tensor:
#      x y z
#    x 3.650060 0.000000 -0.233040 
#    y 0.000000 3.559840 0.000000 
#    z -0.233040 0.000000 3.422290 
# 
# 
# High freq. dielectric constant tensor:
#      x y z
#    x 1.762400 0.000000 -0.026140 
#    y 0.000000 1.749470 0.000000 
#    z -0.026140 0.000000 1.745400 
# 
# From -- ./inp_files/7431.got.cif
#   From: 2010.06.25/outbox.cif.g09.slc.cpg/sg9_4_cif.got.tgz:7431.got - 2010.06.27 21:40:51.
