data_PCOD8054692
_publ_section_title
;
Structure prediction by ZEFSAII (Michael W. Deem and Ramdas Pophale) SiO2 
 PCOD8054692
Probable space group: C C
;
_chemical_formula_sum "Si O2"
_cell_formula_units_Z 32
_cell_length_a 7.929231
_cell_length_b 15.357571
_cell_length_c 22.098512
_cell_angle_alpha 90.000000
_cell_angle_beta 35.629409
_cell_angle_gamma 90.000000
_cell_volume 1567.626396
_symmetry_space_group_name_H-M "C C"
_symmetry_group_IT_number 9
_symmetry_cell_setting 'monoclinic'
loop_
_space_group_symop_operation_xyz
x,y,z
x,-y,1/2+z
1/2+x,1/2+y,z
1/2+x,1/2-y,1/2+z
loop_
_atom_site_type_symbol
_atom_site_label
_atom_site_fract_x
_atom_site_fract_y
_atom_site_fract_z
Si Si1 0.209040 0.906502 0.736880
Si Si2 0.840924 0.357298 0.569490
Si Si3 0.708517 0.212293 0.768678
Si Si4 0.836058 0.664792 0.618029
Si Si5 0.210543 0.328495 0.130851
Si Si6 0.141762 0.165904 0.001916
Si Si7 0.711628 0.980742 0.958038
Si Si8 0.317576 0.496535 0.556319
O O1 0.162094 0.889475 0.679592
O O2 0.258177 0.816129 0.757636
O O3 0.917144 0.954219 0.843042
O O4 0.485694 0.968330 0.665387
O O5 0.920079 0.253998 0.554351
O O6 0.627603 0.364690 0.575405
O O7 0.119692 0.418089 0.476821
O O8 0.606724 0.183270 0.730673
O O9 0.463220 0.187370 0.887485
O O10 0.989866 0.164257 0.713740
O O11 0.953330 0.663978 0.654174
O O12 0.943510 0.749900 0.550567
O O13 0.936314 0.582782 0.547918
O O14 0.387859 0.419712 0.077915
O O15 0.027559 0.084237 0.999178
O O16 0.888326 0.970831 0.968341
#
# Coordination Sequence:
#
# PCOD8054692 Si02
#       8
#     4   4   4   4   4   4   4   4
#     4  10  20  41  66  91 124 168 211 262 320 382
#     4   9  22  40  61  91 127 160 210 267 306 378
#     4  11  22  40  68  95 126 167 215 265 320 379
#     4  10  21  42  65  91 130 169 203 268 318 377
#     4   9  22  42  63  92 130 164 211 262 316 379
#     4  11  22  40  63  95 127 164 212 265 322 376
#     4  10  21  40  66  90 125 171 211 252 327 383
#     4  10  22  39  64  89 129 163 209 267 313 378
#
# _framework density 20.413025999999999
#
# number of rings (size 3 to 8) (size 9 to 14) (size 15 to 20)
#    0.000    2.000    2.500    0.000    3.500    3.000 
#    2.250    0.000    0.000    0.000    0.000    0.000 
#    0.000    0.000    0.000    0.000    0.000    0.000 
#
# Total GULP energy -198244.421860 kJ/mol
# GULP energy per Si atom -12390.276366 kJ/mol
# Density = 2.036657 g / cm^3
# Si number density = 20.413026 Si / 1000 Ang^3
#
#
#
# Elastic Constant Matrix: (Units=GPa)
#
#
# Indices 1 2 3 4 5 6 
#
# 1 64.4566 28.8381 37.8663 -0.0391 3.6722 0.0251
# 2 28.8381 133.3472 38.9455 0.0259 5.0138 0.0211
# 3 37.8663 38.9455 103.2006 0.0720 -0.8901 0.0138
# 4 -0.0391 0.0259 0.0720 29.8454 -0.0035 -3.8972
# 5 3.6722 5.0138 -0.8901 -0.0035 23.3427 -0.0155
# 6 0.0251 0.0211 0.0138 -3.8972 -0.0155 32.0335
#
#
#
# Elastic Compliance Matrix: (Units=1/GPa)
#
#
# Indices 1 2 3 4 5 6 
#
# 1 0.020706 -0.002404 -0.006716 0.000044 -0.002997 -0.000008
# 2 -0.002404 0.008795 -0.002451 -0.000006 -0.001604 -0.000004
# 3 -0.006716 -0.002451 0.013097 -0.000038 0.002082 -0.000002
# 4 0.000044 -0.000006 -0.000038 0.034047 0.000001 0.004142
# 5 -0.002997 -0.001604 0.002082 0.000001 0.043736 0.000024
# 6 -0.000008 -0.000004 -0.000002 0.004142 0.000024 0.031721
#
#
# Mechanical properties :
#
#
# Convention : Reuss Voigt Hill
#
# Bulk Modulus (GPa) = 51.39653 56.92268 54.15961
# Shear Modulus (GPa) = 27.51339 30.06795 28.79067
#
# Velocity S-wave (km/s) = 3.67527 3.84210 3.75961
# Velocity P-wave (km/s) = 6.57595 6.90133 6.74060
#
# Compressibility (1/GPa) = 0.01945657
#
# Stress axis : x y z
#
# Youngs Moduli (GPa) = 48.29489 113.69811 76.35271
#
# Poissons Ratio (x) = 0.27330 0.51280
# Poissons Ratio (y) = 0.11609 0.18714
# Poissons Ratio (z) = 0.32436 0.27867
#
# Static dielectric constant tensor:
#      x y z
#    x 3.660400 -0.000090 0.241050 
#    y -0.000090 4.151490 0.000180 
#    z 0.241050 0.000180 3.446960 
# 
# 
# High freq. dielectric constant tensor:
#      x y z
#    x 1.782670 0.000000 0.021990 
#    y 0.000000 1.825990 0.000000 
#    z 0.021990 0.000000 1.774690 
# 
# From -- ./inp_files/14561.got.cif
#   From: 2010.06.25/outbox.cif.g09.slc.cpg/sg9_8_cif.got.tgz:14561.got - 2010.06.27 21:40:51.
