data_PCOD8054374
_publ_section_title
;
Structure prediction by ZEFSAII (Michael W. Deem and Ramdas Pophale) SiO2 
 PCOD8054374
Probable space group: C C
;
_chemical_formula_sum "Si O2"
_cell_formula_units_Z 28
_cell_length_a 8.678294
_cell_length_b 12.693283
_cell_length_c 15.260795
_cell_angle_alpha 90.000000
_cell_angle_beta 61.133341
_cell_angle_gamma 90.000000
_cell_volume 1472.188589
_symmetry_space_group_name_H-M "C C"
_symmetry_group_IT_number 9
_symmetry_cell_setting 'monoclinic'
loop_
_space_group_symop_operation_xyz
x,y,z
x,-y,1/2+z
1/2+x,1/2+y,z
1/2+x,1/2-y,1/2+z
loop_
_atom_site_type_symbol
_atom_site_label
_atom_site_fract_x
_atom_site_fract_y
_atom_site_fract_z
Si Si1 0.924670 0.491654 0.154930
Si Si2 0.639990 0.153905 0.706739
Si Si3 0.981074 0.162711 0.505066
Si Si4 0.201434 0.150766 0.601480
Si Si5 0.077826 0.114813 0.284985
Si Si6 0.887100 0.915854 0.289140
Si Si7 0.686210 0.151357 0.007202
O O1 0.860632 0.422150 0.089490
O O2 0.778013 0.573346 0.228170
O O3 0.973622 0.415329 0.222202
O O4 0.099678 0.551967 0.077937
O O5 0.568724 0.270490 0.745212
O O6 0.721404 0.102321 0.771578
O O7 0.778391 0.155519 0.588910
O O8 0.105751 0.100675 0.541299
O O9 0.008625 0.113794 0.402941
O O10 0.038218 0.286126 0.491258
O O11 0.266938 0.269283 0.559238
O O12 0.050467 0.159277 0.717833
O O13 0.950629 0.037262 0.265272
O O14 0.841129 0.887064 0.401474
#
# Coordination Sequence:
#
# PCOD8054374 Si02
#       7
#     4   4   4   4   4   4   4
#     4  11  22  36  62  85 114 155 192 226 294 335
#     4  11  21  39  57  88 115 151 189 240 281 341
#     4   9  19  38  62  75 120 150 182 242 289 318
#     4   8  20  37  57  83 114 148 189 238 278 337
#     4  11  21  40  57  86 117 149 192 242 277 344
#     4  10  20  37  61  84 114 155 191 227 296 334
#     4  10  19  37  62  79 114 152 189 233 281 341
#
# _framework density 19.019303000000001
#
# number of rings (size 3 to 8) (size 9 to 14) (size 15 to 20)
#    0.857    1.143    2.857    0.857    0.000    2.286 
#    0.000    7.143    0.000    0.000    0.000    0.000 
#    0.000    0.000    0.000    0.000    0.000    0.000 
#
# Total GULP energy -173533.313551 kJ/mol
# GULP energy per Si atom -12395.236682 kJ/mol
# Density = 1.897601 g / cm^3
# Si number density = 19.019303 Si / 1000 Ang^3
#
#
#
# Elastic Constant Matrix: (Units=GPa)
#
#
# Indices 1 2 3 4 5 6 
#
# 1 27.8710 32.7075 7.2278 0.0000 11.1842 0.0000
# 2 32.7075 110.6363 41.1340 0.0000 10.3978 0.0000
# 3 7.2278 41.1340 118.9587 0.0000 1.7011 0.0000
# 4 0.0000 0.0000 0.0000 28.5016 0.0000 6.6163
# 5 11.1842 10.3978 1.7011 0.0000 15.6377 0.0000
# 6 0.0000 0.0000 0.0000 6.6163 0.0000 36.7547
#
#
#
# Elastic Compliance Matrix: (Units=1/GPa)
#
#
# Indices 1 2 3 4 5 6 
#
# 1 0.073638 -0.018967 0.002661 0.000000 -0.040344 0.000000
# 2 -0.018967 0.015966 -0.004417 0.000000 0.003430 0.000000
# 3 0.002661 -0.004417 0.009772 0.000000 -0.000029 0.000000
# 4 0.000000 0.000000 0.000000 0.036616 0.000000 -0.006591
# 5 -0.040344 0.003430 -0.000029 0.000000 0.090525 0.000000
# 6 0.000000 0.000000 0.000000 -0.006591 0.000000 0.028394
#
#
# Mechanical properties :
#
#
# Convention : Reuss Voigt Hill
#
# Bulk Modulus (GPa) = 17.26244 46.62274 31.94259
# Shear Modulus (GPa) = 15.83948 27.93861 21.88904
#
# Velocity S-wave (km/s) = 2.88898 3.83686 3.39615
# Velocity P-wave (km/s) = 4.49714 6.64795 5.67536
#
# Compressibility (1/GPa) = 0.05792922
#
# Stress axis : x y z
#
# Youngs Moduli (GPa) = 13.58000 62.63313 102.32848
#
# Poissons Ratio (x) = 1.18799 -0.27234
# Poissons Ratio (y) = 0.25758 0.45202
# Poissons Ratio (z) = -0.03614 0.27667
#
# Static dielectric constant tensor:
#      x y z
#    x 3.225930 0.000000 -0.011820 
#    y 0.000000 3.420160 0.000000 
#    z -0.011820 0.000000 3.450110 
# 
# 
# High freq. dielectric constant tensor:
#      x y z
#    x 1.714800 0.000000 -0.003630 
#    y 0.000000 1.736620 0.000000 
#    z -0.003630 0.000000 1.743750 
# 
# From -- ./inp_files/22616.got.cif
#   From: 2010.06.25/outbox.cif.g09.slc.cpg/sg9_12_cif.got.tgz:22616.got - 2010.06.27 21:40:51.
