data_PCOD8054362
_publ_section_title
;
Structure prediction by ZEFSAII (Michael W. Deem and Ramdas Pophale) SiO2 
 PCOD8054362
Probable space group: C C
;
_chemical_formula_sum "Si O2"
_cell_formula_units_Z 24
_cell_length_a 6.580486
_cell_length_b 25.958574
_cell_length_c 7.601253
_cell_angle_alpha 90.000000
_cell_angle_beta 46.829794
_cell_angle_gamma 90.000000
_cell_volume 946.988683
_symmetry_space_group_name_H-M "C C"
_symmetry_group_IT_number 9
_symmetry_cell_setting 'monoclinic'
loop_
_space_group_symop_operation_xyz
x,y,z
x,-y,1/2+z
1/2+x,1/2+y,z
1/2+x,1/2-y,1/2+z
loop_
_atom_site_type_symbol
_atom_site_label
_atom_site_fract_x
_atom_site_fract_y
_atom_site_fract_z
Si Si1 0.191390 0.120816 0.445460
Si Si2 0.864290 0.729475 0.301754
Si Si3 0.200060 0.766142 0.441477
Si Si4 0.674340 0.065407 0.679801
Si Si5 0.160993 0.551116 0.099416
Si Si6 0.644684 0.378443 0.367599
O O1 0.352891 0.168567 0.261410
O O2 0.371289 0.068351 0.358103
O O3 0.107984 0.140214 0.688648
O O4 0.927367 0.104147 0.484498
O O5 0.537086 0.753497 0.217143
O O6 0.044269 0.739136 0.370302
O O7 0.040116 0.751431 0.028682
O O8 0.156522 0.827385 0.477333
O O9 0.413744 0.086909 0.731818
O O10 0.734234 0.008335 0.575325
O O11 0.637750 0.065148 0.909596
O O12 0.388469 0.584867 0.069122
#
# Coordination Sequence:
#
# PCOD8054362 Si02
#       6
#     4   4   4   4   4   4
#     4  11  23  41  70  97 135 180 228 282 343 414
#     4  10  19  36  68  99 136 185 230 274 345 412
#     4  10  19  37  66 101 135 184 231 275 344 413
#     4  11  26  43  65 103 130 175 233 288 349 414
#     4  11  24  44  67  95 135 178 225 289 351 416
#     4  11  23  41  70  97 135 180 229 282 344 413
#
# _framework density 25.343492000000001
#
# number of rings (size 3 to 8) (size 9 to 14) (size 15 to 20)
#    0.000    1.333    3.333    4.000    2.333    5.333 
#    0.000    1.667    0.000    0.000    0.000    0.000 
#    0.000    0.000    0.000    0.000    0.000    0.000 
#
# Total GULP energy -148771.870006 kJ/mol
# GULP energy per Si atom -12397.655834 kJ/mol
# Density = 2.528581 g / cm^3
# Si number density = 25.343492 Si / 1000 Ang^3
#
#
#
# Elastic Constant Matrix: (Units=GPa)
#
#
# Indices 1 2 3 4 5 6 
#
# 1 43.8681 7.7110 46.1742 0.0000 -22.0588 0.0000
# 2 7.7110 126.4108 19.5958 0.0000 -2.7121 0.0000
# 3 46.1742 19.5958 119.9455 0.0000 -18.3903 0.0000
# 4 0.0000 0.0000 0.0000 39.1172 0.0000 -23.1899
# 5 -22.0588 -2.7121 -18.3903 0.0000 42.8503 0.0000
# 6 0.0000 0.0000 0.0000 -23.1899 0.0000 2.4076
#
#
#
# Elastic Compliance Matrix: (Units=1/GPa)
#
#
# Indices 1 2 3 4 5 6 
#
# 1 0.048811 -0.000110 -0.015972 0.000000 0.018266 0.000000
# 2 -0.000110 0.008117 -0.001299 0.000000 -0.000100 0.000000
# 3 -0.015972 -0.001299 0.014370 0.000000 -0.002137 0.000000
# 4 0.000000 0.000000 0.000000 -0.005427 0.000000 -0.052277
# 5 0.018266 -0.000100 -0.002137 0.000000 0.031817 0.000000
# 6 0.000000 0.000000 0.000000 -0.052277 0.000000 -0.088182
#
#
# Mechanical properties :
#
#
# Convention : Reuss Voigt Hill
#
# Bulk Modulus (GPa) = 27.36981 48.57628 37.97304
# Shear Modulus (GPa) = 88.58135 31.32458 59.95296
#
# Velocity S-wave (km/s) = 5.91846 3.51949 4.86904
# Velocity P-wave (km/s) = 7.58467 5.97700 6.82832
#
# Compressibility (1/GPa) = 0.03653661
#
# Stress axis : x y z
#
# Youngs Moduli (GPa) = 20.48707 123.20354 69.58810
#
# Poissons Ratio (x) = 0.01351 1.11146
# Poissons Ratio (y) = 0.00225 0.09041
# Poissons Ratio (z) = 0.32722 0.16007
#
# Static dielectric constant tensor:
#      x y z
#    x 4.566360 0.000000 -0.315100 
#    y 0.000000 4.604850 0.000000 
#    z -0.315100 0.000000 4.956500 
# 
# 
# High freq. dielectric constant tensor:
#      x y z
#    x 2.021820 0.000000 -0.008460 
#    y 0.000000 2.015900 0.000000 
#    z -0.008460 0.000000 2.016300 
# 
# From -- ./inp_files/4062.got.cif
#   From: 2010.06.25/outbox.cif.g09.slc.cpg/sg9_3_cif.got.tgz:4062.got - 2010.06.27 21:40:51.
