data_PCOD8054408
_publ_section_title
;
Structure prediction by ZEFSAII (Michael W. Deem and Ramdas Pophale) SiO2 
 PCOD8054408
Probable space group: C C
;
_chemical_formula_sum "Si O2"
_cell_formula_units_Z 24
_cell_length_a 7.291252
_cell_length_b 22.507130
_cell_length_c 8.580852
_cell_angle_alpha 90.000000
_cell_angle_beta 125.251229
_cell_angle_gamma 90.000000
_cell_volume 1149.946223
_symmetry_space_group_name_H-M "C C"
_symmetry_group_IT_number 9
_symmetry_cell_setting 'monoclinic'
loop_
_space_group_symop_operation_xyz
x,y,z
x,-y,1/2+z
1/2+x,1/2+y,z
1/2+x,1/2-y,1/2+z
loop_
_atom_site_type_symbol
_atom_site_label
_atom_site_fract_x
_atom_site_fract_y
_atom_site_fract_z
Si Si1 0.097060 0.121458 0.655910
Si Si2 0.194372 0.694024 0.453905
Si Si3 0.545899 0.568505 0.058540
Si Si4 0.738412 0.462790 0.964095
Si Si5 0.288988 0.826196 0.547947
Si Si6 0.700720 0.084284 0.647199
O O1 0.229936 0.091710 0.581094
O O2 0.951434 0.178792 0.529117
O O3 0.917673 0.072655 0.639453
O O4 0.277722 0.142859 0.872824
O O5 0.166647 0.762416 0.486050
O O6 0.128327 0.652817 0.572291
O O7 0.043727 0.679015 0.229670
O O8 0.699618 0.524930 0.028707
O O9 0.549837 0.546546 0.238660
O O10 0.653401 0.633905 0.104518
O O11 0.290763 0.573398 0.868074
O O12 0.990590 0.459819 0.014076
#
# Coordination Sequence:
#
# PCOD8054408 Si02
#       6
#     4   4   4   4   4   4
#     4   9  22  38  63  95 123 160 209 249 307 365
#     4  10  19  38  69  90 123 165 207 248 315 367
#     4  11  23  38  65  92 126 165 208 256 304 372
#     4  12  24  43  63  93 126 163 211 253 310 370
#     4  11  18  39  67  90 125 170 200 255 311 363
#     4   9  22  42  63  94 121 165 201 255 309 359
#
# _framework density 20.870540999999999
#
# number of rings (size 3 to 8) (size 9 to 14) (size 15 to 20)
#    1.000    0.667    3.333    2.000    0.000    5.333 
#    0.000    1.667    0.000    0.000    0.000    0.000 
#    0.000    0.000    0.000    0.000    0.000    0.000 
#
# Total GULP energy -148669.357406 kJ/mol
# GULP energy per Si atom -12389.113117 kJ/mol
# Density = 2.082304 g / cm^3
# Si number density = 20.870541 Si / 1000 Ang^3
#
#
#
# Elastic Constant Matrix: (Units=GPa)
#
#
# Indices 1 2 3 4 5 6 
#
# 1 37.4187 21.0101 28.1662 0.0000 0.9954 0.0000
# 2 21.0101 108.8559 35.3534 0.0000 -0.2214 0.0000
# 3 28.1662 35.3534 168.4185 0.0000 7.4087 0.0000
# 4 0.0000 0.0000 0.0000 31.0534 0.0000 -2.4311
# 5 0.9954 -0.2214 7.4087 0.0000 25.2529 0.0000
# 6 0.0000 0.0000 0.0000 -2.4311 0.0000 24.5964
#
#
#
# Elastic Compliance Matrix: (Units=1/GPa)
#
#
# Indices 1 2 3 4 5 6 
#
# 1 0.032829 -0.004887 -0.004463 0.000000 -0.000027 0.000000
# 2 -0.004887 0.010598 -0.001439 0.000000 0.000708 0.000000
# 3 -0.004463 -0.001439 0.007070 0.000000 -0.001911 0.000000
# 4 0.000000 0.000000 0.000000 0.032454 0.000000 0.003208
# 5 -0.000027 0.000708 -0.001911 0.000000 0.040167 0.000000
# 6 0.000000 0.000000 0.000000 0.003208 0.000000 0.040973
#
#
# Mechanical properties :
#
#
# Convention : Reuss Voigt Hill
#
# Bulk Modulus (GPa) = 34.57820 53.75028 44.16424
# Shear Modulus (GPa) = 25.60049 31.52477 28.56263
#
# Velocity S-wave (km/s) = 3.50613 3.89072 3.70342
# Velocity P-wave (km/s) = 5.74409 6.78186 6.28443
#
# Compressibility (1/GPa) = 0.02891995
#
# Stress axis : x y z
#
# Youngs Moduli (GPa) = 30.46105 94.35484 141.44130
#
# Poissons Ratio (x) = 0.46109 0.63129
# Poissons Ratio (y) = 0.14885 0.20348
# Poissons Ratio (z) = 0.13596 0.13574
#
# Static dielectric constant tensor:
#      x y z
#    x 3.175070 0.000000 0.148120 
#    y 0.000000 3.775850 0.000000 
#    z 0.148120 0.000000 4.044100 
# 
# 
# High freq. dielectric constant tensor:
#      x y z
#    x 1.760150 0.000000 0.018600 
#    y 0.000000 1.818860 0.000000 
#    z 0.018600 0.000000 1.840300 
# 
# From -- ./inp_files/5992.got.cif
#   From: 2010.06.25/outbox.cif.g09.slc.cpg/sg9_3_cif.got.tgz:5992.got - 2010.06.27 21:40:51.
