data_PCOD8054777
_publ_section_title
;
Structure prediction by ZEFSAII (Michael W. Deem and Ramdas Pophale) SiO2 
 PCOD8054777
Probable space group: C C
;
_chemical_formula_sum "Si O2"
_cell_formula_units_Z 28
_cell_length_a 19.044945
_cell_length_b 14.178879
_cell_length_c 12.318499
_cell_angle_alpha 90.000000
_cell_angle_beta 153.199310
_cell_angle_gamma 90.000000
_cell_volume 1499.851867
_symmetry_space_group_name_H-M "C C"
_symmetry_group_IT_number 9
_symmetry_cell_setting 'monoclinic'
loop_
_space_group_symop_operation_xyz
x,y,z
x,-y,1/2+z
1/2+x,1/2+y,z
1/2+x,1/2-y,1/2+z
loop_
_atom_site_type_symbol
_atom_site_label
_atom_site_fract_x
_atom_site_fract_y
_atom_site_fract_z
Si Si1 0.718300 0.891834 0.846330
Si Si2 0.407150 0.455687 0.486611
Si Si3 0.977380 0.291762 0.383463
Si Si4 0.595995 0.608159 0.626884
Si Si5 0.336906 0.791770 0.589744
Si Si6 0.680607 0.160283 0.526097
Si Si7 0.633694 0.339718 0.947130
O O1 0.573142 0.880931 0.563223
O O2 0.821641 0.981043 0.958150
O O3 0.822518 0.795619 0.984010
O O4 0.658281 0.905226 0.887707
O O5 0.492663 0.518940 0.515064
O O6 0.282229 0.390696 0.256062
O O7 0.532073 0.390709 0.717179
O O8 0.991758 0.204367 0.489176
O O9 0.049241 0.258313 0.366781
O O10 0.799061 0.319256 0.120477
O O11 0.656042 0.594777 0.585553
O O12 0.741135 0.619061 0.909982
O O13 0.265055 0.758316 0.606440
O O14 0.515226 0.819263 0.852722
#
# Coordination Sequence:
#
# PCOD8054777 Si02
#       7
#     4   4   4   4   4   4   4
#     4   9  20  36  59  82 102 147 186 233 252 330
#     4  12  22  34  54  86 126 134 174 230 298 306
#     4   9  19  38  63  77 103 145 204 211 265 321
#     4   9  20  36  59  82 102 147 186 233 252 330
#     4   9  19  38  63  77 103 145 204 211 265 321
#     4  10  21  35  60  83 109 149 179 232 265 335
#     4  10  21  35  60  83 109 149 179 232 265 335
#
# _framework density 18.668510999999999
#
# number of rings (size 3 to 8) (size 9 to 14) (size 15 to 20)
#    1.714    0.571    0.000    3.429    0.000    2.286 
#    0.000    0.000    0.000    0.000    0.000    0.000 
#    0.000    0.000    0.000    0.000    0.000    0.000 
#
# Total GULP energy -173504.854190 kJ/mol
# GULP energy per Si atom -12393.203871 kJ/mol
# Density = 1.862602 g / cm^3
# Si number density = 18.668511 Si / 1000 Ang^3
#
#
#
# Elastic Constant Matrix: (Units=GPa)
#
#
# Indices 1 2 3 4 5 6 
#
# 1 24.3685 3.6137 21.0098 0.0000 11.2459 0.0000
# 2 3.6137 33.1323 51.8309 0.0000 0.9570 0.0000
# 3 21.0098 51.8309 138.2958 0.0000 20.9834 0.0000
# 4 0.0000 0.0000 0.0000 -0.7220 0.0000 -13.3472
# 5 11.2459 0.9570 20.9834 0.0000 29.7592 0.0000
# 6 0.0000 0.0000 0.0000 -13.3472 0.0000 1.5172
#
#
#
# Elastic Compliance Matrix: (Units=1/GPa)
#
#
# Indices 1 2 3 4 5 6 
#
# 1 0.054527 0.009915 -0.009882 0.000000 -0.013956 0.000000
# 2 0.009915 0.085754 -0.036571 0.000000 0.019282 0.000000
# 3 -0.009882 -0.036571 0.024292 0.000000 -0.012218 0.000000
# 4 0.000000 0.000000 0.000000 -0.008464 0.000000 -0.074464
# 5 -0.013956 0.019282 -0.012218 0.000000 0.046872 0.000000
# 6 0.000000 0.000000 0.000000 -0.074464 0.000000 0.004028
#
#
# Mechanical properties :
#
#
# Convention : Reuss Voigt Hill
#
# Bulk Modulus (GPa) = 10.92929 38.74505 24.83717
# Shear Modulus (GPa) = 16.09872 14.06703 15.08288
#
# Velocity S-wave (km/s) = 2.93976 2.74800 2.84550
# Velocity P-wave (km/s) = 4.17013 5.55590 4.91213
#
# Compressibility (1/GPa) = 0.09149722
#
# Stress axis : x y z
#
# Youngs Moduli (GPa) = 18.33950 11.66128 41.16551
#
# Poissons Ratio (x) = -0.11562 0.40681
# Poissons Ratio (y) = -0.18184 1.50546
# Poissons Ratio (z) = 0.18123 0.42646
#
# Static dielectric constant tensor:
#      x y z
#    x 3.152230 0.000000 0.058770 
#    y 0.000000 3.116390 0.000000 
#    z 0.058770 0.000000 3.219440 
# 
# 
# High freq. dielectric constant tensor:
#      x y z
#    x 1.709350 0.000000 0.008020 
#    y 0.000000 1.692040 0.000000 
#    z 0.008020 0.000000 1.724020 
# 
# From -- ./inp_files/27801.got.cif
#   From: 2010.06.25/outbox.cif.g09.slc.cpg/sg9_14_cif.got.tgz:27801.got - 2010.06.27 21:40:51.
