data_PCOD8054008
_publ_section_title
;
Structure prediction by ZEFSAII (Michael W. Deem and Ramdas Pophale) SiO2 
 PCOD8054008
Probable space group: C M
;
_chemical_formula_sum "Si O2"
_cell_formula_units_Z 32
_cell_length_a 9.116510
_cell_length_b 18.653916
_cell_length_c 15.328390
_cell_angle_alpha 90.000000
_cell_angle_beta 36.805932
_cell_angle_gamma 90.000000
_cell_volume 1561.705719
_symmetry_space_group_name_H-M "C M"
_symmetry_group_IT_number 8
_symmetry_cell_setting 'monoclinic'
loop_
_space_group_symop_operation_xyz
x,y,z
x,-y,z
1/2+x,1/2+y,z
1/2+x,1/2-y,z
loop_
_atom_site_type_symbol
_atom_site_label
_atom_site_fract_x
_atom_site_fract_y
_atom_site_fract_z
Si Si1 0.126580 0.345023 0.389790
Si Si2 0.391474 0.165057 0.032996
Si Si3 0.174057 0.849361 0.871327
Si Si4 0.625134 0.804777 0.109856
Si Si5 0.710880 0.417920 0.679094
Si Si6 0.558164 0.418750 0.099261
Si Si7 0.379667 0.693544 0.737686
Si Si8 0.291818 0.221564 0.417552
O O1 0.302102 0.378867 0.234418
O O2 0.266985 0.304599 0.401376
O O3 0.959556 0.409121 0.505755
O O4 0.966970 0.282667 0.418683
O O5 0.500059 0.183298 0.075627
O O6 0.187233 0.221807 0.097561
O O7 0.237174 0.091021 0.099175
O O8 0.610343 0.159880 0.857531
O O9 0.274910 0.902706 0.749320
O O10 0.325973 0.774742 0.798085
O O11 0.211870 0.885432 0.946462
O O12 0.878999 0.846476 0.997526
O O13 0.415149 0.826046 0.281297
O O14 0.614965 0.500000 0.712259
O O15 0.520650 0.355934 0.740948
O O16 0.496267 0.500000 0.110889
O O17 0.523140 0.692987 0.576828
#
# Coordination Sequence:
#
# PCOD8054008 Si02
#       8
#     4   4   4   4   4   4   4   4
#     4  11  23  40  62  97 128 165 217 262 321 390
#     4  11  22  38  61  91 126 160 204 265 315 379
#     4  11  22  42  65  97 124 164 220 268 316 388
#     4  11  20  37  64  95 121 155 206 263 315 367
#     4  11  23  42  67  95 131 172 211 269 329 388
#     4  12  26  42  61  88 131 175 214 268 330 386
#     4  10  23  38  65  96 128 158 217 263 321 383
#     4  11  21  37  65  97 121 163 203 268 317 373
#
# _framework density 20.490414999999999
#
# number of rings (size 3 to 8) (size 9 to 14) (size 15 to 20)
#    0.000    1.000    5.000    3.000    1.750    0.500 
#    0.000    0.000    0.000    0.000    0.000    0.000 
#    0.000    0.000    0.000    0.000    0.000    0.000 
#
# Total GULP energy -198210.785923 kJ/mol
# GULP energy per Si atom -12388.174120 kJ/mol
# Density = 2.044378 g / cm^3
# Si number density = 20.490415 Si / 1000 Ang^3
#
#
#
# Elastic Constant Matrix: (Units=GPa)
#
#
# Indices 1 2 3 4 5 6 
#
# 1 92.5521 47.9522 40.8742 0.0083 4.0710 -0.0051
# 2 47.9522 102.9551 32.6384 0.0192 2.8599 -0.0050
# 3 40.8742 32.6384 145.5506 0.0486 7.1867 -0.0158
# 4 0.0083 0.0192 0.0486 20.0660 -0.0017 -2.0838
# 5 4.0710 2.8599 7.1867 -0.0017 23.9485 0.0011
# 6 -0.0051 -0.0050 -0.0158 -2.0838 0.0011 19.1517
#
#
#
# Elastic Compliance Matrix: (Units=1/GPa)
#
#
# Indices 1 2 3 4 5 6 
#
# 1 0.015328 -0.006203 -0.002864 0.000006 -0.001005 0.000001
# 2 -0.006203 0.012974 -0.001160 -0.000007 -0.000147 0.000000
# 3 -0.002864 -0.001160 0.008023 -0.000017 -0.001782 0.000004
# 4 0.000006 -0.000007 -0.000017 0.050405 0.000008 0.005484
# 5 -0.001005 -0.000147 -0.001782 0.000008 0.042479 -0.000003
# 6 0.000001 0.000000 0.000004 0.005484 -0.000003 0.052811
#
#
# Mechanical properties :
#
#
# Convention : Reuss Voigt Hill
#
# Bulk Modulus (GPa) = 63.01005 64.88750 63.94878
# Shear Modulus (GPa) = 24.06570 27.27277 25.66924
#
# Velocity S-wave (km/s) = 3.43080 3.65225 3.54325
# Velocity P-wave (km/s) = 6.81994 7.03713 6.92939
#
# Compressibility (1/GPa) = 0.01587048
#
# Stress axis : x y z
#
# Youngs Moduli (GPa) = 65.24174 77.07730 124.64477
#
# Poissons Ratio (x) = 0.47813 0.35695
# Poissons Ratio (y) = 0.40471 0.14459
# Poissons Ratio (z) = 0.18683 0.08941
#
# Static dielectric constant tensor:
#      x y z
#    x 3.581770 0.000000 -0.049500 
#    y 0.000000 3.371980 0.000000 
#    z -0.049500 0.000000 4.204140 
# 
# 
# High freq. dielectric constant tensor:
#      x y z
#    x 1.791280 0.000000 -0.002030 
#    y 0.000000 1.759190 0.000000 
#    z -0.002030 0.000000 1.830840 
# 
# From -- ./inp_files/25593.got.cif
#   From: 2010.03.12/outbox.cif.g09.slc.cpg/sg8_13_cif.got.tgz:25593.got - 2010.03.31 10:45:26.
