data_PCOD8054376
_publ_section_title
;
Structure prediction by ZEFSAII (Michael W. Deem and Ramdas Pophale) SiO2 
 PCOD8054376
Probable space group: C C
;
_chemical_formula_sum "Si O2"
_cell_formula_units_Z 32
_cell_length_a 24.596971
_cell_length_b 13.914733
_cell_length_c 13.426533
_cell_angle_alpha 90.000000
_cell_angle_beta 157.861283
_cell_angle_gamma 90.000000
_cell_volume 1731.766043
_symmetry_space_group_name_H-M "C C"
_symmetry_group_IT_number 9
_symmetry_cell_setting 'monoclinic'
loop_
_space_group_symop_operation_xyz
x,y,z
x,-y,1/2+z
1/2+x,1/2+y,z
1/2+x,1/2-y,1/2+z
loop_
_atom_site_type_symbol
_atom_site_label
_atom_site_fract_x
_atom_site_fract_y
_atom_site_fract_z
Si Si1 0.739530 0.050495 0.216790
Si Si2 0.756514 0.472538 0.697774
Si Si3 0.738439 0.148613 0.409183
Si Si4 0.922179 0.143159 0.365087
Si Si5 0.413747 0.864262 0.357351
Si Si6 0.415074 0.021522 0.662435
Si Si7 0.245322 0.138721 0.980142
Si Si8 0.432489 0.514140 0.204153
O O1 0.730539 0.145506 0.273686
O O2 0.804295 0.079180 0.221009
O O3 0.841153 0.972356 0.446768
O O4 0.584859 0.002036 0.936289
O O5 0.809675 0.578172 0.754905
O O6 0.782521 0.394235 0.655225
O O7 0.590989 0.478887 0.446788
O O8 0.848815 0.436451 0.948417
O O9 0.789107 0.250787 0.537331
O O10 0.855570 0.068927 0.641954
O O11 0.577931 0.121222 0.174532
O O12 0.872617 0.252746 0.288281
O O13 0.930849 0.112312 0.264098
O O14 0.076112 0.123845 0.676167
O O15 0.387717 0.900972 0.201627
O O16 0.337096 0.921645 0.556512
#
# Coordination Sequence:
#
# PCOD8054376 Si02
#       8
#     4   4   4   4   4   4   4   4
#     4   9  21  37  58  86 117 152 197 231 301 352
#     4  11  21  36  62  88 119 155 194 245 298 343
#     4   8  19  39  59  86 114 147 201 237 279 361
#     4  11  20  37  64  84 117 158 198 243 288 358
#     4   9  22  37  60  88 112 157 204 229 296 363
#     4  10  21  37  58  87 122 149 190 250 294 343
#     4  10  19  37  62  87 113 156 201 239 286 356
#     4  10  21  38  59  88 118 150 195 248 290 348
#
# _framework density 18.478245999999999
#
# number of rings (size 3 to 8) (size 9 to 14) (size 15 to 20)
#    0.750    1.500    2.500    0.000    3.500    1.000 
#    0.000    3.750    0.000    0.000    0.000    0.000 
#    0.000    0.000    0.000    0.000    0.000    0.000 
#
# Total GULP energy -198323.706000 kJ/mol
# GULP energy per Si atom -12395.231625 kJ/mol
# Density = 1.843619 g / cm^3
# Si number density = 18.478246 Si / 1000 Ang^3
#
#
#
# Elastic Constant Matrix: (Units=GPa)
#
#
# Indices 1 2 3 4 5 6 
#
# 1 68.3555 27.7862 31.7003 0.0000 -6.3398 0.0000
# 2 27.7862 87.1109 31.7506 0.0000 1.3167 0.0000
# 3 31.7003 31.7506 105.1227 0.0000 -5.4443 0.0000
# 4 0.0000 0.0000 0.0000 28.3876 0.0000 1.4311
# 5 -6.3398 1.3167 -5.4443 0.0000 29.0590 0.0000
# 6 0.0000 0.0000 0.0000 1.4311 0.0000 21.0050
#
#
#
# Elastic Compliance Matrix: (Units=1/GPa)
#
#
# Indices 1 2 3 4 5 6 
#
# 1 0.018691 -0.004525 -0.004087 0.000000 0.003517 0.000000
# 2 -0.004525 0.014046 -0.002991 0.000000 -0.002184 0.000000
# 3 -0.004087 -0.002991 0.011723 0.000000 0.001440 0.000000
# 4 0.000000 0.000000 0.000000 0.035348 0.000000 -0.002408
# 5 0.003517 -0.002184 0.001440 0.000000 0.035549 0.000000
# 6 0.000000 0.000000 0.000000 -0.002408 0.000000 0.047772
#
#
# Mechanical properties :
#
#
# Convention : Reuss Voigt Hill
#
# Bulk Modulus (GPa) = 47.05213 49.22925 48.14069
# Shear Modulus (GPa) = 25.85047 26.98045 26.41546
#
# Velocity S-wave (km/s) = 3.74434 3.82530 3.78503
# Velocity P-wave (km/s) = 6.64923 6.79780 6.72392
#
# Compressibility (1/GPa) = 0.02125302
#
# Stress axis : x y z
#
# Youngs Moduli (GPa) = 53.50286 71.19349 85.30092
#
# Poissons Ratio (x) = 0.32217 0.34865
# Poissons Ratio (y) = 0.24211 0.25513
# Poissons Ratio (z) = 0.21868 0.21294
#
# Static dielectric constant tensor:
#      x y z
#    x 3.399420 0.000000 0.062680 
#    y 0.000000 3.144260 0.000000 
#    z 0.062680 0.000000 3.427300 
# 
# 
# High freq. dielectric constant tensor:
#      x y z
#    x 1.721060 0.000000 0.010430 
#    y 0.000000 1.692110 0.000000 
#    z 0.010430 0.000000 1.719400 
# 
# From -- ./inp_files/24668.got.cif
#   From: 2010.06.25/outbox.cif.g09.slc.cpg/sg9_13_cif.got.tgz:24668.got - 2010.06.27 21:40:51.
