data_PCOD8054020
_publ_section_title
;
Structure prediction by ZEFSAII (Michael W. Deem and Ramdas Pophale) SiO2 
 PCOD8054020
Probable space group: C M
;
_chemical_formula_sum "Si O2"
_cell_formula_units_Z 24
_cell_length_a 20.312020
_cell_length_b 8.557413
_cell_length_c 18.927094
_cell_angle_alpha 90.000000
_cell_angle_beta 21.539654
_cell_angle_gamma 90.000000
_cell_volume 1207.861818
_symmetry_space_group_name_H-M "C M"
_symmetry_group_IT_number 8
_symmetry_cell_setting 'monoclinic'
loop_
_space_group_symop_operation_xyz
x,y,z
x,-y,z
1/2+x,1/2+y,z
1/2+x,1/2-y,z
loop_
_atom_site_type_symbol
_atom_site_label
_atom_site_fract_x
_atom_site_fract_y
_atom_site_fract_z
Si Si1 0.761210 0.319336 0.264560
Si Si2 0.259873 0.319598 0.615807
Si Si3 0.456702 0.319361 0.825220
Si Si4 0.134109 0.679497 0.248292
Si Si5 0.637655 0.680363 0.883299
Si Si6 0.926567 0.817404 0.693369
O O1 0.814196 0.500000 0.218033
O O2 0.686110 0.288449 0.261630
O O3 0.611463 0.272391 0.470802
O O4 0.934566 0.216001 0.108570
O O5 0.312647 0.500000 0.559750
O O6 0.434143 0.218385 0.422518
O O7 0.189394 0.282820 0.764224
O O8 0.107632 0.284542 0.710911
O O9 0.512459 0.500000 0.776856
O O10 0.441979 0.267533 0.759077
O O11 0.265637 0.286849 0.051934
O O12 0.146223 0.500000 0.260736
O O13 0.655980 0.500000 0.843936
O O14 0.765293 0.719066 0.821238
O O15 0.882832 0.000000 0.728232
#
# Coordination Sequence:
#
# PCOD8054020 Si02
#       6
#     4   4   4   4   4   4
#     4  11  22  38  64  93 124 162 207 256 305 364
#     4  12  24  39  63  92 125 163 208 258 308 368
#     4  10  23  43  65  91 125 164 206 254 309 368
#     4  11  22  38  64  93 124 162 207 256 305 364
#     4  12  24  39  63  92 125 163 208 258 308 368
#     4  10  23  43  65  91 125 164 206 254 309 368
#
# _framework density 19.869823
#
# number of rings (size 3 to 8) (size 9 to 14) (size 15 to 20)
#    0.000    1.000    3.333    4.000    0.000    3.333 
#    0.000    6.667    0.000    0.000    0.000    0.000 
#    0.000    0.000    0.000    0.000    0.000    0.000 
#
# Total GULP energy -148897.139940 kJ/mol
# GULP energy per Si atom -12408.094995 kJ/mol
# Density = 1.982460 g / cm^3
# Si number density = 19.869823 Si / 1000 Ang^3
#
#
#
# Elastic Constant Matrix: (Units=GPa)
#
#
# Indices 1 2 3 4 5 6 
#
# 1 132.1075 29.5479 57.6419 0.0032 6.3300 -0.0015
# 2 29.5479 57.2879 30.7866 -0.0045 -1.8025 -0.0017
# 3 57.6419 30.7866 137.3068 -0.0002 -4.3002 -0.0019
# 4 0.0032 -0.0045 -0.0002 32.8942 0.0014 -5.5128
# 5 6.3300 -1.8025 -4.3002 0.0014 36.1065 0.0007
# 6 -0.0015 -0.0017 -0.0019 -5.5128 0.0007 29.1687
#
#
#
# Elastic Compliance Matrix: (Units=1/GPa)
#
#
# Indices 1 2 3 4 5 6 
#
# 1 0.009955 -0.003323 -0.003507 -0.000001 -0.002329 0.000000
# 2 -0.003323 0.020964 -0.003267 0.000003 0.001240 0.000001
# 3 -0.003507 -0.003267 0.009537 0.000000 0.001588 0.000000
# 4 -0.000001 0.000003 0.000000 0.031395 -0.000001 0.005934
# 5 -0.002329 0.001240 0.001588 -0.000001 0.028355 -0.000001
# 6 0.000000 0.000001 0.000000 0.005934 -0.000001 0.035405
#
#
# Mechanical properties :
#
#
# Convention : Reuss Voigt Hill
#
# Bulk Modulus (GPa) = 49.35112 62.51724 55.93418
# Shear Modulus (GPa) = 30.75822 33.54893 32.15358
#
# Velocity S-wave (km/s) = 3.93871 4.11352 4.02706
# Velocity P-wave (km/s) = 6.75098 7.35480 7.05935
#
# Compressibility (1/GPa) = 0.02026297
#
# Stress axis : x y z
#
# Youngs Moduli (GPa) = 100.45672 47.70037 104.85154
#
# Poissons Ratio (x) = 0.15851 0.36769
# Poissons Ratio (y) = 0.33382 0.34252
# Poissons Ratio (z) = 0.35228 0.15582
#
# Static dielectric constant tensor:
#      x y z
#    x 3.604860 0.000000 -0.075200 
#    y 0.000000 3.580480 0.000010 
#    z -0.075200 0.000010 3.887960 
# 
# 
# High freq. dielectric constant tensor:
#      x y z
#    x 1.769060 0.000000 -0.004090 
#    y 0.000000 1.777850 0.000000 
#    z -0.004090 0.000000 1.790400 
# 
# From -- ./inp_files/15884.got.cif
#   From: 2010.03.12/outbox.cif.g09.slc.cpg/sg8_8_cif.got.tgz:15884.got - 2010.03.31 10:45:26.
