data_PCOD8054098
_publ_section_title
;
Structure prediction by ZEFSAII (Michael W. Deem and Ramdas Pophale) SiO2 
 PCOD8054098
Probable space group: C M
;
_chemical_formula_sum "Si O2"
_cell_formula_units_Z 32
_cell_length_a 11.192963
_cell_length_b 22.955322
_cell_length_c 5.650822
_cell_angle_alpha 90.000000
_cell_angle_beta 101.958343
_cell_angle_gamma 90.000000
_cell_volume 1420.402651
_symmetry_space_group_name_H-M "C M"
_symmetry_group_IT_number 8
_symmetry_cell_setting 'monoclinic'
loop_
_space_group_symop_operation_xyz
x,y,z
x,-y,z
1/2+x,1/2+y,z
1/2+x,1/2-y,z
loop_
_atom_site_type_symbol
_atom_site_label
_atom_site_fract_x
_atom_site_fract_y
_atom_site_fract_z
Si Si1 0.803430 0.645869 0.076870
Si Si2 0.911688 0.850672 0.860929
Si Si3 0.980777 0.064691 0.255064
Si Si4 0.018473 0.772959 0.533032
Si Si5 0.689437 0.371580 0.529003
Si Si6 0.068982 0.659848 0.331509
Si Si7 0.774801 0.222496 0.135871
Si Si8 0.763425 0.934177 0.484055
O O1 0.763747 0.615861 0.313070
O O2 0.756576 0.711816 0.047984
O O3 0.950168 0.642774 0.134349
O O4 0.762013 0.617460 0.807730
O O5 0.996473 0.800771 0.781271
O O6 0.860512 0.903252 0.688011
O O7 0.003223 0.884297 0.074295
O O8 0.793307 0.817940 0.914626
O O9 0.836555 0.065152 0.265262
O O10 0.075233 0.083323 0.501933
O O11 0.014766 0.000000 0.178427
O O12 0.896231 0.789085 0.339120
O O13 0.139884 0.804931 0.483776
O O14 0.034305 0.702418 0.541035
O O15 0.153117 0.701229 0.209772
O O16 0.135957 0.600217 0.428261
O O17 0.735778 0.000000 0.558702
#
# Coordination Sequence:
#
# PCOD8054098 Si02
#       8
#     4   4   4   4   4   4   4   4
#     4  11  29  40  69 102 146 193 237 284 372 452
#     4  12  20  40  69 110 137 179 238 310 368 433
#     4  11  24  44  73 105 140 185 247 311 372 428
#     4  11  23  38  67 100 143 177 238 304 378 426
#     4  12  23  48  63 104 145 186 238 302 357 444
#     4  11  23  48  62 103 145 195 235 301 365 452
#     4  11  23  42  64 103 139 183 227 299 370 432
#     4  11  24  44  71 103 140 188 246 305 364 431
#
# _framework density 22.528821000000001
#
# number of rings (size 3 to 8) (size 9 to 14) (size 15 to 20)
#    0.000    0.750    6.250    1.125    5.250    1.000 
#    0.000    1.250    0.000    0.000    0.000    0.000 
#    0.000    0.000    0.000    0.000    0.000    0.000 
#
# Total GULP energy -198242.086586 kJ/mol
# GULP energy per Si atom -12390.130412 kJ/mol
# Density = 2.247754 g / cm^3
# Si number density = 22.528821 Si / 1000 Ang^3
#
#
#
# Elastic Constant Matrix: (Units=GPa)
#
#
# Indices 1 2 3 4 5 6 
#
# 1 113.1957 40.9380 50.3379 0.0000 16.1482 0.0000
# 2 40.9380 129.7602 43.6680 0.0000 -5.3178 0.0000
# 3 50.3379 43.6680 115.2651 0.0000 -3.0626 0.0000
# 4 0.0000 0.0000 0.0000 23.5894 0.0000 -0.7064
# 5 16.1482 -5.3178 -3.0626 0.0000 28.7936 0.0000
# 6 0.0000 0.0000 0.0000 -0.7064 0.0000 32.6961
#
#
#
# Elastic Compliance Matrix: (Units=1/GPa)
#
#
# Indices 1 2 3 4 5 6 
#
# 1 0.013284 -0.002878 -0.004937 0.000000 -0.008507 0.000000
# 2 -0.002878 0.009503 -0.002260 0.000000 0.003129 0.000000
# 3 -0.004937 -0.002260 0.011784 0.000000 0.003605 0.000000
# 4 0.000000 0.000000 0.000000 0.042419 0.000000 0.000916
# 5 -0.008507 0.003129 0.003605 0.000000 0.040462 0.000000
# 6 0.000000 0.000000 0.000000 0.000916 0.000000 0.030604
#
#
# Mechanical properties :
#
#
# Convention : Reuss Voigt Hill
#
# Bulk Modulus (GPa) = 69.34599 69.78987 69.56793
# Shear Modulus (GPa) = 28.89916 31.90096 30.40006
#
# Velocity S-wave (km/s) = 3.58546 3.76707 3.67738
# Velocity P-wave (km/s) = 6.92737 7.06869 6.99839
#
# Compressibility (1/GPa) = 0.01442045
#
# Stress axis : x y z
#
# Youngs Moduli (GPa) = 75.27712 105.22507 84.86220
#
# Poissons Ratio (x) = 0.30286 0.41897
# Poissons Ratio (y) = 0.21666 0.19181
# Poissons Ratio (z) = 0.37165 0.23784
#
# Static dielectric constant tensor:
#      x y z
#    x 4.118410 0.000000 -0.055640 
#    y 0.000000 3.944670 0.000000 
#    z -0.055640 0.000000 4.074830 
# 
# 
# High freq. dielectric constant tensor:
#      x y z
#    x 1.889520 0.000000 0.003530 
#    y 0.000000 1.869370 0.000000 
#    z 0.003530 0.000000 1.882240 
# 
# From -- ./inp_files/3183.got.cif
#   From: 2010.03.12/outbox.cif.g09.slc.cpg/sg8_2_cif.got.tgz:3183.got - 2010.03.31 10:45:26.
