data_PCOD8054075
_publ_section_title
;
Structure prediction by ZEFSAII (Michael W. Deem and Ramdas Pophale) SiO2 
 PCOD8054075
Probable space group: C M
;
_chemical_formula_sum "Si O2"
_cell_formula_units_Z 32
_cell_length_a 33.419858
_cell_length_b 8.623921
_cell_length_c 12.646344
_cell_angle_alpha 90.000000
_cell_angle_beta 153.997247
_cell_angle_gamma 90.000000
_cell_volume 1597.934981
_symmetry_space_group_name_H-M "C M"
_symmetry_group_IT_number 8
_symmetry_cell_setting 'monoclinic'
loop_
_space_group_symop_operation_xyz
x,y,z
x,-y,z
1/2+x,1/2+y,z
1/2+x,1/2-y,z
loop_
_atom_site_type_symbol
_atom_site_label
_atom_site_fract_x
_atom_site_fract_y
_atom_site_fract_z
Si Si1 0.443470 0.682370 0.630830
Si Si2 0.250182 0.315726 0.093469
Si Si3 0.867707 0.682351 0.867809
Si Si4 0.672124 0.321434 0.468225
Si Si5 0.559019 0.814948 0.721440
Si Si6 0.487236 0.818533 0.958391
Si Si7 0.184646 0.325185 0.715132
Si Si8 0.984548 0.325813 0.330114
O O1 0.445147 0.500000 0.618531
O O2 0.343876 0.751232 0.364467
O O3 0.521127 0.755104 0.741757
O O4 0.465894 0.722806 0.803532
O O5 0.249068 0.500000 0.093591
O O6 0.163468 0.255069 0.955549
O O7 0.242081 0.262054 0.951992
O O8 0.888377 0.500000 0.922333
O O9 0.760051 0.716629 0.603921
O O10 0.918467 0.747290 0.884523
O O11 0.910365 0.758020 0.077168
O O12 0.642420 0.500000 0.385406
O O13 0.591083 0.209606 0.240316
O O14 0.702581 0.289734 0.660735
O O15 0.498370 0.747369 0.478781
O O16 0.557722 0.000000 0.715336
O O17 0.473193 0.000000 0.903316
O O18 0.214733 0.500000 0.756175
O O19 0.078610 0.324130 0.490330
O O20 0.951672 0.500000 0.273575
#
# Coordination Sequence:
#
# PCOD8054075 Si02
#       8
#     4   4   4   4   4   4   4   4
#     4  11  23  39  58  84 119 150 185 241 296 329
#     4   8  18  36  58  83 115 154 191 232 279 332
#     4   9  19  35  57  84 113 149 188 231 283 335
#     4  11  22  35  56  89 120 145 181 239 298 331
#     4   9  18  35  60  86 112 151 197 227 269 342
#     4  11  23  43  63  78 107 155 204 234 272 345
#     4   9  16  33  59  83 114 156 193 223 272 343
#     4   8  14  30  57  83 112 150 189 227 265 327
#
# _framework density 20.025846000000001
#
# number of rings (size 3 to 8) (size 9 to 14) (size 15 to 20)
#    0.000    2.500    1.250    2.625    1.750    1.000 
#    0.000    9.375    0.000    0.000    0.000    0.000 
#    0.000    0.000    0.000    0.000    0.000    0.000 
#
# Total GULP energy -198332.626531 kJ/mol
# GULP energy per Si atom -12395.789158 kJ/mol
# Density = 1.998027 g / cm^3
# Si number density = 20.025846 Si / 1000 Ang^3
#
#
#
# Elastic Constant Matrix: (Units=GPa)
#
#
# Indices 1 2 3 4 5 6 
#
# 1 110.9612 9.4941 62.8097 0.0000 -4.0767 0.0000
# 2 9.4941 23.6606 7.8930 0.0000 4.2343 0.0000
# 3 62.8097 7.8930 101.5529 0.0000 1.3948 0.0000
# 4 0.0000 0.0000 0.0000 23.0207 0.0000 -2.3535
# 5 -4.0767 4.2343 1.3948 0.0000 27.6411 0.0000
# 6 0.0000 0.0000 0.0000 -2.3535 0.0000 21.3072
#
#
#
# Elastic Compliance Matrix: (Units=1/GPa)
#
#
# Indices 1 2 3 4 5 6 
#
# 1 0.014295 -0.003410 -0.008618 0.000000 0.003066 0.000000
# 2 -0.003410 0.045395 -0.001318 0.000000 -0.007390 0.000000
# 3 -0.008618 -0.001318 0.015305 0.000000 -0.001842 0.000000
# 4 0.000000 0.000000 0.000000 0.043935 0.000000 0.004853
# 5 0.003066 -0.007390 -0.001842 0.000000 0.037855 0.000000
# 6 0.000000 0.000000 0.000000 0.004853 0.000000 0.047469
#
#
# Mechanical properties :
#
#
# Convention : Reuss Voigt Hill
#
# Bulk Modulus (GPa) = 20.70260 44.06316 32.38288
# Shear Modulus (GPa) = 20.23906 24.79233 22.51570
#
# Velocity S-wave (km/s) = 3.18252 3.52236 3.35674
# Velocity P-wave (km/s) = 4.88517 6.21238 5.58832
#
# Compressibility (1/GPa) = 0.04830312
#
# Stress axis : x y z
#
# Youngs Moduli (GPa) = 69.95447 22.02895 65.33703
#
# Poissons Ratio (x) = 0.07511 0.56310
# Poissons Ratio (y) = 0.23852 0.08611
# Poissons Ratio (z) = 0.60290 0.02903
#
# Static dielectric constant tensor:
#      x y z
#    x 3.710360 0.000000 -0.000080 
#    y 0.000000 3.173770 0.000000 
#    z -0.000080 0.000000 3.826810 
# 
# 
# High freq. dielectric constant tensor:
#      x y z
#    x 1.784510 0.000000 0.000530 
#    y 0.000000 1.738610 0.000000 
#    z 0.000530 0.000000 1.787090 
# 
# From -- ./inp_files/24811.got.cif
#   From: 2010.03.12/outbox.cif.g09.slc.cpg/sg8_13_cif.got.tgz:24811.got - 2010.03.31 10:45:26.
