data_PCOD8054555
_publ_section_title
;
Structure prediction by ZEFSAII (Michael W. Deem and Ramdas Pophale) SiO2 
 PCOD8054555
Probable space group: C C
;
_chemical_formula_sum "Si O2"
_cell_formula_units_Z 32
_cell_length_a 14.125158
_cell_length_b 19.735676
_cell_length_c 8.982730
_cell_angle_alpha 90.000000
_cell_angle_beta 41.604666
_cell_angle_gamma 90.000000
_cell_volume 1662.697772
_symmetry_space_group_name_H-M "C C"
_symmetry_group_IT_number 9
_symmetry_cell_setting 'monoclinic'
loop_
_space_group_symop_operation_xyz
x,y,z
x,-y,1/2+z
1/2+x,1/2+y,z
1/2+x,1/2-y,1/2+z
loop_
_atom_site_type_symbol
_atom_site_label
_atom_site_fract_x
_atom_site_fract_y
_atom_site_fract_z
Si Si1 0.548300 0.047963 0.863560
Si Si2 0.659571 0.240441 0.643873
Si Si3 0.740293 0.862547 0.301434
Si Si4 0.502115 0.195827 0.271481
Si Si5 0.922244 0.455292 0.215935
Si Si6 0.310622 0.903126 0.834949
Si Si7 0.042481 0.170880 0.528227
Si Si8 0.421855 0.194363 0.698548
O O1 0.695672 0.068296 0.769442
O O2 0.551788 0.048226 0.682817
O O3 0.424621 0.101493 0.064649
O O4 0.503509 0.972329 0.966974
O O5 0.726577 0.196019 0.695837
O O6 0.597246 0.306045 0.801336
O O7 0.536698 0.202432 0.696012
O O8 0.786544 0.257589 0.380724
O O9 0.642147 0.846804 0.560879
O O10 0.899839 0.872221 0.170786
O O11 0.361631 0.151195 0.398315
O O12 0.498468 0.211048 0.451969
O O13 0.503114 0.266565 0.181635
O O14 0.811498 0.516989 0.389033
O O15 0.853848 0.381532 0.280656
O O16 0.153841 0.881238 0.969804
#
# Coordination Sequence:
#
# PCOD8054555 Si02
#       8
#     4   4   4   4   4   4   4   4
#     4   9  19  37  62  84 112 155 208 243 286 365
#     4  11  23  38  61  93 121 159 203 255 304 361
#     4  10  20  38  61  86 121 162 199 245 302 364
#     4  10  22  37  58  92 123 159 203 247 304 363
#     4  10  20  37  64  84 115 158 211 246 287 365
#     4   9  21  36  62  86 114 161 209 237 298 358
#     4  11  21  38  61  89 124 162 199 250 304 363
#     4  12  24  39  63  92 126 154 204 261 307 347
#
# _framework density 19.245832
#
# number of rings (size 3 to 8) (size 9 to 14) (size 15 to 20)
#    0.750    1.000    2.500    3.000    5.250    0.000 
#    0.000    0.000    8.250    0.000    0.000    0.000 
#    0.000    0.000    0.000    0.000    0.000    0.000 
#
# Total GULP energy -198237.916909 kJ/mol
# GULP energy per Si atom -12389.869807 kJ/mol
# Density = 1.920203 g / cm^3
# Si number density = 19.245832 Si / 1000 Ang^3
#
#
#
# Elastic Constant Matrix: (Units=GPa)
#
#
# Indices 1 2 3 4 5 6 
#
# 1 103.5114 28.5894 40.4489 0.0000 -18.3525 0.0000
# 2 28.5894 84.2379 19.6738 0.0000 -11.1866 0.0000
# 3 40.4489 19.6738 78.2791 0.0000 3.4727 0.0000
# 4 0.0000 0.0000 0.0000 14.2414 0.0000 1.8987
# 5 -18.3525 -11.1866 3.4727 0.0000 41.9232 0.0000
# 6 0.0000 0.0000 0.0000 1.8987 0.0000 26.4936
#
#
#
# Elastic Compliance Matrix: (Units=1/GPa)
#
#
# Indices 1 2 3 4 5 6 
#
# 1 0.014125 -0.002349 -0.006981 0.000000 0.006135 0.000000
# 2 -0.002349 0.013581 -0.002323 0.000000 0.002788 0.000000
# 3 -0.006981 -0.002323 0.017192 0.000000 -0.005100 0.000000
# 4 0.000000 0.000000 0.000000 0.070895 0.000000 -0.005081
# 5 0.006135 0.002788 -0.005100 0.000000 0.027705 0.000000
# 6 0.000000 0.000000 0.000000 -0.005081 0.000000 0.038109
#
#
# Mechanical properties :
#
#
# Convention : Reuss Voigt Hill
#
# Bulk Modulus (GPa) = 46.31199 49.27252 47.79226
# Shear Modulus (GPa) = 23.57255 28.35272 25.96263
#
# Velocity S-wave (km/s) = 3.50353 3.84238 3.67686
# Velocity P-wave (km/s) = 6.36254 6.73368 6.55074
#
# Compressibility (1/GPa) = 0.02159268
#
# Stress axis : x y z
#
# Youngs Moduli (GPa) = 70.79629 73.63124 58.16642
#
# Poissons Ratio (x) = 0.17295 0.40604
# Poissons Ratio (y) = 0.16629 0.13514
# Poissons Ratio (z) = 0.49420 0.17107
#
# Static dielectric constant tensor:
#      x y z
#    x 3.405710 0.000000 0.107040 
#    y 0.000000 3.457230 0.000000 
#    z 0.107040 0.000000 3.334740 
# 
# 
# High freq. dielectric constant tensor:
#      x y z
#    x 1.747440 0.000000 0.014950 
#    y 0.000000 1.739400 0.000000 
#    z 0.014950 0.000000 1.724200 
# 
# From -- ./inp_files/8381.got.cif
#   From: 2010.06.25/outbox.cif.g09.slc.cpg/sg9_5_cif.got.tgz:8381.got - 2010.06.27 21:40:51.
