data_PCOD8054864
_publ_section_title
;
Structure prediction by ZEFSAII (Michael W. Deem and Ramdas Pophale) SiO2 
 PCOD8054864
Probable space group: C C
;
_chemical_formula_sum "Si O2"
_cell_formula_units_Z 32
_cell_length_a 12.887560
_cell_length_b 13.951985
_cell_length_c 14.014286
_cell_angle_alpha 90.000000
_cell_angle_beta 34.375355
_cell_angle_gamma 90.000000
_cell_volume 1422.747437
_symmetry_space_group_name_H-M "C C"
_symmetry_group_IT_number 9
_symmetry_cell_setting 'monoclinic'
loop_
_space_group_symop_operation_xyz
x,y,z
x,-y,1/2+z
1/2+x,1/2+y,z
1/2+x,1/2-y,1/2+z
loop_
_atom_site_type_symbol
_atom_site_label
_atom_site_fract_x
_atom_site_fract_y
_atom_site_fract_z
Si Si1 0.660060 0.545926 0.332400
Si Si2 0.613036 0.297434 0.522845
Si Si3 0.833751 0.948573 0.681973
Si Si4 0.163168 0.370615 0.392996
Si Si5 0.831574 0.596645 0.013424
Si Si6 0.857572 0.358665 0.180126
Si Si7 0.955315 0.387500 0.898611
Si Si8 0.382659 0.807313 0.757683
O O1 0.462405 0.501274 0.505851
O O2 0.671940 0.583574 0.214453
O O3 0.832193 0.471867 0.218281
O O4 0.698431 0.632169 0.375473
O O5 0.443955 0.371597 0.661327
O O6 0.766090 0.326894 0.483885
O O7 0.686306 0.304664 0.358724
O O8 0.541721 0.187703 0.588497
O O9 0.673761 0.895276 0.746263
O O10 0.744706 0.022322 0.825400
O O11 0.337641 0.299478 0.254679
O O12 0.016411 0.357717 0.418385
O O13 0.060279 0.350679 0.570436
O O14 0.873168 0.492858 0.935273
O O15 0.857332 0.343019 0.066530
O O16 0.916032 0.311796 0.845185
#
# Coordination Sequence:
#
# PCOD8054864 Si02
#       8
#     4   4   4   4   4   4   4   4
#     4   9  20  41  62  87 121 156 198 250 298 357
#     4  11  22  39  62  89 121 160 199 247 304 358
#     4  10  21  39  61  87 123 159 199 248 299 356
#     4  10  23  40  60  90 123 156 201 252 297 356
#     4   9  21  40  63  89 122 161 201 246 301 356
#     4  10  22  38  59  87 122 156 199 248 296 355
#     4  10  21  40  62  88 123 162 202 247 298 355
#     4  11  22  39  63  89 121 160 201 248 301 355
#
# _framework density 22.491695
#
# number of rings (size 3 to 8) (size 9 to 14) (size 15 to 20)
#    0.000    2.000    0.000    3.750    0.000    5.000 
#    0.000   10.000    0.000    0.000    0.000    0.000 
#    0.000    0.000    0.000    0.000    0.000    0.000 
#
# Total GULP energy -198320.109639 kJ/mol
# GULP energy per Si atom -12395.006852 kJ/mol
# Density = 2.244050 g / cm^3
# Si number density = 22.491695 Si / 1000 Ang^3
#
#
#
# Elastic Constant Matrix: (Units=GPa)
#
#
# Indices 1 2 3 4 5 6 
#
# 1 106.2196 42.4341 33.2225 -0.0045 5.5875 0.0031
# 2 42.4341 64.6127 15.2503 -0.0040 1.4665 0.0028
# 3 33.2225 15.2503 109.7457 -0.0072 3.3585 0.0054
# 4 -0.0045 -0.0040 -0.0072 31.3626 0.0033 -13.8202
# 5 5.5875 1.4665 3.3585 0.0033 23.4634 -0.0022
# 6 0.0031 0.0028 0.0054 -13.8202 -0.0022 44.1730
#
#
#
# Elastic Compliance Matrix: (Units=1/GPa)
#
#
# Indices 1 2 3 4 5 6 
#
# 1 0.013773 -0.008297 -0.002945 0.000000 -0.002340 0.000000
# 2 -0.008297 0.021011 -0.000430 0.000001 0.000724 0.000000
# 3 -0.002945 -0.000430 0.010085 0.000002 -0.000715 -0.000001
# 4 0.000000 0.000001 0.000002 0.036984 -0.000004 0.011571
# 5 -0.002340 0.000724 -0.000715 -0.000004 0.043234 0.000001
# 6 0.000000 0.000000 -0.000001 0.011571 0.000001 0.026258
#
#
# Mechanical properties :
#
#
# Convention : Reuss Voigt Hill
#
# Bulk Modulus (GPa) = 46.45782 51.37689 48.91735
# Shear Modulus (GPa) = 27.49281 32.44455 29.96868
#
# Velocity S-wave (km/s) = 3.50001 3.80216 3.65421
# Velocity P-wave (km/s) = 6.08554 6.49365 6.29290
#
# Compressibility (1/GPa) = 0.02152490
#
# Stress axis : x y z
#
# Youngs Moduli (GPa) = 72.60376 47.59369 99.15599
#
# Poissons Ratio (x) = 0.39491 0.29200
# Poissons Ratio (y) = 0.60242 0.04264
# Poissons Ratio (z) = 0.21381 0.02047
#
# Static dielectric constant tensor:
#      x y z
#    x 3.684190 0.000000 -0.041480 
#    y 0.000000 4.172600 0.000000 
#    z -0.041480 0.000000 4.238720 
# 
# 
# High freq. dielectric constant tensor:
#      x y z
#    x 1.854110 0.000000 -0.000590 
#    y 0.000000 1.888120 0.000000 
#    z -0.000590 0.000000 1.897980 
# 
# From -- ./inp_files/25999.got.cif
#   From: 2010.06.25/outbox.cif.g09.slc.cpg/sg9_13_cif.got.tgz:25999.got - 2010.06.27 21:40:51.
