data_PCOD8054946
_publ_section_title
;
Structure prediction by ZEFSAII (Michael W. Deem and Ramdas Pophale) SiO2 
 PCOD8054946
Probable space group: C C
;
_chemical_formula_sum "Si O2"
_cell_formula_units_Z 32
_cell_length_a 25.716862
_cell_length_b 7.680394
_cell_length_c 8.857015
_cell_angle_alpha 90.000000
_cell_angle_beta 121.358816
_cell_angle_gamma 90.000000
_cell_volume 1493.855607
_symmetry_space_group_name_H-M "C C"
_symmetry_group_IT_number 9
_symmetry_cell_setting 'monoclinic'
loop_
_space_group_symop_operation_xyz
x,y,z
x,-y,1/2+z
1/2+x,1/2+y,z
1/2+x,1/2-y,1/2+z
loop_
_atom_site_type_symbol
_atom_site_label
_atom_site_fract_x
_atom_site_fract_y
_atom_site_fract_z
Si Si1 0.135870 0.992096 0.229300
Si Si2 0.723351 0.478778 0.612294
Si Si3 0.296561 0.663262 0.600121
Si Si4 0.049330 0.307291 0.133031
Si Si5 0.550850 0.184214 0.994863
Si Si6 0.924904 0.314988 0.801891
Si Si7 0.426281 0.175195 0.954181
Si Si8 0.796879 0.811416 0.752839
O O1 0.156382 0.974489 0.433523
O O2 0.096404 0.164668 0.144974
O O3 0.202694 0.011064 0.254610
O O4 0.101697 0.817977 0.126553
O O5 0.762425 0.307598 0.645443
O O6 0.764219 0.645189 0.629681
O O7 0.369223 0.681215 0.731578
O O8 0.273960 0.478875 0.628180
O O9 0.277473 0.676423 0.397689
O O10 0.049823 0.324751 0.313393
O O11 0.065375 0.493204 0.083173
O O12 0.983399 0.239546 0.977681
O O13 0.485400 0.249810 0.957519
O O14 0.905105 0.493605 0.850815
O O15 0.942345 0.351748 0.654336
O O16 0.369943 0.304765 0.847600
#
# Coordination Sequence:
#
# PCOD8054946 Si02
#       8
#     4   4   4   4   4   4   4   4
#     4  12  28  46  72  97 137 186 230 277 330 412
#     4  12  26  50  68  99 137 184 230 277 337 400
#     4  11  26  44  69 102 136 179 227 281 338 404
#     4  11  25  44  69 102 136 180 224 283 339 397
#     4  11  25  44  69 103 135 179 227 280 340 399
#     4  10  21  40  68 101 138 177 220 281 343 397
#     4  10  21  40  68 101 139 174 224 279 341 402
#     4  11  26  44  69 103 134 181 226 280 342 399
#
# _framework density 21.421078999999999
#
# number of rings (size 3 to 8) (size 9 to 14) (size 15 to 20)
#    0.000    1.000    3.750    3.000    7.000    4.000 
#    0.000    0.000    0.000    0.000    0.000    0.000 
#    0.000    0.000    0.000    0.000    0.000    0.000 
#
# Total GULP energy -198430.107446 kJ/mol
# GULP energy per Si atom -12401.881715 kJ/mol
# Density = 2.137232 g / cm^3
# Si number density = 21.421079 Si / 1000 Ang^3
#
#
#
# Elastic Constant Matrix: (Units=GPa)
#
#
# Indices 1 2 3 4 5 6 
#
# 1 92.1042 45.4106 19.3265 0.0000 3.2811 0.0000
# 2 45.4106 119.7893 38.5414 0.0000 8.1490 0.0000
# 3 19.3265 38.5414 111.0013 0.0000 4.9880 0.0000
# 4 0.0000 0.0000 0.0000 28.6981 0.0000 -0.4782
# 5 3.2811 8.1490 4.9880 0.0000 27.4563 0.0000
# 6 0.0000 0.0000 0.0000 -0.4782 0.0000 32.4755
#
#
#
# Elastic Compliance Matrix: (Units=1/GPa)
#
#
# Indices 1 2 3 4 5 6 
#
# 1 0.013393 -0.004869 -0.000640 0.000000 -0.000039 0.000000
# 2 -0.004869 0.011303 -0.002977 0.000000 -0.002232 0.000000
# 3 -0.000640 -0.002977 0.010194 0.000000 -0.000892 0.000000
# 4 0.000000 0.000000 0.000000 0.034854 0.000000 0.000513
# 5 -0.000039 -0.002232 -0.000892 0.000000 0.037251 0.000000
# 6 0.000000 0.000000 0.000000 0.000513 0.000000 0.030800
#
#
# Mechanical properties :
#
#
# Convention : Reuss Voigt Hill
#
# Bulk Modulus (GPa) = 55.80245 58.82797 57.31521
# Shear Modulus (GPa) = 31.10633 32.36706 31.73670
#
# Velocity S-wave (km/s) = 3.81483 3.89136 3.85328
# Velocity P-wave (km/s) = 6.74616 6.90743 6.82727
#
# Compressibility (1/GPa) = 0.01792036
#
# Stress axis : x y z
#
# Youngs Moduli (GPa) = 74.66380 88.47016 98.09787
#
# Poissons Ratio (x) = 0.43074 0.06275
# Poissons Ratio (y) = 0.36352 0.29200
# Poissons Ratio (z) = 0.04776 0.26334
#
# Static dielectric constant tensor:
#      x y z
#    x 3.888880 0.000000 -0.050930 
#    y 0.000000 3.701220 0.000000 
#    z -0.050930 0.000000 3.920760 
# 
# 
# High freq. dielectric constant tensor:
#      x y z
#    x 1.848970 0.000000 -0.003860 
#    y 0.000000 1.837310 0.000000 
#    z -0.003860 0.000000 1.853370 
# 
# From -- ./inp_files/12069.got.cif
#   From: 2010.06.25/outbox.cif.g09.slc.cpg/sg9_7_cif.got.tgz:12069.got - 2010.06.27 21:40:51.
