data_PCOD8054600
_publ_section_title
;
Structure prediction by ZEFSAII (Michael W. Deem and Ramdas Pophale) SiO2 
 PCOD8054600
Probable space group: C C
;
_chemical_formula_sum "Si O2"
_cell_formula_units_Z 32
_cell_length_a 13.170860
_cell_length_b 8.222759
_cell_length_c 20.418844
_cell_angle_alpha 90.000000
_cell_angle_beta 37.701341
_cell_angle_gamma 90.000000
_cell_volume 1352.357963
_symmetry_space_group_name_H-M "C C"
_symmetry_group_IT_number 9
_symmetry_cell_setting 'monoclinic'
loop_
_space_group_symop_operation_xyz
x,y,z
x,-y,1/2+z
1/2+x,1/2+y,z
1/2+x,1/2-y,1/2+z
loop_
_atom_site_type_symbol
_atom_site_label
_atom_site_fract_x
_atom_site_fract_y
_atom_site_fract_z
Si Si1 0.431260 0.775928 0.755350
Si Si2 0.462751 0.280173 0.588991
Si Si3 0.792398 0.505663 0.922713
Si Si4 0.795083 0.962450 0.779122
Si Si5 0.644241 0.954648 0.083596
Si Si6 0.535811 0.740224 0.249870
Si Si7 0.459439 0.824232 0.951330
Si Si8 0.992294 0.949187 0.344539
O O1 0.292057 0.895646 0.857293
O O2 0.346347 0.651464 0.747981
O O3 0.500871 0.671125 0.779191
O O4 0.579232 0.873417 0.644257
O O5 0.625277 0.393439 0.508655
O O6 0.317655 0.383537 0.696332
O O7 0.503113 0.115001 0.607376
O O8 0.385795 0.234986 0.557982
O O9 0.952779 0.620888 0.836155
O O10 0.815568 0.397822 0.977616
O O11 0.600676 0.955928 0.895455
O O12 0.895889 0.860926 0.781831
O O13 0.667000 0.822227 0.132189
O O14 0.810398 0.981455 0.957594
O O15 0.608294 0.605180 0.264820
O O16 0.551283 0.662208 0.874823
#
# Coordination Sequence:
#
# PCOD8054600 Si02
#       8
#     4   4   4   4   4   4   4   4
#     4   9  21  37  66  94 123 170 224 264 332 410
#     4  11  22  42  67  92 132 175 221 272 349 397
#     4  10  20  41  66  91 125 177 215 278 334 403
#     4  10  21  41  62  93 130 170 215 284 332 398
#     4  10  20  38  70  95 125 176 225 268 338 407
#     4   9  18  40  65  91 124 171 218 269 333 401
#     4  11  24  40  64  95 135 172 228 279 336 403
#     4  10  20  39  64  95 132 175 212 282 332 393
#
# _framework density 23.662375000000001
#
# number of rings (size 3 to 8) (size 9 to 14) (size 15 to 20)
#    0.000    2.000    2.500    0.750    3.500    3.000 
#    6.750    0.000    5.500    0.000    0.000    0.000 
#    0.000    0.000    0.000    0.000    0.000    0.000 
#
# Total GULP energy -198230.881949 kJ/mol
# GULP energy per Si atom -12389.430122 kJ/mol
# Density = 2.360852 g / cm^3
# Si number density = 23.662375 Si / 1000 Ang^3
#
#
#
# Elastic Constant Matrix: (Units=GPa)
#
#
# Indices 1 2 3 4 5 6 
#
# 1 36.6654 22.1515 22.2432 0.0000 17.5135 0.0000
# 2 22.1515 139.1931 43.9627 0.0000 20.0198 0.0000
# 3 22.2432 43.9627 82.7006 -0.0001 26.7358 0.0000
# 4 0.0000 0.0000 -0.0001 50.2903 0.0000 6.4322
# 5 17.5135 20.0198 26.7358 0.0000 36.4293 0.0000
# 6 0.0000 0.0000 0.0000 6.4322 0.0000 29.8913
#
#
#
# Elastic Compliance Matrix: (Units=1/GPa)
#
#
# Indices 1 2 3 4 5 6 
#
# 1 0.038073 -0.002714 -0.004408 0.000000 -0.013577 0.000000
# 2 -0.002714 0.008919 -0.003734 0.000000 -0.000856 0.000000
# 3 -0.004408 -0.003734 0.018242 0.000000 -0.009217 0.000000
# 4 0.000000 0.000000 0.000000 0.020447 0.000000 -0.004400
# 5 -0.013577 -0.000856 -0.009217 0.000000 0.041212 0.000000
# 6 0.000000 0.000000 0.000000 -0.004400 0.000000 0.034401
#
#
# Mechanical properties :
#
#
# Convention : Reuss Voigt Hill
#
# Bulk Modulus (GPa) = 22.97772 48.36377 35.67075
# Shear Modulus (GPa) = 25.31464 34.66897 29.99180
#
# Velocity S-wave (km/s) = 3.27437 3.83188 3.56404
# Velocity P-wave (km/s) = 4.90174 6.32939 5.66076
#
# Compressibility (1/GPa) = 0.04352043
#
# Stress axis : x y z
#
# Youngs Moduli (GPa) = 26.26561 112.12315 54.81797
#
# Poissons Ratio (x) = 0.30430 0.24164
# Poissons Ratio (y) = 0.07128 0.20472
# Poissons Ratio (z) = 0.11578 0.41872
#
# Static dielectric constant tensor:
#      x y z
#    x 3.786760 0.000000 0.510810 
#    y 0.000000 4.987810 0.000000 
#    z 0.510810 0.000000 4.390990 
# 
# 
# High freq. dielectric constant tensor:
#      x y z
#    x 1.890500 0.000000 0.032940 
#    y 0.000000 1.959890 0.000000 
#    z 0.032940 0.000000 1.941090 
# 
# From -- ./inp_files/25562.got.cif
#   From: 2010.06.25/outbox.cif.g09.slc.cpg/sg9_13_cif.got.tgz:25562.got - 2010.06.27 21:40:51.
