data_PCOD8054611
_publ_section_title
;
Structure prediction by ZEFSAII (Michael W. Deem and Ramdas Pophale) SiO2 
 PCOD8054611
Probable space group: C C
;
_chemical_formula_sum "Si O2"
_cell_formula_units_Z 20
_cell_length_a 31.042417
_cell_length_b 6.997011
_cell_length_c 12.554514
_cell_angle_alpha 90.000000
_cell_angle_beta 157.276052
_cell_angle_gamma 90.000000
_cell_volume 1053.375610
_symmetry_space_group_name_H-M "C C"
_symmetry_group_IT_number 9
_symmetry_cell_setting 'monoclinic'
loop_
_space_group_symop_operation_xyz
x,y,z
x,-y,1/2+z
1/2+x,1/2+y,z
1/2+x,1/2-y,1/2+z
loop_
_atom_site_type_symbol
_atom_site_label
_atom_site_fract_x
_atom_site_fract_y
_atom_site_fract_z
Si Si1 0.629410 0.755035 0.466130
Si Si2 0.135581 0.536175 0.667964
Si Si3 0.540286 0.353192 0.309816
Si Si4 0.002267 0.563149 0.058243
Si Si5 0.310876 0.276594 0.711827
O O1 0.592024 0.560775 0.435246
O O2 0.529389 0.857696 0.173322
O O3 0.725620 0.693043 0.603554
O O4 0.671416 0.896240 0.654673
O O5 0.082183 0.736077 0.507949
O O6 0.039034 0.435811 0.519097
O O7 0.247344 0.574649 0.990437
O O8 0.574368 0.229662 0.282376
O O9 0.406088 0.381549 0.999323
O O10 0.870089 0.609819 0.774516
#
# Coordination Sequence:
#
# PCOD8054611 Si02
#       5
#     4   4   4   4   4
#     4  10  20  40  60  85 122 156 197 247 284 353
#     4  10  20  39  62  89 122 153 200 246 287 353
#     4   9  21  40  57  89 119 151 203 241 289 355
#     4   8  20  41  56  83 124 153 193 247 285 350
#     4   9  21  42  57  88 121 157 195 241 299 347
#
# _framework density 18.98658
#
# number of rings (size 3 to 8) (size 9 to 14) (size 15 to 20)
#    1.200    1.600    0.000    0.000    0.000    6.400 
#   21.600    0.000    0.000    0.000    0.000    0.000 
#    0.000    0.000    0.000    0.000    0.000    0.000 
#
# Total GULP energy -123882.184189 kJ/mol
# GULP energy per Si atom -12388.218419 kJ/mol
# Density = 1.894337 g / cm^3
# Si number density = 18.986580 Si / 1000 Ang^3
#
#
#
# Elastic Constant Matrix: (Units=GPa)
#
#
# Indices 1 2 3 4 5 6 
#
# 1 101.2033 33.5653 28.5823 0.0000 17.4428 0.0000
# 2 33.5653 95.5541 34.2019 0.0000 9.7276 0.0000
# 3 28.5823 34.2019 89.8906 0.0000 10.5137 0.0000
# 4 0.0000 0.0000 0.0000 18.2743 0.0000 4.6024
# 5 17.4428 9.7276 10.5137 0.0000 30.8736 0.0000
# 6 0.0000 0.0000 0.0000 4.6024 0.0000 28.2702
#
#
#
# Elastic Compliance Matrix: (Units=1/GPa)
#
#
# Indices 1 2 3 4 5 6 
#
# 1 0.012420 -0.003045 -0.002168 0.000000 -0.005319 0.000000
# 2 -0.003045 0.013026 -0.003863 0.000000 -0.001068 0.000000
# 3 -0.002168 -0.003863 0.013538 0.000000 -0.002168 0.000000
# 4 0.000000 0.000000 0.000000 0.057061 0.000000 -0.009290
# 5 -0.005319 -0.001068 -0.002168 0.000000 0.036470 0.000000
# 6 0.000000 0.000000 0.000000 -0.009290 0.000000 0.036885
#
#
# Mechanical properties :
#
#
# Convention : Reuss Voigt Hill
#
# Bulk Modulus (GPa) = 48.00601 53.26077 50.63339
# Shear Modulus (GPa) = 25.70717 28.17018 26.93867
#
# Velocity S-wave (km/s) = 3.68362 3.85605 3.77082
# Velocity P-wave (km/s) = 6.59023 6.92374 6.75904
#
# Compressibility (1/GPa) = 0.02083072
#
# Stress axis : x y z
#
# Youngs Moduli (GPa) = 80.51333 76.76688 73.86868
#
# Poissons Ratio (x) = 0.23377 0.16018
# Poissons Ratio (y) = 0.24518 0.28536
# Poissons Ratio (z) = 0.17459 0.29656
#
# Static dielectric constant tensor:
#      x y z
#    x 3.458090 0.000000 -0.016820 
#    y 0.000000 3.239740 0.000000 
#    z -0.016820 0.000000 3.377560 
# 
# 
# High freq. dielectric constant tensor:
#      x y z
#    x 1.736930 0.000000 -0.007600 
#    y 0.000000 1.724130 0.000000 
#    z -0.007600 0.000000 1.726340 
# 
# From -- ./inp_files/15778.got.cif
#   From: 2010.06.25/outbox.cif.g09.slc.cpg/sg9_8_cif.got.tgz:15778.got - 2010.06.27 21:40:51.
