data_PCOD8054351
_publ_section_title
;
Structure prediction by ZEFSAII (Michael W. Deem and Ramdas Pophale) SiO2 
 PCOD8054351
Probable space group: C C
;
_chemical_formula_sum "Si O2"
_cell_formula_units_Z 24
_cell_length_a 13.875286
_cell_length_b 14.903359
_cell_length_c 8.304000
_cell_angle_alpha 90.000000
_cell_angle_beta 44.275935
_cell_angle_gamma 90.000000
_cell_volume 1198.781915
_symmetry_space_group_name_H-M "C C"
_symmetry_group_IT_number 9
_symmetry_cell_setting 'monoclinic'
loop_
_space_group_symop_operation_xyz
x,y,z
x,-y,1/2+z
1/2+x,1/2+y,z
1/2+x,1/2-y,1/2+z
loop_
_atom_site_type_symbol
_atom_site_label
_atom_site_fract_x
_atom_site_fract_y
_atom_site_fract_z
Si Si1 0.967560 0.277142 0.125000
Si Si2 0.977090 0.111027 0.325304
Si Si3 0.260481 0.710349 0.117526
Si Si4 0.412299 0.567438 0.762807
Si Si5 0.201088 0.106907 0.575080
Si Si6 0.764956 0.432486 0.365488
O O1 0.895127 0.229513 0.062155
O O2 0.898843 0.373291 0.245392
O O3 0.950979 0.212668 0.299272
O O4 0.127199 0.293333 0.891863
O O5 0.915341 0.096379 0.574736
O O6 0.900608 0.040331 0.296052
O O7 0.141360 0.093152 0.135561
O O8 0.250526 0.790525 0.997001
O O9 0.279909 0.616759 0.000541
O O10 0.546399 0.600072 0.697786
O O11 0.206044 0.082684 0.758197
O O12 0.299451 0.037741 0.357764
#
# Coordination Sequence:
#
# PCOD8054351 Si02
#       6
#     4   4   4   4   4   4
#     4  11  21  41  63  88 124 162 200 255 304 356
#     4  11  21  38  63  90 120 164 206 248 302 369
#     4  11  21  41  62  88 126 161 202 251 308 355
#     4  11  22  36  64  90 123 161 209 247 299 369
#     4  10  19  36  61  86 121 159 197 249 297 361
#     4  10  20  36  63  88 120 159 206 246 302 360
#
# _framework density 20.020322
#
# number of rings (size 3 to 8) (size 9 to 14) (size 15 to 20)
#    0.000    1.333    5.000    5.000    0.000    2.667 
#    0.000    6.667    0.000    0.000    0.000    0.000 
#    0.000    0.000    0.000    0.000    0.000    0.000 
#
# Total GULP energy -148761.664454 kJ/mol
# GULP energy per Si atom -12396.805371 kJ/mol
# Density = 1.997475 g / cm^3
# Si number density = 20.020322 Si / 1000 Ang^3
#
#
#
# Elastic Constant Matrix: (Units=GPa)
#
#
# Indices 1 2 3 4 5 6 
#
# 1 55.9319 22.0256 21.6780 0.0000 9.0675 0.0000
# 2 22.0256 131.6047 49.9891 0.0000 -1.8479 0.0000
# 3 21.6780 49.9891 86.8673 0.0000 11.4077 0.0000
# 4 0.0000 0.0000 0.0000 44.7149 0.0000 1.6829
# 5 9.0675 -1.8479 11.4077 0.0000 20.8170 0.0000
# 6 0.0000 0.0000 0.0000 1.6829 0.0000 32.7617
#
#
#
# Elastic Compliance Matrix: (Units=1/GPa)
#
#
# Indices 1 2 3 4 5 6 
#
# 1 0.021275 -0.002630 -0.002746 0.000000 -0.007996 0.000000
# 2 -0.002630 0.010408 -0.006040 0.000000 0.005379 0.000000
# 3 -0.002746 -0.006040 0.016795 0.000000 -0.008544 0.000000
# 4 0.000000 0.000000 0.000000 0.022407 0.000000 -0.001151
# 5 -0.007996 0.005379 -0.008544 0.000000 0.056680 0.000000
# 6 0.000000 0.000000 0.000000 -0.001151 0.000000 0.030583
#
#
# Mechanical properties :
#
#
# Convention : Reuss Voigt Hill
#
# Bulk Modulus (GPa) = 38.99076 51.30993 45.15035
# Shear Modulus (GPa) = 26.38136 31.70613 29.04375
#
# Velocity S-wave (km/s) = 3.63399 3.98389 3.81295
# Velocity P-wave (km/s) = 6.09309 6.84444 6.47966
#
# Compressibility (1/GPa) = 0.02564710
#
# Stress axis : x y z
#
# Youngs Moduli (GPa) = 47.00358 96.07664 59.54267
#
# Poissons Ratio (x) = 0.25268 0.16349
# Poissons Ratio (y) = 0.12362 0.35962
# Poissons Ratio (z) = 0.12906 0.58028
#
# Static dielectric constant tensor:
#      x y z
#    x 3.447470 0.000000 0.064420 
#    y 0.000000 4.153960 0.000000 
#    z 0.064420 0.000000 3.448110 
# 
# 
# High freq. dielectric constant tensor:
#      x y z
#    x 1.763140 0.000000 0.009600 
#    y 0.000000 1.795110 0.000000 
#    z 0.009600 0.000000 1.761550 
# 
# From -- ./inp_files/7077.got.cif
#   From: 2010.06.25/outbox.cif.g09.slc.cpg/sg9_4_cif.got.tgz:7077.got - 2010.06.27 21:40:51.
