data_PCOD8054379
_publ_section_title
;
Structure prediction by ZEFSAII (Michael W. Deem and Ramdas Pophale) SiO2 
 PCOD8054379
Probable space group: C C
;
_chemical_formula_sum "Si O2"
_cell_formula_units_Z 32
_cell_length_a 13.302573
_cell_length_b 19.477828
_cell_length_c 10.219626
_cell_angle_alpha 90.000000
_cell_angle_beta 143.781146
_cell_angle_gamma 90.000000
_cell_volume 1564.602377
_symmetry_space_group_name_H-M "C C"
_symmetry_group_IT_number 9
_symmetry_cell_setting 'monoclinic'
loop_
_space_group_symop_operation_xyz
x,y,z
x,-y,1/2+z
1/2+x,1/2+y,z
1/2+x,1/2-y,1/2+z
loop_
_atom_site_type_symbol
_atom_site_label
_atom_site_fract_x
_atom_site_fract_y
_atom_site_fract_z
Si Si1 0.227670 0.148481 0.570010
Si Si2 0.095280 0.828117 0.396838
Si Si3 0.289075 0.319986 0.397410
Si Si4 0.398258 0.925994 0.650872
Si Si5 0.792317 0.485113 0.279201
Si Si6 0.100131 0.107364 0.170344
Si Si7 0.203725 0.321708 0.013397
Si Si8 0.516973 0.226839 0.791179
O O1 0.203859 0.085345 0.641260
O O2 0.231496 0.123041 0.423823
O O3 0.411833 0.183086 0.786330
O O4 0.086301 0.207007 0.443672
O O5 0.220673 0.882999 0.458992
O O6 0.124604 0.834916 0.583871
O O7 0.146501 0.752691 0.399024
O O8 0.892643 0.841580 0.157415
O O9 0.407210 0.388295 0.522994
O O10 0.197731 0.313940 0.163135
O O11 0.405925 0.253261 0.550790
O O12 0.157651 0.324084 0.379255
O O13 0.408625 0.970932 0.528762
O O14 0.401525 0.977121 0.780168
O O15 0.565103 0.878349 0.827153
O O16 0.631309 0.531838 0.147678
#
# Coordination Sequence:
#
# PCOD8054379 Si02
#       8
#     4   4   4   4   4   4   4   4
#     4  10  19  37  63  84 124 156 207 251 304 370
#     4  10  20  36  62 100 126 159 206 262 314 366
#     4   9  17  29  58  93 125 150 204 256 302 359
#     4  11  25  42  67  89 127 170 210 254 313 376
#     4  11  23  44  63  85 124 175 204 243 317 380
#     4   9  19  35  61  89 117 165 206 248 300 366
#     4  11  19  35  62  98 126 159 207 267 311 361
#     4   9  18  32  58  98 119 156 200 259 315 350
#
# _framework density 20.452480999999999
#
# number of rings (size 3 to 8) (size 9 to 14) (size 15 to 20)
#    0.000    2.000    2.500    3.000    3.500    0.000 
#    2.250    5.000   16.500    0.000    0.000    0.000 
#    0.000    0.000    0.000    0.000    0.000    0.000 
#
# Total GULP energy -198266.086193 kJ/mol
# GULP energy per Si atom -12391.630387 kJ/mol
# Density = 2.040593 g / cm^3
# Si number density = 20.452481 Si / 1000 Ang^3
#
#
#
# Elastic Constant Matrix: (Units=GPa)
#
#
# Indices 1 2 3 4 5 6 
#
# 1 60.3447 49.9655 47.0177 0.0000 5.1676 0.0000
# 2 49.9655 124.4163 52.5253 0.0000 5.7265 0.0000
# 3 47.0177 52.5253 92.0915 0.0000 16.0448 0.0000
# 4 0.0000 0.0000 0.0000 29.9424 0.0000 -0.2489
# 5 5.1676 5.7265 16.0448 0.0000 31.2821 0.0000
# 6 0.0000 0.0000 0.0000 -0.2489 0.0000 31.0447
#
#
#
# Elastic Compliance Matrix: (Units=1/GPa)
#
#
# Indices 1 2 3 4 5 6 
#
# 1 0.032789 -0.007944 -0.012650 0.000000 0.002526 0.000000
# 2 -0.007944 0.012558 -0.003223 0.000000 0.000666 0.000000
# 3 -0.012650 -0.003223 0.020522 0.000000 -0.007846 0.000000
# 4 0.000000 0.000000 0.000000 0.033400 0.000000 0.000268
# 5 0.002526 0.000666 -0.007846 0.000000 0.035452 0.000000
# 6 0.000000 0.000000 0.000000 0.000268 0.000000 0.032214
#
#
# Mechanical properties :
#
#
# Convention : Reuss Voigt Hill
#
# Bulk Modulus (GPa) = 54.83594 63.98550 59.41072
# Shear Modulus (GPa) = 22.66080 26.94344 24.80212
#
# Velocity S-wave (km/s) = 3.33223 3.63349 3.48612
# Velocity P-wave (km/s) = 6.45559 6.99685 6.73166
#
# Compressibility (1/GPa) = 0.01823621
#
# Stress axis : x y z
#
# Youngs Moduli (GPa) = 30.49840 79.63280 48.72754
#
# Poissons Ratio (x) = 0.63259 0.61638
# Poissons Ratio (y) = 0.24227 0.15704
# Poissons Ratio (z) = 0.38579 0.25664
#
# Static dielectric constant tensor:
#      x y z
#    x 3.580450 0.000000 0.189690 
#    y 0.000000 3.778180 0.000000 
#    z 0.189690 0.000000 3.710700 
# 
# 
# High freq. dielectric constant tensor:
#      x y z
#    x 1.778640 0.000000 0.009140 
#    y 0.000000 1.794100 0.000000 
#    z 0.009140 0.000000 1.787570 
# 
# From -- ./inp_files/8065.got.cif
#   From: 2010.06.25/outbox.cif.g09.slc.cpg/sg9_5_cif.got.tgz:8065.got - 2010.06.27 21:40:51.
