data_PCOD8054154
_publ_section_title
;
Structure prediction by ZEFSAII (Michael W. Deem and Ramdas Pophale) SiO2 
 PCOD8054154
Probable space group: C M
;
_chemical_formula_sum "Si O2"
_cell_formula_units_Z 12
_cell_length_a 18.000000
_cell_length_b 9.000000
_cell_length_c 24.000000
_cell_angle_alpha 90.000000
_cell_angle_beta 20.000000
_cell_angle_gamma 90.000000
_cell_volume 1329.774317
_symmetry_space_group_name_H-M "C M"
_symmetry_group_IT_number 8
_symmetry_cell_setting 'monoclinic'
loop_
_space_group_symop_operation_xyz
x,y,z
x,-y,z
1/2+x,1/2+y,z
1/2+x,1/2-y,z
loop_
_atom_site_type_symbol
_atom_site_label
_atom_site_fract_x
_atom_site_fract_y
_atom_site_fract_z
Si Si1 0.872830 0.328472 0.366770
Si Si2 0.564604 0.323376 0.014974
Si Si3 0.208361 0.833301 0.199971
Si Si4 0.186469 0.327941 0.042647
Si Si5 0.522323 0.834952 0.873620
Si Si6 0.874051 0.175290 0.709067
O O1 0.880045 0.500000 0.378624
O O2 0.625693 0.276036 0.530197
O O3 0.978613 0.239464 0.343975
O O4 0.006552 0.299462 0.216421
O O5 0.555071 0.500000 0.018489
O O6 0.328480 0.259776 0.163679
O O7 0.615749 0.272015 0.041111
O O8 0.757928 0.265222 0.839806
O O9 0.163123 0.000000 0.253830
O O10 0.365021 0.836339 0.037074
O O11 0.200712 0.500000 0.015209
O O12 0.425922 0.277975 0.895706
O O13 0.760130 0.786050 0.729517
O O14 0.534429 0.000000 0.838557
O O15 0.846018 0.000000 0.740816
#
# Coordination Sequence:
#
# PCOD8054154 Si02
#       6
#     4   4   4   4   4   4
#     4   9  18  33  54  78 102 130 164 203 249 299
#     4  11  21  33  51  74 100 133 172 209 246 292
#     4   9  17  31  51  73  99 132 167 203 245 295
#     4  10  19  32  51  74 100 131 166 206 251 297
#     4   8  15  29  49  71  96 129 165 200 241 293
#     4   9  18  34  54  76 103 131 162 205 252 296
#
# _framework density 9.0240880000000008
#
# number of rings (size 3 to 8) (size 9 to 14) (size 15 to 20)
#    0.000    2.667    0.000    3.500    0.000    5.333 
#    0.000    1.667    0.000    6.000    0.000    0.000 
#    0.000    0.000    0.000    0.000    0.000    0.000 
#
# Total GULP energy -148767.044428 kJ/mol
# GULP energy per Si atom -12397.253702 kJ/mol
# Density = 0.900355 g / cm^3
# Si number density = 9.024088 Si / 1000 Ang^3
#
#
#
# Elastic Constant Matrix: (Units=GPa)
#
#
# Indices 1 2 3 4 5 6 
#
# 1 125.1179 64.2301 53.2265 -0.0213 -37.9417 0.0132
# 2 64.2301 119.1916 44.0022 -0.0427 -18.3167 -0.0057
# 3 53.2265 44.0022 91.4677 -0.1212 -40.4790 -0.0132
# 4 -0.0213 -0.0427 -0.1212 23.9697 -0.0312 -7.1965
# 5 -37.9417 -18.3167 -40.4790 -0.0312 37.2208 0.0012
# 6 0.0132 -0.0057 -0.0132 -7.1965 0.0012 34.4129
#
#
#
# Elastic Compliance Matrix: (Units=1/GPa)
#
#
# Indices 1 2 3 4 5 6 
#
# 1 0.014813 -0.005971 -0.000704 0.000012 0.011396 -0.000005
# 2 -0.005971 0.012616 -0.004898 -0.000014 -0.005205 0.000000
# 3 -0.000704 -0.004898 0.023741 0.000152 0.022691 0.000040
# 4 0.000012 -0.000014 0.000152 0.044515 0.000208 0.009309
# 5 0.011396 -0.005205 0.022691 0.000208 0.060599 0.000045
# 6 -0.000005 0.000000 0.000040 0.009309 0.000045 0.031006
#
#
# Mechanical properties :
#
#
# Convention : Reuss Voigt Hill
#
# Bulk Modulus (GPa) = 35.68463 73.18832 54.43647
# Shear Modulus (GPa) = 22.75016 30.74190 26.74603
#
# Velocity S-wave (km/s) = 3.55424 4.13161 3.85375
# Velocity P-wave (km/s) = 6.05461 7.96241 7.07313
#
# Compressibility (1/GPa) = 0.02802327
#
# Stress axis : x y z
#
# Youngs Moduli (GPa) = 67.50743 79.26474 42.12097
#
# Poissons Ratio (x) = 0.47332 0.02966
# Poissons Ratio (y) = 0.40311 0.20631
# Poissons Ratio (z) = 0.04754 0.38823
#
# Static dielectric constant tensor:
#      x y z
#    x 3.487570 -0.000040 -0.464520 
#    y -0.000040 3.473260 0.000160 
#    z -0.464520 0.000160 3.312400 
# 
# 
# High freq. dielectric constant tensor:
#      x y z
#    x 1.704460 0.000000 -0.034320 
#    y 0.000000 1.705600 0.000010 
#    z -0.034320 0.000010 1.675240 
# 
# From -- ./inp_files/14206.got.cif
#   From: 2010.03.12/outbox.ucp.g09.slc.cvg/sg8_8_cif.got.tgz:14206.got - 2010.06.21 13:25:46.
