data_PCOD8054413
_publ_section_title
;
Structure prediction by ZEFSAII (Michael W. Deem and Ramdas Pophale) SiO2 
 PCOD8054413
Probable space group: C C
;
_chemical_formula_sum "Si O2"
_cell_formula_units_Z 32
_cell_length_a 12.168767
_cell_length_b 8.611289
_cell_length_c 21.640319
_cell_angle_alpha 90.000000
_cell_angle_beta 136.238673
_cell_angle_gamma 90.000000
_cell_volume 1568.441961
_symmetry_space_group_name_H-M "C C"
_symmetry_group_IT_number 9
_symmetry_cell_setting 'monoclinic'
loop_
_space_group_symop_operation_xyz
x,y,z
x,-y,1/2+z
1/2+x,1/2+y,z
1/2+x,1/2-y,1/2+z
loop_
_atom_site_type_symbol
_atom_site_label
_atom_site_fract_x
_atom_site_fract_y
_atom_site_fract_z
Si Si1 0.503470 0.159300 0.583180
Si Si2 0.202982 0.226189 0.274696
Si Si3 0.307237 0.891735 0.320035
Si Si4 0.966656 0.871796 0.449795
Si Si5 0.228875 0.645780 0.377144
Si Si6 0.973203 0.583595 0.764742
Si Si7 0.734091 0.601524 0.563883
Si Si8 0.488812 0.850932 0.509236
O O1 0.646842 0.205564 0.686600
O O2 0.506000 0.266805 0.524683
O O3 0.332533 0.176192 0.547258
O O4 0.533294 0.979708 0.577307
O O5 0.388201 0.271894 0.362207
O O6 0.093595 0.287568 0.286508
O O7 0.190637 0.039570 0.266678
O O8 0.209442 0.741295 0.304549
O O9 0.380775 0.841928 0.284430
O O10 0.448920 0.929425 0.426537
O O11 0.837575 0.997446 0.414115
O O12 0.125545 0.962156 0.493051
O O13 0.325348 0.758114 0.464324
O O14 0.057348 0.575310 0.324712
O O15 0.853782 0.529594 0.662666
O O16 0.634861 0.734241 0.558882
#
# Coordination Sequence:
#
# PCOD8054413 Si02
#       8
#     4   4   4   4   4   4   4   4
#     4  11  22  41  61  86 129 153 204 257 292 365
#     4  10  22  38  63  91 114 167 200 245 311 352
#     4  10  20  40  61  83 121 156 197 250 297 360
#     4  10  19  39  60  86 120 154 202 244 301 361
#     4   8  20  36  60  90 113 160 200 236 307 356
#     4  10  21  38  62  89 120 155 207 244 301 362
#     4  10  23  38  59  92 116 163 200 246 309 351
#     4   9  21  40  58  87 123 158 200 242 310 353
#
# _framework density 20.402414
#
# number of rings (size 3 to 8) (size 9 to 14) (size 15 to 20)
#    0.750    1.500    1.250    0.750    3.500    4.000 
#    0.000    6.250    0.000    0.000    0.000    0.000 
#    0.000    0.000    0.000    0.000    0.000    0.000 
#
# Total GULP energy -198210.274559 kJ/mol
# GULP energy per Si atom -12388.142160 kJ/mol
# Density = 2.035598 g / cm^3
# Si number density = 20.402414 Si / 1000 Ang^3
#
#
#
# Elastic Constant Matrix: (Units=GPa)
#
#
# Indices 1 2 3 4 5 6 
#
# 1 47.7949 23.8305 22.0065 0.0000 3.5562 0.0000
# 2 23.8305 103.8770 29.1540 0.0000 2.6426 0.0000
# 3 22.0065 29.1540 85.7861 0.0000 2.6112 0.0000
# 4 0.0000 0.0000 0.0000 31.0442 0.0000 -2.7435
# 5 3.5562 2.6426 2.6112 0.0000 25.7672 0.0000
# 6 0.0000 0.0000 0.0000 -2.7435 0.0000 20.1194
#
#
#
# Elastic Compliance Matrix: (Units=1/GPa)
#
#
# Indices 1 2 3 4 5 6 
#
# 1 0.025612 -0.004409 -0.004993 0.000000 -0.002577 0.000000
# 2 -0.004409 0.011414 -0.002739 0.000000 -0.000285 0.000000
# 3 -0.004993 -0.002739 0.013882 0.000000 -0.000437 0.000000
# 4 0.000000 0.000000 0.000000 0.032605 0.000000 0.004446
# 5 -0.002577 -0.000285 -0.000437 0.000000 0.039238 0.000000
# 6 0.000000 0.000000 0.000000 0.004446 0.000000 0.050309
#
#
# Mechanical properties :
#
#
# Convention : Reuss Voigt Hill
#
# Bulk Modulus (GPa) = 37.55859 43.04888 40.30373
# Shear Modulus (GPa) = 24.24609 26.21731 25.23170
#
# Velocity S-wave (km/s) = 3.45105 3.58859 3.52049
# Velocity P-wave (km/s) = 5.85905 6.19002 6.02681
#
# Compressibility (1/GPa) = 0.02662507
#
# Stress axis : x y z
#
# Youngs Moduli (GPa) = 39.04459 87.60978 72.03499
#
# Poissons Ratio (x) = 0.38624 0.35970
# Poissons Ratio (y) = 0.17213 0.19734
# Poissons Ratio (z) = 0.19497 0.24001
#
# Static dielectric constant tensor:
#      x y z
#    x 3.514680 0.000000 0.237950 
#    y 0.000000 3.776160 0.000000 
#    z 0.237950 0.000000 3.893220 
# 
# 
# High freq. dielectric constant tensor:
#      x y z
#    x 1.769670 0.000000 0.007400 
#    y 0.000000 1.801890 0.000000 
#    z 0.007400 0.000000 1.799730 
# 
# From -- ./inp_files/33223.got.cif
#   From: 2010.06.25/outbox.cif.g09.slc.cpg/sg9_17_cif.got.tgz:33223.got - 2010.06.27 21:40:51.
