data_PCOD8054330
_publ_section_title
;
Structure prediction by ZEFSAII (Michael W. Deem and Ramdas Pophale) SiO2 
 PCOD8054330
Probable space group: C C
;
_chemical_formula_sum "Si O2"
_cell_formula_units_Z 32
_cell_length_a 14.137477
_cell_length_b 14.401100
_cell_length_c 20.556863
_cell_angle_alpha 90.000000
_cell_angle_beta 158.057742
_cell_angle_gamma 90.000000
_cell_volume 1563.921585
_symmetry_space_group_name_H-M "C C"
_symmetry_group_IT_number 9
_symmetry_cell_setting 'monoclinic'
loop_
_space_group_symop_operation_xyz
x,y,z
x,-y,1/2+z
1/2+x,1/2+y,z
1/2+x,1/2-y,1/2+z
loop_
_atom_site_type_symbol
_atom_site_label
_atom_site_fract_x
_atom_site_fract_y
_atom_site_fract_z
Si Si1 0.481410 0.683278 0.426060
Si Si2 0.588950 0.336595 0.145330
Si Si3 0.856770 0.835292 0.239314
Si Si4 0.478504 0.465249 0.817853
Si Si5 0.805606 0.339580 0.940631
Si Si6 0.665887 0.164492 0.479495
Si Si7 0.825781 0.193957 0.060575
Si Si8 0.041041 0.463474 0.434974
O O1 0.523893 0.661474 0.528082
O O2 0.225461 0.741096 0.251663
O O3 0.450741 0.586109 0.368847
O O4 0.720529 0.741226 0.551810
O O5 0.329705 0.343883 0.019155
O O6 0.762590 0.425263 0.274794
O O7 0.847532 0.814235 0.156512
O O8 0.964403 0.747146 0.345602
O O9 0.032424 0.925566 0.364344
O O10 0.580190 0.862611 0.088933
O O11 0.715378 0.423525 0.929198
O O12 0.219855 0.453542 0.612037
O O13 0.618978 0.328683 0.760499
O O14 0.802036 0.242185 0.976162
O O15 0.514997 0.068634 0.393956
O O16 0.659858 0.099725 0.952961
#
# Coordination Sequence:
#
# PCOD8054330 Si02
#       8
#     4   4   4   4   4   4   4   4
#     4  10  19  36  62  90 115 145 192 236 281 342
#     4  11  21  37  61  85 117 154 185 237 289 327
#     4  11  24  40  57  83 117 152 194 235 283 343
#     4   9  21  38  59  86 112 147 195 236 281 344
#     4  10  19  35  59  82 111 148 180 233 289 326
#     4  11  25  40  56  83 117 154 195 235 282 341
#     4   9  17  34  59  86 109 139 188 232 279 341
#     4   9  20  38  59  83 112 149 195 236 282 342
#
# _framework density 20.461383999999999
#
# number of rings (size 3 to 8) (size 9 to 14) (size 15 to 20)
#    0.000    2.000    0.000    5.250    0.000    9.000 
#    0.000    3.750    0.000    0.000    0.000    0.000 
#    0.000    0.000    0.000    0.000    0.000    0.000 
#
# Total GULP energy -198442.271941 kJ/mol
# GULP energy per Si atom -12402.641996 kJ/mol
# Density = 2.041481 g / cm^3
# Si number density = 20.461384 Si / 1000 Ang^3
#
#
#
# Elastic Constant Matrix: (Units=GPa)
#
#
# Indices 1 2 3 4 5 6 
#
# 1 80.4260 28.9015 31.4475 0.0075 -2.2404 -0.0029
# 2 28.9015 152.7445 46.7954 0.0241 -4.0049 0.0116
# 3 31.4475 46.7954 73.0421 0.0661 7.4978 0.0198
# 4 0.0075 0.0241 0.0661 31.9556 0.0452 -4.8176
# 5 -2.2404 -4.0049 7.4978 0.0452 33.1883 0.0137
# 6 -0.0029 0.0116 0.0198 -4.8176 0.0137 23.2421
#
#
#
# Elastic Compliance Matrix: (Units=1/GPa)
#
#
# Indices 1 2 3 4 5 6 
#
# 1 0.015261 -0.000922 -0.006219 0.000008 0.002324 0.000008
# 2 -0.000922 0.008363 -0.005179 0.000002 0.002117 -0.000001
# 3 -0.006219 -0.005179 0.020263 -0.000031 -0.005622 -0.000019
# 4 0.000008 0.000002 -0.000031 0.032303 -0.000039 0.006696
# 5 0.002324 0.002117 -0.005622 -0.000039 0.031814 -0.000023
# 6 0.000008 -0.000001 -0.000019 0.006696 -0.000023 0.044413
#
#
# Mechanical properties :
#
#
# Convention : Reuss Voigt Hill
#
# Bulk Modulus (GPa) = 51.94842 57.83351 54.89096
# Shear Modulus (GPa) = 27.25210 30.94841 29.10025
#
# Velocity S-wave (km/s) = 3.65345 3.89334 3.77530
# Velocity P-wave (km/s) = 6.57576 6.96684 6.77412
#
# Compressibility (1/GPa) = 0.01924987
#
# Stress axis : x y z
#
# Youngs Moduli (GPa) = 65.52517 119.57015 49.35082
#
# Poissons Ratio (x) = 0.11019 0.30690
# Poissons Ratio (y) = 0.06038 0.25557
# Poissons Ratio (z) = 0.40749 0.61921
#
# Static dielectric constant tensor:
#      x y z
#    x 3.638370 0.000000 -0.026640 
#    y 0.000000 3.924180 -0.000140 
#    z -0.026640 -0.000140 3.591600 
# 
# 
# High freq. dielectric constant tensor:
#      x y z
#    x 1.795390 0.000000 0.000860 
#    y 0.000000 1.805330 -0.000010 
#    z 0.000860 -0.000010 1.788760 
# 
# From -- ./inp_files/9526.got.cif
#   From: 2010.06.25/outbox.cif.g09.slc.cpg/sg9_5_cif.got.tgz:9526.got - 2010.06.27 21:40:51.
