data_PCOD8054975
_publ_section_title
;
Structure prediction by ZEFSAII (Michael W. Deem and Ramdas Pophale) SiO2 
 PCOD8054975
Probable space group: C C
;
_chemical_formula_sum "Si O2"
_cell_formula_units_Z 32
_cell_length_a 14.153547
_cell_length_b 11.202693
_cell_length_c 15.228758
_cell_angle_alpha 90.000000
_cell_angle_beta 37.638196
_cell_angle_gamma 90.000000
_cell_volume 1474.555339
_symmetry_space_group_name_H-M "C C"
_symmetry_group_IT_number 9
_symmetry_cell_setting 'monoclinic'
loop_
_space_group_symop_operation_xyz
x,y,z
x,-y,1/2+z
1/2+x,1/2+y,z
1/2+x,1/2-y,1/2+z
loop_
_atom_site_type_symbol
_atom_site_label
_atom_site_fract_x
_atom_site_fract_y
_atom_site_fract_z
Si Si1 0.365000 0.040149 0.768520
Si Si2 0.268024 0.360235 0.547212
Si Si3 0.444764 0.546954 0.687090
Si Si4 0.550089 0.459781 0.430566
Si Si5 0.347642 0.217037 0.927649
Si Si6 0.107828 0.896639 0.718235
Si Si7 0.429543 0.207846 0.292643
Si Si8 0.689984 0.936648 0.970077
O O1 0.207612 0.102467 0.849358
O O2 0.411199 0.107905 0.823112
O O3 0.505645 0.051146 0.595624
O O4 0.344010 0.899962 0.805537
O O5 0.403077 0.373934 0.521009
O O6 0.317415 0.246845 0.453069
O O7 0.262152 0.483261 0.496529
O O8 0.096843 0.331876 0.709763
O O9 0.496915 0.547786 0.547583
O O10 0.551453 0.463492 0.671177
O O11 0.452418 0.684451 0.708102
O O12 0.272020 0.489035 0.822156
O O13 0.620088 0.514135 0.289942
O O14 0.495508 0.296109 0.840189
O O15 0.225663 0.298484 0.963264
O O16 0.270677 0.165557 0.073449
#
# Coordination Sequence:
#
# PCOD8054975 Si02
#       8
#     4   4   4   4   4   4   4   4
#     4  11  23  38  66 100 125 170 224 265 333 398
#     4  10  21  41  65  91 127 168 217 264 325 388
#     4  10  21  43  68  91 132 174 215 271 339 380
#     4  12  23  41  65 102 128 164 228 274 322 395
#     4  11  20  41  68  89 129 176 213 264 332 392
#     4  11  23  42  66  96 132 173 213 274 330 389
#     4  10  21  43  66  88 131 174 207 267 334 397
#     4   9  20  43  66  89 128 179 213 267 333 391
#
# _framework density 21.701459
#
# number of rings (size 3 to 8) (size 9 to 14) (size 15 to 20)
#    0.000    1.500    6.250    0.750    0.000    1.000 
#    6.750    3.750    0.000    0.000    0.000    0.000 
#    0.000    0.000    0.000    0.000    0.000    0.000 
#
# Total GULP energy -198264.726131 kJ/mol
# GULP energy per Si atom -12391.545383 kJ/mol
# Density = 2.165207 g / cm^3
# Si number density = 21.701459 Si / 1000 Ang^3
#
#
#
# Elastic Constant Matrix: (Units=GPa)
#
#
# Indices 1 2 3 4 5 6 
#
# 1 58.5752 -9.2635 29.0852 0.0000 -8.8028 0.0000
# 2 -9.2635 65.6365 25.1163 0.0000 9.6022 0.0000
# 3 29.0852 25.1163 82.4786 0.0000 -10.0374 0.0000
# 4 0.0000 0.0000 0.0000 30.4012 0.0000 -5.4915
# 5 -8.8028 9.6022 -10.0374 0.0000 35.5646 0.0000
# 6 0.0000 0.0000 0.0000 -5.4915 0.0000 15.3183
#
#
#
# Elastic Compliance Matrix: (Units=1/GPa)
#
#
# Indices 1 2 3 4 5 6 
#
# 1 0.023473 0.007123 -0.010328 0.000000 0.000972 0.000000
# 2 0.007123 0.020915 -0.009686 0.000000 -0.006618 0.000000
# 3 -0.010328 -0.009686 0.019389 0.000000 0.005531 0.000000
# 4 0.000000 0.000000 0.000000 0.035171 0.000000 0.012609
# 5 0.000972 -0.006618 0.005531 0.000000 0.031706 0.000000
# 6 0.000000 0.000000 0.000000 0.012609 0.000000 0.069802
#
#
# Mechanical properties :
#
#
# Convention : Reuss Voigt Hill
#
# Bulk Modulus (GPa) = 26.31978 32.95180 29.63579
# Shear Modulus (GPa) = 20.92885 27.04030 23.98458
#
# Velocity S-wave (km/s) = 3.10885 3.53372 3.32807
# Velocity P-wave (km/s) = 5.00410 5.64506 5.33421
#
# Compressibility (1/GPa) = 0.03799424
#
# Stress axis : x y z
#
# Youngs Moduli (GPa) = 42.60210 47.81168 51.57483
#
# Poissons Ratio (x) = -0.34056 0.53268
# Poissons Ratio (y) = -0.30345 0.49957
# Poissons Ratio (z) = 0.44001 0.46312
#
# Static dielectric constant tensor:
#      x y z
#    x 3.584620 0.000000 -0.228710 
#    y 0.000000 3.859290 0.000000 
#    z -0.228710 0.000000 4.220120 
# 
# 
# High freq. dielectric constant tensor:
#      x y z
#    x 1.809760 0.000000 -0.021130 
#    y 0.000000 1.852060 0.000000 
#    z -0.021130 0.000000 1.872020 
# 
# From -- ./inp_files/25833.got.cif
#   From: 2010.06.25/outbox.cif.g09.slc.cpg/sg9_13_cif.got.tgz:25833.got - 2010.06.27 21:40:51.
