data_PCOD8054496
_publ_section_title
;
Structure prediction by ZEFSAII (Michael W. Deem and Ramdas Pophale) SiO2 
 PCOD8054496
Probable space group: C C
;
_chemical_formula_sum "Si O2"
_cell_formula_units_Z 32
_cell_length_a 8.215864
_cell_length_b 20.418731
_cell_length_c 12.280674
_cell_angle_alpha 90.000000
_cell_angle_beta 125.159592
_cell_angle_gamma 90.000000
_cell_volume 1684.298904
_symmetry_space_group_name_H-M "C C"
_symmetry_group_IT_number 9
_symmetry_cell_setting 'monoclinic'
loop_
_space_group_symop_operation_xyz
x,y,z
x,-y,1/2+z
1/2+x,1/2+y,z
1/2+x,1/2-y,1/2+z
loop_
_atom_site_type_symbol
_atom_site_label
_atom_site_fract_x
_atom_site_fract_y
_atom_site_fract_z
Si Si1 0.862150 0.348255 0.581000
Si Si2 0.140841 0.233627 0.629436
Si Si3 0.697676 0.393245 0.292663
Si Si4 0.491115 0.685174 0.353661
Si Si5 0.007899 0.495047 0.890743
Si Si6 0.227773 0.571547 0.289294
Si Si7 0.388226 0.503932 0.161742
Si Si8 0.179370 0.108872 0.231641
O O1 0.723041 0.365166 0.424346
O O2 0.736562 0.350438 0.645250
O O3 0.954017 0.275560 0.603492
O O4 0.034259 0.403076 0.649461
O O5 0.159553 0.164211 0.694083
O O6 0.347301 0.269539 0.727805
O O7 0.118737 0.225784 0.490365
O O8 0.497450 0.435048 0.205259
O O9 0.888693 0.436857 0.330026
O O10 0.356905 0.635023 0.375403
O O11 0.632889 0.655183 0.315777
O O12 0.163880 0.480042 0.855100
O O13 0.861917 0.434143 0.846415
O O14 0.153098 0.498000 0.049399
O O15 0.391896 0.532697 0.283863
O O16 0.499746 0.558946 0.130473
#
# Coordination Sequence:
#
# PCOD8054496 Si02
#       8
#     4   4   4   4   4   4   4   4
#     4  10  20  41  59  82 124 158 201 248 295 349
#     4  11  22  40  63  84 118 163 208 247 294 356
#     4  11  22  37  61  92 118 158 203 245 300 367
#     4  10  21  41  62  86 118 161 206 246 302 356
#     4  10  20  37  58  90 122 144 197 247 302 359
#     4   9  19  36  61  83 119 157 180 250 304 354
#     4  10  20  35  60  92 118 151 193 240 309 363
#     4   9  22  39  60  85 119 160 190 251 308 352
#
# _framework density 18.999002000000001
#
# number of rings (size 3 to 8) (size 9 to 14) (size 15 to 20)
#    0.000    2.000    2.500    0.750    1.750    1.000 
#    9.000    1.250    0.000    0.000    0.000    0.000 
#    0.000    0.000    0.000    0.000    0.000    0.000 
#
# Total GULP energy -198275.511523 kJ/mol
# GULP energy per Si atom -12392.219470 kJ/mol
# Density = 1.895576 g / cm^3
# Si number density = 18.999002 Si / 1000 Ang^3
#
#
#
# Elastic Constant Matrix: (Units=GPa)
#
#
# Indices 1 2 3 4 5 6 
#
# 1 108.9850 57.8964 42.7636 0.0000 -10.2591 0.0000
# 2 57.8964 112.4837 47.6298 0.0000 -5.6974 0.0000
# 3 42.7636 47.6298 103.3324 0.0000 -4.5718 0.0000
# 4 0.0000 0.0000 0.0000 21.4315 0.0000 -6.0227
# 5 -10.2591 -5.6974 -4.5718 0.0000 27.6287 0.0000
# 6 0.0000 0.0000 0.0000 -6.0227 0.0000 26.9312
#
#
#
# Elastic Compliance Matrix: (Units=1/GPa)
#
#
# Indices 1 2 3 4 5 6 
#
# 1 0.013613 -0.005606 -0.002898 0.000000 0.003419 0.000000
# 2 -0.005606 0.013413 -0.003860 0.000000 0.000045 0.000000
# 3 -0.002898 -0.003860 0.012666 0.000000 0.000224 0.000000
# 4 0.000000 0.000000 0.000000 0.049789 0.000000 0.011135
# 5 0.003419 0.000045 0.000224 0.000000 0.037510 0.000000
# 6 0.000000 0.000000 0.000000 0.011135 0.000000 0.039622
#
#
# Mechanical properties :
#
#
# Convention : Reuss Voigt Hill
#
# Bulk Modulus (GPa) = 66.83512 69.04229 67.93870
# Shear Modulus (GPa) = 25.46738 26.96572 26.21655
#
# Velocity S-wave (km/s) = 3.66520 3.77148 3.71872
# Velocity P-wave (km/s) = 7.29151 7.44206 7.36717
#
# Compressibility (1/GPa) = 0.01496219
#
# Stress axis : x y z
#
# Youngs Moduli (GPa) = 73.46004 74.55651 78.95063
#
# Poissons Ratio (x) = 0.41798 0.22881
# Poissons Ratio (y) = 0.41184 0.30477
# Poissons Ratio (z) = 0.21290 0.28781
#
# Static dielectric constant tensor:
#      x y z
#    x 3.503780 0.000000 0.085360 
#    y 0.000000 3.595060 0.000000 
#    z 0.085360 0.000000 3.446260 
# 
# 
# High freq. dielectric constant tensor:
#      x y z
#    x 1.734470 0.000000 0.007230 
#    y 0.000000 1.742390 0.000000 
#    z 0.007230 0.000000 1.737170 
# 
# From -- ./inp_files/5610.got.cif
#   From: 2010.06.25/outbox.cif.g09.slc.cpg/sg9_3_cif.got.tgz:5610.got - 2010.06.27 21:40:51.
