data_PCOD8054547
_publ_section_title
;
Structure prediction by ZEFSAII (Michael W. Deem and Ramdas Pophale) SiO2 
 PCOD8054547
Probable space group: C C
;
_chemical_formula_sum "Si O2"
_cell_formula_units_Z 32
_cell_length_a 12.254275
_cell_length_b 20.752215
_cell_length_c 7.916505
_cell_angle_alpha 90.000000
_cell_angle_beta 128.493554
_cell_angle_gamma 90.000000
_cell_volume 1575.682825
_symmetry_space_group_name_H-M "C C"
_symmetry_group_IT_number 9
_symmetry_cell_setting 'monoclinic'
loop_
_space_group_symop_operation_xyz
x,y,z
x,-y,1/2+z
1/2+x,1/2+y,z
1/2+x,1/2-y,1/2+z
loop_
_atom_site_type_symbol
_atom_site_label
_atom_site_fract_x
_atom_site_fract_y
_atom_site_fract_z
Si Si1 0.806950 0.701361 0.134220
Si Si2 0.896133 0.424259 0.882821
Si Si3 0.028693 0.773082 0.521282
Si Si4 0.233548 0.988521 0.465388
Si Si5 0.889067 0.831632 0.690135
Si Si6 0.617880 0.593230 0.576521
Si Si7 0.094812 0.354130 0.282938
Si Si8 0.358952 0.188722 0.796619
O O1 0.849902 0.648578 0.312116
O O2 0.640043 0.706061 0.985436
O O3 0.884945 0.764473 0.280129
O O4 0.864747 0.687224 0.004304
O O5 0.880630 0.462956 0.690905
O O6 0.778239 0.458097 0.877620
O O7 0.045248 0.416728 0.122141
O O8 0.093953 0.709870 0.670049
O O9 0.995781 0.825424 0.635059
O O10 0.127528 0.025246 0.487383
O O11 0.153557 0.926609 0.305673
O O12 0.749560 0.868809 0.498838
O O13 0.843570 0.761784 0.716933
O O14 0.964722 0.875245 0.906446
O O15 0.726508 0.646581 0.611497
O O16 0.995074 0.345355 0.350455
#
# Coordination Sequence:
#
# PCOD8054547 Si02
#       8
#     4   4   4   4   4   4   4   4
#     4  11  22  35  58  93 126 158 209 257 316 383
#     4  10  20  37  62  84 117 153 218 262 303 367
#     4  10  21  37  57  86 127 170 197 252 318 386
#     4  10  21  39  66  90 114 166 226 268 300 378
#     4  11  23  39  62  92 136 168 203 261 336 392
#     4  11  22  41  65  93 122 171 219 266 315 377
#     4  10  21  39  57  89 124 169 199 252 324 385
#     4  11  22  37  63  95 132 165 213 260 326 392
#
# _framework density 20.308655000000002
#
# number of rings (size 3 to 8) (size 9 to 14) (size 15 to 20)
#    0.000    1.500    3.750    2.250    5.250    0.000 
#    0.000    1.250    0.000    0.000    0.000    0.000 
#    0.000    0.000    0.000    0.000    0.000    0.000 
#
# Total GULP energy -198233.967652 kJ/mol
# GULP energy per Si atom -12389.622978 kJ/mol
# Density = 2.026243 g / cm^3
# Si number density = 20.308655 Si / 1000 Ang^3
#
#
#
# Elastic Constant Matrix: (Units=GPa)
#
#
# Indices 1 2 3 4 5 6 
#
# 1 81.8399 20.1661 46.6356 0.0000 0.5448 0.0000
# 2 20.1661 77.3658 49.4834 0.0000 5.0815 0.0000
# 3 46.6356 49.4834 140.8143 0.0000 13.4165 0.0000
# 4 0.0000 0.0000 0.0000 33.2717 0.0000 -1.7634
# 5 0.5448 5.0815 13.4165 0.0000 34.5601 0.0000
# 6 0.0000 0.0000 0.0000 -1.7634 0.0000 12.3388
#
#
#
# Elastic Compliance Matrix: (Units=1/GPa)
#
#
# Indices 1 2 3 4 5 6 
#
# 1 0.015222 -0.000970 -0.004871 0.000000 0.001794 0.000000
# 2 -0.000970 0.016736 -0.005532 0.000000 -0.000298 0.000000
# 3 -0.004871 -0.005532 0.010980 0.000000 -0.003372 0.000000
# 4 0.000000 0.000000 0.000000 0.030285 0.000000 0.004328
# 5 0.001794 -0.000298 -0.003372 0.000000 0.030260 0.000000
# 6 0.000000 0.000000 0.000000 0.004328 0.000000 0.081664
#
#
# Mechanical properties :
#
#
# Convention : Reuss Voigt Hill
#
# Bulk Modulus (GPa) = 49.52358 59.17671 54.35015
# Shear Modulus (GPa) = 23.29668 28.28310 25.78989
#
# Velocity S-wave (km/s) = 3.39061 3.73589 3.56743
# Velocity P-wave (km/s) = 6.30608 6.91455 6.61732
#
# Compressibility (1/GPa) = 0.02019240
#
# Stress axis : x y z
#
# Youngs Moduli (GPa) = 65.69478 59.75145 91.07422
#
# Poissons Ratio (x) = 0.05795 0.44366
# Poissons Ratio (y) = 0.06371 0.50379
# Poissons Ratio (z) = 0.32002 0.33052
#
# Static dielectric constant tensor:
#      x y z
#    x 3.503770 0.000000 -0.159890 
#    y 0.000000 3.712660 0.000000 
#    z -0.159890 0.000000 3.955180 
# 
# 
# High freq. dielectric constant tensor:
#      x y z
#    x 1.768400 0.000000 -0.016090 
#    y 0.000000 1.778380 0.000000 
#    z -0.016090 0.000000 1.803070 
# 
# From -- ./inp_files/8274.got.cif
#   From: 2010.06.25/outbox.cif.g09.slc.cpg/sg9_5_cif.got.tgz:8274.got - 2010.06.27 21:40:51.
