data_PCOD8054681
_publ_section_title
;
Structure prediction by ZEFSAII (Michael W. Deem and Ramdas Pophale) SiO2 
 PCOD8054681
Probable space group: C C
;
_chemical_formula_sum "Si O2"
_cell_formula_units_Z 32
_cell_length_a 7.180808
_cell_length_b 17.377079
_cell_length_c 14.623057
_cell_angle_alpha 90.000000
_cell_angle_beta 116.810729
_cell_angle_gamma 90.000000
_cell_volume 1628.535222
_symmetry_space_group_name_H-M "C C"
_symmetry_group_IT_number 9
_symmetry_cell_setting 'monoclinic'
loop_
_space_group_symop_operation_xyz
x,y,z
x,-y,1/2+z
1/2+x,1/2+y,z
1/2+x,1/2-y,1/2+z
loop_
_atom_site_type_symbol
_atom_site_label
_atom_site_fract_x
_atom_site_fract_y
_atom_site_fract_z
Si Si1 0.823020 0.584432 0.003720
Si Si2 0.305950 0.010831 0.819953
Si Si3 0.357915 0.349052 0.835591
Si Si4 0.570412 0.212649 0.969936
Si Si5 0.990651 0.214734 0.174843
Si Si6 0.896703 0.626866 0.216725
Si Si7 0.929023 0.977071 0.344785
Si Si8 0.555159 0.868777 0.280104
O O1 0.906844 0.575214 0.125697
O O2 0.913638 0.524908 0.945471
O O3 0.572533 0.569803 0.949736
O O4 0.885497 0.669322 0.983095
O O5 0.353516 0.080315 0.760723
O O6 0.055284 0.012519 0.777345
O O7 0.381880 0.929457 0.799893
O O8 0.480729 0.299006 0.938365
O O9 0.465589 0.333366 0.762141
O O10 0.371638 0.438090 0.868877
O O11 0.112351 0.325572 0.775015
O O12 0.628023 0.176845 0.885355
O O13 0.785491 0.204666 0.070277
O O14 0.199569 0.184665 0.169856
O O15 0.007949 0.306566 0.192039
O O16 0.725510 0.927969 0.280272
#
# Coordination Sequence:
#
# PCOD8054681 Si02
#       8
#     4   4   4   4   4   4   4   4
#     4   9  21  38  66  87 128 167 218 248 330 376
#     4   9  21  38  62  94 123 164 210 264 314 375
#     4  11  23  40  66  92 131 162 217 270 318 377
#     4  10  22  42  59  91 131 166 209 273 319 378
#     4  11  23  39  62  94 123 167 216 258 329 387
#     4  12  21  40  70  93 127 174 218 264 319 389
#     4  10  20  41  62  93 123 166 208 265 316 380
#     4  10  21  38  65  84 126 166 206 266 321 370
#
# _framework density 19.649560999999999
#
# number of rings (size 3 to 8) (size 9 to 14) (size 15 to 20)
#    0.750    1.000    3.750    0.750    1.750    1.000 
#    0.000    0.000    2.750    0.000    0.000    0.000 
#    0.000    0.000    0.000    0.000    0.000    0.000 
#
# Total GULP energy -198226.806163 kJ/mol
# GULP energy per Si atom -12389.175385 kJ/mol
# Density = 1.960484 g / cm^3
# Si number density = 19.649561 Si / 1000 Ang^3
#
#
#
# Elastic Constant Matrix: (Units=GPa)
#
#
# Indices 1 2 3 4 5 6 
#
# 1 103.0361 41.1368 21.7639 0.0000 7.8326 0.0000
# 2 41.1368 92.7486 17.1879 0.0000 10.9520 0.0000
# 3 21.7639 17.1879 59.0654 0.0000 3.4817 0.0000
# 4 0.0000 0.0000 0.0000 23.2695 0.0000 4.4246
# 5 7.8326 10.9520 3.4817 0.0000 28.4043 0.0000
# 6 0.0000 0.0000 0.0000 4.4246 0.0000 34.1744
#
#
#
# Elastic Compliance Matrix: (Units=1/GPa)
#
#
# Indices 1 2 3 4 5 6 
#
# 1 0.012352 -0.004764 -0.003095 0.000000 -0.001190 0.000000
# 2 -0.004764 0.013708 -0.002014 0.000000 -0.003725 0.000000
# 3 -0.003095 -0.002014 0.018696 0.000000 -0.000662 0.000000
# 4 0.000000 0.000000 0.000000 0.044059 0.000000 -0.005704
# 5 -0.001190 -0.003725 -0.000662 0.000000 0.037051 0.000000
# 6 0.000000 0.000000 0.000000 -0.005704 0.000000 0.030000
#
#
# Mechanical properties :
#
#
# Convention : Reuss Voigt Hill
#
# Bulk Modulus (GPa) = 39.98479 46.11414 43.04947
# Shear Modulus (GPa) = 27.18151 28.82041 28.00096
#
# Velocity S-wave (km/s) = 3.72333 3.83393 3.77904
# Velocity P-wave (km/s) = 6.23517 6.56643 6.40294
#
# Compressibility (1/GPa) = 0.02500951
#
# Stress axis : x y z
#
# Youngs Moduli (GPa) = 80.96123 72.95008 53.48815
#
# Poissons Ratio (x) = 0.34756 0.16553
# Poissons Ratio (y) = 0.38573 0.10772
# Poissons Ratio (z) = 0.25055 0.14691
#
# Static dielectric constant tensor:
#      x y z
#    x 3.693920 0.000000 -0.079980 
#    y 0.000000 3.567230 0.000000 
#    z -0.079980 0.000000 3.350110 
# 
# 
# High freq. dielectric constant tensor:
#      x y z
#    x 1.774190 0.000000 -0.003130 
#    y 0.000000 1.762780 0.000000 
#    z -0.003130 0.000000 1.737970 
# 
# From -- ./inp_files/22093.got.cif
#   From: 2010.06.25/outbox.cif.g09.slc.cpg/sg9_12_cif.got.tgz:22093.got - 2010.06.27 21:40:51.
