data_PCOD8054631
_publ_section_title
;
Structure prediction by ZEFSAII (Michael W. Deem and Ramdas Pophale) SiO2 
 PCOD8054631
Probable space group: C C
;
_chemical_formula_sum "Si O2"
_cell_formula_units_Z 28
_cell_length_a 16.059271
_cell_length_b 8.122535
_cell_length_c 16.812731
_cell_angle_alpha 90.000000
_cell_angle_beta 144.552607
_cell_angle_gamma 90.000000
_cell_volume 1271.891729
_symmetry_space_group_name_H-M "C C"
_symmetry_group_IT_number 9
_symmetry_cell_setting 'monoclinic'
loop_
_space_group_symop_operation_xyz
x,y,z
x,-y,1/2+z
1/2+x,1/2+y,z
1/2+x,1/2-y,1/2+z
loop_
_atom_site_type_symbol
_atom_site_label
_atom_site_fract_x
_atom_site_fract_y
_atom_site_fract_z
Si Si1 0.077280 0.152267 0.581100
Si Si2 0.149951 0.791908 0.697447
Si Si3 0.041161 0.637794 0.766175
Si Si4 0.971492 0.637865 0.427076
Si Si5 0.960416 0.308462 0.641287
Si Si6 0.660891 0.165799 0.428219
Si Si7 0.899059 0.278475 0.311366
O O1 0.227996 0.243752 0.682765
O O2 0.983895 0.262841 0.568460
O O3 0.983307 0.138297 0.427052
O O4 0.096988 0.971578 0.631282
O O5 0.116945 0.764587 0.765233
O O6 0.319503 0.768327 0.815726
O O7 0.063849 0.656683 0.579344
O O8 0.944295 0.506264 0.640739
O O9 0.942096 0.734823 0.752086
O O10 0.158761 0.532012 0.908606
O O11 0.945416 0.447817 0.388926
O O12 0.063255 0.716569 0.427070
O O13 0.820005 0.224549 0.568227
O O14 0.094572 0.242815 0.798683
#
# Coordination Sequence:
#
# PCOD8054631 Si02
#       7
#     4   4   4   4   4   4   4
#     4  11  24  41  67  94 127 173 220 260 327 388
#     4  11  24  40  66  98 129 169 217 268 324 383
#     4   9  23  43  65  92 136 166 210 274 324 370
#     4  10  22  41  66  90 131 168 214 266 322 382
#     4  10  20  39  67  91 126 172 215 258 321 384
#     4   9  20  38  67  91 124 170 212 261 315 380
#     4  10  23  46  62  92 131 172 212 269 323 381
#
# _framework density 22.014453
#
# number of rings (size 3 to 8) (size 9 to 14) (size 15 to 20)
#    0.857    1.143    0.000    2.571    4.000    3.429 
#    5.143    0.000    0.000    0.000    0.000    0.000 
#    0.000    0.000    0.000    0.000    0.000    0.000 
#
# Total GULP energy -173553.723110 kJ/mol
# GULP energy per Si atom -12396.694508 kJ/mol
# Density = 2.196435 g / cm^3
# Si number density = 22.014453 Si / 1000 Ang^3
#
#
#
# Elastic Constant Matrix: (Units=GPa)
#
#
# Indices 1 2 3 4 5 6 
#
# 1 181.0231 43.3452 44.2901 0.0000 -4.5644 0.0000
# 2 43.3452 46.9942 16.8213 0.0000 0.9245 0.0000
# 3 44.2901 16.8213 78.6098 0.0000 7.4211 0.0000
# 4 0.0000 0.0000 0.0000 27.8384 0.0000 -4.7104
# 5 -4.5644 0.9245 7.4211 0.0000 39.2690 0.0000
# 6 0.0000 0.0000 0.0000 -4.7104 0.0000 27.2684
#
#
#
# Elastic Compliance Matrix: (Units=1/GPa)
#
#
# Indices 1 2 3 4 5 6 
#
# 1 0.007820 -0.006077 -0.003263 0.000000 0.001669 0.000000
# 2 -0.006077 0.027774 -0.002434 0.000000 -0.000900 0.000000
# 3 -0.003263 -0.002434 0.015385 0.000000 -0.003229 0.000000
# 4 0.000000 0.000000 0.000000 0.037003 0.000000 0.006392
# 5 0.001669 -0.000900 -0.003229 0.000000 0.026291 0.000000
# 6 0.000000 0.000000 0.000000 0.006392 0.000000 0.037777
#
#
# Mechanical properties :
#
#
# Convention : Reuss Voigt Hill
#
# Bulk Modulus (GPa) = 36.45647 57.28225 46.86936
# Shear Modulus (GPa) = 27.06486 32.35317 29.70901
#
# Velocity S-wave (km/s) = 3.51010 3.83774 3.67757
# Velocity P-wave (km/s) = 5.74665 6.76124 6.27449
#
# Compressibility (1/GPa) = 0.02742997
#
# Stress axis : x y z
#
# Youngs Moduli (GPa) = 127.88127 36.00518 64.99792
#
# Poissons Ratio (x) = 0.21882 0.21208
# Poissons Ratio (y) = 0.77720 0.15821
# Poissons Ratio (z) = 0.41725 0.08764
#
# Static dielectric constant tensor:
#      x y z
#    x 3.996850 0.000000 -0.047320 
#    y 0.000000 3.578050 0.000000 
#    z -0.047320 0.000000 3.896110 
# 
# 
# High freq. dielectric constant tensor:
#      x y z
#    x 1.879230 0.000000 -0.005660 
#    y 0.000000 1.838530 0.000000 
#    z -0.005660 0.000000 1.862210 
# 
# From -- ./inp_files/17714.got.cif
#   From: 2010.06.25/outbox.cif.g09.slc.cpg/sg9_9_cif.got.tgz:17714.got - 2010.06.27 21:40:51.
