data_PCOD8054251
_publ_section_title
;
Structure prediction by ZEFSAII (Michael W. Deem and Ramdas Pophale) SiO2 
 PCOD8054251
Probable space group: C C
;
_chemical_formula_sum "Si O2"
_cell_formula_units_Z 32
_cell_length_a 8.187487
_cell_length_b 17.247833
_cell_length_c 11.941285
_cell_angle_alpha 90.000000
_cell_angle_beta 67.217173
_cell_angle_gamma 90.000000
_cell_volume 1554.738584
_symmetry_space_group_name_H-M "C C"
_symmetry_group_IT_number 9
_symmetry_cell_setting 'monoclinic'
loop_
_space_group_symop_operation_xyz
x,y,z
x,-y,1/2+z
1/2+x,1/2+y,z
1/2+x,1/2-y,1/2+z
loop_
_atom_site_type_symbol
_atom_site_label
_atom_site_fract_x
_atom_site_fract_y
_atom_site_fract_z
Si Si1 0.248910 0.214466 0.778310
Si Si2 0.522312 0.188495 0.094886
Si Si3 0.420217 0.621649 0.229347
Si Si4 0.853419 0.952064 0.286408
Si Si5 0.213323 0.167460 0.324062
Si Si6 0.053949 0.663937 0.849959
Si Si7 0.423314 0.640877 0.980843
Si Si8 0.116340 0.851046 0.092548
O O1 0.286980 0.305944 0.775820
O O2 0.406597 0.167599 0.794702
O O3 0.250976 0.181086 0.651824
O O4 0.058543 0.201703 0.887810
O O5 0.411680 0.151326 0.225835
O O6 0.478135 0.280798 0.105214
O O7 0.457957 0.150522 0.995394
O O8 0.732794 0.179141 0.054783
O O9 0.314637 0.542976 0.285082
O O10 0.577825 0.625674 0.276630
O O11 0.498812 0.616099 0.082036
O O12 0.679438 0.908086 0.288735
O O13 0.898820 0.931856 0.403752
O O14 0.016692 0.927297 0.163154
O O15 0.173279 0.259138 0.334652
O O16 0.210847 0.130156 0.448943
#
# Coordination Sequence:
#
# PCOD8054251 Si02
#       8
#     4   4   4   4   4   4   4   4
#     4  10  21  40  65  94 119 167 223 261 313 379
#     4  10  18  36  64  86 119 165 216 259 303 372
#     4  11  23  39  66  99 126 167 209 272 321 381
#     4  10  22  40  63  92 131 167 199 263 338 374
#     4  10  21  36  61  96 120 167 223 254 310 386
#     4   9  19  37  62  90 123 164 209 264 311 381
#     4  10  22  40  66  85 128 170 211 262 312 383
#     4  10  20  36  61  90 124 169 208 261 316 382
#
# _framework density 20.582238
#
# number of rings (size 3 to 8) (size 9 to 14) (size 15 to 20)
#    0.000    2.000    2.500    0.750    3.500    0.000 
#    0.000    2.500   13.750    0.000    0.000    0.000 
#    0.000    0.000    0.000    0.000    0.000    0.000 
#
# Total GULP energy -198302.204188 kJ/mol
# GULP energy per Si atom -12393.887762 kJ/mol
# Density = 2.053539 g / cm^3
# Si number density = 20.582238 Si / 1000 Ang^3
#
#
#
# Elastic Constant Matrix: (Units=GPa)
#
#
# Indices 1 2 3 4 5 6 
#
# 1 116.5517 46.6967 76.8805 0.0000 10.0247 0.0000
# 2 46.6967 103.7708 41.9454 0.0000 2.8395 0.0000
# 3 76.8805 41.9454 171.1480 0.0000 13.6279 0.0000
# 4 0.0000 0.0000 0.0000 18.5979 0.0000 -0.0590
# 5 10.0247 2.8395 13.6279 0.0000 36.0729 0.0000
# 6 0.0000 0.0000 0.0000 -0.0590 0.0000 22.2066
#
#
#
# Elastic Compliance Matrix: (Units=1/GPa)
#
#
# Indices 1 2 3 4 5 6 
#
# 1 0.013652 -0.004076 -0.005008 0.000000 -0.001581 0.000000
# 2 -0.004076 0.011914 -0.001139 0.000000 0.000625 0.000000
# 3 -0.005008 -0.001139 0.008510 0.000000 -0.001733 0.000000
# 4 0.000000 0.000000 0.000000 0.053770 0.000000 0.000143
# 5 -0.001581 0.000625 -0.001733 0.000000 0.028767 0.000000
# 6 0.000000 0.000000 0.000000 0.000143 0.000000 0.045032
#
#
# Mechanical properties :
#
#
# Convention : Reuss Voigt Hill
#
# Bulk Modulus (GPa) = 73.36367 80.27953 76.82160
# Shear Modulus (GPa) = 26.79050 30.43865 28.61457
#
# Velocity S-wave (km/s) = 3.61173 3.84979 3.73266
# Velocity P-wave (km/s) = 7.28796 7.67139 7.48213
#
# Compressibility (1/GPa) = 0.01363072
#
# Stress axis : x y z
#
# Youngs Moduli (GPa) = 73.24823 83.93486 117.51531
#
# Poissons Ratio (x) = 0.34212 0.58849
# Poissons Ratio (y) = 0.29856 0.13382
# Poissons Ratio (z) = 0.36681 0.09558
#
# Static dielectric constant tensor:
#      x y z
#    x 3.636340 0.000000 0.274170 
#    y 0.000000 3.394780 0.000000 
#    z 0.274170 0.000000 4.100720 
# 
# 
# High freq. dielectric constant tensor:
#      x y z
#    x 1.795240 0.000000 0.016940 
#    y 0.000000 1.771940 0.000000 
#    z 0.016940 0.000000 1.821630 
# 
# From -- ./inp_files/14811.got.cif
#   From: 2010.06.25/outbox.cif.g09.slc.cpg/sg9_8_cif.got.tgz:14811.got - 2010.06.27 21:40:51.
