data_PCOD8054986
_publ_section_title
;
Structure prediction by ZEFSAII (Michael W. Deem and Ramdas Pophale) SiO2 
 PCOD8054986
Probable space group: C C
;
_chemical_formula_sum "Si O2"
_cell_formula_units_Z 32
_cell_length_a 5.237375
_cell_length_b 25.211086
_cell_length_c 11.734609
_cell_angle_alpha 90.000000
_cell_angle_beta 60.684738
_cell_angle_gamma 90.000000
_cell_volume 1351.014136
_symmetry_space_group_name_H-M "C C"
_symmetry_group_IT_number 9
_symmetry_cell_setting 'monoclinic'
loop_
_space_group_symop_operation_xyz
x,y,z
x,-y,1/2+z
1/2+x,1/2+y,z
1/2+x,1/2-y,1/2+z
loop_
_atom_site_type_symbol
_atom_site_label
_atom_site_fract_x
_atom_site_fract_y
_atom_site_fract_z
Si Si1 0.731670 0.411795 0.303970
Si Si2 0.185081 0.250430 0.459868
Si Si3 0.215989 0.713003 0.196026
Si Si4 0.902054 0.826780 0.876749
Si Si5 0.688736 0.528402 0.389909
Si Si6 0.054170 0.576910 0.502495
Si Si7 0.444505 0.108293 0.188463
Si Si8 0.594372 0.132214 0.919436
O O1 0.679999 0.465164 0.386377
O O2 0.430169 0.385146 0.327658
O O3 0.945063 0.422486 0.154125
O O4 0.903544 0.371746 0.348170
O O5 0.419941 0.237144 0.311650
O O6 0.052584 0.307659 0.467685
O O7 0.302543 0.250413 0.566738
O O8 0.931177 0.207011 0.488485
O O9 0.201387 0.650513 0.162182
O O10 0.429698 0.712296 0.259170
O O11 0.154661 0.869137 0.809413
O O12 0.601799 0.861764 0.947673
O O13 0.359712 0.545707 0.430756
O O14 0.946422 0.550476 0.247709
O O15 0.794952 0.548003 0.490281
O O16 0.446664 0.097654 0.052896
#
# Coordination Sequence:
#
# PCOD8054986 Si02
#       8
#     4   4   4   4   4   4   4   4
#     4  12  28  44  70 103 145 182 234 289 365 410
#     4  10  25  40  67 101 140 184 245 288 364 424
#     4  10  21  41  66  99 134 184 236 288 361 421
#     4  10  22  43  72  99 136 191 231 301 348 431
#     4  11  24  44  73 100 134 189 226 296 342 430
#     4  11  25  47  72 105 142 177 243 286 361 424
#     4   9  22  43  67  97 133 174 238 277 346 426
#     4  11  27  46  65 104 140 185 227 297 345 426
#
# _framework density 23.685908000000001
#
# number of rings (size 3 to 8) (size 9 to 14) (size 15 to 20)
#    0.000    1.500    1.250    1.500   10.500    3.000 
#    0.000    0.000    0.000    0.000    0.000    0.000 
#    0.000    0.000    0.000    0.000    0.000    0.000 
#
# Total GULP energy -198238.686091 kJ/mol
# GULP energy per Si atom -12389.917881 kJ/mol
# Density = 2.363200 g / cm^3
# Si number density = 23.685908 Si / 1000 Ang^3
#
#
#
# Elastic Constant Matrix: (Units=GPa)
#
#
# Indices 1 2 3 4 5 6 
#
# 1 75.3663 23.2031 1.4219 0.0000 15.0629 0.0000
# 2 23.2031 57.0755 9.5049 0.0000 2.4975 0.0000
# 3 1.4219 9.5049 92.6959 0.0000 17.1779 0.0000
# 4 0.0000 0.0000 0.0000 23.2669 0.0000 6.8908
# 5 15.0629 2.4975 17.1779 0.0000 33.8428 0.0000
# 6 0.0000 0.0000 0.0000 6.8908 0.0000 17.6871
#
#
#
# Elastic Compliance Matrix: (Units=1/GPa)
#
#
# Indices 1 2 3 4 5 6 
#
# 1 0.016946 -0.006860 0.001929 0.000000 -0.008015 0.000000
# 2 -0.006860 0.020607 -0.002530 0.000000 0.002816 0.000000
# 3 0.001929 -0.002530 0.012299 0.000000 -0.006915 0.000000
# 4 0.000000 0.000000 0.000000 0.048585 0.000000 -0.018929
# 5 -0.008015 0.002816 -0.006915 0.000000 0.036418 0.000000
# 6 0.000000 0.000000 0.000000 -0.018929 0.000000 0.063913
#
#
# Mechanical properties :
#
#
# Convention : Reuss Voigt Hill
#
# Bulk Modulus (GPa) = 28.62761 32.59972 30.61367
# Shear Modulus (GPa) = 22.18937 27.69322 24.94129
#
# Velocity S-wave (km/s) = 3.06407 3.42304 3.24852
# Velocity P-wave (km/s) = 4.96292 5.42367 5.19840
#
# Compressibility (1/GPa) = 0.03493132
#
# Stress axis : x y z
#
# Youngs Moduli (GPa) = 59.01118 48.52640 81.30640
#
# Poissons Ratio (x) = 0.33287 -0.15682
# Poissons Ratio (y) = 0.40479 0.20568
# Poissons Ratio (z) = -0.11382 0.12276
#
# Static dielectric constant tensor:
#      x y z
#    x 4.185570 0.000000 0.225920 
#    y 0.000000 4.471520 0.000000 
#    z 0.225920 0.000000 4.332510 
# 
# 
# High freq. dielectric constant tensor:
#      x y z
#    x 1.928990 0.000000 0.012030 
#    y 0.000000 1.936720 0.000000 
#    z 0.012030 0.000000 1.941990 
# 
# From -- ./inp_files/13728.got.cif
#   From: 2010.06.25/outbox.cif.g09.slc.cpg/sg9_7_cif.got.tgz:13728.got - 2010.06.27 21:40:51.
