data_PCOD8054476
_publ_section_title
;
Structure prediction by ZEFSAII (Michael W. Deem and Ramdas Pophale) SiO2 
 PCOD8054476
Probable space group: C C
;
_chemical_formula_sum "Si O2"
_cell_formula_units_Z 20
_cell_length_a 12.406114
_cell_length_b 7.162593
_cell_length_c 28.364699
_cell_angle_alpha 90.000000
_cell_angle_beta 28.978063
_cell_angle_gamma 90.000000
_cell_volume 1221.111547
_symmetry_space_group_name_H-M "C C"
_symmetry_group_IT_number 9
_symmetry_cell_setting 'monoclinic'
loop_
_space_group_symop_operation_xyz
x,y,z
x,-y,1/2+z
1/2+x,1/2+y,z
1/2+x,1/2-y,1/2+z
loop_
_atom_site_type_symbol
_atom_site_label
_atom_site_fract_x
_atom_site_fract_y
_atom_site_fract_z
Si Si1 0.315660 0.793320 0.027900
Si Si2 0.987689 0.999977 0.393006
Si Si3 0.946848 0.499929 0.663413
Si Si4 0.314421 0.206769 0.028510
Si Si5 0.521728 0.999926 0.528220
O O1 0.445927 0.815608 0.027961
O O2 0.086406 0.683320 0.124257
O O3 0.260987 0.000036 0.028202
O O4 0.472340 0.684061 0.931293
O O5 0.970623 0.183248 0.432150
O O6 0.787778 0.999505 0.431744
O O7 0.217268 0.001237 0.278210
O O8 0.084645 0.683993 0.625109
O O9 0.901824 0.500326 0.624705
O O10 0.444894 0.184516 0.028469
#
# Coordination Sequence:
#
# PCOD8054476 Si02
#       5
#     4   4   4   4   4
#     4   8  18  38  54  68 110 140 160 206 266 300
#     4  10  20  34  55  80 100 130 179 214 241 302
#     4  10  20  34  55  80 100 130 179 214 241 302
#     4   8  18  38  54  68 110 140 160 206 266 300
#     4   8  18  38  54  68 110 140 160 206 266 300
#
# _framework density 16.378520999999999
#
# number of rings (size 3 to 8) (size 9 to 14) (size 15 to 20)
#    1.200    2.400    0.000    0.000    0.000    4.800 
#   28.800    0.000    0.000    0.000    0.000    0.000 
#    0.000    0.000    0.000    0.000    0.000    0.000 
#
# Total GULP energy -123899.715461 kJ/mol
# GULP energy per Si atom -12389.971546 kJ/mol
# Density = 1.634124 g / cm^3
# Si number density = 16.378521 Si / 1000 Ang^3
#
#
#
# Elastic Constant Matrix: (Units=GPa)
#
#
# Indices 1 2 3 4 5 6 
#
# 1 143.5241 58.2235 65.7993 0.0069 1.3288 0.0023
# 2 58.2235 143.5442 65.5659 0.0378 -0.1519 -0.0034
# 3 65.7993 65.5659 192.6260 0.0868 -2.4422 -0.0294
# 4 0.0069 0.0378 0.0868 10.2123 0.0183 0.7635
# 5 1.3288 -0.1519 -2.4422 0.0183 10.2844 0.0191
# 6 0.0023 -0.0034 -0.0294 0.7635 0.0191 42.6581
#
#
#
# Elastic Compliance Matrix: (Units=1/GPa)
#
#
# Indices 1 2 3 4 5 6 
#
# 1 0.009084 -0.002675 -0.002215 0.000026 -0.001739 -0.000002
# 2 -0.002675 0.009040 -0.002164 -0.000013 -0.000035 0.000000
# 3 -0.002215 -0.002164 0.006708 -0.000051 0.001847 0.000005
# 4 0.000026 -0.000013 -0.000051 0.098054 -0.000187 -0.001755
# 5 -0.001739 -0.000035 0.001847 -0.000187 0.097898 -0.000039
# 6 -0.000002 0.000000 0.000005 -0.001755 -0.000039 0.023474
#
#
# Mechanical properties :
#
#
# Convention : Reuss Voigt Hill
#
# Bulk Modulus (GPa) = 93.23804 95.43019 94.33412
# Shear Modulus (GPa) = 19.08850 31.97132 25.52991
#
# Velocity S-wave (km/s) = 3.41759 4.42297 3.95238
# Velocity P-wave (km/s) = 8.52196 9.19105 8.86282
#
# Compressibility (1/GPa) = 0.01072524
#
# Stress axis : x y z
#
# Youngs Moduli (GPa) = 110.08382 110.62293 149.08026
#
# Poissons Ratio (x) = 0.29590 0.33015
# Poissons Ratio (y) = 0.29446 0.32256
# Poissons Ratio (z) = 0.24379 0.23935
#
# Static dielectric constant tensor:
#      x y z
#    x 3.074020 0.000000 0.006430 
#    y 0.000000 3.074190 0.000000 
#    z 0.006430 0.000000 2.803090 
# 
# 
# High freq. dielectric constant tensor:
#      x y z
#    x 1.632510 0.000000 0.000400 
#    y 0.000000 1.632530 0.000000 
#    z 0.000400 0.000000 1.615790 
# 
# From -- ./inp_files/18863.got.cif
#   From: 2010.06.25/outbox.cif.g09.slc.cpg/sg9_10_cif.got.tgz:18863.got - 2010.06.27 21:40:51.
