data_PCOD8054429
_publ_section_title
;
Structure prediction by ZEFSAII (Michael W. Deem and Ramdas Pophale) SiO2 
 PCOD8054429
Probable space group: C C
;
_chemical_formula_sum "Si O2"
_cell_formula_units_Z 32
_cell_length_a 16.280813
_cell_length_b 9.545956
_cell_length_c 10.854116
_cell_angle_alpha 90.000000
_cell_angle_beta 116.678753
_cell_angle_gamma 90.000000
_cell_volume 1507.311374
_symmetry_space_group_name_H-M "C C"
_symmetry_group_IT_number 9
_symmetry_cell_setting 'monoclinic'
loop_
_space_group_symop_operation_xyz
x,y,z
x,-y,1/2+z
1/2+x,1/2+y,z
1/2+x,1/2-y,1/2+z
loop_
_atom_site_type_symbol
_atom_site_label
_atom_site_fract_x
_atom_site_fract_y
_atom_site_fract_z
Si Si1 0.748160 0.508045 0.498930
Si Si2 0.498968 0.999585 0.457387
Si Si3 0.724614 0.779435 0.334655
Si Si4 0.709180 0.312993 0.277503
Si Si5 0.924000 0.218505 0.005713
Si Si6 0.613681 0.572493 0.098901
Si Si7 0.869884 0.323915 0.225325
Si Si8 0.607275 0.952617 0.782191
O O1 0.730841 0.668584 0.448786
O O2 0.777593 0.403460 0.410904
O O3 0.651580 0.450032 0.487212
O O4 0.833496 0.522595 0.651108
O O5 0.436456 0.125517 0.463141
O O6 0.546002 0.054626 0.363165
O O7 0.443702 0.859506 0.380894
O O8 0.561695 0.956980 0.615752
O O9 0.829123 0.832779 0.377473
O O10 0.672019 0.705470 0.186843
O O11 0.668714 0.911587 0.343132
O O12 0.631592 0.425611 0.181805
O O13 0.777475 0.251247 0.218926
O O14 0.666026 0.188009 0.324724
O O15 0.915535 0.227815 0.149768
O O16 0.005739 0.110872 0.027512
#
# Coordination Sequence:
#
# PCOD8054429 Si02
#       8
#     4   4   4   4   4   4   4   4
#     4   9  19  38  69  90 127 174 220 268 323 393
#     4  12  23  43  68  98 133 174 225 264 334 396
#     4  10  22  42  66  94 132 174 216 270 337 382
#     4  10  23  40  64  95 131 171 225 266 331 395
#     4  11  21  40  68  98 131 178 219 274 330 391
#     4  10  19  40  63  95 128 174 220 270 326 397
#     4  10  20  40  65  99 128 174 223 269 328 397
#     4  12  27  43  67  99 136 175 212 283 335 387
#
# _framework density 21.229852999999999
#
# number of rings (size 3 to 8) (size 9 to 14) (size 15 to 20)
#    0.000    1.500    2.500    3.750    5.250    0.000 
#    2.250    1.250    0.000    0.000    0.000    0.000 
#    0.000    0.000    0.000    0.000    0.000    0.000 
#
# Total GULP energy -198213.464373 kJ/mol
# GULP energy per Si atom -12388.341523 kJ/mol
# Density = 2.118153 g / cm^3
# Si number density = 21.229853 Si / 1000 Ang^3
#
#
#
# Elastic Constant Matrix: (Units=GPa)
#
#
# Indices 1 2 3 4 5 6 
#
# 1 106.2998 10.8341 22.3354 0.0000 3.1783 0.0000
# 2 10.8341 67.5165 3.0056 0.0000 1.5935 0.0000
# 3 22.3354 3.0056 81.6927 0.0000 -1.2139 0.0000
# 4 0.0000 0.0000 0.0000 7.6318 0.0000 -7.9391
# 5 3.1783 1.5935 -1.2139 0.0000 33.7336 0.0000
# 6 0.0000 0.0000 0.0000 -7.9391 0.0000 24.1329
#
#
#
# Elastic Compliance Matrix: (Units=1/GPa)
#
#
# Indices 1 2 3 4 5 6 
#
# 1 0.010164 -0.001486 -0.002739 0.000000 -0.000986 0.000000
# 2 -0.001486 0.015070 -0.000157 0.000000 -0.000578 0.000000
# 3 -0.002739 -0.000157 0.013006 0.000000 0.000733 0.000000
# 4 0.000000 0.000000 0.000000 0.199204 0.000000 0.065533
# 5 -0.000986 -0.000578 0.000733 0.000000 0.029791 0.000000
# 6 0.000000 0.000000 0.000000 0.065533 0.000000 0.062996
#
#
# Mechanical properties :
#
#
# Convention : Reuss Voigt Hill
#
# Bulk Modulus (GPa) = 33.92400 36.42879 35.17640
# Shear Modulus (GPa) = 14.33405 27.72190 21.02798
#
# Velocity S-wave (km/s) = 2.60125 3.61750 3.15062
# Velocity P-wave (km/s) = 5.00361 5.88599 5.46265
#
# Compressibility (1/GPa) = 0.02947766
#
# Stress axis : x y z
#
# Youngs Moduli (GPa) = 98.38903 66.35601 76.88474
#
# Poissons Ratio (x) = 0.09859 0.21057
# Poissons Ratio (y) = 0.14618 0.01206
# Poissons Ratio (z) = 0.26947 0.01041
#
# Static dielectric constant tensor:
#      x y z
#    x 3.989250 0.000000 -0.021310 
#    y 0.000000 3.585300 0.000000 
#    z -0.021310 0.000000 4.038200 
# 
# 
# High freq. dielectric constant tensor:
#      x y z
#    x 1.842470 0.000000 -0.008520 
#    y 0.000000 1.807240 0.000000 
#    z -0.008520 0.000000 1.834690 
# 
# From -- ./inp_files/19158.got.cif
#   From: 2010.06.25/outbox.cif.g09.slc.cpg/sg9_10_cif.got.tgz:19158.got - 2010.06.27 21:40:51.
