data_PCOD8054772
_publ_section_title
;
Structure prediction by ZEFSAII (Michael W. Deem and Ramdas Pophale) SiO2 
 PCOD8054772
Probable space group: C C
;
_chemical_formula_sum "Si O2"
_cell_formula_units_Z 24
_cell_length_a 12.178511
_cell_length_b 21.496181
_cell_length_c 5.581559
_cell_angle_alpha 90.000000
_cell_angle_beta 131.062932
_cell_angle_gamma 90.000000
_cell_volume 1101.731487
_symmetry_space_group_name_H-M "C C"
_symmetry_group_IT_number 9
_symmetry_cell_setting 'monoclinic'
loop_
_space_group_symop_operation_xyz
x,y,z
x,-y,1/2+z
1/2+x,1/2+y,z
1/2+x,1/2-y,1/2+z
loop_
_atom_site_type_symbol
_atom_site_label
_atom_site_fract_x
_atom_site_fract_y
_atom_site_fract_z
Si Si1 0.036290 0.231479 0.713800
Si Si2 0.566072 0.842707 0.444385
Si Si3 0.342174 0.780879 0.819516
Si Si4 0.358228 0.655090 0.114276
Si Si5 0.606270 0.972320 0.679537
Si Si6 0.432587 0.519373 0.124275
O O1 0.111126 0.276622 0.624725
O O2 0.926796 0.279495 0.688814
O O3 0.950421 0.172646 0.483639
O O4 0.170345 0.204295 0.061084
O O5 0.689996 0.858775 0.428945
O O6 0.562156 0.899532 0.626106
O O7 0.410272 0.833408 0.089906
O O8 0.371915 0.711010 0.950011
O O9 0.419635 0.593383 0.079963
O O10 0.540351 0.999448 0.332917
O O11 0.779848 0.982060 0.921911
O O12 0.513864 0.503510 0.495408
#
# Coordination Sequence:
#
# PCOD8054772 Si02
#       6
#     4   4   4   4   4   4
#     4  11  24  38  62  88 128 170 204 265 318 377
#     4  11  22  37  60  94 125 161 217 262 315 380
#     4  11  24  38  62  88 128 170 204 265 318 377
#     4  11  22  37  60  94 125 161 217 262 315 380
#     4  10  21  34  60  95 122 162 210 270 313 362
#     4  10  21  34  60  95 122 162 210 270 313 362
#
# _framework density 21.78389
#
# number of rings (size 3 to 8) (size 9 to 14) (size 15 to 20)
#    0.000    1.333    6.667    0.000    9.333    0.000 
#    0.000    0.000    0.000    2.000    0.000    0.000 
#    0.000    0.000    0.000    0.000    0.000    0.000 
#
# Total GULP energy -148729.720416 kJ/mol
# GULP energy per Si atom -12394.143368 kJ/mol
# Density = 2.173431 g / cm^3
# Si number density = 21.783890 Si / 1000 Ang^3
#
#
#
# Elastic Constant Matrix: (Units=GPa)
#
#
# Indices 1 2 3 4 5 6 
#
# 1 43.6041 -0.5421 25.4888 0.0000 -11.7001 0.0000
# 2 -0.5421 88.9471 31.5836 0.0000 0.0299 0.0000
# 3 25.4888 31.5836 113.1207 0.0000 -5.7335 0.0000
# 4 0.0000 0.0000 0.0000 35.8321 0.0000 -2.2460
# 5 -11.7001 0.0299 -5.7335 0.0000 43.6671 0.0000
# 6 0.0000 0.0000 0.0000 -2.2460 0.0000 16.3095
#
#
#
# Elastic Compliance Matrix: (Units=1/GPa)
#
#
# Indices 1 2 3 4 5 6 
#
# 1 0.028815 0.002615 -0.006878 0.000000 0.006816 0.000000
# 2 0.002615 0.012727 -0.004135 0.000000 0.000149 0.000000
# 3 -0.006878 -0.004135 0.011528 0.000000 -0.000326 0.000000
# 4 0.000000 0.000000 0.000000 0.028151 0.000000 0.003877
# 5 0.006816 0.000149 -0.000326 0.000000 0.024684 0.000000
# 6 0.000000 0.000000 0.000000 0.003877 0.000000 0.061848
#
#
# Mechanical properties :
#
#
# Convention : Reuss Voigt Hill
#
# Bulk Modulus (GPa) = 27.56690 39.85919 33.71304
# Shear Modulus (GPa) = 25.42733 31.77117 28.59925
#
# Velocity S-wave (km/s) = 3.42022 3.82314 3.62728
# Velocity P-wave (km/s) = 5.31783 6.15027 5.74914
#
# Compressibility (1/GPa) = 0.03627539
#
# Stress axis : x y z
#
# Youngs Moduli (GPa) = 34.70382 78.57413 86.74691
#
# Poissons Ratio (x) = -0.20550 0.59661
# Poissons Ratio (y) = -0.09076 0.35871
# Poissons Ratio (z) = 0.23868 0.32491
#
# Static dielectric constant tensor:
#      x y z
#    x 3.733040 0.000000 -0.470640 
#    y 0.000000 3.896710 0.000000 
#    z -0.470640 0.000000 4.261730 
# 
# 
# High freq. dielectric constant tensor:
#      x y z
#    x 1.820420 0.000000 -0.035200 
#    y 0.000000 1.850040 0.000000 
#    z -0.035200 0.000000 1.851910 
# 
# From -- ./inp_files/607.got.cif
#   From: 2010.06.25/outbox.cif.g09.slc.cpg/sg9_1_cif.got.tgz:607.got - 2010.06.27 21:40:51.
