data_PCOD8054384
_publ_section_title
;
Structure prediction by ZEFSAII (Michael W. Deem and Ramdas Pophale) SiO2 
 PCOD8054384
Probable space group: C C
;
_chemical_formula_sum "Si O2"
_cell_formula_units_Z 32
_cell_length_a 22.255919
_cell_length_b 11.859524
_cell_length_c 16.585562
_cell_angle_alpha 90.000000
_cell_angle_beta 20.602166
_cell_angle_gamma 90.000000
_cell_volume 1540.401405
_symmetry_space_group_name_H-M "C C"
_symmetry_group_IT_number 9
_symmetry_cell_setting 'monoclinic'
loop_
_space_group_symop_operation_xyz
x,y,z
x,-y,1/2+z
1/2+x,1/2+y,z
1/2+x,1/2-y,1/2+z
loop_
_atom_site_type_symbol
_atom_site_label
_atom_site_fract_x
_atom_site_fract_y
_atom_site_fract_z
Si Si1 0.836220 0.373271 0.671550
Si Si2 0.730674 0.601352 0.871132
Si Si3 0.894458 0.661476 0.365453
Si Si4 0.059553 0.174898 0.397921
Si Si5 0.538358 0.743969 0.987093
Si Si6 0.768492 0.199104 0.877261
Si Si7 0.609295 0.486709 0.689551
Si Si8 0.884060 0.176657 0.019269
O O1 0.842065 0.505245 0.685199
O O2 0.745072 0.346837 0.701465
O O3 0.728714 0.315602 0.879124
O O4 0.022048 0.310163 0.432984
O O5 0.589214 0.648749 0.987536
O O6 0.863937 0.696042 0.732629
O O7 0.627444 0.562762 0.078194
O O8 0.826212 0.762459 0.393811
O O9 0.784789 0.547813 0.495617
O O10 0.889686 0.706442 0.462714
O O11 0.092029 0.628701 0.098727
O O12 0.914093 0.129248 0.644471
O O13 0.053229 0.111185 0.321187
O O14 0.688926 0.838009 0.793296
O O15 0.514149 0.685073 0.930823
O O16 0.450705 0.573048 0.882619
#
# Coordination Sequence:
#
# PCOD8054384 Si02
#       8
#     4   4   4   4   4   4   4   4
#     4  10  20  40  66  90 128 172 215 263 331 389
#     4  11  24  45  68  94 132 180 215 275 326 399
#     4  12  19  37  64  97 127 169 224 288 314 383
#     4  10  23  38  63  98 127 167 212 277 324 399
#     4  10  24  43  68  90 135 176 222 262 339 404
#     4  10  19  37  64  91 131 166 215 272 327 382
#     4  12  24  37  66  98 133 170 223 277 333 373
#     4  11  21  41  65  96 129 172 230 276 322 391
#
# _framework density 20.773807000000001
#
# number of rings (size 3 to 8) (size 9 to 14) (size 15 to 20)
#    0.750    0.500    5.000    0.750    1.750    3.000 
#    0.000    0.000    0.000    0.000    0.000    0.000 
#    0.000    0.000    0.000    0.000    0.000    0.000 
#
# Total GULP energy -198294.610358 kJ/mol
# GULP energy per Si atom -12393.413147 kJ/mol
# Density = 2.072652 g / cm^3
# Si number density = 20.773807 Si / 1000 Ang^3
#
#
#
# Elastic Constant Matrix: (Units=GPa)
#
#
# Indices 1 2 3 4 5 6 
#
# 1 128.7622 47.3924 41.9570 0.0000 6.3921 0.0001
# 2 47.3924 87.8990 27.7805 -0.0001 13.0176 0.0001
# 3 41.9570 27.7805 69.6669 0.0001 5.6061 -0.0001
# 4 0.0000 -0.0001 0.0001 36.8290 0.0000 4.8136
# 5 6.3921 13.0176 5.6061 0.0000 27.3312 -0.0001
# 6 0.0001 0.0001 -0.0001 4.8136 -0.0001 35.7896
#
#
#
# Elastic Compliance Matrix: (Units=1/GPa)
#
#
# Indices 1 2 3 4 5 6 
#
# 1 0.010966 -0.004455 -0.004873 0.000000 0.000557 0.000000
# 2 -0.004455 0.015604 -0.003076 0.000000 -0.005759 0.000000
# 3 -0.004873 -0.003076 0.018613 0.000000 -0.001213 0.000000
# 4 0.000000 0.000000 0.000000 0.027638 0.000000 -0.003717
# 5 0.000557 -0.005759 -0.001213 0.000000 0.039450 0.000000
# 6 0.000000 0.000000 0.000000 -0.003717 0.000000 0.028441
#
#
# Mechanical properties :
#
#
# Convention : Reuss Voigt Hill
#
# Bulk Modulus (GPa) = 49.07794 57.84312 53.46053
# Shear Modulus (GPa) = 29.01740 31.26984 30.14362
#
# Velocity S-wave (km/s) = 3.74147 3.88397 3.81338
# Velocity P-wave (km/s) = 6.50700 6.92952 6.72158
#
# Compressibility (1/GPa) = 0.02037575
#
# Stress axis : x y z
#
# Youngs Moduli (GPa) = 91.19023 64.08745 53.72681
#
# Poissons Ratio (x) = 0.28551 0.26179
# Poissons Ratio (y) = 0.40625 0.16525
# Poissons Ratio (z) = 0.44434 0.19711
#
# Static dielectric constant tensor:
#      x y z
#    x 3.781300 0.000000 -0.047170 
#    y 0.000000 3.456770 0.000000 
#    z -0.047170 0.000000 3.679980 
# 
# 
# High freq. dielectric constant tensor:
#      x y z
#    x 1.823810 0.000000 -0.003130 
#    y 0.000000 1.779810 0.000000 
#    z -0.003130 0.000000 1.806120 
# 
# From -- ./inp_files/31608.got.cif
#   From: 2010.06.25/outbox.cif.g09.slc.cpg/sg9_16_cif.got.tgz:31608.got - 2010.06.27 21:40:51.
