data_PCOD8054903
_publ_section_title
;
Structure prediction by ZEFSAII (Michael W. Deem and Ramdas Pophale) SiO2 
 PCOD8054903
Probable space group: C C
;
_chemical_formula_sum "Si O2"
_cell_formula_units_Z 32
_cell_length_a 12.777164
_cell_length_b 4.959342
_cell_length_c 26.096133
_cell_angle_alpha 90.000000
_cell_angle_beta 65.367414
_cell_angle_gamma 90.000000
_cell_volume 1503.135703
_symmetry_space_group_name_H-M "C C"
_symmetry_group_IT_number 9
_symmetry_cell_setting 'monoclinic'
loop_
_space_group_symop_operation_xyz
x,y,z
x,-y,1/2+z
1/2+x,1/2+y,z
1/2+x,1/2-y,1/2+z
loop_
_atom_site_type_symbol
_atom_site_label
_atom_site_fract_x
_atom_site_fract_y
_atom_site_fract_z
Si Si1 0.655620 0.552316 0.212760
Si Si2 0.526646 0.797619 0.154753
Si Si3 0.620465 0.072342 0.037875
Si Si4 0.925448 0.716057 0.773542
Si Si5 0.580378 0.565294 0.982105
Si Si6 0.298839 0.447432 0.712598
Si Si7 0.871485 0.073373 0.952359
Si Si8 0.831087 0.432993 0.396347
O O1 0.535920 0.602091 0.269105
O O2 0.697557 0.248453 0.212717
O O3 0.629465 0.607825 0.157087
O O4 0.757579 0.748633 0.211773
O O5 0.475356 0.965927 0.215145
O O6 0.418748 0.613181 0.156827
O O7 0.573188 0.001328 0.103242
O O8 0.577405 0.370132 0.032217
O O9 0.758634 0.065060 0.011037
O O10 0.572927 0.868101 0.004531
O O11 0.823632 0.901133 0.768821
O O12 0.876091 0.533373 0.829173
O O13 0.475925 0.494571 0.966950
O O14 0.694994 0.509874 0.925703
O O15 0.894326 0.362190 0.921813
O O16 0.859829 0.867434 0.907980
#
# Coordination Sequence:
#
# PCOD8054903 Si02
#       8
#     4   4   4   4   4   4   4   4
#     4   9  20  36  53  79 112 148 183 220 273 331
#     4   8  22  37  58  86 117 148 185 232 280 339
#     4  10  21  40  56  88 113 147 188 237 276 336
#     4   8  22  37  58  86 117 148 185 232 280 339
#     4  10  22  38  62  81 114 148 193 232 283 326
#     4   9  20  36  53  79 112 148 183 220 273 331
#     4  10  22  38  62  81 114 148 193 232 283 326
#     4  10  21  40  56  88 113 147 188 237 276 336
#
# _framework density 21.288827999999999
#
# number of rings (size 3 to 8) (size 9 to 14) (size 15 to 20)
#    1.500    1.000    0.000    0.750    0.000   12.000 
#    0.000    0.000    0.000    0.000    0.000    0.000 
#    0.000    0.000    0.000    0.000    0.000    0.000 
#
# Total GULP energy -198227.160861 kJ/mol
# GULP energy per Si atom -12389.197554 kJ/mol
# Density = 2.124037 g / cm^3
# Si number density = 21.288828 Si / 1000 Ang^3
#
#
#
# Elastic Constant Matrix: (Units=GPa)
#
#
# Indices 1 2 3 4 5 6 
#
# 1 115.7912 8.7261 20.5481 -0.0007 15.6947 -0.0046
# 2 8.7261 50.1539 -0.7732 -0.0078 -5.1030 -0.0350
# 3 20.5481 -0.7732 98.2842 -0.0016 -13.1112 -0.0005
# 4 -0.0007 -0.0078 -0.0016 12.0405 0.0011 -1.5262
# 5 15.6947 -5.1030 -13.1112 0.0011 20.1576 0.0013
# 6 -0.0046 -0.0350 -0.0005 -1.5262 0.0013 16.3926
#
#
#
# Elastic Compliance Matrix: (Units=1/GPa)
#
#
# Indices 1 2 3 4 5 6 
#
# 1 0.011243 -0.003257 -0.004001 -0.000001 -0.012181 -0.000003
# 2 -0.003257 0.021488 0.002096 0.000019 0.009339 0.000046
# 3 -0.004001 0.002096 0.012608 0.000002 0.011846 0.000003
# 4 -0.000001 0.000019 0.000002 0.084045 0.000002 0.007825
# 5 -0.012181 0.009339 0.011846 0.000002 0.069162 0.000012
# 6 -0.000003 0.000046 0.000003 0.007825 0.000012 0.061732
#
#
# Mechanical properties :
#
#
# Convention : Reuss Voigt Hill
#
# Bulk Modulus (GPa) = 28.56008 35.69237 32.12623
# Shear Modulus (GPa) = 17.71332 25.43335 21.57334
#
# Velocity S-wave (km/s) = 2.88765 3.46017 3.18679
# Velocity P-wave (km/s) = 4.95608 5.72414 5.35390
#
# Compressibility (1/GPa) = 0.03501390
#
# Stress axis : x y z
#
# Youngs Moduli (GPa) = 88.94664 46.53780 79.31557
#
# Poissons Ratio (x) = 0.15158 0.31734
# Poissons Ratio (y) = 0.28971 -0.16623
# Poissons Ratio (z) = 0.35588 -0.09754
#
# Static dielectric constant tensor:
#      x y z
#    x 3.865890 0.000000 -0.043260 
#    y 0.000000 3.532770 0.000000 
#    z -0.043260 0.000000 3.465080 
# 
# 
# High freq. dielectric constant tensor:
#      x y z
#    x 1.843470 0.000000 0.001910 
#    y 0.000000 1.821490 0.000000 
#    z 0.001910 0.000000 1.809190 
# 
# From -- ./inp_files/35469.got.cif
#   From: 2010.06.25/outbox.cif.g09.slc.cpg/sg9_18_cif.got.tgz:35469.got - 2010.06.27 21:40:51.
