data_PCOD8054258
_publ_section_title
;
Structure prediction by ZEFSAII (Michael W. Deem and Ramdas Pophale) SiO2 
 PCOD8054258
Probable space group: C C
;
_chemical_formula_sum "Si O2"
_cell_formula_units_Z 28
_cell_length_a 15.447740
_cell_length_b 11.315242
_cell_length_c 9.592997
_cell_angle_alpha 90.000000
_cell_angle_beta 124.237234
_cell_angle_gamma 90.000000
_cell_volume 1386.241801
_symmetry_space_group_name_H-M "C C"
_symmetry_group_IT_number 9
_symmetry_cell_setting 'monoclinic'
loop_
_space_group_symop_operation_xyz
x,y,z
x,-y,1/2+z
1/2+x,1/2+y,z
1/2+x,1/2-y,1/2+z
loop_
_atom_site_type_symbol
_atom_site_label
_atom_site_fract_x
_atom_site_fract_y
_atom_site_fract_z
Si Si1 0.706290 0.567967 0.244830
Si Si2 0.153590 0.735166 0.521680
Si Si3 0.657087 0.863433 0.658582
Si Si4 0.336155 0.287116 0.000890
Si Si5 0.562843 0.639860 0.685279
Si Si6 0.074568 0.509491 0.346265
Si Si7 0.842364 0.524519 0.098630
O O1 0.660966 0.701521 0.178970
O O2 0.607546 0.478961 0.156524
O O3 0.787680 0.541403 0.196290
O O4 0.770932 0.565674 0.446009
O O5 0.264285 0.679193 0.569924
O O6 0.125882 0.839815 0.386301
O O7 0.068918 0.630444 0.435807
O O8 0.579852 0.751398 0.598909
O O9 0.624540 0.965017 0.740696
O O10 0.646140 0.914154 0.492807
O O11 0.774577 0.818646 0.801208
O O12 0.439017 0.368624 0.101208
O O13 0.360406 0.146853 0.029416
O O14 0.955664 0.464489 0.224710
#
# Coordination Sequence:
#
# PCOD8054258 Si02
#       7
#     4   4   4   4   4   4   4
#     4  11  20  36  57  92 113 152 196 249 284 353
#     4   9  20  36  58  82 120 150 199 235 291 356
#     4  10  20  36  58  82 113 148 201 236 282 356
#     4   9  17  36  58  80 109 162 188 221 294 361
#     4  10  18  37  58  83 115 160 187 237 296 360
#     4  10  20  37  57  85 108 155 194 242 285 344
#     4  11  19  34  64  84 112 151 203 236 288 346
#
# _framework density 20.198498000000001
#
# number of rings (size 3 to 8) (size 9 to 14) (size 15 to 20)
#    0.000    2.286    7.143    0.857    0.000    0.000 
#    7.714    0.000    0.000    0.000    0.000    0.000 
#    0.000    0.000    0.000    0.000    0.000    0.000 
#
# Total GULP energy -173510.213391 kJ/mol
# GULP energy per Si atom -12393.586671 kJ/mol
# Density = 2.015252 g / cm^3
# Si number density = 20.198498 Si / 1000 Ang^3
#
#
#
# Elastic Constant Matrix: (Units=GPa)
#
#
# Indices 1 2 3 4 5 6 
#
# 1 79.5811 7.0309 21.0529 0.0000 27.6309 0.0000
# 2 7.0309 43.9056 20.2192 0.0000 4.9526 0.0000
# 3 21.0529 20.2192 66.1922 0.0000 12.7569 0.0000
# 4 0.0000 0.0000 0.0000 42.6276 0.0000 -7.3776
# 5 27.6309 4.9526 12.7569 0.0000 26.0298 0.0000
# 6 0.0000 0.0000 0.0000 -7.3776 0.0000 19.5167
#
#
#
# Elastic Compliance Matrix: (Units=1/GPa)
#
#
# Indices 1 2 3 4 5 6 
#
# 1 0.020282 0.000245 -0.002614 0.000000 -0.020295 0.000000
# 2 0.000245 0.026541 -0.007909 0.000000 -0.001434 0.000000
# 3 -0.002614 -0.007909 0.019359 0.000000 -0.005207 0.000000
# 4 0.000000 0.000000 0.000000 0.025101 0.000000 0.009489
# 5 -0.020295 -0.001434 -0.005207 0.000000 0.062786 0.000000
# 6 0.000000 0.000000 0.000000 0.009489 0.000000 0.054825
#
#
# Mechanical properties :
#
#
# Convention : Reuss Voigt Hill
#
# Bulk Modulus (GPa) = 21.91743 31.80943 26.86343
# Shear Modulus (GPa) = 20.43664 27.05987 23.74825
#
# Velocity S-wave (km/s) = 3.18432 3.66416 3.43263
# Velocity P-wave (km/s) = 4.93907 5.80379 5.38880
#
# Compressibility (1/GPa) = 0.04562579
#
# Stress axis : x y z
#
# Youngs Moduli (GPa) = 49.30383 37.67791 51.65689
#
# Poissons Ratio (x) = -0.00924 0.13506
# Poissons Ratio (y) = -0.01210 0.40855
# Poissons Ratio (z) = 0.12890 0.29799
#
# Static dielectric constant tensor:
#      x y z
#    x 3.478330 0.000000 0.188360 
#    y 0.000000 3.512570 0.000000 
#    z 0.188360 0.000000 3.689830 
# 
# 
# High freq. dielectric constant tensor:
#      x y z
#    x 1.768780 0.000000 0.020290 
#    y 0.000000 1.761930 0.000000 
#    z 0.020290 0.000000 1.783710 
# 
# From -- ./inp_files/9303.got.cif
#   From: 2010.06.25/outbox.cif.g09.slc.cpg/sg9_5_cif.got.tgz:9303.got - 2010.06.27 21:40:51.
