data_PCOD8054354
_publ_section_title
;
Structure prediction by ZEFSAII (Michael W. Deem and Ramdas Pophale) SiO2 
 PCOD8054354
Probable space group: C C
;
_chemical_formula_sum "Si O2"
_cell_formula_units_Z 32
_cell_length_a 10.779186
_cell_length_b 8.765327
_cell_length_c 17.834318
_cell_angle_alpha 90.000000
_cell_angle_beta 109.645376
_cell_angle_gamma 90.000000
_cell_volume 1586.957726
_symmetry_space_group_name_H-M "C C"
_symmetry_group_IT_number 9
_symmetry_cell_setting 'monoclinic'
loop_
_space_group_symop_operation_xyz
x,y,z
x,-y,1/2+z
1/2+x,1/2+y,z
1/2+x,1/2-y,1/2+z
loop_
_atom_site_type_symbol
_atom_site_label
_atom_site_fract_x
_atom_site_fract_y
_atom_site_fract_z
Si Si1 0.527320 0.917363 0.367920
Si Si2 0.341761 0.677703 0.406603
Si Si3 0.246140 0.444563 0.184712
Si Si4 0.470736 0.639835 0.919094
Si Si5 0.587704 0.127583 0.257558
Si Si6 0.217705 0.780699 0.808423
Si Si7 0.034532 0.052405 0.772502
Si Si8 0.173541 0.642631 0.505564
O O1 0.408695 0.826855 0.383708
O O2 0.608088 0.793977 0.338166
O O3 0.484363 0.041781 0.294085
O O4 0.612617 0.996893 0.450203
O O5 0.433896 0.529322 0.438322
O O6 0.226894 0.620531 0.329017
O O7 0.288666 0.718225 0.478458
O O8 0.120855 0.544905 0.185714
O O9 0.239435 0.289834 0.230962
O O10 0.390431 0.524361 0.229475
O O11 0.234274 0.412526 0.095136
O O12 0.352825 0.762505 0.882147
O O13 0.553142 0.618953 0.859619
O O14 0.564801 0.724941 0.997918
O O15 0.540020 0.294561 0.222930
O O16 0.162356 0.950038 0.781700
#
# Coordination Sequence:
#
# PCOD8054354 Si02
#       8
#     4   4   4   4   4   4   4   4
#     4  10  19  36  62  87 113 153 200 247 294 356
#     4  11  20  37  62  88 117 153 202 251 294 357
#     4  10  23  41  55  85 131 158 192 251 304 359
#     4  11  20  37  59  92 118 148 206 250 293 360
#     4  10  20  37  60  89 112 152 206 244 300 358
#     4  10  20  39  64  90 112 158 208 249 291 355
#     4  11  20  37  65  87 114 153 203 254 301 349
#     4  11  24  38  57  90 127 161 191 250 309 354
#
# _framework density 20.164370000000002
#
# number of rings (size 3 to 8) (size 9 to 14) (size 15 to 20)
#    0.000    1.500    8.750    0.000    1.750    2.000 
#    0.000    0.000    0.000    0.000    0.000    0.000 
#    0.000    0.000    0.000    0.000    0.000    0.000 
#
# Total GULP energy -198225.895860 kJ/mol
# GULP energy per Si atom -12389.118491 kJ/mol
# Density = 2.011847 g / cm^3
# Si number density = 20.164370 Si / 1000 Ang^3
#
#
#
# Elastic Constant Matrix: (Units=GPa)
#
#
# Indices 1 2 3 4 5 6 
#
# 1 79.8883 43.4008 19.7119 0.0000 -13.5595 0.0000
# 2 43.4008 103.8156 8.3716 0.0000 1.3841 0.0000
# 3 19.7119 8.3716 57.3832 0.0000 -11.2701 0.0000
# 4 0.0000 0.0000 0.0000 15.4603 0.0000 2.7160
# 5 -13.5595 1.3841 -11.2701 0.0000 21.0413 0.0000
# 6 0.0000 0.0000 0.0000 2.7160 0.0000 40.6922
#
#
#
# Elastic Compliance Matrix: (Units=1/GPa)
#
#
# Indices 1 2 3 4 5 6 
#
# 1 0.019690 -0.008115 -0.003334 0.000000 0.011437 0.000000
# 2 -0.008115 0.013138 -0.000364 0.000000 -0.006289 0.000000
# 3 -0.003334 -0.000364 0.020348 0.000000 0.008775 0.000000
# 4 0.000000 0.000000 0.000000 0.065449 0.000000 -0.004368
# 5 0.011437 -0.006289 0.008775 0.000000 0.060009 0.000000
# 6 0.000000 0.000000 0.000000 -0.004368 0.000000 0.024866
#
#
# Mechanical properties :
#
#
# Convention : Reuss Voigt Hill
#
# Bulk Modulus (GPa) = 33.84033 42.67288 38.25660
# Shear Modulus (GPa) = 21.09903 26.74561 23.92232
#
# Velocity S-wave (km/s) = 3.23825 3.64590 3.44810
# Velocity P-wave (km/s) = 5.54980 6.23954 5.90475
#
# Compressibility (1/GPa) = 0.02955054
#
# Stress axis : x y z
#
# Youngs Moduli (GPa) = 50.78733 76.11345 49.14407
#
# Poissons Ratio (x) = 0.61767 0.16383
# Poissons Ratio (y) = 0.41215 0.01790
# Poissons Ratio (z) = 0.16931 0.02772
#
# Static dielectric constant tensor:
#      x y z
#    x 3.956110 0.000000 -0.099020 
#    y 0.000000 3.981360 0.000000 
#    z -0.099020 0.000000 3.173700 
# 
# 
# High freq. dielectric constant tensor:
#      x y z
#    x 1.801830 0.000000 -0.009440 
#    y 0.000000 1.791200 0.000000 
#    z -0.009440 0.000000 1.737850 
# 
# From -- ./inp_files/29796.got.cif
#   From: 2010.06.25/outbox.cif.g09.slc.cpg/sg9_15_cif.got.tgz:29796.got - 2010.06.27 21:40:51.
