data_PCOD8054327
_publ_section_title
;
Structure prediction by ZEFSAII (Michael W. Deem and Ramdas Pophale) SiO2 
 PCOD8054327
Probable space group: C C
;
_chemical_formula_sum "Si O2"
_cell_formula_units_Z 28
_cell_length_a 11.753549
_cell_length_b 8.283095
_cell_length_c 15.007778
_cell_angle_alpha 90.000000
_cell_angle_beta 70.146907
_cell_angle_gamma 90.000000
_cell_volume 1374.255729
_symmetry_space_group_name_H-M "C C"
_symmetry_group_IT_number 9
_symmetry_cell_setting 'monoclinic'
loop_
_space_group_symop_operation_xyz
x,y,z
x,-y,1/2+z
1/2+x,1/2+y,z
1/2+x,1/2-y,1/2+z
loop_
_atom_site_type_symbol
_atom_site_label
_atom_site_fract_x
_atom_site_fract_y
_atom_site_fract_z
Si Si1 0.011210 0.209910 0.392630
Si Si2 0.837213 0.427507 0.543621
Si Si3 0.687763 0.631011 0.776391
Si Si4 0.613601 0.663497 0.187319
Si Si5 0.401675 0.763163 0.116128
Si Si6 0.748702 0.386853 0.907165
Si Si7 0.438205 0.644969 0.912720
O O1 0.074803 0.268895 0.283628
O O2 0.113719 0.183370 0.438937
O O3 0.927889 0.349201 0.450428
O O4 0.934650 0.046548 0.393331
O O5 0.750164 0.296107 0.615730
O O6 0.908539 0.543003 0.594449
O O7 0.752196 0.537054 0.504131
O O8 0.624811 0.524703 0.714586
O O9 0.779744 0.762065 0.708863
O O10 0.765417 0.516292 0.822660
O O11 0.575982 0.712602 0.860300
O O12 0.517938 0.695392 0.135461
O O13 0.395328 0.666716 0.025739
O O14 0.848336 0.243789 0.871610
#
# Coordination Sequence:
#
# PCOD8054327 Si02
#       7
#     4   4   4   4   4   4   4
#     4  10  21  37  56  80 109 142 178 222 270 317
#     4  10  20  35  56  79 109 144 177 219 267 316
#     4   9  19  35  55  79 111 144 176 221 269 313
#     4   9  18  34  54  78 107 140 177 216 265 317
#     4  10  19  35  58  81 106 143 182 219 268 320
#     4   9  18  36  56  78 111 145 178 217 262 317
#     4   9  19  36  57  81 109 142 180 220 267 318
#
# _framework density 20.374665
#
# number of rings (size 3 to 8) (size 9 to 14) (size 15 to 20)
#    0.000    2.857    0.000    2.571    0.000    1.143 
#    0.000   34.286    0.000    0.000    0.000    0.000 
#    0.000    0.000    0.000    0.000    0.000    0.000 
#
# Total GULP energy -173435.674461 kJ/mol
# GULP energy per Si atom -12388.262461 kJ/mol
# Density = 2.032829 g / cm^3
# Si number density = 20.374665 Si / 1000 Ang^3
#
#
#
# Elastic Constant Matrix: (Units=GPa)
#
#
# Indices 1 2 3 4 5 6 
#
# 1 93.6569 34.9934 31.2689 0.0000 7.2326 0.0000
# 2 34.9934 40.8155 20.4368 0.0000 1.5593 0.0000
# 3 31.2689 20.4368 98.5062 0.0000 -0.3360 0.0000
# 4 0.0000 0.0000 0.0000 26.2469 0.0000 2.2623
# 5 7.2326 1.5593 -0.3360 0.0000 29.1352 0.0000
# 6 0.0000 0.0000 0.0000 2.2623 0.0000 33.5916
#
#
#
# Elastic Compliance Matrix: (Units=1/GPa)
#
#
# Indices 1 2 3 4 5 6 
#
# 1 0.016598 -0.012782 -0.002629 0.000000 -0.003467 0.000000
# 2 -0.012782 0.037252 -0.003667 0.000000 0.001137 0.000000
# 3 -0.002629 -0.003667 0.011750 0.000000 0.000984 0.000000
# 4 0.000000 0.000000 0.000000 0.038322 0.000000 -0.002581
# 5 -0.003467 0.001137 0.000984 0.000000 0.035134 0.000000
# 6 0.000000 0.000000 0.000000 -0.002581 0.000000 0.029943
#
#
# Mechanical properties :
#
#
# Convention : Reuss Voigt Hill
#
# Bulk Modulus (GPa) = 36.43719 45.15299 40.79509
# Shear Modulus (GPa) = 23.11556 27.54671 25.33113
#
# Velocity S-wave (km/s) = 3.37192 3.68096 3.52982
# Velocity P-wave (km/s) = 5.75172 6.34629 6.05630
#
# Compressibility (1/GPa) = 0.02744449
#
# Stress axis : x y z
#
# Youngs Moduli (GPa) = 60.24647 26.84415 85.10409
#
# Poissons Ratio (x) = 0.34312 0.22372
# Poissons Ratio (y) = 0.77007 0.31210
# Poissons Ratio (z) = 0.15838 0.09845
#
# Static dielectric constant tensor:
#      x y z
#    x 3.753380 0.000000 -0.156560 
#    y 0.000000 3.350030 0.000000 
#    z -0.156560 0.000000 4.068280 
# 
# 
# High freq. dielectric constant tensor:
#      x y z
#    x 1.790130 0.000000 -0.005700 
#    y 0.000000 1.751110 0.000000 
#    z -0.005700 0.000000 1.818830 
# 
# From -- ./inp_files/24125.got.cif
#   From: 2010.06.25/outbox.cif.g09.slc.cpg/sg9_13_cif.got.tgz:24125.got - 2010.06.27 21:40:51.
