data_PCOD8054960
_publ_section_title
;
Structure prediction by ZEFSAII (Michael W. Deem and Ramdas Pophale) SiO2 
 PCOD8054960
Probable space group: C C
;
_chemical_formula_sum "Si O2"
_cell_formula_units_Z 32
_cell_length_a 6.708860
_cell_length_b 18.711933
_cell_length_c 12.479075
_cell_angle_alpha 90.000000
_cell_angle_beta 75.710267
_cell_angle_gamma 90.000000
_cell_volume 1518.100190
_symmetry_space_group_name_H-M "C C"
_symmetry_group_IT_number 9
_symmetry_cell_setting 'monoclinic'
loop_
_space_group_symop_operation_xyz
x,y,z
x,-y,1/2+z
1/2+x,1/2+y,z
1/2+x,1/2-y,1/2+z
loop_
_atom_site_type_symbol
_atom_site_label
_atom_site_fract_x
_atom_site_fract_y
_atom_site_fract_z
Si Si1 0.646480 0.729785 0.321750
Si Si2 0.831121 0.018617 0.373600
Si Si3 0.465303 0.020240 0.770718
Si Si4 0.698565 0.586610 0.196257
Si Si5 0.757346 0.829768 0.954915
Si Si6 0.585680 0.720948 0.828512
Si Si7 0.111613 0.919468 0.457382
Si Si8 0.458750 0.170265 0.681310
O O1 0.707244 0.669515 0.227531
O O2 0.497260 0.695958 0.434799
O O3 0.526323 0.794876 0.283995
O O4 0.847177 0.766912 0.341185
O O5 0.736773 0.084855 0.452230
O O6 0.024203 0.044566 0.281281
O O7 0.675922 0.988172 0.306555
O O8 0.897274 0.957661 0.450450
O O9 0.293466 0.034610 0.882245
O O10 0.481089 0.085393 0.685126
O O11 0.412686 0.950685 0.704731
O O12 0.649514 0.579746 0.078277
O O13 0.677940 0.796813 0.853827
O O14 0.605697 0.800970 0.067680
O O15 0.610305 0.661837 0.917774
O O16 0.715649 0.694092 0.705272
#
# Coordination Sequence:
#
# PCOD8054960 Si02
#       8
#     4   4   4   4   4   4   4   4
#     4  10  21  41  61  88 125 165 210 269 320 381
#     4  10  22  39  59  90 126 164 209 265 314 384
#     4  10  22  39  59  90 126 164 209 265 314 384
#     4  10  22  39  61  90 126 165 215 264 319 387
#     4  10  22  38  60  90 122 159 212 262 313 387
#     4  10  21  41  61  88 125 165 210 269 320 381
#     4  10  22  39  61  90 126 165 215 264 319 387
#     4  10  22  38  60  90 122 159 212 262 313 387
#
# _framework density 21.078976999999998
#
# number of rings (size 3 to 8) (size 9 to 14) (size 15 to 20)
#    0.000    2.000    0.000    2.250    3.500    1.000 
#    0.000    2.500    0.000    0.000    0.000    0.000 
#    0.000    0.000    0.000    0.000    0.000    0.000 
#
# Total GULP energy -198323.189346 kJ/mol
# GULP energy per Si atom -12395.199334 kJ/mol
# Density = 2.103100 g / cm^3
# Si number density = 21.078977 Si / 1000 Ang^3
#
#
#
# Elastic Constant Matrix: (Units=GPa)
#
#
# Indices 1 2 3 4 5 6 
#
# 1 75.0464 17.2718 19.0412 0.0000 2.4360 0.0000
# 2 17.2718 83.6295 17.5498 0.0000 -2.2426 0.0000
# 3 19.0412 17.5498 99.6510 0.0000 -6.2903 0.0000
# 4 0.0000 0.0000 0.0000 18.5091 0.0000 1.6174
# 5 2.4360 -2.2426 -6.2903 0.0000 33.1540 0.0000
# 6 0.0000 0.0000 0.0000 1.6174 0.0000 37.0306
#
#
#
# Elastic Compliance Matrix: (Units=1/GPa)
#
#
# Indices 1 2 3 4 5 6 
#
# 1 0.014587 -0.002545 -0.002447 0.000000 -0.001708 0.000000
# 2 -0.002545 0.012866 -0.001734 0.000000 0.000728 0.000000
# 3 -0.002447 -0.001734 0.010943 0.000000 0.002139 0.000000
# 4 0.000000 0.000000 0.000000 0.054234 0.000000 -0.002369
# 5 -0.001708 0.000728 0.002139 0.000000 0.030743 0.000000
# 6 0.000000 0.000000 0.000000 -0.002369 0.000000 0.027108
#
#
# Mechanical properties :
#
#
# Convention : Reuss Voigt Hill
#
# Bulk Modulus (GPa) = 40.08765 40.67252 40.38008
# Shear Modulus (GPa) = 29.02789 31.36967 30.19878
#
# Velocity S-wave (km/s) = 3.71496 3.86190 3.78914
# Velocity P-wave (km/s) = 6.12048 6.26282 6.19206
#
# Compressibility (1/GPa) = 0.02494534
#
# Stress axis : x y z
#
# Youngs Moduli (GPa) = 68.55375 77.72145 91.38344
#
# Poissons Ratio (x) = 0.19780 0.22361
# Poissons Ratio (y) = 0.17447 0.15843
# Poissons Ratio (z) = 0.16774 0.13474
#
# Static dielectric constant tensor:
#      x y z
#    x 4.108920 0.000000 -0.156620 
#    y 0.000000 4.015280 0.000000 
#    z -0.156620 0.000000 3.496000 
# 
# 
# High freq. dielectric constant tensor:
#      x y z
#    x 1.833040 0.000000 -0.011200 
#    y 0.000000 1.840490 0.000000 
#    z -0.011200 0.000000 1.801480 
# 
# From -- ./inp_files/13340.got.cif
#   From: 2010.06.25/outbox.cif.g09.slc.cpg/sg9_7_cif.got.tgz:13340.got - 2010.06.27 21:40:51.
