data_PCOD8054211
_publ_section_title
;
Structure prediction by ZEFSAII (Michael W. Deem and Ramdas Pophale) SiO2 
 PCOD8054211
Probable space group: C C
;
_chemical_formula_sum "Si O2"
_cell_formula_units_Z 32
_cell_length_a 14.150556
_cell_length_b 19.355030
_cell_length_c 10.147833
_cell_angle_alpha 90.000000
_cell_angle_beta 142.462119
_cell_angle_gamma 90.000000
_cell_volume 1693.408501
_symmetry_space_group_name_H-M "C C"
_symmetry_group_IT_number 9
_symmetry_cell_setting 'monoclinic'
loop_
_space_group_symop_operation_xyz
x,y,z
x,-y,1/2+z
1/2+x,1/2+y,z
1/2+x,1/2-y,1/2+z
loop_
_atom_site_type_symbol
_atom_site_label
_atom_site_fract_x
_atom_site_fract_y
_atom_site_fract_z
Si Si1 0.508780 0.396532 0.359540
Si Si2 0.978816 0.846505 0.601758
Si Si3 0.255606 0.239029 0.301463
Si Si4 0.108859 0.031111 0.394046
Si Si5 0.779557 0.782603 0.029214
Si Si6 0.964493 0.654707 0.154884
Si Si7 0.308007 0.976614 0.370097
Si Si8 0.370136 0.111924 0.317564
O O1 0.450964 0.396629 0.446506
O O2 0.475335 0.471967 0.259137
O O3 0.423106 0.336461 0.184131
O O4 0.695324 0.387629 0.562652
O O5 0.099260 0.786310 0.695884
O O6 0.032502 0.894538 0.780426
O O7 0.823516 0.802891 0.462662
O O8 0.227873 0.263242 0.120190
O O9 0.376826 0.174318 0.430963
O O10 0.185119 0.041328 0.621096
O O11 0.229082 0.005496 0.415666
O O12 0.835276 0.715294 0.010270
O O13 0.631076 0.816228 0.791715
O O14 0.988781 0.625716 0.330160
O O15 0.911595 0.591314 0.004836
O O16 0.414791 0.039803 0.435970
#
# Coordination Sequence:
#
# PCOD8054211 Si02
#       8
#     4   4   4   4   4   4   4   4
#     4   9  17  33  56  83 106 142 188 234 264 326
#     4  10  18  32  55  83 106 142 183 224 273 320
#     4   9  16  30  52  81 108 139 179 229 263 321
#     4  11  19  36  60  82 107 149 188 226 271 344
#     4  10  20  33  57  85 114 142 194 231 272 325
#     4  11  20  34  55  85 110 150 184 236 274 325
#     4  11  20  34  61  80 108 147 192 224 273 336
#     4   9  16  32  56  81 107 141 188 224 272 319
#
# _framework density 18.896799000000001
#
# number of rings (size 3 to 8) (size 9 to 14) (size 15 to 20)
#    0.000    2.000    6.250    3.750    0.000    0.000 
#    0.000    5.000    0.000    0.000    0.000    0.000 
#    0.000    0.000    0.000    0.000    0.000    0.000 
#
# Total GULP energy -198238.126782 kJ/mol
# GULP energy per Si atom -12389.882924 kJ/mol
# Density = 1.885379 g / cm^3
# Si number density = 18.896799 Si / 1000 Ang^3
#
#
#
# Elastic Constant Matrix: (Units=GPa)
#
#
# Indices 1 2 3 4 5 6 
#
# 1 37.9024 25.5771 18.5422 0.0000 5.3201 0.0000
# 2 25.5771 148.8730 55.1345 0.0000 11.5769 0.0000
# 3 18.5422 55.1345 53.1410 0.0000 0.8200 0.0000
# 4 0.0000 0.0000 0.0000 42.9806 0.0000 -6.1213
# 5 5.3201 11.5769 0.8200 0.0000 12.5103 0.0000
# 6 0.0000 0.0000 0.0000 -6.1213 0.0000 26.5081
#
#
#
# Elastic Compliance Matrix: (Units=1/GPa)
#
#
# Indices 1 2 3 4 5 6 
#
# 1 0.034065 -0.000834 -0.010820 0.000000 -0.013005 0.000000
# 2 -0.000834 0.012147 -0.012156 0.000000 -0.010089 0.000000
# 3 -0.010820 -0.012156 0.034996 0.000000 0.013557 0.000000
# 4 0.000000 0.000000 0.000000 0.024057 0.000000 0.005555
# 5 -0.013005 -0.010089 0.013557 0.000000 0.093913 0.000000
# 6 0.000000 0.000000 0.000000 0.005555 0.000000 0.039007
#
#
# Mechanical properties :
#
#
# Convention : Reuss Voigt Hill
#
# Bulk Modulus (GPa) = 29.77265 48.71378 39.24321
# Shear Modulus (GPa) = 16.83492 25.77730 21.30611
#
# Velocity S-wave (km/s) = 2.98801 3.69739 3.36147
# Velocity P-wave (km/s) = 5.26250 6.63795 5.98984
#
# Compressibility (1/GPa) = 0.03358788
#
# Stress axis : x y z
#
# Youngs Moduli (GPa) = 29.35547 82.32582 28.57471
#
# Poissons Ratio (x) = 0.06866 0.30919
# Poissons Ratio (y) = 0.02448 0.34735
# Poissons Ratio (z) = 0.31763 1.00074
#
# Static dielectric constant tensor:
#      x y z
#    x 3.128360 0.000000 0.005600 
#    y 0.000000 4.075190 0.000000 
#    z 0.005600 0.000000 3.172890 
# 
# 
# High freq. dielectric constant tensor:
#      x y z
#    x 1.693270 0.000000 0.008910 
#    y 0.000000 1.760760 0.000000 
#    z 0.008910 0.000000 1.692170 
# 
# From -- ./inp_files/19498.got.cif
#   From: 2010.06.25/outbox.cif.g09.slc.cpg/sg9_10_cif.got.tgz:19498.got - 2010.06.27 21:40:51.
