data_PCOD8054438
_publ_section_title
;
Structure prediction by ZEFSAII (Michael W. Deem and Ramdas Pophale) SiO2 
 PCOD8054438
Probable space group: C C
;
_chemical_formula_sum "Si O2"
_cell_formula_units_Z 28
_cell_length_a 11.412208
_cell_length_b 16.138800
_cell_length_c 7.771648
_cell_angle_alpha 90.000000
_cell_angle_beta 110.188643
_cell_angle_gamma 90.000000
_cell_volume 1343.435288
_symmetry_space_group_name_H-M "C C"
_symmetry_group_IT_number 9
_symmetry_cell_setting 'monoclinic'
loop_
_space_group_symop_operation_xyz
x,y,z
x,-y,1/2+z
1/2+x,1/2+y,z
1/2+x,1/2-y,1/2+z
loop_
_atom_site_type_symbol
_atom_site_label
_atom_site_fract_x
_atom_site_fract_y
_atom_site_fract_z
Si Si1 0.163630 0.451792 0.000000
Si Si2 0.040367 0.603854 0.099057
Si Si3 0.287125 0.695347 0.725416
Si Si4 0.899996 0.944981 0.646408
Si Si5 0.271718 0.173135 0.926141
Si Si6 0.751002 0.209696 0.100538
Si Si7 0.518174 0.404406 0.372116
O O1 0.061793 0.515854 0.019178
O O2 0.198900 0.386059 0.167996
O O3 0.288585 0.500808 0.999485
O O4 0.099324 0.399456 0.818099
O O5 0.106367 0.681461 0.037365
O O6 0.893765 0.620204 0.028342
O O7 0.245600 0.761562 0.563971
O O8 0.427724 0.666325 0.747019
O O9 0.279888 0.732068 0.915613
O O10 0.833832 0.868262 0.711161
O O11 0.997428 0.902194 0.565728
O O12 0.980681 0.001262 0.811684
O O13 0.278875 0.213139 0.739617
O O14 0.156990 0.109547 0.875596
#
# Coordination Sequence:
#
# PCOD8054438 Si02
#       7
#     4   4   4   4   4   4   4
#     4  10  19  40  68  92 118 164 221 254 295 369
#     4  11  22  39  64  94 127 164 209 257 306 372
#     4  10  22  41  68  90 118 165 213 257 301 368
#     4   9  19  39  67  89 113 162 216 254 291 367
#     4  12  25  40  60  96 135 159 193 261 325 366
#     4  10  21  42  65  92 118 166 214 252 306 364
#     4  10  22  39  62  93 121 160 208 251 308 364
#
# _framework density 20.842092000000001
#
# number of rings (size 3 to 8) (size 9 to 14) (size 15 to 20)
#    0.000    1.714    1.429    5.143    2.000    3.429 
#    5.143    0.000    0.000    0.000    0.000    0.000 
#    0.000    0.000    0.000    0.000    0.000    0.000 
#
# Total GULP energy -173557.481851 kJ/mol
# GULP energy per Si atom -12396.962989 kJ/mol
# Density = 2.079465 g / cm^3
# Si number density = 20.842092 Si / 1000 Ang^3
#
#
#
# Elastic Constant Matrix: (Units=GPa)
#
#
# Indices 1 2 3 4 5 6 
#
# 1 122.9892 46.3834 45.1718 0.0000 16.3743 0.0000
# 2 46.3834 63.3421 22.6599 0.0000 -0.2522 0.0000
# 3 45.1718 22.6599 79.4871 0.0000 -9.3594 0.0000
# 4 0.0000 0.0000 0.0000 21.7972 0.0000 -0.1798
# 5 16.3743 -0.2522 -9.3594 0.0000 30.9154 0.0000
# 6 0.0000 0.0000 0.0000 -0.1798 0.0000 26.9464
#
#
#
# Elastic Compliance Matrix: (Units=1/GPa)
#
#
# Indices 1 2 3 4 5 6 
#
# 1 0.015686 -0.008785 -0.007670 0.000000 -0.010701 0.000000
# 2 -0.008785 0.022561 -0.000902 0.000000 0.004564 0.000000
# 3 -0.007670 -0.000902 0.018327 0.000000 0.009603 0.000000
# 4 0.000000 0.000000 0.000000 0.045880 0.000000 0.000306
# 5 -0.010701 0.004564 0.009603 0.000000 0.040959 0.000000
# 6 0.000000 0.000000 0.000000 0.000306 0.000000 0.037113
#
#
# Mechanical properties :
#
#
# Convention : Reuss Voigt Hill
#
# Bulk Modulus (GPa) = 45.74383 54.91649 50.33016
# Shear Modulus (GPa) = 22.46939 26.03871 24.25405
#
# Velocity S-wave (km/s) = 3.28697 3.53842 3.41501
# Velocity P-wave (km/s) = 6.03333 6.56506 6.30480
#
# Compressibility (1/GPa) = 0.02186087
#
# Stress axis : x y z
#
# Youngs Moduli (GPa) = 63.75285 44.32430 54.56392
#
# Poissons Ratio (x) = 0.38938 0.41849
# Poissons Ratio (y) = 0.56006 0.04921
# Poissons Ratio (z) = 0.48896 0.03997
#
# Static dielectric constant tensor:
#      x y z
#    x 3.666240 0.000000 -0.064680 
#    y 0.000000 3.612010 0.000000 
#    z -0.064680 0.000000 3.603220 
# 
# 
# High freq. dielectric constant tensor:
#      x y z
#    x 1.805860 0.000000 -0.008940 
#    y 0.000000 1.805250 0.000000 
#    z -0.008940 0.000000 1.807100 
# 
# From -- ./inp_files/7303.got.cif
#   From: 2010.06.25/outbox.cif.g09.slc.cpg/sg9_4_cif.got.tgz:7303.got - 2010.06.27 21:40:51.
