data_PCOD8054402
_publ_section_title
;
Structure prediction by ZEFSAII (Michael W. Deem and Ramdas Pophale) SiO2 
 PCOD8054402
Probable space group: C C
;
_chemical_formula_sum "Si O2"
_cell_formula_units_Z 32
_cell_length_a 16.101817
_cell_length_b 11.517596
_cell_length_c 13.993310
_cell_angle_alpha 90.000000
_cell_angle_beta 143.839573
_cell_angle_gamma 90.000000
_cell_volume 1531.244899
_symmetry_space_group_name_H-M "C C"
_symmetry_group_IT_number 9
_symmetry_cell_setting 'monoclinic'
loop_
_space_group_symop_operation_xyz
x,y,z
x,-y,1/2+z
1/2+x,1/2+y,z
1/2+x,1/2-y,1/2+z
loop_
_atom_site_type_symbol
_atom_site_label
_atom_site_fract_x
_atom_site_fract_y
_atom_site_fract_z
Si Si1 0.450810 0.801151 0.828580
Si Si2 0.698037 0.295930 0.457434
Si Si3 0.297756 0.989011 0.775332
Si Si4 0.143579 0.188605 0.265872
Si Si5 0.924768 0.108791 0.402542
Si Si6 0.707030 0.285471 0.253663
Si Si7 0.868982 0.142743 0.918316
Si Si8 0.120778 0.043676 0.428146
O O1 0.353095 0.811790 0.644087
O O2 0.440805 0.919714 0.882911
O O3 0.611878 0.789348 0.947355
O O4 0.400714 0.690387 0.842192
O O5 0.701137 0.238652 0.356190
O O6 0.614112 0.418259 0.370991
O O7 0.193561 0.898558 0.728832
O O8 0.313380 0.102201 0.855891
O O9 0.232940 0.038517 0.617312
O O10 0.217777 0.313644 0.318111
O O11 0.169662 0.139756 0.396569
O O12 0.977380 0.200443 0.094573
O O13 0.784063 0.186570 0.262928
O O14 0.052807 0.180461 0.571425
O O15 0.970285 0.075321 0.336706
O O16 0.883435 0.996388 0.427889
#
# Coordination Sequence:
#
# PCOD8054402 Si02
#       8
#     4   4   4   4   4   4   4   4
#     4  10  20  35  63  91 120 158 212 259 300 365
#     4  11  19  36  62  92 117 162 215 246 305 367
#     4   9  19  37  59  90 126 158 203 252 314 355
#     4  11  21  38  69  92 123 161 212 257 315 366
#     4  11  23  43  61  87 132 165 207 252 321 369
#     4  11  22  41  62  88 127 169 199 261 313 373
#     4  11  21  42  60  95 125 164 203 265 313 367
#     4  10  19  38  64  87 120 171 199 246 309 380
#
# _framework density 20.898029000000001
#
# number of rings (size 3 to 8) (size 9 to 14) (size 15 to 20)
#    0.000    1.500    5.000    2.250    0.000    2.000 
#    6.750    1.250    0.000    0.000    0.000    0.000 
#    0.000    0.000    0.000    0.000    0.000    0.000 
#
# Total GULP energy -198302.688903 kJ/mol
# GULP energy per Si atom -12393.918056 kJ/mol
# Density = 2.085046 g / cm^3
# Si number density = 20.898029 Si / 1000 Ang^3
#
#
#
# Elastic Constant Matrix: (Units=GPa)
#
#
# Indices 1 2 3 4 5 6 
#
# 1 81.0395 32.7143 15.6408 0.0000 -3.7536 0.0000
# 2 32.7143 97.3720 27.4455 0.0000 20.2807 0.0000
# 3 15.6408 27.4455 57.2678 0.0000 -0.8478 0.0000
# 4 0.0000 0.0000 0.0000 26.0931 0.0000 7.2009
# 5 -3.7536 20.2807 -0.8478 0.0000 29.7711 0.0000
# 6 0.0000 0.0000 0.0000 7.2009 0.0000 40.7575
#
#
#
# Elastic Compliance Matrix: (Units=1/GPa)
#
#
# Indices 1 2 3 4 5 6 
#
# 1 0.015293 -0.006058 -0.001184 0.000000 0.006021 0.000000
# 2 -0.006058 0.016719 -0.006541 0.000000 -0.012339 0.000000
# 3 -0.001184 -0.006541 0.020992 0.000000 0.004904 0.000000
# 4 0.000000 0.000000 0.000000 0.040289 0.000000 -0.007118
# 5 0.006021 -0.012339 0.004904 0.000000 0.042894 0.000000
# 6 0.000000 0.000000 0.000000 -0.007118 0.000000 0.025793
#
#
# Mechanical properties :
#
#
# Convention : Reuss Voigt Hill
#
# Bulk Modulus (GPa) = 39.31122 43.03117 41.17120
# Shear Modulus (GPa) = 25.24927 29.98291 27.61609
#
# Velocity S-wave (km/s) = 3.47971 3.79188 3.63914
# Velocity P-wave (km/s) = 5.91577 6.30927 6.11568
#
# Compressibility (1/GPa) = 0.02543803
#
# Stress axis : x y z
#
# Youngs Moduli (GPa) = 65.39042 59.81243 47.63632
#
# Poissons Ratio (x) = 0.36236 0.05641
# Poissons Ratio (y) = 0.39616 0.31157
# Poissons Ratio (z) = 0.07743 0.39121
#
# Static dielectric constant tensor:
#      x y z
#    x 3.909500 0.000000 0.049010 
#    y 0.000000 3.902620 0.000000 
#    z 0.049010 0.000000 3.436410 
# 
# 
# High freq. dielectric constant tensor:
#      x y z
#    x 1.822460 0.000000 -0.005450 
#    y 0.000000 1.808940 0.000000 
#    z -0.005450 0.000000 1.788950 
# 
# From -- ./inp_files/9073.got.cif
#   From: 2010.06.25/outbox.cif.g09.slc.cpg/sg9_5_cif.got.tgz:9073.got - 2010.06.27 21:40:51.
