data_PCOD8054583
_publ_section_title
;
Structure prediction by ZEFSAII (Michael W. Deem and Ramdas Pophale) SiO2 
 PCOD8054583
Probable space group: C C
;
_chemical_formula_sum "Si O2"
_cell_formula_units_Z 32
_cell_length_a 20.337915
_cell_length_b 11.845471
_cell_length_c 10.585939
_cell_angle_alpha 90.000000
_cell_angle_beta 143.364349
_cell_angle_gamma 90.000000
_cell_volume 1521.815028
_symmetry_space_group_name_H-M "C C"
_symmetry_group_IT_number 9
_symmetry_cell_setting 'monoclinic'
loop_
_space_group_symop_operation_xyz
x,y,z
x,-y,1/2+z
1/2+x,1/2+y,z
1/2+x,1/2-y,1/2+z
loop_
_atom_site_type_symbol
_atom_site_label
_atom_site_fract_x
_atom_site_fract_y
_atom_site_fract_z
Si Si1 0.574240 0.570239 0.946080
Si Si2 0.333407 0.540024 0.652091
Si Si3 0.184920 0.361455 0.722710
Si Si4 0.531761 0.762559 0.697219
Si Si5 0.378875 0.283072 0.748692
Si Si6 0.178208 0.779140 0.799360
Si Si7 0.648726 0.090569 0.562144
Si Si8 0.596120 0.684623 0.426480
O O1 0.461623 0.573200 0.854753
O O2 0.559895 0.637983 0.793038
O O3 0.618728 0.446763 0.983910
O O4 0.668097 0.627484 0.175425
O O5 0.294370 0.581429 0.451446
O O6 0.323262 0.406659 0.661470
O O7 0.259024 0.598385 0.645254
O O8 0.122022 0.299298 0.736711
O O9 0.116726 0.463071 0.550607
O O10 0.199054 0.262998 0.637712
O O11 0.413025 0.755811 0.444071
O O12 0.541852 0.853344 0.827635
O O13 0.291759 0.198129 0.550724
O O14 0.486049 0.277911 0.826286
O O15 0.174176 0.655719 0.731026
O O16 0.081687 0.791693 0.755162
#
# Coordination Sequence:
#
# PCOD8054583 Si02
#       8
#     4   4   4   4   4   4   4   4
#     4  10  24  40  63  94 125 165 205 261 314 368
#     4  10  21  35  70  95 120 152 217 266 304 357
#     4  10  20  38  63  93 123 161 202 264 308 364
#     4   9  22  39  60  89 129 159 206 259 311 369
#     4  10  21  40  64  96 120 165 207 261 309 366
#     4  11  23  39  64  94 124 163 205 263 310 370
#     4  10  21  39  63  97 123 157 210 265 314 359
#     4  10  24  38  65  90 130 160 210 255 314 371
#
# _framework density 21.027522999999999
#
# number of rings (size 3 to 8) (size 9 to 14) (size 15 to 20)
#    0.000    2.000    1.250    0.750   12.250    0.000 
#    0.000    2.500    0.000    0.000    0.000    0.000 
#    0.000    0.000    0.000    0.000    0.000    0.000 
#
# Total GULP energy -198278.852045 kJ/mol
# GULP energy per Si atom -12392.428253 kJ/mol
# Density = 2.097966 g / cm^3
# Si number density = 21.027523 Si / 1000 Ang^3
#
#
#
# Elastic Constant Matrix: (Units=GPa)
#
#
# Indices 1 2 3 4 5 6 
#
# 1 71.0522 45.5228 27.2138 0.0000 -22.4411 0.0000
# 2 45.5228 139.5083 65.4088 0.0000 -8.8584 0.0000
# 3 27.2138 65.4088 152.2033 0.0000 -23.4639 0.0000
# 4 0.0000 0.0000 0.0000 29.2976 0.0000 -4.3610
# 5 -22.4411 -8.8584 -23.4639 0.0000 27.6402 0.0000
# 6 0.0000 0.0000 0.0000 -4.3610 0.0000 32.0369
#
#
#
# Elastic Compliance Matrix: (Units=1/GPa)
#
#
# Indices 1 2 3 4 5 6 
#
# 1 0.024110 -0.007527 0.001806 0.000000 0.018695 0.000000
# 2 -0.007527 0.011332 -0.004494 0.000000 -0.006295 0.000000
# 3 0.001806 -0.004494 0.009415 0.000000 0.008018 0.000000
# 4 0.000000 0.000000 0.000000 0.034838 0.000000 0.004742
# 5 0.018695 -0.006295 0.008018 0.000000 0.056147 0.000000
# 6 0.000000 0.000000 0.000000 0.004742 0.000000 0.031860
#
#
# Mechanical properties :
#
#
# Convention : Reuss Voigt Hill
#
# Bulk Modulus (GPa) = 40.94056 71.00606 55.97331
# Shear Modulus (GPa) = 25.47467 32.76950 29.12208
#
# Velocity S-wave (km/s) = 3.48442 3.95195 3.72553
# Velocity P-wave (km/s) = 5.97499 7.39360 6.72183
#
# Compressibility (1/GPa) = 0.02442566
#
# Stress axis : x y z
#
# Youngs Moduli (GPa) = 41.47726 88.24916 106.21630
#
# Poissons Ratio (x) = 0.66423 -0.19182
# Poissons Ratio (y) = 0.31219 0.47737
# Poissons Ratio (z) = -0.07491 0.39662
#
# Static dielectric constant tensor:
#      x y z
#    x 3.781000 0.000000 -0.350160 
#    y 0.000000 3.967080 0.000000 
#    z -0.350160 0.000000 4.160550 
# 
# 
# High freq. dielectric constant tensor:
#      x y z
#    x 1.824240 0.000000 -0.027150 
#    y 0.000000 1.820240 0.000000 
#    z -0.027150 0.000000 1.820640 
# 
# From -- ./inp_files/16491.got.cif
#   From: 2010.06.25/outbox.cif.g09.slc.cpg/sg9_9_cif.got.tgz:16491.got - 2010.06.27 21:40:51.
