data_PCOD8054511
_publ_section_title
;
Structure prediction by ZEFSAII (Michael W. Deem and Ramdas Pophale) SiO2 
 PCOD8054511
Probable space group: C C
;
_chemical_formula_sum "Si O2"
_cell_formula_units_Z 32
_cell_length_a 6.547507
_cell_length_b 22.858937
_cell_length_c 10.906933
_cell_angle_alpha 90.000000
_cell_angle_beta 112.084634
_cell_angle_gamma 90.000000
_cell_volume 1512.658067
_symmetry_space_group_name_H-M "C C"
_symmetry_group_IT_number 9
_symmetry_cell_setting 'monoclinic'
loop_
_space_group_symop_operation_xyz
x,y,z
x,-y,1/2+z
1/2+x,1/2+y,z
1/2+x,1/2-y,1/2+z
loop_
_atom_site_type_symbol
_atom_site_label
_atom_site_fract_x
_atom_site_fract_y
_atom_site_fract_z
Si Si1 0.792330 0.580435 0.159370
Si Si2 0.675695 0.885140 0.158839
Si Si3 0.615736 0.459466 0.860359
Si Si4 0.716321 0.336265 0.977054
Si Si5 0.431774 0.200707 0.290593
Si Si6 0.354258 0.713137 0.549151
Si Si7 0.565898 0.992159 0.548784
Si Si8 0.878900 0.936579 0.427221
O O1 0.620057 0.550578 0.215669
O O2 0.933100 0.633952 0.244467
O O3 0.986313 0.538203 0.156705
O O4 0.613788 0.594231 0.012447
O O5 0.842710 0.848389 0.115123
O O6 0.753389 0.888350 0.316995
O O7 0.697676 0.949726 0.110126
O O8 0.439601 0.853790 0.097487
O O9 0.587081 0.396907 0.921923
O O10 0.423291 0.502515 0.862959
O O11 0.851546 0.489259 0.927364
O O12 0.755725 0.299150 0.861410
O O13 0.585021 0.290096 0.030459
O O14 0.355580 0.237792 0.155514
O O15 0.663766 0.221414 0.402547
O O16 0.719073 0.948833 0.505621
#
# Coordination Sequence:
#
# PCOD8054511 Si02
#       8
#     4   4   4   4   4   4   4   4
#     4  10  22  38  58  90 129 166 210 256 311 378
#     4  10  22  37  59  93 127 161 213 255 308 382
#     4   9  19  36  59  86 128 166 209 250 306 380
#     4   9  21  43  66  89 122 168 209 259 315 373
#     4  10  25  45  66  94 121 163 219 264 310 381
#     4  11  24  44  69  90 122 168 209 268 320 367
#     4  10  20  36  58  91 127 167 208 255 313 377
#     4  11  21  33  59  95 128 167 199 257 311 374
#
# _framework density 21.154813000000001
#
# number of rings (size 3 to 8) (size 9 to 14) (size 15 to 20)
#    0.000    2.000    0.000    3.000    1.750    9.000 
#    2.250    0.000    0.000    0.000    0.000    0.000 
#    0.000    0.000    0.000    0.000    0.000    0.000 
#
# Total GULP energy -198254.922859 kJ/mol
# GULP energy per Si atom -12390.932679 kJ/mol
# Density = 2.110666 g / cm^3
# Si number density = 21.154813 Si / 1000 Ang^3
#
#
#
# Elastic Constant Matrix: (Units=GPa)
#
#
# Indices 1 2 3 4 5 6 
#
# 1 80.9543 33.5059 33.2413 0.0000 -20.5754 0.0000
# 2 33.5059 60.2096 48.3648 0.0000 -11.0230 0.0000
# 3 33.2413 48.3648 106.4099 0.0000 -4.3900 0.0000
# 4 0.0000 0.0000 0.0000 37.3110 0.0000 -5.8502
# 5 -20.5754 -11.0230 -4.3900 0.0000 29.8613 0.0000
# 6 0.0000 0.0000 0.0000 -5.8502 0.0000 24.2970
#
#
#
# Elastic Compliance Matrix: (Units=1/GPa)
#
#
# Indices 1 2 3 4 5 6 
#
# 1 0.018622 -0.006590 -0.002408 0.000000 0.010044 0.000000
# 2 -0.006590 0.030516 -0.011604 0.000000 0.005018 0.000000
# 3 -0.002408 -0.011604 0.015272 0.000000 -0.003697 0.000000
# 4 0.000000 0.000000 0.000000 0.027853 0.000000 0.006706
# 5 0.010044 0.005018 -0.003697 0.000000 0.041718 0.000000
# 6 0.000000 0.000000 0.000000 0.006706 0.000000 0.042772
#
#
# Mechanical properties :
#
#
# Convention : Reuss Voigt Hill
#
# Bulk Modulus (GPa) = 43.09314 53.08863 48.09088
# Shear Modulus (GPa) = 22.15421 27.12466 24.63944
#
# Velocity S-wave (km/s) = 3.23962 3.58466 3.41650
# Velocity P-wave (km/s) = 5.86584 6.50253 6.19237
#
# Compressibility (1/GPa) = 0.02320555
#
# Stress axis : x y z
#
# Youngs Moduli (GPa) = 53.70122 32.76983 65.48141
#
# Poissons Ratio (x) = 0.21595 0.15766
# Poissons Ratio (y) = 0.35388 0.75987
# Poissons Ratio (z) = 0.12929 0.38027
#
# Static dielectric constant tensor:
#      x y z
#    x 3.661600 0.000000 -0.063370 
#    y 0.000000 3.650720 0.000000 
#    z -0.063370 0.000000 4.107760 
# 
# 
# High freq. dielectric constant tensor:
#      x y z
#    x 1.826650 0.000000 -0.000620 
#    y 0.000000 1.806480 0.000000 
#    z -0.000620 0.000000 1.844360 
# 
# From -- ./inp_files/13655.got.cif
#   From: 2010.06.25/outbox.cif.g09.slc.cpg/sg9_7_cif.got.tgz:13655.got - 2010.06.27 21:40:51.
