data_PCOD8054671
_publ_section_title
;
Structure prediction by ZEFSAII (Michael W. Deem and Ramdas Pophale) SiO2 
 PCOD8054671
Probable space group: C C
;
_chemical_formula_sum "Si O2"
_cell_formula_units_Z 32
_cell_length_a 11.111865
_cell_length_b 13.724588
_cell_length_c 8.263197
_cell_angle_alpha 90.000000
_cell_angle_beta 96.003626
_cell_angle_gamma 90.000000
_cell_volume 1253.273448
_symmetry_space_group_name_H-M "C C"
_symmetry_group_IT_number 9
_symmetry_cell_setting 'monoclinic'
loop_
_space_group_symop_operation_xyz
x,y,z
x,-y,1/2+z
1/2+x,1/2+y,z
1/2+x,1/2-y,1/2+z
loop_
_atom_site_type_symbol
_atom_site_label
_atom_site_fract_x
_atom_site_fract_y
_atom_site_fract_z
Si Si1 0.087250 0.706017 0.305470
Si Si2 0.128892 0.041485 0.118543
Si Si3 0.019084 0.497086 0.319660
Si Si4 0.841015 0.146597 0.279194
Si Si5 0.483160 0.602169 0.798827
Si Si6 0.286231 0.476382 0.469094
Si Si7 0.790835 0.584764 0.426352
Si Si8 0.475334 0.802743 0.117563
O O1 0.033350 0.602896 0.232055
O O2 0.227000 0.719176 0.275033
O O3 0.009978 0.794590 0.214227
O O4 0.080068 0.713914 0.501189
O O5 0.209760 0.104536 0.255356
O O6 0.016067 0.992016 0.196961
O O7 0.073276 0.106112 0.968647
O O8 0.211725 0.955735 0.061427
O O9 0.141958 0.482732 0.438136
O O10 0.899009 0.505714 0.412586
O O11 0.004194 0.404916 0.204026
O O12 0.957793 0.211556 0.241141
O O13 0.851967 0.084009 0.449196
O O14 0.812785 0.058981 0.151911
O O15 0.345658 0.597658 0.845702
O O16 0.850080 0.686233 0.495983
#
# Coordination Sequence:
#
# PCOD8054671 Si02
#       8
#     4   4   4   4   4   4   4   4
#     4  10  24  40  74  99 143 182 238 296 360 422
#     4  10  22  38  71  98 145 185 233 298 362 422
#     4  10  24  41  75  98 144 191 231 302 362 424
#     4  11  25  45  74 102 145 190 237 305 359 439
#     4  11  22  46  67 106 142 192 235 297 365 439
#     4  11  25  46  72 105 146 192 238 296 372 434
#     4  10  20  40  69 101 136 182 236 296 359 415
#     4  11  22  46  68 105 141 184 238 296 359 435
#
# _framework density 25.533135999999999
#
# number of rings (size 3 to 8) (size 9 to 14) (size 15 to 20)
#    0.000    1.500    2.500    1.500   12.250    0.000 
#    2.250    2.500    0.000    0.000    0.000    0.000 
#    0.000    0.000    0.000    0.000    0.000    0.000 
#
# Total GULP energy -198242.249616 kJ/mol
# GULP energy per Si atom -12390.140601 kJ/mol
# Density = 2.547502 g / cm^3
# Si number density = 25.533136 Si / 1000 Ang^3
#
#
#
# Elastic Constant Matrix: (Units=GPa)
#
#
# Indices 1 2 3 4 5 6 
#
# 1 111.5541 8.5173 15.2285 0.0000 -14.8132 0.0000
# 2 8.5173 125.1905 17.5042 0.0000 11.7370 0.0000
# 3 15.2285 17.5042 46.6170 0.0000 -12.4749 0.0000
# 4 0.0000 0.0000 0.0000 42.0746 0.0000 -5.1909
# 5 -14.8132 11.7370 -12.4749 0.0000 36.1775 0.0000
# 6 0.0000 0.0000 0.0000 -5.1909 0.0000 31.5714
#
#
#
# Elastic Compliance Matrix: (Units=1/GPa)
#
#
# Indices 1 2 3 4 5 6 
#
# 1 0.009760 -0.000722 -0.001966 0.000000 0.003552 0.000000
# 2 -0.000722 0.009111 -0.004468 0.000000 -0.004792 0.000000
# 3 -0.001966 -0.004468 0.026378 0.000000 0.009740 0.000000
# 4 0.000000 0.000000 0.000000 0.024259 0.000000 0.003989
# 5 0.003552 -0.004792 0.009740 0.000000 0.034009 0.000000
# 6 0.000000 0.000000 0.000000 0.003989 0.000000 0.032330
#
#
# Mechanical properties :
#
#
# Convention : Reuss Voigt Hill
#
# Bulk Modulus (GPa) = 32.32468 40.65128 36.48798
# Shear Modulus (GPa) = 31.15829 38.10546 34.63187
#
# Velocity S-wave (km/s) = 3.49708 3.86734 3.68686
# Velocity P-wave (km/s) = 5.38456 5.99144 5.69609
#
# Compressibility (1/GPa) = 0.03093611
#
# Stress axis : x y z
#
# Youngs Moduli (GPa) = 102.46378 109.75900 37.91076
#
# Poissons Ratio (x) = 0.07926 0.07455
# Poissons Ratio (y) = 0.07399 0.16937
# Poissons Ratio (z) = 0.20149 0.49035
#
# Static dielectric constant tensor:
#      x y z
#    x 4.884590 0.000000 -0.283960 
#    y 0.000000 4.549560 0.000000 
#    z -0.283960 0.000000 4.615720 
# 
# 
# High freq. dielectric constant tensor:
#      x y z
#    x 2.028610 0.000000 -0.027430 
#    y 0.000000 2.013850 0.000000 
#    z -0.027430 0.000000 2.003180 
# 
# From -- ./inp_files/7461.got.cif
#   From: 2010.06.25/outbox.cif.g09.slc.cpg/sg9_4_cif.got.tgz:7461.got - 2010.06.27 21:40:51.
