data_PCOD8054876
_publ_section_title
;
Structure prediction by ZEFSAII (Michael W. Deem and Ramdas Pophale) SiO2 
 PCOD8054876
Probable space group: C C
;
_chemical_formula_sum "Si O2"
_cell_formula_units_Z 32
_cell_length_a 30.896540
_cell_length_b 4.797648
_cell_length_c 19.126540
_cell_angle_alpha 90.000000
_cell_angle_beta 151.372171
_cell_angle_gamma 90.000000
_cell_volume 1358.367711
_symmetry_space_group_name_H-M "C C"
_symmetry_group_IT_number 9
_symmetry_cell_setting 'monoclinic'
loop_
_space_group_symop_operation_xyz
x,y,z
x,-y,1/2+z
1/2+x,1/2+y,z
1/2+x,1/2-y,1/2+z
loop_
_atom_site_type_symbol
_atom_site_label
_atom_site_fract_x
_atom_site_fract_y
_atom_site_fract_z
Si Si1 0.211090 0.514848 0.235540
Si Si2 0.540000 0.093646 0.720965
Si Si3 0.166109 0.994062 0.587447
Si Si4 0.531773 0.982820 0.552687
Si Si5 0.829209 0.811705 0.086260
Si Si6 0.654755 0.402929 0.415727
Si Si7 0.986249 0.992482 0.402265
Si Si8 0.355662 0.198168 0.529490
O O1 0.234972 0.806314 0.229721
O O2 0.137636 0.598499 0.190794
O O3 0.293178 0.333187 0.381496
O O4 0.170066 0.326035 0.115993
O O5 0.508685 0.972071 0.601832
O O6 0.613728 0.337748 0.814528
O O7 0.457158 0.224836 0.645984
O O8 0.580182 0.836867 0.822364
O O9 0.061584 0.084237 0.451975
O O10 0.190000 0.018013 0.539842
O O11 0.463428 0.777263 0.412826
O O12 0.525660 0.298345 0.518643
O O13 0.840570 0.622887 0.032033
O O14 0.734731 0.736632 0.986021
O O15 0.906497 0.809192 0.254838
O O16 0.836009 0.132154 0.072243
#
# Coordination Sequence:
#
# PCOD8054876 Si02
#       8
#     4   4   4   4   4   4   4   4
#     4  10  21  39  64  93 127 167 211 264 328 394
#     4  12  25  43  67  97 134 177 227 281 339 404
#     4  10  21  39  64  93 127 167 211 264 328 395
#     4  10  21  39  64  93 127 167 211 264 328 395
#     4  12  25  43  67  97 134 177 227 281 338 403
#     4  12  25  43  67  97 134 177 227 281 339 404
#     4  10  21  39  64  93 127 167 211 264 328 394
#     4  12  25  43  67  97 134 177 227 281 338 403
#
# _framework density 23.557686
#
# number of rings (size 3 to 8) (size 9 to 14) (size 15 to 20)
#    0.000    1.000    0.000    7.500    0.000    5.000 
#    0.000    2.500    0.000    0.000    0.000    0.000 
#    0.000    0.000    0.000    0.000    0.000    0.000 
#
# Total GULP energy -198341.668756 kJ/mol
# GULP energy per Si atom -12396.354297 kJ/mol
# Density = 2.350407 g / cm^3
# Si number density = 23.557686 Si / 1000 Ang^3
#
#
#
# Elastic Constant Matrix: (Units=GPa)
#
#
# Indices 1 2 3 4 5 6 
#
# 1 111.0382 26.1930 34.5546 0.0029 -10.6345 0.0033
# 2 26.1930 114.6408 23.6110 -0.0042 -2.5482 -0.0008
# 3 34.5546 23.6110 85.4789 0.0012 -5.4483 0.0015
# 4 0.0029 -0.0042 0.0012 49.0635 0.0012 -9.8545
# 5 -10.6345 -2.5482 -5.4483 0.0012 27.4124 0.0021
# 6 0.0033 -0.0008 0.0015 -9.8545 0.0021 38.2370
#
#
#
# Elastic Compliance Matrix: (Units=1/GPa)
#
#
# Indices 1 2 3 4 5 6 
#
# 1 0.010872 -0.001642 -0.003730 -0.000001 0.003324 -0.000001
# 2 -0.001642 0.009501 -0.001970 0.000001 -0.000145 0.000001
# 3 -0.003730 -0.001970 0.013822 0.000000 0.001117 0.000000
# 4 -0.000001 0.000001 0.000000 0.021494 -0.000002 0.005540
# 5 0.003324 -0.000145 0.001117 -0.000002 0.037978 -0.000003
# 6 -0.000001 0.000001 0.000000 0.005540 -0.000003 0.027580
#
#
# Mechanical properties :
#
#
# Convention : Reuss Voigt Hill
#
# Bulk Modulus (GPa) = 51.25123 53.31946 52.28534
# Shear Modulus (GPa) = 35.10403 38.06254 36.58328
#
# Velocity S-wave (km/s) = 3.86441 4.02396 3.94499
# Velocity P-wave (km/s) = 6.45867 6.65375 6.55693
#
# Compressibility (1/GPa) = 0.01951173
#
# Stress axis : x y z
#
# Youngs Moduli (GPa) = 91.97730 105.25748 72.34966
#
# Poissons Ratio (x) = 0.17284 0.26984
# Poissons Ratio (y) = 0.15103 0.14251
# Poissons Ratio (z) = 0.34304 0.20733
#
# Static dielectric constant tensor:
#      x y z
#    x 3.936350 0.000000 -0.084880 
#    y 0.000000 4.407070 -0.000010 
#    z -0.084880 -0.000010 4.110950 
# 
# 
# High freq. dielectric constant tensor:
#      x y z
#    x 1.917650 0.000000 -0.015040 
#    y 0.000000 1.954570 0.000000 
#    z -0.015040 0.000000 1.920560 
# 
# From -- ./inp_files/31763.got.cif
#   From: 2010.06.25/outbox.cif.g09.slc.cpg/sg9_16_cif.got.tgz:31763.got - 2010.06.27 21:40:51.
