data_PCOD8054696
_publ_section_title
;
Structure prediction by ZEFSAII (Michael W. Deem and Ramdas Pophale) SiO2 
 PCOD8054696
Probable space group: C C
;
_chemical_formula_sum "Si O2"
_cell_formula_units_Z 28
_cell_length_a 15.835777
_cell_length_b 15.334966
_cell_length_c 5.591866
_cell_angle_alpha 90.000000
_cell_angle_beta 48.945659
_cell_angle_gamma 90.000000
_cell_volume 1024.001076
_symmetry_space_group_name_H-M "C C"
_symmetry_group_IT_number 9
_symmetry_cell_setting 'monoclinic'
loop_
_space_group_symop_operation_xyz
x,y,z
x,-y,1/2+z
1/2+x,1/2+y,z
1/2+x,1/2-y,1/2+z
loop_
_atom_site_type_symbol
_atom_site_label
_atom_site_fract_x
_atom_site_fract_y
_atom_site_fract_z
Si Si1 0.677210 0.535846 0.876630
Si Si2 0.710667 0.213012 0.733272
Si Si3 0.339941 0.366835 0.384109
Si Si4 0.415392 0.227705 0.607766
Si Si5 0.047583 0.808556 0.748979
Si Si6 0.681735 0.977262 0.170103
Si Si7 0.936231 0.538901 0.396453
O O1 0.623388 0.503801 0.723648
O O2 0.807139 0.510895 0.628054
O O3 0.650430 0.638141 0.942651
O O4 0.736390 0.189115 0.961038
O O5 0.589705 0.258228 0.913522
O O6 0.715527 0.123117 0.564084
O O7 0.801191 0.283918 0.473054
O O8 0.395281 0.316526 0.499770
O O9 0.292770 0.463883 0.528133
O O10 0.440186 0.370344 0.000821
O O11 0.516589 0.237414 0.606707
O O12 0.443770 0.143645 0.396023
O O13 0.618418 0.017964 0.051599
O O14 0.988925 0.508739 0.038807
#
# Coordination Sequence:
#
# PCOD8054696 Si02
#       7
#     4   4   4   4   4   4   4
#     4  10  23  41  64  98 134 178 224 285 348 418
#     4  10  22  43  67  96 141 186 229 285 352 429
#     4  10  24  40  69  99 139 186 232 290 347 423
#     4  11  23  43  68  98 135 185 230 287 356 419
#     4  11  25  41  66 107 138 180 235 294 353 418
#     4  10  20  41  67  98 136 187 231 278 353 419
#     4  10  23  43  71  92 129 180 233 283 345 412
#
# _framework density 27.343724000000002
#
# number of rings (size 3 to 8) (size 9 to 14) (size 15 to 20)
#    0.000    1.714    2.857    0.000    6.000    5.714 
#    0.000    2.857    0.000    0.000    0.000    0.000 
#    0.000    0.000    0.000    0.000    0.000    0.000 
#
# Total GULP energy -173528.078957 kJ/mol
# GULP energy per Si atom -12394.862783 kJ/mol
# Density = 2.728149 g / cm^3
# Si number density = 27.343724 Si / 1000 Ang^3
#
#
#
# Elastic Constant Matrix: (Units=GPa)
#
#
# Indices 1 2 3 4 5 6 
#
# 1 139.2836 38.9066 46.0671 0.0000 13.4867 0.0000
# 2 38.9066 122.2726 49.9468 0.0000 -12.7398 0.0000
# 3 46.0671 49.9468 119.0631 0.0000 14.9631 0.0000
# 4 0.0000 0.0000 0.0000 34.8137 0.0000 7.0013
# 5 13.4867 -12.7398 14.9631 0.0000 29.3437 0.0000
# 6 0.0000 0.0000 0.0000 7.0013 0.0000 48.1378
#
#
#
# Elastic Compliance Matrix: (Units=1/GPa)
#
#
# Indices 1 2 3 4 5 6 
#
# 1 0.008908 -0.002517 -0.001858 0.000000 -0.004240 0.000000
# 2 -0.002517 0.012055 -0.005221 0.000000 0.009053 0.000000
# 3 -0.001858 -0.005221 0.012272 0.000000 -0.007671 0.000000
# 4 0.000000 0.000000 0.000000 0.029590 0.000000 -0.004304
# 5 -0.004240 0.009053 -0.007671 0.000000 0.043869 0.000000
# 6 0.000000 0.000000 0.000000 -0.004304 0.000000 0.021400
#
#
# Mechanical properties :
#
#
# Convention : Reuss Voigt Hill
#
# Bulk Modulus (GPa) = 71.20975 72.27336 71.74155
# Shear Modulus (GPa) = 32.90189 38.83897 35.87043
#
# Velocity S-wave (km/s) = 3.47258 3.77291 3.62585
# Velocity P-wave (km/s) = 6.49441 6.74304 6.61989
#
# Compressibility (1/GPa) = 0.01404302
#
# Stress axis : x y z
#
# Youngs Moduli (GPa) = 112.26241 82.95014 81.48707
#
# Poissons Ratio (x) = 0.20881 0.15138
# Poissons Ratio (y) = 0.28260 0.42545
# Poissons Ratio (z) = 0.20855 0.43308
#
# Static dielectric constant tensor:
#      x y z
#    x 5.221370 0.000000 0.137130 
#    y 0.000000 4.535470 0.000000 
#    z 0.137130 0.000000 5.208630 
# 
# 
# High freq. dielectric constant tensor:
#      x y z
#    x 2.131770 0.000000 0.001050 
#    y 0.000000 2.075570 0.000000 
#    z 0.001050 0.000000 2.123890 
# 
# From -- ./inp_files/2369.got.cif
#   From: 2010.06.25/outbox.cif.g09.slc.cpg/sg9_2_cif.got.tgz:2369.got - 2010.06.27 21:40:51.
