data_PCOD8054977
_publ_section_title
;
Structure prediction by ZEFSAII (Michael W. Deem and Ramdas Pophale) SiO2 
 PCOD8054977
Probable space group: C C
;
_chemical_formula_sum "Si O2"
_cell_formula_units_Z 28
_cell_length_a 15.849409
_cell_length_b 11.688241
_cell_length_c 12.279983
_cell_angle_alpha 90.000000
_cell_angle_beta 146.620832
_cell_angle_gamma 90.000000
_cell_volume 1251.591359
_symmetry_space_group_name_H-M "C C"
_symmetry_group_IT_number 9
_symmetry_cell_setting 'monoclinic'
loop_
_space_group_symop_operation_xyz
x,y,z
x,-y,1/2+z
1/2+x,1/2+y,z
1/2+x,1/2-y,1/2+z
loop_
_atom_site_type_symbol
_atom_site_label
_atom_site_fract_x
_atom_site_fract_y
_atom_site_fract_z
Si Si1 0.497500 0.007923 0.623640
Si Si2 0.815804 0.943657 0.028059
Si Si3 0.273680 0.025317 0.193815
Si Si4 0.947221 0.664728 0.762006
Si Si5 0.788138 0.677892 0.006569
Si Si6 0.037992 0.075713 0.599179
Si Si7 0.785381 0.871765 0.666046
O O1 0.425608 0.899026 0.608135
O O2 0.421179 0.046207 0.428810
O O3 0.485016 0.121473 0.682803
O O4 0.673822 0.974653 0.795592
O O5 0.836957 0.808595 0.072642
O O6 0.968010 0.990609 0.129403
O O7 0.792220 0.002317 0.120001
O O8 0.242905 0.129761 0.077955
O O9 0.312808 0.910222 0.171475
O O10 0.122035 0.008517 0.104941
O O11 0.870267 0.788753 0.671225
O O12 0.109575 0.664053 0.003613
O O13 0.152795 0.829699 0.271452
O O14 0.888788 0.137070 0.386152
#
# Coordination Sequence:
#
# PCOD8054977 Si02
#       7
#     4   4   4   4   4   4   4
#     4   9  21  40  65  90 126 172 210 259 322 382
#     4  11  23  41  62  99 129 161 215 274 314 382
#     4  10  21  41  65  93 128 173 210 256 325 387
#     4  10  22  40  63  92 125 166 216 262 314 382
#     4  10  22  40  66  94 130 166 214 264 317 390
#     4  11  23  36  65  95 128 166 213 262 316 382
#     4  11  24  40  64  93 128 166 214 269 316 377
#
# _framework density 22.371518999999999
#
# number of rings (size 3 to 8) (size 9 to 14) (size 15 to 20)
#    0.000    1.714    0.000    3.429    8.000    2.286 
#    2.571    0.000    3.143    0.000    0.000    0.000 
#    0.000    0.000    0.000    0.000    0.000    0.000 
#
# Total GULP energy -173545.478543 kJ/mol
# GULP energy per Si atom -12396.105610 kJ/mol
# Density = 2.232060 g / cm^3
# Si number density = 22.371519 Si / 1000 Ang^3
#
#
#
# Elastic Constant Matrix: (Units=GPa)
#
#
# Indices 1 2 3 4 5 6 
#
# 1 93.3971 24.1419 13.5470 0.0000 14.3915 0.0000
# 2 24.1419 82.9060 24.5006 0.0000 -3.1417 0.0000
# 3 13.5470 24.5006 91.3636 0.0000 0.0558 0.0000
# 4 0.0000 0.0000 0.0000 22.0004 0.0000 3.3660
# 5 14.3915 -3.1417 0.0558 0.0000 45.7933 0.0000
# 6 0.0000 0.0000 0.0000 3.3660 0.0000 11.4780
#
#
#
# Elastic Compliance Matrix: (Units=1/GPa)
#
#
# Indices 1 2 3 4 5 6 
#
# 1 0.012377 -0.003496 -0.000895 0.000000 -0.004128 0.000000
# 2 -0.003496 0.014125 -0.003271 0.000000 0.002072 0.000000
# 3 -0.000895 -0.003271 0.011955 0.000000 0.000042 0.000000
# 4 0.000000 0.000000 0.000000 0.047589 0.000000 -0.013956
# 5 -0.004128 0.002072 0.000042 0.000000 0.023277 0.000000
# 6 0.000000 0.000000 0.000000 -0.013956 0.000000 0.091215
#
#
# Mechanical properties :
#
#
# Convention : Reuss Voigt Hill
#
# Bulk Modulus (GPa) = 43.22827 43.56065 43.39446
# Shear Modulus (GPa) = 22.36415 29.55284 25.95849
#
# Velocity S-wave (km/s) = 3.16519 3.63850 3.41007
# Velocity P-wave (km/s) = 5.72038 6.09634 5.91135
#
# Compressibility (1/GPa) = 0.02313301
#
# Stress axis : x y z
#
# Youngs Moduli (GPa) = 80.79768 70.79678 83.64646
#
# Poissons Ratio (x) = 0.24750 0.07488
# Poissons Ratio (y) = 0.28246 0.27358
# Poissons Ratio (z) = 0.07233 0.23156
#
# Static dielectric constant tensor:
#      x y z
#    x 4.073630 0.000000 0.115230 
#    y 0.000000 3.680410 0.000000 
#    z 0.115230 0.000000 4.255100 
# 
# 
# High freq. dielectric constant tensor:
#      x y z
#    x 1.885530 0.000000 0.009710 
#    y 0.000000 1.851450 0.000000 
#    z 0.009710 0.000000 1.896620 
# 
# From -- ./inp_files/26808.got.cif
#   From: 2010.06.25/outbox.cif.g09.slc.cpg/sg9_14_cif.got.tgz:26808.got - 2010.06.27 21:40:51.
