data_PCOD8054170
_publ_section_title
;
Structure prediction by ZEFSAII (Michael W. Deem and Ramdas Pophale) SiO2 
 PCOD8054170
Probable space group: C C
;
_chemical_formula_sum "Si O2"
_cell_formula_units_Z 32
_cell_length_a 9.350157
_cell_length_b 35.662101
_cell_length_c 5.157353
_cell_angle_alpha 90.000000
_cell_angle_beta 109.154215
_cell_angle_gamma 90.000000
_cell_volume 1624.495441
_symmetry_space_group_name_H-M "C C"
_symmetry_group_IT_number 9
_symmetry_cell_setting 'monoclinic'
loop_
_space_group_symop_operation_xyz
x,y,z
x,-y,1/2+z
1/2+x,1/2+y,z
1/2+x,1/2-y,1/2+z
loop_
_atom_site_type_symbol
_atom_site_label
_atom_site_fract_x
_atom_site_fract_y
_atom_site_fract_z
Si Si1 0.608690 0.517545 0.660630
Si Si2 0.347206 0.599030 0.961426
Si Si3 0.126331 0.710430 0.385216
Si Si4 0.266264 0.167700 0.667674
Si Si5 0.774291 0.286427 0.664169
Si Si6 0.772544 0.015111 0.902658
Si Si7 0.042904 0.899170 0.087003
Si Si8 0.122119 0.335215 0.376554
O O1 0.691077 0.503029 0.450413
O O2 0.433953 0.504621 0.560257
O O3 0.624689 0.562036 0.709659
O O4 0.280977 0.558898 0.840479
O O5 0.444415 0.614865 0.775678
O O6 0.210355 0.626107 0.961121
O O7 0.444674 0.593195 0.275440
O O8 0.207740 0.747273 0.534263
O O9 0.166891 0.679336 0.620663
O O10 0.951550 0.720176 0.272203
O O11 0.175146 0.694501 0.131414
O O12 0.223712 0.197951 0.416499
O O13 0.443028 0.157083 0.776403
O O14 0.168981 0.130531 0.575628
O O15 0.221103 0.183912 0.919086
O O16 0.684230 0.993428 0.618714
#
# Coordination Sequence:
#
# PCOD8054170 Si02
#       8
#     4   4   4   4   4   4   4   4
#     4  10  16  30  49  77 108 142 181 229 285 319
#     4  12  21  33  57  87 110 145 192 242 270 325
#     4  10  21  39  61  81 108 148 184 227 277 338
#     4  10  23  40  55  81 119 151 177 221 298 340
#     4  10  21  39  61  81 108 148 184 227 277 338
#     4  10  16  30  49  77 108 142 181 229 285 319
#     4  12  21  33  57  87 110 145 192 242 270 325
#     4  10  23  40  55  81 119 151 177 221 298 340
#
# _framework density 19.698423999999999
#
# number of rings (size 3 to 8) (size 9 to 14) (size 15 to 20)
#    0.000    1.500    5.000    2.250    0.000    3.000 
#    0.000    0.000    0.000    1.500    0.000    0.000 
#    0.000    0.000    0.000    0.000    0.000    0.000 
#
# Total GULP energy -198307.298094 kJ/mol
# GULP energy per Si atom -12394.206131 kJ/mol
# Density = 1.965359 g / cm^3
# Si number density = 19.698424 Si / 1000 Ang^3
#
#
#
# Elastic Constant Matrix: (Units=GPa)
#
#
# Indices 1 2 3 4 5 6 
#
# 1 37.7668 39.7546 31.2624 0.0000 -10.8717 0.0000
# 2 39.7546 119.0386 25.3855 0.0000 10.1566 0.0000
# 3 31.2624 25.3855 125.9534 0.0000 -26.9057 0.0000
# 4 0.0000 0.0000 0.0000 23.3893 0.0000 -6.0442
# 5 -10.8717 10.1566 -26.9057 0.0000 22.9431 0.0000
# 6 0.0000 0.0000 0.0000 -6.0442 0.0000 21.9867
#
#
#
# Elastic Compliance Matrix: (Units=1/GPa)
#
#
# Indices 1 2 3 4 5 6 
#
# 1 0.066314 -0.024752 -0.003226 0.000000 0.038598 0.000000
# 2 -0.024752 0.019258 -0.002754 0.000000 -0.023484 0.000000
# 3 -0.003226 -0.002754 0.012314 0.000000 0.014132 0.000000
# 4 0.000000 0.000000 0.000000 0.046024 0.000000 0.012652
# 5 0.038598 -0.023484 0.014132 0.000000 0.088844 0.000000
# 6 0.000000 0.000000 0.000000 0.012652 0.000000 0.048960
#
#
# Mechanical properties :
#
#
# Convention : Reuss Voigt Hill
#
# Bulk Modulus (GPa) = 27.45601 52.84042 40.14822
# Shear Modulus (GPa) = 14.07183 26.08757 20.07970
#
# Velocity S-wave (km/s) = 2.67566 3.64311 3.19620
# Velocity P-wave (km/s) = 4.84912 6.67677 5.83495
#
# Compressibility (1/GPa) = 0.03642190
#
# Stress axis : x y z
#
# Youngs Moduli (GPa) = 15.07974 51.92647 81.20832
#
# Poissons Ratio (x) = 1.28528 0.26196
# Poissons Ratio (y) = 0.37325 0.22369
# Poissons Ratio (z) = 0.04864 0.14303
#
# Static dielectric constant tensor:
#      x y z
#    x 3.393950 0.000000 -0.559300 
#    y 0.000000 3.503890 0.000000 
#    z -0.559300 0.000000 4.692070 
# 
# 
# High freq. dielectric constant tensor:
#      x y z
#    x 1.723150 0.000000 -0.027490 
#    y 0.000000 1.773230 0.000000 
#    z -0.027490 0.000000 1.794470 
# 
# From -- ./inp_files/1310.got.cif
#   From: 2010.06.25/outbox.cif.g09.slc.cpg/sg9_1_cif.got.tgz:1310.got - 2010.06.27 21:40:51.
