data_PCOD8054055
_publ_section_title
;
Structure prediction by ZEFSAII (Michael W. Deem and Ramdas Pophale) SiO2 
 PCOD8054055
Probable space group: C M
;
_chemical_formula_sum "Si O2"
_cell_formula_units_Z 32
_cell_length_a 15.531132
_cell_length_b 8.400019
_cell_length_c 25.905559
_cell_angle_alpha 90.000000
_cell_angle_beta 152.717797
_cell_angle_gamma 90.000000
_cell_volume 1549.158527
_symmetry_space_group_name_H-M "C M"
_symmetry_group_IT_number 8
_symmetry_cell_setting 'monoclinic'
loop_
_space_group_symop_operation_xyz
x,y,z
x,-y,z
1/2+x,1/2+y,z
1/2+x,1/2-y,z
loop_
_atom_site_type_symbol
_atom_site_label
_atom_site_fract_x
_atom_site_fract_y
_atom_site_fract_z
Si Si1 0.960020 0.315152 0.257300
Si Si2 0.800132 0.814471 0.876750
Si Si3 0.419209 0.314892 0.634080
Si Si4 0.351137 0.687377 0.018606
Si Si5 0.848391 0.684188 0.486070
Si Si6 0.667471 0.814984 0.023362
Si Si7 0.262113 0.188983 0.256197
Si Si8 0.547960 0.812000 0.491539
O O1 0.012937 0.500000 0.288419
O O2 0.819784 0.285991 0.135554
O O3 0.858765 0.255623 0.254995
O O4 0.149899 0.213966 0.352085
O O5 0.600836 0.787375 0.744117
O O6 0.850112 0.000000 0.902683
O O7 0.796136 0.744221 0.932972
O O8 0.956349 0.723997 0.926841
O O9 0.459132 0.500000 0.665630
O O10 0.366597 0.292567 0.546185
O O11 0.250320 0.249046 0.580208
O O12 0.372485 0.500000 0.023753
O O13 0.192067 0.730556 0.975911
O O14 0.550814 0.759063 0.144061
O O15 0.867252 0.500000 0.511592
O O16 0.010917 0.732873 0.531514
O O17 0.710189 0.000000 0.055295
O O18 0.382352 0.261743 0.367595
O O19 0.255138 0.000000 0.256145
O O20 0.544543 0.000000 0.481659
#
# Coordination Sequence:
#
# PCOD8054055 Si02
#       8
#     4   4   4   4   4   4   4   4
#     4  11  20  35  61  90 123 161 196 236 293 354
#     4  11  23  42  63  85 116 157 201 246 297 351
#     4  11  23  42  63  85 116 157 201 246 297 351
#     4   9  19  36  61  87 116 156 195 237 294 353
#     4  11  22  38  62  92 121 153 197 246 295 349
#     4  11  22  38  62  92 121 153 197 246 295 349
#     4   9  15  31  59  86 113 151 190 230 285 348
#     4   9  19  36  61  87 116 156 195 237 294 353
#
# _framework density 20.656376000000002
#
# number of rings (size 3 to 8) (size 9 to 14) (size 15 to 20)
#    0.000    1.750    2.500    2.625    0.000    3.000 
#    0.000    7.500    0.000    0.000    0.000    0.000 
#    0.000    0.000    0.000    0.000    0.000    0.000 
#
# Total GULP energy -198415.640936 kJ/mol
# GULP energy per Si atom -12400.977558 kJ/mol
# Density = 2.060936 g / cm^3
# Si number density = 20.656376 Si / 1000 Ang^3
#
#
#
# Elastic Constant Matrix: (Units=GPa)
#
#
# Indices 1 2 3 4 5 6 
#
# 1 164.8369 24.6939 48.2738 -0.0003 13.1082 -0.0001
# 2 24.6939 33.9407 1.9453 -0.0002 -1.2347 -0.0001
# 3 48.2738 1.9453 102.8717 0.0005 16.3003 -0.0001
# 4 -0.0003 -0.0002 0.0005 26.4787 0.0001 -1.2165
# 5 13.1082 -1.2347 16.3003 0.0001 21.1026 0.0000
# 6 -0.0001 -0.0001 -0.0001 -1.2165 0.0000 23.2962
#
#
#
# Elastic Compliance Matrix: (Units=1/GPa)
#
#
# Indices 1 2 3 4 5 6 
#
# 1 0.008118 -0.005825 -0.003243 0.000000 -0.002878 0.000000
# 2 -0.005825 0.033787 0.001376 0.000000 0.004532 0.000000
# 3 -0.003243 0.001376 0.012403 0.000000 -0.007485 0.000000
# 4 0.000000 0.000000 0.000000 0.037857 0.000000 0.001977
# 5 -0.002878 0.004532 -0.007485 0.000000 0.055222 0.000000
# 6 0.000000 0.000000 0.000000 0.001977 0.000000 0.043029
#
#
# Mechanical properties :
#
#
# Convention : Reuss Voigt Hill
#
# Bulk Modulus (GPa) = 25.69090 50.16392 37.92741
# Shear Modulus (GPa) = 22.85458 29.29124 26.07291
#
# Velocity S-wave (km/s) = 3.32989 3.76975 3.55663
# Velocity P-wave (km/s) = 5.22001 6.57919 5.93861
#
# Compressibility (1/GPa) = 0.03892429
#
# Stress axis : x y z
#
# Youngs Moduli (GPa) = 123.18398 29.59694 80.62705
#
# Poissons Ratio (x) = 0.17241 0.26149
# Poissons Ratio (y) = 0.71756 -0.11098
# Poissons Ratio (z) = 0.39951 -0.04074
#
# Static dielectric constant tensor:
#      x y z
#    x 3.996210 0.000000 0.044340 
#    y 0.000000 3.333980 0.000000 
#    z 0.044340 0.000000 3.664230 
# 
# 
# High freq. dielectric constant tensor:
#      x y z
#    x 1.824530 0.000000 0.002000 
#    y 0.000000 1.775190 0.000000 
#    z 0.002000 0.000000 1.803090 
# 
# From -- ./inp_files/26559.got.cif
#   From: 2010.03.12/outbox.cif.g09.slc.cpg/sg8_14_cif.got.tgz:26559.got - 2010.03.31 10:45:26.
