data_PCOD8054597
_publ_section_title
;
Structure prediction by ZEFSAII (Michael W. Deem and Ramdas Pophale) SiO2 
 PCOD8054597
Probable space group: C C
;
_chemical_formula_sum "Si O2"
_cell_formula_units_Z 20
_cell_length_a 10.044104
_cell_length_b 24.047838
_cell_length_c 5.025798
_cell_angle_alpha 90.000000
_cell_angle_beta 59.970058
_cell_angle_gamma 90.000000
_cell_volume 1050.973552
_symmetry_space_group_name_H-M "C C"
_symmetry_group_IT_number 9
_symmetry_cell_setting 'monoclinic'
loop_
_space_group_symop_operation_xyz
x,y,z
x,-y,1/2+z
1/2+x,1/2+y,z
1/2+x,1/2-y,1/2+z
loop_
_atom_site_type_symbol
_atom_site_label
_atom_site_fract_x
_atom_site_fract_y
_atom_site_fract_z
Si Si1 0.765160 0.963238 0.084920
Si Si2 0.946393 0.690281 0.297212
Si Si3 0.435942 0.640801 0.300683
Si Si4 0.084361 0.809818 0.159278
Si Si5 0.094836 0.640891 0.641737
O O1 0.765078 0.984703 0.386393
O O2 0.613273 0.924910 0.190218
O O3 0.917213 0.075010 0.386289
O O4 0.015233 0.750069 0.297045
O O5 0.987682 0.672063 0.958696
O O6 0.018806 0.645969 0.428550
O O7 0.765373 0.691983 0.512208
O O8 0.512102 0.645846 0.935365
O O9 0.543185 0.671911 0.403279
O O10 0.265444 0.668931 0.472679
#
# Coordination Sequence:
#
# PCOD8054597 Si02
#       5
#     4   4   4   4   4
#     4  10  20  38  68  90 114 154 212 262 294 348
#     4  12  23  38  59  87 128 164 197 243 302 363
#     4  10  22  38  61  89 118 152 212 243 300 356
#     4  12  23  38  59  87 128 164 197 243 302 363
#     4  10  22  38  61  89 118 152 212 243 300 356
#
# _framework density 19.029975
#
# number of rings (size 3 to 8) (size 9 to 14) (size 15 to 20)
#    1.200    0.000    0.000    8.400    0.000    0.000 
#    0.000    0.000    0.000   24.000    0.000    0.000 
#    0.000    0.000    0.000    0.000    0.000    0.000 
#
# Total GULP energy -124006.361038 kJ/mol
# GULP energy per Si atom -12400.636104 kJ/mol
# Density = 1.898666 g / cm^3
# Si number density = 19.029975 Si / 1000 Ang^3
#
#
#
# Elastic Constant Matrix: (Units=GPa)
#
#
# Indices 1 2 3 4 5 6 
#
# 1 94.0151 23.2599 31.8462 0.0000 -14.2045 0.0000
# 2 23.2599 67.2295 12.3197 0.0000 -14.1496 0.0000
# 3 31.8462 12.3197 79.2714 0.0000 -4.5915 0.0000
# 4 0.0000 0.0000 0.0000 28.5169 0.0000 4.6662
# 5 -14.2045 -14.1496 -4.5915 0.0000 37.8578 0.0000
# 6 0.0000 0.0000 0.0000 4.6662 0.0000 24.9969
#
#
#
# Elastic Compliance Matrix: (Units=1/GPa)
#
#
# Indices 1 2 3 4 5 6 
#
# 1 0.013519 -0.003104 -0.004756 0.000000 0.003336 0.000000
# 2 -0.003104 0.017238 -0.001134 0.000000 0.005141 0.000000
# 3 -0.004756 -0.001134 0.014677 0.000000 -0.000428 0.000000
# 4 0.000000 0.000000 0.000000 0.036172 0.000000 -0.006752
# 5 0.003336 0.005141 -0.000428 0.000000 0.029536 0.000000
# 6 0.000000 0.000000 0.000000 -0.006752 0.000000 0.041265
#
#
# Mechanical properties :
#
#
# Convention : Reuss Voigt Hill
#
# Bulk Modulus (GPa) = 36.43423 41.70751 39.07087
# Shear Modulus (GPa) = 27.84835 29.81365 28.83100
#
# Velocity S-wave (km/s) = 3.82958 3.96241 3.89656
# Velocity P-wave (km/s) = 6.22427 6.54970 6.38906
#
# Compressibility (1/GPa) = 0.02744671
#
# Stress axis : x y z
#
# Youngs Moduli (GPa) = 73.96783 58.01105 68.13434
#
# Poissons Ratio (x) = 0.18006 0.32402
# Poissons Ratio (y) = 0.22959 0.07728
# Poissons Ratio (z) = 0.35177 0.06580
#
# Static dielectric constant tensor:
#      x y z
#    x 3.378770 0.000000 0.025990 
#    y 0.000000 3.342930 0.000000 
#    z 0.025990 0.000000 3.397630 
# 
# 
# High freq. dielectric constant tensor:
#      x y z
#    x 1.738190 0.000000 0.013580 
#    y 0.000000 1.728670 0.000000 
#    z 0.013580 0.000000 1.748360 
# 
# From -- ./inp_files/721.got.cif
#   From: 2010.06.25/outbox.cif.g09.slc.cpg/sg9_1_cif.got.tgz:721.got - 2010.06.27 21:40:51.
