data_PCOD8054682
_publ_section_title
;
Structure prediction by ZEFSAII (Michael W. Deem and Ramdas Pophale) SiO2 
 PCOD8054682
Probable space group: C C
;
_chemical_formula_sum "Si O2"
_cell_formula_units_Z 32
_cell_length_a 19.638094
_cell_length_b 11.893222
_cell_length_c 10.013293
_cell_angle_alpha 90.000000
_cell_angle_beta 47.638996
_cell_angle_gamma 90.000000
_cell_volume 1728.103467
_symmetry_space_group_name_H-M "C C"
_symmetry_group_IT_number 9
_symmetry_cell_setting 'monoclinic'
loop_
_space_group_symop_operation_xyz
x,y,z
x,-y,1/2+z
1/2+x,1/2+y,z
1/2+x,1/2-y,1/2+z
loop_
_atom_site_type_symbol
_atom_site_label
_atom_site_fract_x
_atom_site_fract_y
_atom_site_fract_z
Si Si1 0.453990 0.959993 0.812610
Si Si2 0.871041 0.179262 0.130203
Si Si3 0.008060 0.623181 0.514556
Si Si4 0.975577 0.961745 0.053760
Si Si5 0.754883 0.408459 0.038491
Si Si6 0.893178 0.762410 0.304318
Si Si7 0.594894 0.453433 0.632142
Si Si8 0.674079 0.264393 0.371723
O O1 0.469909 0.836110 0.724706
O O2 0.499964 0.055699 0.663234
O O3 0.498910 0.961342 0.900889
O O4 0.343368 0.981032 0.971678
O O5 0.764107 0.200418 0.307583
O O6 0.929766 0.281870 0.111808
O O7 0.884070 0.168384 0.954188
O O8 0.902711 0.063373 0.154787
O O9 0.109102 0.677583 0.379227
O O10 0.026766 0.954049 0.846356
O O11 0.920488 0.845332 0.149033
O O12 0.049029 0.977865 0.073167
O O13 0.690850 0.483599 0.031296
O O14 0.699241 0.366731 0.240479
O O15 0.794631 0.299127 0.904626
O O16 0.617395 0.323743 0.566527
#
# Coordination Sequence:
#
# PCOD8054682 Si02
#       8
#     4   4   4   4   4   4   4   4
#     4   9  22  38  64  82 124 163 197 248 307 362
#     4  10  20  41  63  87 125 165 200 252 314 362
#     4  11  20  41  61  91 120 162 200 249 309 361
#     4  12  22  39  64  90 129 160 206 250 318 366
#     4   9  20  37  61  86 118 160 206 246 303 358
#     4   8  20  39  59  85 117 167 199 240 310 367
#     4  12  22  36  63  97 117 161 212 258 294 371
#     4  11  22  39  63  92 120 164 208 247 309 375
#
# _framework density 18.517410999999999
#
# number of rings (size 3 to 8) (size 9 to 14) (size 15 to 20)
#    0.750    1.000    5.000    0.750    1.750    1.000 
#    4.500    1.250    0.000    0.000    0.000    0.000 
#    0.000    0.000    0.000    0.000    0.000    0.000 
#
# Total GULP energy -198337.028014 kJ/mol
# GULP energy per Si atom -12396.064251 kJ/mol
# Density = 1.847526 g / cm^3
# Si number density = 18.517411 Si / 1000 Ang^3
#
#
#
# Elastic Constant Matrix: (Units=GPa)
#
#
# Indices 1 2 3 4 5 6 
#
# 1 104.4416 35.2623 31.3260 0.0000 -4.5296 0.0000
# 2 35.2623 63.8838 35.3557 0.0000 -0.3625 0.0000
# 3 31.3260 35.3557 78.1792 0.0000 4.2474 0.0000
# 4 0.0000 0.0000 0.0000 38.1052 0.0000 -1.1207
# 5 -4.5296 -0.3625 4.2474 0.0000 18.3290 0.0000
# 6 0.0000 0.0000 0.0000 -1.1207 0.0000 35.7621
#
#
#
# Elastic Compliance Matrix: (Units=1/GPa)
#
#
# Indices 1 2 3 4 5 6 
#
# 1 0.012334 -0.005262 -0.002757 0.000000 0.003583 0.000000
# 2 -0.005262 0.023250 -0.008467 0.000000 0.001122 0.000000
# 3 -0.002757 -0.008467 0.017998 0.000000 -0.005020 0.000000
# 4 0.000000 0.000000 0.000000 0.026267 0.000000 0.000823
# 5 0.003583 0.001122 -0.005020 0.000000 0.056629 0.000000
# 6 0.000000 0.000000 0.000000 0.000823 0.000000 0.027988
#
#
# Mechanical properties :
#
#
# Convention : Reuss Voigt Hill
#
# Bulk Modulus (GPa) = 48.52128 50.04365 49.28247
# Shear Modulus (GPa) = 24.47281 28.07663 26.27472
#
# Velocity S-wave (km/s) = 3.63934 3.89810 3.77094
# Velocity P-wave (km/s) = 6.62719 6.88071 6.75514
#
# Compressibility (1/GPa) = 0.02060951
#
# Stress axis : x y z
#
# Youngs Moduli (GPa) = 81.07972 43.01046 55.56219
#
# Poissons Ratio (x) = 0.22630 0.15319
# Poissons Ratio (y) = 0.42661 0.47046
# Poissons Ratio (z) = 0.22355 0.36418
#
# Static dielectric constant tensor:
#      x y z
#    x 3.402410 0.000000 -0.052930 
#    y 0.000000 3.327000 0.000000 
#    z -0.052930 0.000000 3.271260 
# 
# 
# High freq. dielectric constant tensor:
#      x y z
#    x 1.714910 0.000000 -0.005310 
#    y 0.000000 1.710010 0.000000 
#    z -0.005310 0.000000 1.705220 
# 
# From -- ./inp_files/11629.got.cif
#   From: 2010.06.25/outbox.cif.g09.slc.cpg/sg9_6_cif.got.tgz:11629.got - 2010.06.27 21:40:51.
