data_PCOD8054386
_publ_section_title
;
Structure prediction by ZEFSAII (Michael W. Deem and Ramdas Pophale) SiO2 
 PCOD8054386
Probable space group: C C
;
_chemical_formula_sum "Si O2"
_cell_formula_units_Z 32
_cell_length_a 30.624566
_cell_length_b 7.286176
_cell_length_c 20.888321
_cell_angle_alpha 90.000000
_cell_angle_beta 159.716939
_cell_angle_gamma 90.000000
_cell_volume 1615.752395
_symmetry_space_group_name_H-M "C C"
_symmetry_group_IT_number 9
_symmetry_cell_setting 'monoclinic'
loop_
_space_group_symop_operation_xyz
x,y,z
x,-y,1/2+z
1/2+x,1/2+y,z
1/2+x,1/2-y,1/2+z
loop_
_atom_site_type_symbol
_atom_site_label
_atom_site_fract_x
_atom_site_fract_y
_atom_site_fract_z
Si Si1 0.842840 0.674911 0.681210
Si Si2 0.110371 0.598349 0.004367
Si Si3 0.374610 0.732124 0.367362
Si Si4 0.478882 0.367072 0.460455
Si Si5 0.135686 0.547793 0.890716
Si Si6 0.734395 0.687917 0.066600
Si Si7 0.668117 0.307101 0.614755
Si Si8 0.448813 0.096758 0.524249
O O1 0.857538 0.669929 0.776804
O O2 0.760890 0.842125 0.540299
O O3 0.776042 0.476910 0.576752
O O4 0.981443 0.699080 0.843740
O O5 0.111320 0.601237 0.929662
O O6 0.233808 0.700607 0.202057
O O7 0.112506 0.397081 0.037791
O O8 0.455483 0.546688 0.471922
O O9 0.446639 0.877691 0.510468
O O10 0.348109 0.316560 0.246944
O O11 0.580069 0.415191 0.544207
O O12 0.522756 0.202736 0.568392
O O13 0.020780 0.621092 0.689963
O O14 0.150938 0.326130 0.908175
O O15 0.664038 0.616335 0.035425
O O16 0.809681 0.315725 0.837142
#
# Coordination Sequence:
#
# PCOD8054386 Si02
#       8
#     4   4   4   4   4   4   4   4
#     4  11  20  37  65  86 113 153 199 247 291 345
#     4  10  20  38  63  89 111 150 210 241 288 356
#     4  11  21  36  62  92 112 154 197 246 290 350
#     4  11  20  37  64  87 113 152 202 244 289 345
#     4  10  24  39  55  85 126 153 192 241 297 351
#     4  10  19  38  59  89 111 150 195 248 287 346
#     4  10  19  37  65  83 118 150 197 248 291 339
#     4  11  23  40  55  85 128 156 188 245 299 352
#
# _framework density 19.805014
#
# number of rings (size 3 to 8) (size 9 to 14) (size 15 to 20)
#    0.000    1.500    8.750    0.000    1.750    2.000 
#    0.000    0.000    0.000    0.000    0.000    0.000 
#    0.000    0.000    0.000    0.000    0.000    0.000 
#
# Total GULP energy -198296.289634 kJ/mol
# GULP energy per Si atom -12393.518102 kJ/mol
# Density = 1.975994 g / cm^3
# Si number density = 19.805014 Si / 1000 Ang^3
#
#
#
# Elastic Constant Matrix: (Units=GPa)
#
#
# Indices 1 2 3 4 5 6 
#
# 1 58.9358 33.0235 46.3218 0.0000 23.3586 0.0000
# 2 33.0235 96.3972 35.6087 0.0000 6.8533 0.0000
# 3 46.3218 35.6087 85.4662 0.0000 5.0868 0.0000
# 4 0.0000 0.0000 0.0000 27.2452 0.0000 -1.4297
# 5 23.3586 6.8533 5.0868 0.0000 40.5706 0.0000
# 6 0.0000 0.0000 0.0000 -1.4297 0.0000 20.4089
#
#
#
# Elastic Compliance Matrix: (Units=1/GPa)
#
#
# Indices 1 2 3 4 5 6 
#
# 1 0.046056 -0.006426 -0.020927 0.000000 -0.022807 0.000000
# 2 -0.006426 0.013242 -0.002137 0.000000 0.001731 0.000000
# 3 -0.020927 -0.002137 0.023369 0.000000 0.009480 0.000000
# 4 0.000000 0.000000 0.000000 0.036839 0.000000 0.002581
# 5 -0.022807 0.001731 0.009480 0.000000 0.036299 0.000000
# 6 0.000000 0.000000 0.000000 0.002581 0.000000 0.049179
#
#
# Mechanical properties :
#
#
# Convention : Reuss Voigt Hill
#
# Bulk Modulus (GPa) = 42.21893 52.30081 47.25987
# Shear Modulus (GPa) = 18.39191 26.03460 22.21325
#
# Velocity S-wave (km/s) = 3.05068 3.62960 3.35266
# Velocity P-wave (km/s) = 5.81141 6.63555 6.23710
#
# Compressibility (1/GPa) = 0.02368606
#
# Stress axis : x y z
#
# Youngs Moduli (GPa) = 21.71286 75.52004 42.79177
#
# Poissons Ratio (x) = 0.48528 0.89550
# Poissons Ratio (y) = 0.13952 0.09146
# Poissons Ratio (z) = 0.45438 0.16140
#
# Static dielectric constant tensor:
#      x y z
#    x 3.572820 0.000000 0.337580 
#    y 0.000000 3.786510 0.000000 
#    z 0.337580 0.000000 3.473570 
# 
# 
# High freq. dielectric constant tensor:
#      x y z
#    x 1.750290 0.000000 0.020500 
#    y 0.000000 1.786310 0.000000 
#    z 0.020500 0.000000 1.747700 
# 
# From -- ./inp_files/34690.got.cif
#   From: 2010.06.25/outbox.cif.g09.slc.cpg/sg9_18_cif.got.tgz:34690.got - 2010.06.27 21:40:51.
