data_PCOD8054922
_publ_section_title
;
Structure prediction by ZEFSAII (Michael W. Deem and Ramdas Pophale) SiO2 
 PCOD8054922
Probable space group: C C
;
_chemical_formula_sum "Si O2"
_cell_formula_units_Z 20
_cell_length_a 8.475192
_cell_length_b 22.106966
_cell_length_c 8.762781
_cell_angle_alpha 90.000000
_cell_angle_beta 144.579493
_cell_angle_gamma 90.000000
_cell_volume 951.543623
_symmetry_space_group_name_H-M "C C"
_symmetry_group_IT_number 9
_symmetry_cell_setting 'monoclinic'
loop_
_space_group_symop_operation_xyz
x,y,z
x,-y,1/2+z
1/2+x,1/2+y,z
1/2+x,1/2-y,1/2+z
loop_
_atom_site_type_symbol
_atom_site_label
_atom_site_fract_x
_atom_site_fract_y
_atom_site_fract_z
Si Si1 0.067140 0.476150 0.303620
Si Si2 0.721260 0.212904 0.541582
Si Si3 0.064064 0.911269 0.822283
Si Si4 0.939374 0.214037 0.376661
Si Si5 0.523560 0.083716 0.467078
O O1 0.283567 0.446994 0.588564
O O2 0.043699 0.548178 0.321175
O O3 0.155870 0.461476 0.199165
O O4 0.768683 0.446769 0.098751
O O5 0.439939 0.250500 0.314771
O O6 0.678882 0.147417 0.583709
O O7 0.830727 0.200922 0.459318
O O8 0.005157 0.847017 0.844856
O O9 0.210608 0.904105 0.771573
O O10 0.214727 0.252490 0.598322
#
# Coordination Sequence:
#
# PCOD8054922 Si02
#       5
#     4   4   4   4   4
#     4  10  25  40  64  97 126 168 213 261 329 356
#     4  10  24  41  66  95 129 169 211 263 322 376
#     4  10  24  40  62  96 122 175 207 269 309 382
#     4  10  21  40  62  93 128 172 211 259 318 381
#     4  10  26  43  68  95 131 170 214 268 312 391
#
# _framework density 21.018478999999999
#
# number of rings (size 3 to 8) (size 9 to 14) (size 15 to 20)
#    1.200    0.800    0.000    1.200    8.400    1.600 
#    0.000    0.000    0.000    0.000    0.000    0.000 
#    0.000    0.000    0.000    0.000    0.000    0.000 
#
# Total GULP energy -123927.228112 kJ/mol
# GULP energy per Si atom -12392.722811 kJ/mol
# Density = 2.097064 g / cm^3
# Si number density = 21.018479 Si / 1000 Ang^3
#
#
#
# Elastic Constant Matrix: (Units=GPa)
#
#
# Indices 1 2 3 4 5 6 
#
# 1 46.5969 64.8263 35.5375 0.0000 -2.3001 0.0000
# 2 64.8263 159.3115 52.8794 0.0000 1.8186 0.0000
# 3 35.5375 52.8794 148.4088 0.0000 30.7101 0.0000
# 4 0.0000 0.0000 0.0000 29.4616 0.0000 -1.6626
# 5 -2.3001 1.8186 30.7101 0.0000 17.6770 0.0000
# 6 0.0000 0.0000 0.0000 -1.6626 0.0000 49.6757
#
#
#
# Elastic Compliance Matrix: (Units=1/GPa)
#
#
# Indices 1 2 3 4 5 6 
#
# 1 0.066415 -0.022144 -0.016039 0.000000 0.038784 0.000000
# 2 -0.022144 0.014896 0.001418 0.000000 -0.006878 0.000000
# 3 -0.016039 0.001418 0.016449 0.000000 -0.030809 0.000000
# 4 0.000000 0.000000 0.000000 0.034007 0.000000 0.001138
# 5 0.038784 -0.006878 -0.030809 0.000000 0.115849 0.000000
# 6 0.000000 0.000000 0.000000 0.001138 0.000000 0.020169
#
#
# Mechanical properties :
#
#
# Convention : Reuss Voigt Hill
#
# Bulk Modulus (GPa) = 41.27175 73.42261 57.34718
# Shear Modulus (GPa) = 14.31067 32.76779 23.53923
#
# Velocity S-wave (km/s) = 2.61216 3.95270 3.35017
# Velocity P-wave (km/s) = 5.36437 7.47262 6.50448
#
# Compressibility (1/GPa) = 0.02422965
#
# Stress axis : x y z
#
# Youngs Moduli (GPa) = 15.05688 67.13407 60.79529
#
# Poissons Ratio (x) = 1.48664 0.97509
# Poissons Ratio (y) = 0.33342 -0.08624
# Poissons Ratio (z) = 0.24150 -0.09523
#
# Static dielectric constant tensor:
#      x y z
#    x 3.623610 0.000000 0.134090 
#    y 0.000000 3.684120 0.000000 
#    z 0.134090 0.000000 3.699560 
# 
# 
# High freq. dielectric constant tensor:
#      x y z
#    x 1.810700 0.000000 0.013150 
#    y 0.000000 1.828420 0.000000 
#    z 0.013150 0.000000 1.824580 
# 
# From -- ./inp_files/483.got.cif
#   From: 2010.06.25/outbox.cif.g09.slc.cpg/sg9_1_cif.got.tgz:483.got - 2010.06.27 21:40:51.
