data_PCOD8054057
_publ_section_title
;
Structure prediction by ZEFSAII (Michael W. Deem and Ramdas Pophale) SiO2 
 PCOD8054057
Probable space group: C M
;
_chemical_formula_sum "Si O2"
_cell_formula_units_Z 32
_cell_length_a 11.383585
_cell_length_b 17.957876
_cell_length_c 13.783311
_cell_angle_alpha 90.000000
_cell_angle_beta 147.505306
_cell_angle_gamma 90.000000
_cell_volume 1513.704024
_symmetry_space_group_name_H-M "C M"
_symmetry_group_IT_number 8
_symmetry_cell_setting 'monoclinic'
loop_
_space_group_symop_operation_xyz
x,y,z
x,-y,z
1/2+x,1/2+y,z
1/2+x,1/2-y,z
loop_
_atom_site_type_symbol
_atom_site_label
_atom_site_fract_x
_atom_site_fract_y
_atom_site_fract_z
Si Si1 0.817250 0.645216 0.182660
Si Si2 0.523049 0.844800 0.586970
Si Si3 0.281046 0.689628 0.117696
Si Si4 0.612767 0.587123 0.229183
Si Si5 0.935911 0.812162 0.428774
Si Si6 0.907375 0.291940 0.706452
Si Si7 0.456726 0.419412 0.819945
Si Si8 0.299772 0.634987 0.534479
O O1 0.890924 0.729117 0.205818
O O2 0.641063 0.628947 0.145501
O O3 0.047789 0.608166 0.369214
O O4 0.699396 0.611885 0.006654
O O5 0.345194 0.909666 0.446611
O O6 0.433545 0.774471 0.461047
O O7 0.542197 0.830713 0.714763
O O8 0.766288 0.865417 0.726033
O O9 0.428269 0.631646 0.160813
O O10 0.268161 0.667422 0.223532
O O11 0.046356 0.701841 0.903198
O O12 0.545756 0.500000 0.170717
O O13 0.180352 0.834809 0.567179
O O14 0.866500 0.863869 0.469476
O O15 0.854046 0.209444 0.633282
O O16 0.431951 0.500000 0.851977
O O17 0.435732 0.426895 0.688270
#
# Coordination Sequence:
#
# PCOD8054057 Si02
#       8
#     4   4   4   4   4   4   4   4
#     4  12  23  40  64 100 134 172 221 274 330 396
#     4  11  20  40  64  96 132 167 216 275 330 390
#     4  12  22  39  68  96 131 177 220 272 323 397
#     4  12  24  41  68 102 136 172 215 279 345 388
#     4  11  21  40  63  97 126 168 229 270 318 387
#     4  11  21  38  65  97 125 164 219 275 323 382
#     4  12  24  41  64  96 132 173 217 269 335 393
#     4  11  23  39  62  94 130 169 219 272 322 387
#
# _framework density 21.140196
#
# number of rings (size 3 to 8) (size 9 to 14) (size 15 to 20)
#    0.000    0.500    7.500    2.250    0.000    2.500 
#    0.000    1.250    0.000    1.500    0.000    0.000 
#    0.000    0.000    0.000    0.000    0.000    0.000 
#
# Total GULP energy -198237.298866 kJ/mol
# GULP energy per Si atom -12389.831179 kJ/mol
# Density = 2.109208 g / cm^3
# Si number density = 21.140196 Si / 1000 Ang^3
#
#
#
# Elastic Constant Matrix: (Units=GPa)
#
#
# Indices 1 2 3 4 5 6 
#
# 1 122.5910 37.7320 44.7868 0.0003 -19.6266 -0.0002
# 2 37.7320 82.2625 18.8560 0.0001 2.0654 -0.0004
# 3 44.7868 18.8560 154.6568 -0.0020 -24.3811 0.0006
# 4 0.0003 0.0001 -0.0020 17.4584 -0.0004 4.5200
# 5 -19.6266 2.0654 -24.3811 -0.0004 29.6747 0.0003
# 6 -0.0002 -0.0004 0.0006 4.5200 0.0003 18.9603
#
#
#
# Elastic Compliance Matrix: (Units=1/GPa)
#
#
# Indices 1 2 3 4 5 6 
#
# 1 0.011332 -0.004982 -0.001652 0.000000 0.006485 0.000000
# 2 -0.004982 0.014852 -0.001207 0.000000 -0.005320 0.000000
# 3 -0.001652 -0.001207 0.007964 0.000001 0.005535 -0.000001
# 4 0.000000 0.000000 0.000001 0.061047 0.000002 -0.014553
# 5 0.006485 -0.005320 0.005535 0.000002 0.042905 -0.000001
# 6 0.000000 0.000000 -0.000001 -0.014553 -0.000001 0.056211
#
#
# Mechanical properties :
#
#
# Convention : Reuss Voigt Hill
#
# Bulk Modulus (GPa) = 54.15263 62.47334 58.31299
# Shear Modulus (GPa) = 23.13231 30.42770 26.78001
#
# Velocity S-wave (km/s) = 3.31151 3.79797 3.56305
# Velocity P-wave (km/s) = 6.34768 6.98919 6.67614
#
# Compressibility (1/GPa) = 0.01846632
#
# Stress axis : x y z
#
# Youngs Moduli (GPa) = 88.24322 67.33311 125.56545
#
# Poissons Ratio (x) = 0.33546 0.20744
# Poissons Ratio (y) = 0.43963 0.15152
# Poissons Ratio (z) = 0.14578 0.08125
#
# Static dielectric constant tensor:
#      x y z
#    x 3.987740 0.000000 -0.391000 
#    y 0.000000 3.578850 0.000000 
#    z -0.391000 0.000000 4.034870 
# 
# 
# High freq. dielectric constant tensor:
#      x y z
#    x 1.824170 0.000000 -0.020580 
#    y 0.000000 1.790970 0.000000 
#    z -0.020580 0.000000 1.846440 
# 
# From -- ./inp_files/26288.got.cif
#   From: 2010.03.12/outbox.cif.g09.slc.cpg/sg8_14_cif.got.tgz:26288.got - 2010.03.31 10:45:26.
