data_PCOD8054162
_publ_section_title
;
Structure prediction by ZEFSAII (Michael W. Deem and Ramdas Pophale) SiO2 
 PCOD8054162
Probable space group: C C
;
_chemical_formula_sum "Si O2"
_cell_formula_units_Z 28
_cell_length_a 36.398218
_cell_length_b 7.512773
_cell_length_c 5.300654
_cell_angle_alpha 90.000000
_cell_angle_beta 115.811796
_cell_angle_gamma 90.000000
_cell_volume 1304.856987
_symmetry_space_group_name_H-M "C C"
_symmetry_group_IT_number 9
_symmetry_cell_setting 'monoclinic'
loop_
_space_group_symop_operation_xyz
x,y,z
x,-y,1/2+z
1/2+x,1/2+y,z
1/2+x,1/2-y,1/2+z
loop_
_atom_site_type_symbol
_atom_site_label
_atom_site_fract_x
_atom_site_fract_y
_atom_site_fract_z
Si Si1 0.769460 0.687263 0.640000
Si Si2 0.735349 0.291993 0.537969
Si Si3 0.575075 0.886341 0.543042
Si Si4 0.898771 0.712485 0.528561
Si Si5 0.485051 0.889830 0.328554
Si Si6 0.365040 0.184902 0.927700
Si Si7 0.646536 0.613222 0.754797
O O1 0.745283 0.501869 0.559367
O O2 0.756337 0.795508 0.348823
O O3 0.817191 0.647321 0.789409
O O4 0.754926 0.796462 0.844523
O O5 0.686718 0.263485 0.400606
O O6 0.529583 0.800464 0.427073
O O7 0.606652 0.729483 0.675347
O O8 0.581424 0.971870 0.286497
O O9 0.877853 0.796224 0.716329
O O10 0.889154 0.501177 0.500625
O O11 0.947593 0.747394 0.676208
O O12 0.878856 0.796821 0.216475
O O13 0.480975 0.959069 0.602366
O O14 0.646552 0.532660 0.474873
#
# Coordination Sequence:
#
# PCOD8054162 Si02
#       7
#     4   4   4   4   4   4   4
#     4  10  16  25  36  61  96 128 167 195 255 306
#     4  10  16  27  41  62  91 130 166 199 247 311
#     4  10  23  38  56  79 107 141 177 229 273 319
#     4  10  14  22  33  55  80 123 167 185 225 306
#     4  10  16  29  44  60  90 127 170 189 253 309
#     4  10  16  20  34  57  87 127 161 191 235 305
#     4  12  21  37  58  80 103 140 190 220 268 320
#
# _framework density 21.458293000000001
#
# number of rings (size 3 to 8) (size 9 to 14) (size 15 to 20)
#    0.000    1.714    5.714    5.143    0.000    0.000 
#    0.000    0.000    0.000    0.000    0.000    0.000 
#    0.000    0.000    0.000   43.714    1.714    0.000 
#
# Total GULP energy -173479.711503 kJ/mol
# GULP energy per Si atom -12391.407964 kJ/mol
# Density = 2.140945 g / cm^3
# Si number density = 21.458293 Si / 1000 Ang^3
#
#
#
# Elastic Constant Matrix: (Units=GPa)
#
#
# Indices 1 2 3 4 5 6 
#
# 1 153.5518 10.1702 75.2803 0.0000 7.1712 0.0000
# 2 10.1702 8.2203 5.6500 0.0000 5.6799 0.0000
# 3 75.2803 5.6500 171.1129 0.0000 -16.0514 0.0000
# 4 0.0000 0.0000 0.0000 3.7695 0.0000 5.4012
# 5 7.1712 5.6799 -16.0514 0.0000 65.8766 0.0000
# 6 0.0000 0.0000 0.0000 5.4012 0.0000 10.0724
#
#
#
# Elastic Compliance Matrix: (Units=1/GPa)
#
#
# Indices 1 2 3 4 5 6 
#
# 1 0.008934 -0.007585 -0.003797 0.000000 -0.001244 0.000000
# 2 -0.007585 0.140943 -0.002435 0.000000 -0.011920 0.000000
# 3 -0.003797 -0.002435 0.007832 0.000000 0.002532 0.000000
# 4 0.000000 0.000000 0.000000 1.145252 0.000000 -0.614124
# 5 -0.001244 -0.011920 0.002532 0.000000 0.016960 0.000000
# 6 0.000000 0.000000 0.000000 -0.614124 0.000000 0.428595
#
#
# Mechanical properties :
#
#
# Convention : Reuss Voigt Hill
#
# Bulk Modulus (GPa) = 7.68779 57.23178 32.45978
# Shear Modulus (GPa) = 2.74799 32.06267 17.40533
#
# Velocity S-wave (km/s) = 1.13287 3.86966 2.85111
# Velocity P-wave (km/s) = 2.30253 6.83336 5.09884
#
# Compressibility (1/GPa) = 0.13007636
#
# Stress axis : x y z
#
# Youngs Moduli (GPa) = 111.92767 7.09508 127.67474
#
# Poissons Ratio (x) = 0.05381 0.48476
# Poissons Ratio (y) = 0.84892 0.31091
# Poissons Ratio (z) = 0.42497 0.01728
#
# Static dielectric constant tensor:
#      x y z
#    x 5.046680 0.000000 -1.363830 
#    y 0.000000 2.783120 0.000000 
#    z -1.363830 0.000000 6.201650 
# 
# 
# High freq. dielectric constant tensor:
#      x y z
#    x 1.870370 0.000000 -0.012000 
#    y 0.000000 1.735870 0.000000 
#    z -0.012000 0.000000 1.882940 
# 
# From -- ./inp_files/3450.got.cif
#   From: 2010.06.25/outbox.cif.g09.slc.cpg/sg9_2_cif.got.tgz:3450.got - 2010.06.27 21:40:51.
