data_PCOD8054080
_publ_section_title
;
Structure prediction by ZEFSAII (Michael W. Deem and Ramdas Pophale) SiO2 
 PCOD8054080
Probable space group: C M
;
_chemical_formula_sum "Si O2"
_cell_formula_units_Z 28
_cell_length_a 12.082410
_cell_length_b 19.500374
_cell_length_c 4.994075
_cell_angle_alpha 90.000000
_cell_angle_beta 78.348644
_cell_angle_gamma 90.000000
_cell_volume 1152.416016
_symmetry_space_group_name_H-M "C M"
_symmetry_group_IT_number 8
_symmetry_cell_setting 'monoclinic'
loop_
_space_group_symop_operation_xyz
x,y,z
x,-y,z
1/2+x,1/2+y,z
1/2+x,1/2-y,z
loop_
_atom_site_type_symbol
_atom_site_label
_atom_site_fract_x
_atom_site_fract_y
_atom_site_fract_z
Si Si1 0.458930 0.422857 0.678050
Si Si2 0.996541 0.654776 0.906981
Si Si3 0.255734 0.159491 0.193512
Si Si4 0.673507 0.000000 0.222045
Si Si5 0.337304 0.377883 0.230603
Si Si6 0.532224 0.000000 0.787985
Si Si7 0.715949 0.423595 0.701754
Si Si8 0.632582 0.792821 0.336677
O O1 0.409559 0.500000 0.743265
O O2 0.432945 0.393691 0.399386
O O3 0.591580 0.424763 0.641352
O O4 0.400213 0.372061 0.917095
O O5 0.085082 0.666269 0.103929
O O6 0.875895 0.690448 0.030772
O O7 0.969236 0.572881 0.878627
O O8 0.049988 0.692210 0.624010
O O9 0.285838 0.125152 0.466346
O O10 0.149866 0.212130 0.270427
O O11 0.212758 0.103137 0.004540
O O12 0.741679 0.065478 0.275164
O O13 0.561040 0.000000 0.460004
O O14 0.643573 0.000000 0.922292
O O15 0.264012 0.311036 0.335118
O O16 0.769043 0.500000 0.677085
#
# Coordination Sequence:
#
# PCOD8054080 Si02
#       8
#     4   4   4   2   4   2   4   4
#     4  11  22  37  64  99 135 176 228 280 344 415
#     4  12  26  46  74 108 142 193 244 295 362 424
#     4  12  28  50  73 103 143 192 235 304 363 436
#     4  12  20  36  64 101 140 185 224 298 362 402
#     4  12  21  36  64 100 140 183 225 286 350 414
#     4  12  22  40  68 105 144 185 240 310 348 410
#     4  11  26  48  72 103 138 185 247 303 357 423
#     4  12  27  46  70 104 148 184 244 287 356 443
#
# _framework density 24.296780999999999
#
# number of rings (size 3 to 8) (size 9 to 14) (size 15 to 20)
#    0.000    0.286    4.286    4.714    2.000    5.714 
#    0.000    0.000    0.000    0.000    0.000    0.000 
#    0.000    0.000    0.000    0.000    0.000    0.000 
#
# Total GULP energy -173598.755243 kJ/mol
# GULP energy per Si atom -12399.911089 kJ/mol
# Density = 2.424148 g / cm^3
# Si number density = 24.296781 Si / 1000 Ang^3
#
#
#
# Elastic Constant Matrix: (Units=GPa)
#
#
# Indices 1 2 3 4 5 6 
#
# 1 56.6417 14.5188 18.2919 0.0000 -7.3951 0.0000
# 2 14.5188 103.2275 42.7755 0.0000 -12.6218 0.0000
# 3 18.2919 42.7755 139.0114 0.0000 -9.2930 0.0000
# 4 0.0000 0.0000 0.0000 46.4540 0.0000 -7.9565
# 5 -7.3951 -12.6218 -9.2930 0.0000 38.7854 0.0000
# 6 0.0000 0.0000 0.0000 -7.9565 0.0000 31.5457
#
#
#
# Elastic Compliance Matrix: (Units=1/GPa)
#
#
# Indices 1 2 3 4 5 6 
#
# 1 0.019002 -0.001587 -0.001834 0.000000 0.002667 0.000000
# 2 -0.001587 0.011552 -0.003166 0.000000 0.002698 0.000000
# 3 -0.001834 -0.003166 0.008452 0.000000 0.000645 0.000000
# 4 0.000000 0.000000 0.000000 0.022499 0.000000 0.005675
# 5 0.002667 0.002698 0.000645 0.000000 0.027324 0.000000
# 6 0.000000 0.000000 0.000000 0.005675 0.000000 0.033131
#
#
# Mechanical properties :
#
#
# Convention : Reuss Voigt Hill
#
# Bulk Modulus (GPa) = 38.70810 50.00587 44.35699
# Shear Modulus (GPa) = 34.78405 38.24330 36.51367
#
# Velocity S-wave (km/s) = 3.78780 3.97168 3.88083
# Velocity P-wave (km/s) = 5.92417 6.45432 6.19492
#
# Compressibility (1/GPa) = 0.02583438
#
# Stress axis : x y z
#
# Youngs Moduli (GPa) = 52.62602 86.56372 118.31243
#
# Poissons Ratio (x) = 0.13734 0.21697
# Poissons Ratio (y) = 0.08349 0.37453
# Poissons Ratio (z) = 0.09651 0.27403
#
# Static dielectric constant tensor:
#      x y z
#    x 4.272200 0.000000 0.109180 
#    y 0.000000 3.794390 0.000000 
#    z 0.109180 0.000000 4.428280 
# 
# 
# High freq. dielectric constant tensor:
#      x y z
#    x 1.969580 0.000000 0.001670 
#    y 0.000000 1.959260 0.000000 
#    z 0.001670 0.000000 1.975250 
# 
# From -- ./inp_files/2933.got.cif
#   From: 2010.03.12/outbox.cif.g09.slc.cpg/sg8_2_cif.got.tgz:2933.got - 2010.03.31 10:45:26.
