data_PCOD8054172
_publ_section_title
;
Structure prediction by ZEFSAII (Michael W. Deem and Ramdas Pophale) SiO2 
 PCOD8054172
Probable space group: C C
;
_chemical_formula_sum "Si O2"
_cell_formula_units_Z 24
_cell_length_a 31.102106
_cell_length_b 6.998665
_cell_length_c 5.210832
_cell_angle_alpha 90.000000
_cell_angle_beta 70.190938
_cell_angle_gamma 90.000000
_cell_volume 1067.141307
_symmetry_space_group_name_H-M "C C"
_symmetry_group_IT_number 9
_symmetry_cell_setting 'monoclinic'
loop_
_space_group_symop_operation_xyz
x,y,z
x,-y,1/2+z
1/2+x,1/2+y,z
1/2+x,1/2-y,1/2+z
loop_
_atom_site_type_symbol
_atom_site_label
_atom_site_fract_x
_atom_site_fract_y
_atom_site_fract_z
Si Si1 0.027980 0.377670 0.697010
Si Si2 0.942641 0.120822 0.863075
Si Si3 0.857196 0.374111 0.086764
Si Si4 0.620150 0.703889 0.588442
Si Si5 0.659211 0.726403 0.010211
Si Si6 0.756739 0.382163 0.223903
O O1 0.034441 0.461224 0.399573
O O2 0.065405 0.208650 0.659746
O O3 0.977692 0.292872 0.832561
O O4 0.891419 0.198866 0.989463
O O5 0.950774 0.036256 0.564884
O O6 0.864990 0.529035 0.847220
O O7 0.806045 0.283782 0.170623
O O8 0.633064 0.819497 0.821945
O O9 0.641179 0.493043 0.577708
O O10 0.644399 0.821661 0.308128
O O11 0.713674 0.753499 0.866390
O O12 0.753082 0.555806 0.434668
#
# Coordination Sequence:
#
# PCOD8054172 Si02
#       6
#     4   4   4   4   4   4
#     4  12  26  44  63  89 129 167 205 253 320 375
#     4  12  26  43  67  92 123 159 211 262 312 370
#     4  10  21  38  65  92 125 158 206 252 319 362
#     4  10  20  31  58  81 126 150 199 249 299 338
#     4  10  17  32  55  94 117 149 206 256 279 344
#     4  10  16  30  54  92 116 155 199 256 285 353
#
# _framework density 22.489992000000001
#
# number of rings (size 3 to 8) (size 9 to 14) (size 15 to 20)
#    0.000    1.333    3.333    4.000    4.667    0.000 
#    0.000    0.000    0.000    6.000    0.000    0.000 
#    0.000    0.000    0.000    0.000    0.000    0.000 
#
# Total GULP energy -148738.697896 kJ/mol
# GULP energy per Si atom -12394.891491 kJ/mol
# Density = 2.243880 g / cm^3
# Si number density = 22.489992 Si / 1000 Ang^3
#
#
#
# Elastic Constant Matrix: (Units=GPa)
#
#
# Indices 1 2 3 4 5 6 
#
# 1 117.3964 12.4930 27.5510 0.0000 -10.8658 0.0000
# 2 12.4930 34.2657 -5.5453 0.0000 -6.4900 0.0000
# 3 27.5510 -5.5453 120.2244 0.0000 16.0569 0.0000
# 4 0.0000 0.0000 0.0000 17.6730 0.0000 -7.8382
# 5 -10.8658 -6.4900 16.0569 0.0000 53.3013 0.0000
# 6 0.0000 0.0000 0.0000 -7.8382 0.0000 28.2255
#
#
#
# Elastic Compliance Matrix: (Units=1/GPa)
#
#
# Indices 1 2 3 4 5 6 
#
# 1 0.009753 -0.003545 -0.002716 0.000000 0.002374 0.000000
# 2 -0.003545 0.031262 0.001920 0.000000 0.002505 0.000000
# 3 -0.002716 0.001920 0.009452 0.000000 -0.003167 0.000000
# 4 0.000000 0.000000 0.000000 0.064531 0.000000 0.017920
# 5 0.002374 0.002505 -0.003167 0.000000 0.020504 0.000000
# 6 0.000000 0.000000 0.000000 0.017920 0.000000 0.040405
#
#
# Mechanical properties :
#
#
# Convention : Reuss Voigt Hill
#
# Bulk Modulus (GPa) = 23.93302 37.87599 30.90450
# Shear Modulus (GPa) = 25.18675 35.66581 30.42628
#
# Velocity S-wave (km/s) = 3.35013 3.98660 3.68214
# Velocity P-wave (km/s) = 5.06254 6.16996 5.64348
#
# Compressibility (1/GPa) = 0.04178327
#
# Stress axis : x y z
#
# Youngs Moduli (GPa) = 102.53759 31.98821 105.80178
#
# Poissons Ratio (x) = 0.11341 0.28731
# Poissons Ratio (y) = 0.36354 -0.20312
# Poissons Ratio (z) = 0.27845 -0.06141
#
# Static dielectric constant tensor:
#      x y z
#    x 4.600140 0.000000 0.427610 
#    y 0.000000 3.386760 0.000000 
#    z 0.427610 0.000000 5.147330 
# 
# 
# High freq. dielectric constant tensor:
#      x y z
#    x 1.909640 0.000000 0.008450 
#    y 0.000000 1.830000 0.000000 
#    z 0.008450 0.000000 1.920450 
# 
# From -- ./inp_files/3423.got.cif
#   From: 2010.06.25/outbox.cif.g09.slc.cpg/sg9_2_cif.got.tgz:3423.got - 2010.06.27 21:40:51.
