data_PCOD8054643
_publ_section_title
;
Structure prediction by ZEFSAII (Michael W. Deem and Ramdas Pophale) SiO2 
 PCOD8054643
Probable space group: C C
;
_chemical_formula_sum "Si O2"
_cell_formula_units_Z 20
_cell_length_a 25.697844
_cell_length_b 7.705917
_cell_length_c 14.780032
_cell_angle_alpha 90.000000
_cell_angle_beta 20.319123
_cell_angle_gamma 90.000000
_cell_volume 1016.335206
_symmetry_space_group_name_H-M "C C"
_symmetry_group_IT_number 9
_symmetry_cell_setting 'monoclinic'
loop_
_space_group_symop_operation_xyz
x,y,z
x,-y,1/2+z
1/2+x,1/2+y,z
1/2+x,1/2-y,1/2+z
loop_
_atom_site_type_symbol
_atom_site_label
_atom_site_fract_x
_atom_site_fract_y
_atom_site_fract_z
Si Si1 0.546210 0.460485 0.262790
Si Si2 0.337070 0.803915 0.742059
Si Si3 0.479735 0.183381 0.817944
Si Si4 0.819946 0.908043 0.773826
Si Si5 0.325718 0.904050 0.390161
O O1 0.479263 0.607388 0.305004
O O2 0.413637 0.357793 0.530185
O O3 0.655504 0.330943 0.030201
O O4 0.645898 0.568948 0.175356
O O5 0.411017 0.860447 0.527498
O O6 0.363819 0.605504 0.727377
O O7 0.404243 0.934019 0.708942
O O8 0.375357 0.095638 0.912752
O O9 0.645279 0.106603 0.536188
O O10 0.870701 0.778987 0.770575
#
# Coordination Sequence:
#
# PCOD8054643 Si02
#       5
#     4   4   4   4   4
#     4   8  20  40  55  86 119 147 196 239 278 351
#     4   9  21  40  58  84 120 153 193 240 284 349
#     4  10  20  40  61  86 120 155 192 244 287 342
#     4  10  20  40  60  82 120 152 195 244 286 340
#     4   9  21  40  60  84 123 155 190 239 295 342
#
# _framework density 19.678546000000001
#
# number of rings (size 3 to 8) (size 9 to 14) (size 15 to 20)
#    1.200    1.600    0.000    0.000    2.800    1.600 
#   25.200    0.000    0.000    0.000    0.000    0.000 
#    0.000    0.000    0.000    0.000    0.000    0.000 
#
# Total GULP energy -123885.645688 kJ/mol
# GULP energy per Si atom -12388.564569 kJ/mol
# Density = 1.963376 g / cm^3
# Si number density = 19.678546 Si / 1000 Ang^3
#
#
#
# Elastic Constant Matrix: (Units=GPa)
#
#
# Indices 1 2 3 4 5 6 
#
# 1 58.7292 22.5694 16.0008 0.0000 6.7834 0.0000
# 2 22.5694 90.0267 23.8848 0.0000 13.3101 0.0000
# 3 16.0008 23.8848 138.9194 0.0000 20.0643 0.0000
# 4 0.0000 0.0000 0.0000 26.5078 0.0000 3.9357
# 5 6.7834 13.3101 20.0643 0.0000 21.2222 0.0000
# 6 0.0000 0.0000 0.0000 3.9357 0.0000 23.2573
#
#
#
# Elastic Compliance Matrix: (Units=1/GPa)
#
#
# Indices 1 2 3 4 5 6 
#
# 1 0.019218 -0.004151 -0.001145 0.000000 -0.002457 0.000000
# 2 -0.004151 0.013301 -0.000921 0.000000 -0.006144 0.000000
# 3 -0.001145 -0.000921 0.008515 0.000000 -0.007107 0.000000
# 4 0.000000 0.000000 0.000000 0.038697 0.000000 -0.006548
# 5 -0.002457 -0.006144 -0.007107 0.000000 0.058479 0.000000
# 6 0.000000 0.000000 0.000000 -0.006548 0.000000 0.044105
#
#
# Mechanical properties :
#
#
# Convention : Reuss Voigt Hill
#
# Bulk Modulus (GPa) = 34.96497 45.84280 40.40389
# Shear Modulus (GPa) = 24.47577 29.21214 26.84396
#
# Velocity S-wave (km/s) = 3.53055 3.85706 3.69741
# Velocity P-wave (km/s) = 5.86740 6.57132 6.22931
#
# Compressibility (1/GPa) = 0.02860005
#
# Stress axis : x y z
#
# Youngs Moduli (GPa) = 52.03397 75.18055 117.43766
#
# Poissons Ratio (x) = 0.31207 0.13447
# Poissons Ratio (y) = 0.21599 0.10821
# Poissons Ratio (z) = 0.05958 0.06927
#
# Static dielectric constant tensor:
#      x y z
#    x 3.036700 0.000000 0.080430 
#    y 0.000000 3.574320 0.000000 
#    z 0.080430 0.000000 3.639430 
# 
# 
# High freq. dielectric constant tensor:
#      x y z
#    x 1.720140 0.000000 0.009700 
#    y 0.000000 1.771130 0.000000 
#    z 0.009700 0.000000 1.777080 
# 
# From -- ./inp_files/13973.got.cif
#   From: 2010.06.25/outbox.cif.g09.slc.cpg/sg9_7_cif.got.tgz:13973.got - 2010.06.27 21:40:51.
