data_PCOD8054895
_publ_section_title
;
Structure prediction by ZEFSAII (Michael W. Deem and Ramdas Pophale) SiO2 
 PCOD8054895
Probable space group: C C
;
_chemical_formula_sum "Si O2"
_cell_formula_units_Z 32
_cell_length_a 8.968364
_cell_length_b 21.331351
_cell_length_c 9.447643
_cell_angle_alpha 90.000000
_cell_angle_beta 61.736883
_cell_angle_gamma 90.000000
_cell_volume 1591.928907
_symmetry_space_group_name_H-M "C C"
_symmetry_group_IT_number 9
_symmetry_cell_setting 'monoclinic'
loop_
_space_group_symop_operation_xyz
x,y,z
x,-y,1/2+z
1/2+x,1/2+y,z
1/2+x,1/2-y,1/2+z
loop_
_atom_site_type_symbol
_atom_site_label
_atom_site_fract_x
_atom_site_fract_y
_atom_site_fract_z
Si Si1 0.087350 0.354692 0.100320
Si Si2 0.842261 0.981287 0.651796
Si Si3 0.379293 0.044745 0.542023
Si Si4 0.171768 0.020871 0.368209
Si Si5 0.152138 0.228237 0.172049
Si Si6 0.927885 0.114753 0.330631
Si Si7 0.659933 0.054177 0.952979
Si Si8 0.017442 0.324141 0.428266
O O1 0.104920 0.278757 0.069230
O O2 0.996809 0.366093 0.293496
O O3 0.976389 0.390052 0.032045
O O4 0.284068 0.377174 0.015574
O O5 0.824692 0.919152 0.752691
O O6 0.719030 0.975394 0.574069
O O7 0.799057 0.042446 0.767227
O O8 0.035975 0.983137 0.519595
O O9 0.302634 0.052334 0.419325
O O10 0.246456 0.029853 0.725870
O O11 0.497349 0.984479 0.478805
O O12 0.085110 0.076631 0.321081
O O13 0.136502 0.264448 0.332466
O O14 0.002895 0.178038 0.232977
O O15 0.337662 0.198190 0.071052
O O16 0.612671 0.128018 0.992914
#
# Coordination Sequence:
#
# PCOD8054895 Si02
#       8
#     4   4   4   4   4   4   4   4
#     4  10  21  41  66  87 128 173 216 258 320 391
#     4  12  24  41  65  96 135 169 216 265 344 395
#     4  12  23  38  62 100 132 166 209 271 334 382
#     4  12  24  39  62 101 133 163 213 274 329 397
#     4  10  22  41  67  93 125 183 218 260 324 393
#     4  12  22  44  67  91 130 176 218 262 329 397
#     4  12  23  41  65  98 130 173 212 271 331 396
#     4  10  21  39  68  94 125 173 222 263 321 391
#
# _framework density 20.101400000000002
#
# number of rings (size 3 to 8) (size 9 to 14) (size 15 to 20)
#    0.750    0.000    5.000    3.750    1.750    0.000 
#    0.000    1.250    0.000    0.000    0.000    0.000 
#    0.000    0.000    0.000    0.000    0.000    0.000 
#
# Total GULP energy -198249.686198 kJ/mol
# GULP energy per Si atom -12390.605387 kJ/mol
# Density = 2.005565 g / cm^3
# Si number density = 20.101400 Si / 1000 Ang^3
#
#
#
# Elastic Constant Matrix: (Units=GPa)
#
#
# Indices 1 2 3 4 5 6 
#
# 1 96.8527 39.7339 36.2927 0.0000 4.2014 0.0000
# 2 39.7339 112.4213 31.4498 0.0000 -6.7748 0.0000
# 3 36.2927 31.4498 92.8170 0.0000 -12.3145 0.0000
# 4 0.0000 0.0000 0.0000 36.1776 0.0000 -6.1590
# 5 4.2014 -6.7748 -12.3145 0.0000 37.9716 0.0000
# 6 0.0000 0.0000 0.0000 -6.1590 0.0000 37.9667
#
#
#
# Elastic Compliance Matrix: (Units=1/GPa)
#
#
# Indices 1 2 3 4 5 6 
#
# 1 0.013763 -0.003805 -0.004581 0.000000 -0.003687 0.000000
# 2 -0.003805 0.010896 -0.001976 0.000000 0.001724 0.000000
# 3 -0.004581 -0.001976 0.013851 0.000000 0.004646 0.000000
# 4 0.000000 0.000000 0.000000 0.028426 0.000000 0.004611
# 5 -0.003687 0.001724 0.004646 0.000000 0.028558 0.000000
# 6 0.000000 0.000000 0.000000 0.004611 0.000000 0.027087
#
#
# Mechanical properties :
#
#
# Convention : Reuss Voigt Hill
#
# Bulk Modulus (GPa) = 56.22200 57.44932 56.83566
# Shear Modulus (GPa) = 33.50443 35.39748 34.45096
#
# Velocity S-wave (km/s) = 4.08704 4.20092 4.14437
# Velocity P-wave (km/s) = 7.09237 7.22302 7.15800
#
# Compressibility (1/GPa) = 0.01778663
#
# Stress axis : x y z
#
# Youngs Moduli (GPa) = 72.66091 91.77289 72.19616
#
# Poissons Ratio (x) = 0.34918 0.33076
# Poissons Ratio (y) = 0.27646 0.14263
# Poissons Ratio (z) = 0.33289 0.18131
#
# Static dielectric constant tensor:
#      x y z
#    x 3.457590 0.000000 -0.221750 
#    y 0.000000 3.756970 0.000000 
#    z -0.221750 0.000000 3.950160 
# 
# 
# High freq. dielectric constant tensor:
#      x y z
#    x 1.763480 0.000000 -0.023150 
#    y 0.000000 1.781060 0.000000 
#    z -0.023150 0.000000 1.799000 
# 
# From -- ./inp_files/6023.got.cif
#   From: 2010.06.25/outbox.cif.g09.slc.cpg/sg9_4_cif.got.tgz:6023.got - 2010.06.27 21:40:51.
