data_PCOD8054467
_publ_section_title
;
Structure prediction by ZEFSAII (Michael W. Deem and Ramdas Pophale) SiO2 
 PCOD8054467
Probable space group: C C
;
_chemical_formula_sum "Si O2"
_cell_formula_units_Z 24
_cell_length_a 11.782525
_cell_length_b 21.688047
_cell_length_c 5.324476
_cell_angle_alpha 90.000000
_cell_angle_beta 127.389277
_cell_angle_gamma 90.000000
_cell_volume 1081.048176
_symmetry_space_group_name_H-M "C C"
_symmetry_group_IT_number 9
_symmetry_cell_setting 'monoclinic'
loop_
_space_group_symop_operation_xyz
x,y,z
x,-y,1/2+z
1/2+x,1/2+y,z
1/2+x,1/2-y,1/2+z
loop_
_atom_site_type_symbol
_atom_site_label
_atom_site_fract_x
_atom_site_fract_y
_atom_site_fract_z
Si Si1 0.335960 0.023793 0.989650
Si Si2 0.309997 0.157517 0.081457
Si Si3 0.253751 0.290660 0.887606
Si Si4 0.577797 0.208021 0.669218
Si Si5 0.516322 0.527131 0.121141
Si Si6 0.520207 0.659223 0.978518
O O1 0.416595 0.992468 0.860862
O O2 0.181569 0.992893 0.832317
O O3 0.334828 0.097514 0.942083
O O4 0.438303 0.165418 0.455326
O O5 0.300452 0.219441 0.899791
O O6 0.164931 0.144436 0.030251
O O7 0.167047 0.315183 0.529700
O O8 0.164979 0.294817 0.026397
O O9 0.393720 0.332827 0.104082
O O10 0.529642 0.278742 0.658060
O O11 0.441486 0.503781 0.763296
O O12 0.493556 0.600586 0.121110
#
# Coordination Sequence:
#
# PCOD8054467 Si02
#       6
#     4   4   4   4   4   4
#     4  10  20  33  54  91 112 145 188 259 285 324
#     4  10  21  38  64  89 119 153 207 244 288 351
#     4  10  24  40  58  88 124 162 187 244 304 353
#     4  10  24  40  58  88 124 162 187 244 304 353
#     4  10  20  33  54  91 112 145 188 259 285 324
#     4  10  21  38  64  89 119 153 207 244 288 351
#
# _framework density 22.200675
#
# number of rings (size 3 to 8) (size 9 to 14) (size 15 to 20)
#    0.000    2.000    3.333    0.000    4.667   14.667 
#    0.000    0.000    0.000    6.000    0.000    0.000 
#    0.000    0.000    0.000    0.000    0.000    0.000 
#
# Total GULP energy -148734.885219 kJ/mol
# GULP energy per Si atom -12394.573768 kJ/mol
# Density = 2.215015 g / cm^3
# Si number density = 22.200675 Si / 1000 Ang^3
#
#
#
# Elastic Constant Matrix: (Units=GPa)
#
#
# Indices 1 2 3 4 5 6 
#
# 1 63.8383 25.4222 54.7786 0.0000 -12.5827 0.0000
# 2 25.4222 108.0795 21.6794 0.0000 5.8803 0.0000
# 3 54.7786 21.6794 150.0093 0.0000 -5.6125 0.0000
# 4 0.0000 0.0000 0.0000 34.6857 0.0000 11.8241
# 5 -12.5827 5.8803 -5.6125 0.0000 43.8179 0.0000
# 6 0.0000 0.0000 0.0000 11.8241 0.0000 21.7444
#
#
#
# Elastic Compliance Matrix: (Units=1/GPa)
#
#
# Indices 1 2 3 4 5 6 
#
# 1 0.026475 -0.004871 -0.008696 0.000000 0.007142 0.000000
# 2 -0.004871 0.010519 0.000154 0.000000 -0.002791 0.000000
# 3 -0.008696 0.000154 0.009772 0.000000 -0.001266 0.000000
# 4 0.000000 0.000000 0.000000 0.035391 0.000000 -0.019245
# 5 0.007142 -0.002791 -0.001266 0.000000 0.025085 0.000000
# 6 0.000000 0.000000 0.000000 -0.019245 0.000000 0.056454
#
#
# Mechanical properties :
#
#
# Convention : Reuss Voigt Hill
#
# Bulk Modulus (GPa) = 50.15369 58.40971 54.28170
# Shear Modulus (GPa) = 25.35899 34.71939 30.03919
#
# Velocity S-wave (km/s) = 3.38340 3.95889 3.68241
# Velocity P-wave (km/s) = 6.15657 6.87489 6.52562
#
# Compressibility (1/GPa) = 0.01993871
#
# Stress axis : x y z
#
# Youngs Moduli (GPa) = 37.77215 95.06413 102.33078
#
# Poissons Ratio (x) = 0.46310 0.88991
# Poissons Ratio (y) = 0.18401 -0.01579
# Poissons Ratio (z) = 0.32848 -0.01466
#
# Static dielectric constant tensor:
#      x y z
#    x 4.212140 0.000000 -0.765810 
#    y 0.000000 4.024150 0.000000 
#    z -0.765810 0.000000 4.946000 
# 
# 
# High freq. dielectric constant tensor:
#      x y z
#    x 1.831800 0.000000 -0.017300 
#    y 0.000000 1.872950 0.000000 
#    z -0.017300 0.000000 1.871130 
# 
# From -- ./inp_files/616.got.cif
#   From: 2010.06.25/outbox.cif.g09.slc.cpg/sg9_1_cif.got.tgz:616.got - 2010.06.27 21:40:51.
