data_PCOD8054040
_publ_section_title
;
Structure prediction by ZEFSAII (Michael W. Deem and Ramdas Pophale) SiO2 
 PCOD8054040
Probable space group: C M
;
_chemical_formula_sum "Si O2"
_cell_formula_units_Z 20
_cell_length_a 10.051788
_cell_length_b 17.773922
_cell_length_c 6.547192
_cell_angle_alpha 90.000000
_cell_angle_beta 50.058446
_cell_angle_gamma 90.000000
_cell_volume 896.823503
_symmetry_space_group_name_H-M "C M"
_symmetry_group_IT_number 8
_symmetry_cell_setting 'monoclinic'
loop_
_space_group_symop_operation_xyz
x,y,z
x,-y,z
1/2+x,1/2+y,z
1/2+x,1/2-y,z
loop_
_atom_site_type_symbol
_atom_site_label
_atom_site_fract_x
_atom_site_fract_y
_atom_site_fract_z
Si Si1 0.691550 0.134273 0.347680
Si Si2 0.496130 0.583071 0.788901
Si Si3 0.810420 0.412234 0.769863
Si Si4 0.836050 0.820828 0.597760
Si Si5 0.173622 0.225927 0.096771
O O1 0.499183 0.104187 0.487355
O O2 0.712152 0.129515 0.574047
O O3 0.726490 0.219468 0.231544
O O4 0.831086 0.080851 0.102934
O O5 0.525386 0.500000 0.673934
O O6 0.668145 0.609293 0.738498
O O7 0.460020 0.634386 0.629669
O O8 0.794420 0.500000 0.853197
O O9 0.771651 0.355842 0.000491
O O10 0.966401 0.781547 0.309863
O O11 0.716896 0.762914 0.835924
#
# Coordination Sequence:
#
# PCOD8054040 Si02
#       5
#     4   4   4   4   4
#     4  11  24  44  73  99 138 183 234 288 344 412
#     4  10  24  46  68 101 142 183 226 285 352 417
#     4  11  24  44  69 100 141 180 225 284 348 411
#     4  11  25  42  74  98 140 181 239 286 346 406
#     4  11  24  42  69 102 135 181 234 285 345 410
#
# _framework density 22.300933000000001
#
# number of rings (size 3 to 8) (size 9 to 14) (size 15 to 20)
#    0.000    1.200    4.000    0.600    5.600    2.400 
#    3.600    0.000    0.000    0.000    0.000    0.000 
#    0.000    0.000    0.000    0.000    0.000    0.000 
#
# Total GULP energy -123947.004229 kJ/mol
# GULP energy per Si atom -12394.700423 kJ/mol
# Density = 2.225018 g / cm^3
# Si number density = 22.300933 Si / 1000 Ang^3
#
#
#
# Elastic Constant Matrix: (Units=GPa)
#
#
# Indices 1 2 3 4 5 6 
#
# 1 135.7252 36.8317 54.5015 0.0000 -18.5370 0.0000
# 2 36.8317 113.5252 24.0328 0.0000 8.6861 0.0000
# 3 54.5015 24.0328 122.1416 0.0000 -21.5868 0.0000
# 4 0.0000 0.0000 0.0000 27.1887 0.0000 -3.3530
# 5 -18.5370 8.6861 -21.5868 0.0000 35.5632 0.0000
# 6 0.0000 0.0000 0.0000 -3.3530 0.0000 23.2122
#
#
#
# Elastic Compliance Matrix: (Units=1/GPa)
#
#
# Indices 1 2 3 4 5 6 
#
# 1 0.009963 -0.002862 -0.003183 0.000000 0.003960 0.000000
# 2 -0.002862 0.010481 -0.001682 0.000000 -0.005072 0.000000
# 3 -0.003183 -0.001682 0.010886 0.000000 0.005359 0.000000
# 4 0.000000 0.000000 0.000000 0.037447 0.000000 0.005409
# 5 0.003960 -0.005072 0.005359 0.000000 0.034675 0.000000
# 6 0.000000 0.000000 0.000000 0.005409 0.000000 0.043862
#
#
# Mechanical properties :
#
#
# Convention : Reuss Voigt Hill
#
# Bulk Modulus (GPa) = 62.98268 66.90267 64.94268
# Shear Modulus (GPa) = 29.75132 34.26123 32.00628
#
# Velocity S-wave (km/s) = 3.65647 3.92384 3.79251
# Velocity P-wave (km/s) = 6.79190 7.11293 6.95427
#
# Compressibility (1/GPa) = 0.01587738
#
# Stress axis : x y z
#
# Youngs Moduli (GPa) = 100.36755 95.40887 91.86492
#
# Poissons Ratio (x) = 0.27303 0.29239
# Poissons Ratio (y) = 0.28722 0.15450
# Poissons Ratio (z) = 0.31945 0.16046
#
# Static dielectric constant tensor:
#      x y z
#    x 3.921220 0.000000 -0.169280 
#    y 0.000000 4.095170 0.000000 
#    z -0.169280 0.000000 3.986220 
# 
# 
# High freq. dielectric constant tensor:
#      x y z
#    x 1.875160 0.000000 -0.017460 
#    y 0.000000 1.877370 0.000000 
#    z -0.017460 0.000000 1.877540 
# 
# From -- ./inp_files/1364.got.cif
#   From: 2010.03.12/outbox.cif.g09.slc.cpg/sg8_1_cif.got.tgz:1364.got - 2010.03.31 10:45:26.
