data_PCOD8054480
_publ_section_title
;
Structure prediction by ZEFSAII (Michael W. Deem and Ramdas Pophale) SiO2 
 PCOD8054480
Probable space group: C C
;
_chemical_formula_sum "Si O2"
_cell_formula_units_Z 24
_cell_length_a 17.747780
_cell_length_b 11.439890
_cell_length_c 5.168352
_cell_angle_alpha 90.000000
_cell_angle_beta 86.504676
_cell_angle_gamma 90.000000
_cell_volume 1047.392194
_symmetry_space_group_name_H-M "C C"
_symmetry_group_IT_number 9
_symmetry_cell_setting 'monoclinic'
loop_
_space_group_symop_operation_xyz
x,y,z
x,-y,1/2+z
1/2+x,1/2+y,z
1/2+x,1/2-y,1/2+z
loop_
_atom_site_type_symbol
_atom_site_label
_atom_site_fract_x
_atom_site_fract_y
_atom_site_fract_z
Si Si1 0.070680 0.615320 0.300050
Si Si2 0.678490 0.713076 0.046727
Si Si3 0.819488 0.576074 0.836336
Si Si4 0.044554 0.075304 0.246728
Si Si5 0.210505 0.549426 0.755437
Si Si6 0.981484 0.675723 0.800302
O O1 0.123617 0.727473 0.347154
O O2 0.124811 0.502399 0.255868
O O3 0.011389 0.597397 0.550732
O O4 0.026788 0.641328 0.046702
O O5 0.748883 0.661284 0.881872
O O6 0.632763 0.613635 0.212137
O O7 0.705903 0.810839 0.247963
O O8 0.816425 0.526526 0.547607
O O9 0.893974 0.652259 0.862554
O O10 0.991035 0.188013 0.232656
O O11 0.026534 0.013305 0.519566
O O12 0.254573 0.495514 0.498827
#
# Coordination Sequence:
#
# PCOD8054480 Si02
#       6
#     4   4   4   4   4   4
#     4  10  21  40  68  96 123 164 217 267 311 364
#     4  10  23  41  64  94 130 166 212 262 316 380
#     4  12  28  45  65  95 132 172 209 261 330 389
#     4  11  22  38  62  89 119 161 209 257 307 369
#     4  10  20  34  59  93 120 153 204 256 306 353
#     4  11  24  42  64  93 128 166 213 265 316 377
#
# _framework density 22.914052000000002
#
# number of rings (size 3 to 8) (size 9 to 14) (size 15 to 20)
#    0.000    1.333    0.000    7.000    0.000   17.333 
#    0.000    3.333    0.000    0.000    0.000    0.000 
#    0.000    0.000    0.000    0.000    0.000    0.000 
#
# Total GULP energy -148781.541027 kJ/mol
# GULP energy per Si atom -12398.461752 kJ/mol
# Density = 2.286190 g / cm^3
# Si number density = 22.914052 Si / 1000 Ang^3
#
#
#
# Elastic Constant Matrix: (Units=GPa)
#
#
# Indices 1 2 3 4 5 6 
#
# 1 91.5451 21.7213 16.4114 0.0000 -28.0558 0.0000
# 2 21.7213 95.7152 5.1592 0.0000 -20.6675 0.0000
# 3 16.4114 5.1592 118.2674 0.0000 5.6338 0.0000
# 4 0.0000 0.0000 0.0000 42.8869 0.0000 -14.4083
# 5 -28.0558 -20.6675 5.6338 0.0000 29.3570 0.0000
# 6 0.0000 0.0000 0.0000 -14.4083 0.0000 27.9403
#
#
#
# Elastic Compliance Matrix: (Units=1/GPa)
#
#
# Indices 1 2 3 4 5 6 
#
# 1 0.016480 -0.000056 -0.003061 0.000000 0.016298 0.000000
# 2 -0.000056 0.012430 -0.000958 0.000000 0.008881 0.000000
# 3 -0.003061 -0.000958 0.009177 0.000000 -0.005360 0.000000
# 4 0.000000 0.000000 0.000000 0.028203 0.000000 0.014544
# 5 0.016298 0.008881 -0.005360 0.000000 0.056920 0.000000
# 6 0.000000 0.000000 0.000000 0.014544 0.000000 0.043291
#
#
# Mechanical properties :
#
#
# Convention : Reuss Voigt Hill
#
# Bulk Modulus (GPa) = 33.40140 43.56793 38.48467
# Shear Modulus (GPa) = 27.08131 37.51923 32.30027
#
# Velocity S-wave (km/s) = 3.44156 4.05086 3.75857
# Velocity P-wave (km/s) = 5.51370 6.39798 5.97223
#
# Compressibility (1/GPa) = 0.02993886
#
# Stress axis : x y z
#
# Youngs Moduli (GPa) = 60.67813 80.45328 108.96487
#
# Poissons Ratio (x) = 0.00449 0.33352
# Poissons Ratio (y) = 0.00339 0.10434
# Poissons Ratio (z) = 0.18573 0.07704
#
# Static dielectric constant tensor:
#      x y z
#    x 3.844750 0.000000 0.003320 
#    y 0.000000 4.350880 0.000000 
#    z 0.003320 0.000000 5.261690 
# 
# 
# High freq. dielectric constant tensor:
#      x y z
#    x 1.862850 0.000000 0.000730 
#    y 0.000000 1.919000 0.000000 
#    z 0.000730 0.000000 1.933400 
# 
# From -- ./inp_files/2865.got.cif
#   From: 2010.06.25/outbox.cif.g09.slc.cpg/sg9_2_cif.got.tgz:2865.got - 2010.06.27 21:40:51.
