data_PCOD8054743
_publ_section_title
;
Structure prediction by ZEFSAII (Michael W. Deem and Ramdas Pophale) SiO2 
 PCOD8054743
Probable space group: C C
;
_chemical_formula_sum "Si O2"
_cell_formula_units_Z 28
_cell_length_a 9.229886
_cell_length_b 10.976930
_cell_length_c 14.191184
_cell_angle_alpha 90.000000
_cell_angle_beta 55.046062
_cell_angle_gamma 90.000000
_cell_volume 1178.432323
_symmetry_space_group_name_H-M "C C"
_symmetry_group_IT_number 9
_symmetry_cell_setting 'monoclinic'
loop_
_space_group_symop_operation_xyz
x,y,z
x,-y,1/2+z
1/2+x,1/2+y,z
1/2+x,1/2-y,1/2+z
loop_
_atom_site_type_symbol
_atom_site_label
_atom_site_fract_x
_atom_site_fract_y
_atom_site_fract_z
Si Si1 0.556320 0.396597 0.228540
Si Si2 0.675553 0.637138 0.093124
Si Si3 0.225696 0.470957 0.921592
Si Si4 0.820205 0.307732 0.732374
Si Si5 0.093958 0.500383 0.175795
Si Si6 0.018536 0.346305 0.377177
Si Si7 0.283385 0.695022 0.230281
O O1 0.645918 0.493414 0.124788
O O2 0.418880 0.466414 0.347578
O O3 0.454739 0.301627 0.201238
O O4 0.699540 0.327174 0.240266
O O5 0.793292 0.692825 0.131840
O O6 0.494141 0.709043 0.144049
O O7 0.805727 0.663006 0.956238
O O8 0.230729 0.348648 0.855575
O O9 0.075506 0.557668 0.935165
O O10 0.173956 0.446819 0.048990
O O11 0.627863 0.280388 0.853099
O O12 0.901752 0.435317 0.736511
O O13 0.227403 0.597418 0.172272
O O14 0.073022 0.386502 0.251986
#
# Coordination Sequence:
#
# PCOD8054743 Si02
#       7
#     4   4   4   4   4   4   4
#     4   9  21  43  69  94 129 174 216 267 330 390
#     4  11  22  44  65  99 135 166 219 275 323 389
#     4   9  18  42  69  91 133 168 218 270 319 392
#     4  10  22  43  67  93 130 176 219 258 330 386
#     4  10  20  43  68  95 129 179 215 264 332 385
#     4  10  22  41  66  97 133 169 218 273 321 389
#     4   9  21  42  64 101 131 168 223 269 325 391
#
# _framework density 23.760380000000001
#
# number of rings (size 3 to 8) (size 9 to 14) (size 15 to 20)
#    0.000    2.286    1.429    0.857    0.000    2.286 
#   25.714    1.429    0.000    0.000    0.000    0.000 
#    0.000    0.000    0.000    0.000    0.000    0.000 
#
# Total GULP energy -173542.210290 kJ/mol
# GULP energy per Si atom -12395.872164 kJ/mol
# Density = 2.370630 g / cm^3
# Si number density = 23.760380 Si / 1000 Ang^3
#
#
#
# Elastic Constant Matrix: (Units=GPa)
#
#
# Indices 1 2 3 4 5 6 
#
# 1 135.2907 43.4860 46.6292 0.0000 -13.0938 0.0000
# 2 43.4860 74.8790 10.5545 0.0000 -12.7221 0.0000
# 3 46.6292 10.5545 90.3047 0.0000 -4.9286 0.0000
# 4 0.0000 0.0000 0.0000 19.5266 0.0000 -0.3357
# 5 -13.0938 -12.7221 -4.9286 0.0000 46.8606 0.0000
# 6 0.0000 0.0000 0.0000 -0.3357 0.0000 23.1288
#
#
#
# Elastic Compliance Matrix: (Units=1/GPa)
#
#
# Indices 1 2 3 4 5 6 
#
# 1 0.010970 -0.005492 -0.004965 0.000000 0.001052 0.000000
# 2 -0.005492 0.016938 0.001029 0.000000 0.003172 0.000000
# 3 -0.004965 0.001029 0.013534 0.000000 0.000316 0.000000
# 4 0.000000 0.000000 0.000000 0.051225 0.000000 0.000744
# 5 0.001052 0.003172 0.000316 0.000000 0.022528 0.000000
# 6 0.000000 0.000000 0.000000 0.000744 0.000000 0.043247
#
#
# Mechanical properties :
#
#
# Convention : Reuss Voigt Hill
#
# Bulk Modulus (GPa) = 44.27373 55.75708 50.01540
# Shear Modulus (GPa) = 27.05229 31.22352 29.13790
#
# Velocity S-wave (km/s) = 3.37790 3.62898 3.50569
# Velocity P-wave (km/s) = 5.82129 6.40911 6.12226
#
# Compressibility (1/GPa) = 0.02258676
#
# Stress axis : x y z
#
# Youngs Moduli (GPa) = 91.15871 59.03765 73.88657
#
# Poissons Ratio (x) = 0.32425 0.36685
# Poissons Ratio (y) = 0.50066 -0.07606
# Poissons Ratio (z) = 0.45261 -0.06077
#
# Static dielectric constant tensor:
#      x y z
#    x 4.663850 0.000000 -0.101940 
#    y 0.000000 4.319630 0.000000 
#    z -0.101940 0.000000 3.988640 
# 
# 
# High freq. dielectric constant tensor:
#      x y z
#    x 1.959400 0.000000 -0.006020 
#    y 0.000000 1.944650 0.000000 
#    z -0.006020 0.000000 1.921120 
# 
# From -- ./inp_files/14239.got.cif
#   From: 2010.06.25/outbox.cif.g09.slc.cpg/sg9_8_cif.got.tgz:14239.got - 2010.06.27 21:40:51.
