data_PCOD8054548
_publ_section_title
;
Structure prediction by ZEFSAII (Michael W. Deem and Ramdas Pophale) SiO2 
 PCOD8054548
Probable space group: C C
;
_chemical_formula_sum "Si O2"
_cell_formula_units_Z 32
_cell_length_a 23.906822
_cell_length_b 14.044455
_cell_length_c 14.971814
_cell_angle_alpha 90.000000
_cell_angle_beta 17.090813
_cell_angle_gamma 90.000000
_cell_volume 1477.344010
_symmetry_space_group_name_H-M "C C"
_symmetry_group_IT_number 9
_symmetry_cell_setting 'monoclinic'
loop_
_space_group_symop_operation_xyz
x,y,z
x,-y,1/2+z
1/2+x,1/2+y,z
1/2+x,1/2-y,1/2+z
loop_
_atom_site_type_symbol
_atom_site_label
_atom_site_fract_x
_atom_site_fract_y
_atom_site_fract_z
Si Si1 0.562490 0.168047 0.487960
Si Si2 0.669072 0.183208 0.959759
Si Si3 0.461173 0.967474 0.885781
Si Si4 0.743188 0.385562 0.600224
Si Si5 0.974078 0.729363 0.099337
Si Si6 0.644328 0.032838 0.778195
Si Si7 0.982898 0.882799 0.845627
Si Si8 0.792373 0.297960 0.251561
O O1 0.754230 0.216827 0.234676
O O2 0.473443 0.226403 0.539202
O O3 0.589585 0.059215 0.418884
O O4 0.419019 0.170641 0.789974
O O5 0.493012 0.236210 0.178732
O O6 0.755118 0.246200 0.908764
O O7 0.824687 0.174700 0.643294
O O8 0.598187 0.081805 0.104070
O O9 0.604786 0.021569 0.733418
O O10 0.332361 0.894418 0.137042
O O11 0.313323 0.038076 0.064722
O O12 0.610824 0.306937 0.846956
O O13 0.621553 0.436169 0.705384
O O14 0.018439 0.621903 0.001937
O O15 0.870454 0.047053 0.450116
O O16 0.107930 0.811082 0.595575
#
# Coordination Sequence:
#
# PCOD8054548 Si02
#       8
#     4   4   4   4   4   4   4   4
#     4  10  21  39  60  86 119 156 195 241 292 346
#     4  10  21  37  59  88 118 153 195 238 289 346
#     4  11  24  39  58  90 124 153 190 241 297 348
#     4  10  20  37  62  88 116 153 197 241 287 346
#     4  10  20  38  62  88 116 154 197 241 288 346
#     4  10  21  38  59  88 120 153 193 243 292 345
#     4   9  20  38  59  86 114 151 200 239 282 346
#     4  10  23  40  59  86 119 155 197 238 291 349
#
# _framework density 21.660492000000001
#
# number of rings (size 3 to 8) (size 9 to 14) (size 15 to 20)
#    0.000    2.000    0.000    3.750    0.000    8.000 
#    0.000    6.250    0.000    0.000    0.000    0.000 
#    0.000    0.000    0.000    0.000    0.000    0.000 
#
# Total GULP energy -198272.222717 kJ/mol
# GULP energy per Si atom -12392.013920 kJ/mol
# Density = 2.161119 g / cm^3
# Si number density = 21.660492 Si / 1000 Ang^3
#
#
#
# Elastic Constant Matrix: (Units=GPa)
#
#
# Indices 1 2 3 4 5 6 
#
# 1 180.2345 68.3982 32.1221 0.0024 -37.0771 -0.0010
# 2 68.3982 102.5070 17.0744 0.0047 -21.1634 -0.0035
# 3 32.1221 17.0744 30.2618 0.0078 -7.9223 -0.0061
# 4 0.0024 0.0047 0.0078 19.5311 -0.0028 -7.5200
# 5 -37.0771 -21.1634 -7.9223 -0.0028 35.7596 0.0019
# 6 -0.0010 -0.0035 -0.0061 -7.5200 0.0019 42.8789
#
#
#
# Elastic Compliance Matrix: (Units=1/GPa)
#
#
# Indices 1 2 3 4 5 6 
#
# 1 0.009402 -0.004008 -0.006144 0.000003 0.006015 -0.000001
# 2 -0.004008 0.013529 -0.002517 -0.000001 0.003293 0.000000
# 3 -0.006144 -0.002517 0.041325 -0.000014 0.001296 0.000003
# 4 0.000003 -0.000001 -0.000014 0.054908 0.000003 0.009630
# 5 0.006015 0.003293 0.001296 0.000003 0.036437 -0.000001
# 6 -0.000001 0.000000 0.000003 0.009630 -0.000001 0.025010
#
#
# Mechanical properties :
#
#
# Convention : Reuss Voigt Hill
#
# Bulk Modulus (GPa) = 25.69406 60.91031 43.30219
# Shear Modulus (GPa) = 22.83921 32.66114 27.75017
#
# Velocity S-wave (km/s) = 3.25070 3.88734 3.58319
# Velocity P-wave (km/s) = 5.09680 6.95198 6.09538
#
# Compressibility (1/GPa) = 0.03891950
#
# Stress axis : x y z
#
# Youngs Moduli (GPa) = 106.36371 73.91496 24.19818
#
# Poissons Ratio (x) = 0.29627 0.14866
# Poissons Ratio (y) = 0.42633 0.06090
# Poissons Ratio (z) = 0.65345 0.18602
#
# Static dielectric constant tensor:
#      x y z
#    x 4.826720 -0.000010 -0.483230 
#    y -0.000010 3.578100 0.000000 
#    z -0.483230 0.000000 3.864490 
# 
# 
# High freq. dielectric constant tensor:
#      x y z
#    x 1.886990 0.000000 -0.014750 
#    y 0.000000 1.822670 0.000000 
#    z -0.014750 0.000000 1.835960 
# 
# From -- ./inp_files/24918.got.cif
#   From: 2010.06.25/outbox.cif.g09.slc.cpg/sg9_13_cif.got.tgz:24918.got - 2010.06.27 21:40:51.
