data_PCOD8054578
_publ_section_title
;
Structure prediction by ZEFSAII (Michael W. Deem and Ramdas Pophale) SiO2 
 PCOD8054578
Probable space group: C C
;
_chemical_formula_sum "Si O2"
_cell_formula_units_Z 24
_cell_length_a 18.382338
_cell_length_b 5.179959
_cell_length_c 18.046342
_cell_angle_alpha 90.000000
_cell_angle_beta 134.597769
_cell_angle_gamma 90.000000
_cell_volume 1223.569969
_symmetry_space_group_name_H-M "C C"
_symmetry_group_IT_number 9
_symmetry_cell_setting 'monoclinic'
loop_
_space_group_symop_operation_xyz
x,y,z
x,-y,1/2+z
1/2+x,1/2+y,z
1/2+x,1/2-y,1/2+z
loop_
_atom_site_type_symbol
_atom_site_label
_atom_site_fract_x
_atom_site_fract_y
_atom_site_fract_z
Si Si1 0.111580 0.697432 0.953610
Si Si2 0.419275 0.086332 0.347194
Si Si3 0.999916 0.802562 0.548003
Si Si4 0.043477 0.291887 0.655734
Si Si5 0.692220 0.586327 0.654418
Si Si6 0.068020 0.208107 0.845880
O O1 0.142193 0.433516 0.932406
O O2 0.997531 0.659426 0.908368
O O3 0.114381 0.928171 0.895781
O O4 0.190309 0.756746 0.075844
O O5 0.305748 0.000004 0.250805
O O6 0.421184 0.243251 0.425769
O O7 0.457039 0.267776 0.306325
O O8 0.997116 0.571822 0.605832
O O9 0.969304 0.066476 0.569209
O O10 0.113964 0.840570 0.593243
O O11 0.154458 0.267766 0.695289
O O12 0.055748 0.250001 0.750807
#
# Coordination Sequence:
#
# PCOD8054578 Si02
#       6
#     4   4   4   4   4   4
#     4  10  20  39  59  85 117 156 199 250 288 363
#     4  10  21  38  65  86 118 160 207 239 303 359
#     4  10  20  39  59  85 117 156 199 250 288 363
#     4  10  20  38  61  82 122 156 192 253 307 342
#     4  10  21  38  65  86 118 160 207 239 303 359
#     4  10  20  38  61  82 122 156 192 253 307 342
#
# _framework density 19.614733000000001
#
# number of rings (size 3 to 8) (size 9 to 14) (size 15 to 20)
#    2.000    0.000    3.333    1.000    0.000    1.333 
#    0.000    1.667    0.000    0.000    0.000    0.000 
#    0.000    0.000    0.000    0.000    0.000    0.000 
#
# Total GULP energy -148666.419376 kJ/mol
# GULP energy per Si atom -12388.868281 kJ/mol
# Density = 1.957009 g / cm^3
# Si number density = 19.614733 Si / 1000 Ang^3
#
#
#
# Elastic Constant Matrix: (Units=GPa)
#
#
# Indices 1 2 3 4 5 6 
#
# 1 34.5551 6.0743 33.9783 -0.0007 -22.3681 -0.0006
# 2 6.0743 118.4687 26.9728 -0.0020 -12.0226 -0.0018
# 3 33.9783 26.9728 122.9421 -0.0012 -15.1266 -0.0006
# 4 -0.0007 -0.0020 -0.0012 35.3214 -0.0001 -8.1138
# 5 -22.3681 -12.0226 -15.1266 -0.0001 46.4147 -0.0002
# 6 -0.0006 -0.0018 -0.0006 -8.1138 -0.0002 24.6743
#
#
#
# Elastic Compliance Matrix: (Units=1/GPa)
#
#
# Indices 1 2 3 4 5 6 
#
# 1 0.057077 0.002540 -0.013404 0.000001 0.023796 0.000002
# 2 0.002540 0.009134 -0.002359 0.000001 0.002821 0.000001
# 3 -0.013404 -0.002359 0.011966 0.000000 -0.003171 0.000000
# 4 0.000001 0.000001 0.000000 0.030625 0.000001 0.010070
# 5 0.023796 0.002821 -0.003171 0.000001 0.032710 0.000001
# 6 0.000002 0.000001 0.000000 0.010070 0.000001 0.043839
#
#
# Mechanical properties :
#
#
# Convention : Reuss Voigt Hill
#
# Bulk Modulus (GPa) = 19.33077 45.55742 32.44410
# Shear Modulus (GPa) = 21.83022 35.21144 28.52083
#
# Velocity S-wave (km/s) = 3.33971 4.24152 3.81734
# Velocity P-wave (km/s) = 4.97475 6.87487 6.00050
#
# Compressibility (1/GPa) = 0.05173099
#
# Stress axis : x y z
#
# Youngs Moduli (GPa) = 17.52032 109.47867 83.57106
#
# Poissons Ratio (x) = -0.27810 1.12020
# Poissons Ratio (y) = -0.04450 0.19714
# Poissons Ratio (z) = 0.23484 0.25825
#
# Static dielectric constant tensor:
#      x y z
#    x 3.157890 0.000000 -0.250480 
#    y 0.000000 3.795380 0.000000 
#    z -0.250480 0.000000 3.253780 
# 
# 
# High freq. dielectric constant tensor:
#      x y z
#    x 1.720380 0.000000 -0.034770 
#    y 0.000000 1.775570 0.000000 
#    z -0.034770 0.000000 1.753020 
# 
# From -- ./inp_files/19638.got.cif
#   From: 2010.06.25/outbox.cif.g09.slc.cpg/sg9_10_cif.got.tgz:19638.got - 2010.06.27 21:40:51.
