data_PCOD8054133
_publ_section_title
;
Structure prediction by ZEFSAII (Michael W. Deem and Ramdas Pophale) SiO2 
 PCOD8054133
Probable space group: C M
;
_chemical_formula_sum "Si O2"
_cell_formula_units_Z 28
_cell_length_a 12.383175
_cell_length_b 23.339705
_cell_length_c 4.956534
_cell_angle_alpha 90.000000
_cell_angle_beta 102.124417
_cell_angle_gamma 90.000000
_cell_volume 1400.581326
_symmetry_space_group_name_H-M "C M"
_symmetry_group_IT_number 8
_symmetry_cell_setting 'monoclinic'
loop_
_space_group_symop_operation_xyz
x,y,z
x,-y,z
1/2+x,1/2+y,z
1/2+x,1/2-y,z
loop_
_atom_site_type_symbol
_atom_site_label
_atom_site_fract_x
_atom_site_fract_y
_atom_site_fract_z
Si Si1 0.480460 0.336429 0.659760
Si Si2 0.096580 0.879158 0.212837
Si Si3 0.654978 0.175422 0.062690
Si Si4 0.515537 0.500000 0.241493
Si Si5 0.778920 0.293527 0.176874
Si Si6 0.750444 0.120013 0.594125
Si Si7 0.855040 0.000000 0.659109
Si Si8 0.929844 0.286387 0.756724
O O1 0.554934 0.338858 0.433060
O O2 0.356620 0.350950 0.508221
O O3 0.489665 0.274808 0.802322
O O4 0.517277 0.380583 0.910633
O O5 0.214361 0.853458 0.185756
O O6 0.097200 0.945134 0.312845
O O7 0.697942 0.238950 0.167609
O O8 0.654133 0.135442 0.330242
O O9 0.732763 0.148309 0.875555
O O10 0.529492 0.171345 0.886609
O O11 0.419552 0.500000 0.412100
O O12 0.450107 0.500000 0.929373
O O13 0.883353 0.293908 0.431380
O O14 0.826278 0.293119 0.900172
O O15 0.770499 0.052824 0.638621
#
# Coordination Sequence:
#
# PCOD8054133 Si02
#       8
#     4   4   4   2   4   4   2   4
#     4  12  21  37  63  93 124 162 200 248 301 391
#     4  12  24  38  62  93 130 161 202 249 316 372
#     4  12  24  39  63  90 127 166 203 252 310 365
#     4  12  22  40  62  95 124 165 198 260 314 368
#     4  12  24  39  61  91 124 167 201 252 308 366
#     4  12  23  40  60  95 127 162 201 250 314 372
#     4  12  24  38  66  91 128 161 204 254 320 362
#     4  12  25  39  61  90 128 161 206 248 306 371
#
# _framework density 19.991700000000002
#
# number of rings (size 3 to 8) (size 9 to 14) (size 15 to 20)
#    0.000    0.000    7.143    4.286    2.000    0.000 
#    0.000    0.000    0.000    5.143    0.000    0.000 
#    0.000    0.000    0.000    0.000    0.000    0.000 
#
# Total GULP energy -173623.177409 kJ/mol
# GULP energy per Si atom -12401.655529 kJ/mol
# Density = 1.994620 g / cm^3
# Si number density = 19.991700 Si / 1000 Ang^3
#
#
#
# Elastic Constant Matrix: (Units=GPa)
#
#
# Indices 1 2 3 4 5 6 
#
# 1 62.3955 37.6281 24.7255 0.0000 1.0030 0.0000
# 2 37.6281 107.5014 27.3547 0.0000 10.4693 0.0000
# 3 24.7255 27.3547 84.6097 0.0000 -1.8221 0.0000
# 4 0.0000 0.0000 0.0000 23.4271 0.0000 -0.8744
# 5 1.0030 10.4693 -1.8221 0.0000 35.4190 0.0000
# 6 0.0000 0.0000 0.0000 -0.8744 0.0000 29.5893
#
#
#
# Elastic Compliance Matrix: (Units=1/GPa)
#
#
# Indices 1 2 3 4 5 6 
#
# 1 0.021657 -0.006632 -0.004160 0.000000 0.001133 0.000000
# 2 -0.006632 0.012535 -0.002193 0.000000 -0.003630 0.000000
# 3 -0.004160 -0.002193 0.013775 0.000000 0.001475 0.000000
# 4 0.000000 0.000000 0.000000 0.042733 0.000000 0.001263
# 5 0.001133 -0.003630 0.001475 0.000000 0.029350 0.000000
# 6 0.000000 0.000000 0.000000 0.001263 0.000000 0.033833
#
#
# Mechanical properties :
#
#
# Convention : Reuss Voigt Hill
#
# Bulk Modulus (GPa) = 45.46042 48.21372 46.83707
# Shear Modulus (GPa) = 26.71144 28.67364 27.69254
#
# Velocity S-wave (km/s) = 3.65927 3.79129 3.72587
# Velocity P-wave (km/s) = 6.37516 6.58289 6.47986
#
# Compressibility (1/GPa) = 0.02199716
#
# Stress axis : x y z
#
# Youngs Moduli (GPa) = 46.17509 79.77589 72.59336
#
# Poissons Ratio (x) = 0.52909 0.30200
# Poissons Ratio (y) = 0.30624 0.15918
# Poissons Ratio (z) = 0.19209 0.17493
#
# Static dielectric constant tensor:
#      x y z
#    x 3.448660 0.000000 -0.020180 
#    y 0.000000 3.655790 0.000000 
#    z -0.020180 0.000000 3.739020 
# 
# 
# High freq. dielectric constant tensor:
#      x y z
#    x 1.763050 0.000000 -0.009130 
#    y 0.000000 1.763180 0.000000 
#    z -0.009130 0.000000 1.802620 
# 
# From -- ./inp_files/2966.got.cif
#   From: 2010.03.12/outbox.cif.g09.slc.cpg/sg8_2_cif.got.tgz:2966.got - 2010.03.31 10:45:26.
