data_PCOD8054226
_publ_section_title
;
Structure prediction by ZEFSAII (Michael W. Deem and Ramdas Pophale) SiO2 
 PCOD8054226
Probable space group: C C
;
_chemical_formula_sum "Si O2"
_cell_formula_units_Z 32
_cell_length_a 12.481839
_cell_length_b 13.212024
_cell_length_c 10.304872
_cell_angle_alpha 90.000000
_cell_angle_beta 91.144259
_cell_angle_gamma 90.000000
_cell_volume 1699.041232
_symmetry_space_group_name_H-M "C C"
_symmetry_group_IT_number 9
_symmetry_cell_setting 'monoclinic'
loop_
_space_group_symop_operation_xyz
x,y,z
x,-y,1/2+z
1/2+x,1/2+y,z
1/2+x,1/2-y,1/2+z
loop_
_atom_site_type_symbol
_atom_site_label
_atom_site_fract_x
_atom_site_fract_y
_atom_site_fract_z
Si Si1 0.354720 0.864163 0.969950
Si Si2 0.962672 0.738782 0.991492
Si Si3 0.117415 0.925291 0.967337
Si Si4 0.598710 0.590894 0.177545
Si Si5 0.794404 0.260489 0.711198
Si Si6 0.443461 0.236949 0.707829
Si Si7 0.634775 0.083033 0.727898
Si Si8 0.553207 0.016839 0.982431
O O1 0.356326 0.794606 0.842138
O O2 0.453253 0.941271 0.964182
O O3 0.244961 0.923729 0.980805
O O4 0.356454 0.795616 0.099976
O O5 0.897779 0.751241 0.853054
O O6 0.010275 0.627907 0.014167
O O7 0.879426 0.761884 0.101955
O O8 0.062556 0.817071 0.995251
O O9 0.079214 0.007363 0.068676
O O10 0.090891 0.959762 0.819807
O O11 0.709793 0.653302 0.165162
O O12 0.498222 0.663234 0.153765
O O13 0.738569 0.153566 0.738311
O O14 0.529081 0.149241 0.726770
O O15 0.626609 0.012675 0.855275
O O16 0.634097 0.015224 0.598913
#
# Coordination Sequence:
#
# PCOD8054226 Si02
#       8
#     4   4   4   4   4   4   4   4
#     4  10  19  33  57  84 103 132 176 218 262 309
#     4  10  20  36  54  77 108 140 173 215 261 311
#     4  10  21  35  53  80 107 136 175 219 261 308
#     4   9  19  36  54  74 104 138 173 213 261 312
#     4  10  20  36  54  78 108 139 173 216 261 310
#     4   8  18  35  54  75 104 135 172 218 261 306
#     4   9  19  35  54  79 108 136 173 220 261 306
#     4  10  18  34  58  81 104 136 175 217 262 310
#
# _framework density 18.834150999999999
#
# number of rings (size 3 to 8) (size 9 to 14) (size 15 to 20)
#    0.000    2.500    0.000    3.750    0.000    7.000 
#    0.000   11.250    0.000    0.000    0.000    0.000 
#    0.000    0.000    0.000    0.000    0.000    0.000 
#
# Total GULP energy -198337.071879 kJ/mol
# GULP energy per Si atom -12396.066992 kJ/mol
# Density = 1.879128 g / cm^3
# Si number density = 18.834151 Si / 1000 Ang^3
#
#
#
# Elastic Constant Matrix: (Units=GPa)
#
#
# Indices 1 2 3 4 5 6 
#
# 1 30.0219 28.9211 29.0777 0.0000 -10.6274 0.0000
# 2 28.9211 85.9673 57.5903 0.0000 0.5156 0.0000
# 3 29.0777 57.5903 135.1103 0.0000 -17.1675 0.0000
# 4 0.0000 0.0000 0.0000 33.6990 0.0000 -2.7755
# 5 -10.6274 0.5156 -17.1675 0.0000 20.6735 0.0000
# 6 0.0000 0.0000 0.0000 -2.7755 0.0000 22.0195
#
#
#
# Elastic Compliance Matrix: (Units=1/GPa)
#
#
# Indices 1 2 3 4 5 6 
#
# 1 0.068284 -0.022874 -0.000462 0.000000 0.035289 0.000000
# 2 -0.022874 0.024874 -0.008108 0.000000 -0.019112 0.000000
# 3 -0.000462 -0.008108 0.012244 0.000000 0.010133 0.000000
# 4 0.000000 0.000000 0.000000 0.029986 0.000000 0.003780
# 5 0.035289 -0.019112 0.010133 0.000000 0.075403 0.000000
# 6 0.000000 0.000000 0.000000 0.003780 0.000000 0.045891
#
#
# Mechanical properties :
#
#
# Convention : Reuss Voigt Hill
#
# Bulk Modulus (GPa) = 23.52172 53.58641 38.55407
# Shear Modulus (GPa) = 14.98171 24.31243 19.64707
#
# Velocity S-wave (km/s) = 2.82344 3.59677 3.23331
# Velocity P-wave (km/s) = 4.81093 6.76480 5.86973
#
# Compressibility (1/GPa) = 0.04251389
#
# Stress axis : x y z
#
# Youngs Moduli (GPa) = 14.64477 40.20263 81.67143
#
# Poissons Ratio (x) = 0.91961 0.03770
# Poissons Ratio (y) = 0.33499 0.66219
# Poissons Ratio (z) = 0.00676 0.32596
#
# Static dielectric constant tensor:
#      x y z
#    x 3.214350 0.000000 0.016970 
#    y 0.000000 3.460000 0.000000 
#    z 0.016970 0.000000 3.919970 
# 
# 
# High freq. dielectric constant tensor:
#      x y z
#    x 1.708050 0.000000 -0.003360 
#    y 0.000000 1.726330 0.000000 
#    z -0.003360 0.000000 1.751460 
# 
# From -- ./inp_files/7608.got.cif
#   From: 2010.06.25/outbox.cif.g09.slc.cpg/sg9_4_cif.got.tgz:7608.got - 2010.06.27 21:40:51.
