data_PCOD8054129
_publ_section_title
;
Structure prediction by ZEFSAII (Michael W. Deem and Ramdas Pophale) SiO2 
 PCOD8054129
Probable space group: C M
;
_chemical_formula_sum "Si O2"
_cell_formula_units_Z 16
_cell_length_a 4.918286
_cell_length_b 26.974958
_cell_length_c 6.734554
_cell_angle_alpha 90.000000
_cell_angle_beta 130.834177
_cell_angle_gamma 90.000000
_cell_volume 676.009333
_symmetry_space_group_name_H-M "C M"
_symmetry_group_IT_number 8
_symmetry_cell_setting 'monoclinic'
loop_
_space_group_symop_operation_xyz
x,y,z
x,-y,z
1/2+x,1/2+y,z
1/2+x,1/2-y,z
loop_
_atom_site_type_symbol
_atom_site_label
_atom_site_fract_x
_atom_site_fract_y
_atom_site_fract_z
Si Si1 0.142730 0.500000 0.462610
Si Si2 0.774924 0.084755 0.260210
Si Si3 0.250266 0.716584 0.788179
Si Si4 0.301274 0.500000 0.986264
Si Si5 0.304393 0.848363 0.288037
O O1 0.353973 0.548782 0.485909
O O2 0.733814 0.500000 0.187460
O O3 0.129937 0.500000 0.690183
O O4 0.465083 0.123320 0.173782
O O5 0.129798 0.113759 0.361665
O O6 0.647345 0.049187 0.019902
O O7 0.422446 0.764365 0.765298
O O8 0.120118 0.678973 0.557069
O O9 0.521970 0.690726 0.069457
#
# Coordination Sequence:
#
# PCOD8054129 Si02
#       5
#     2   4   4   2   4
#     4  11  26  46  71 101 153 188 232 288 345 411
#     4  11  26  47  70 111 142 191 236 287 346 411
#     4  12  26  48  72 103 140 181 230 296 364 416
#     4  11  26  46  71 101 153 188 232 288 345 411
#     4  12  26  44  76 103 142 181 240 288 344 432
#
# _framework density 23.668310000000002
#
# number of rings (size 3 to 8) (size 9 to 14) (size 15 to 20)
#    0.000    0.500    2.500    4.500    3.500    8.000 
#    0.000    0.000    0.000    0.000    0.000    0.000 
#    0.000    0.000    0.000    0.000    0.000    0.000 
#
# Total GULP energy -99234.763593 kJ/mol
# GULP energy per Si atom -12404.345449 kJ/mol
# Density = 2.361444 g / cm^3
# Si number density = 23.668310 Si / 1000 Ang^3
#
#
#
# Elastic Constant Matrix: (Units=GPa)
#
#
# Indices 1 2 3 4 5 6 
#
# 1 112.5821 31.2853 10.3937 0.0000 -11.7370 0.0000
# 2 31.2853 106.4153 16.7109 0.0000 -8.5042 0.0000
# 3 10.3937 16.7109 80.5912 0.0000 -12.2332 0.0000
# 4 0.0000 0.0000 0.0000 12.1352 0.0000 -15.8308
# 5 -11.7370 -8.5042 -12.2332 0.0000 35.9846 0.0000
# 6 0.0000 0.0000 0.0000 -15.8308 0.0000 61.2305
#
#
#
# Elastic Compliance Matrix: (Units=1/GPa)
#
#
# Indices 1 2 3 4 5 6 
#
# 1 0.009913 -0.002661 -0.000349 0.000000 0.002486 0.000000
# 2 -0.002661 0.010527 -0.001680 0.000000 0.001049 0.000000
# 3 -0.000349 -0.001680 0.013417 0.000000 0.004050 0.000000
# 4 0.000000 0.000000 0.000000 0.124344 0.000000 0.032148
# 5 0.002486 0.001049 0.004050 0.000000 0.030225 0.000000
# 6 0.000000 0.000000 0.000000 0.032148 0.000000 0.024644
#
#
# Mechanical properties :
#
#
# Convention : Reuss Voigt Hill
#
# Bulk Modulus (GPa) = 40.85748 46.26315 43.56031
# Shear Modulus (GPa) = 21.68166 37.94996 29.81581
#
# Velocity S-wave (km/s) = 3.02994 4.00860 3.55313
# Velocity P-wave (km/s) = 5.43513 6.40422 5.93948
#
# Compressibility (1/GPa) = 0.02447532
#
# Stress axis : x y z
#
# Youngs Moduli (GPa) = 100.87513 94.99264 74.53466
#
# Poissons Ratio (x) = 0.25277 0.02604
# Poissons Ratio (y) = 0.26842 0.12525
# Poissons Ratio (z) = 0.03525 0.15963
#
# Static dielectric constant tensor:
#      x y z
#    x 4.498510 0.000000 -0.258470 
#    y 0.000000 4.603650 0.000000 
#    z -0.258470 0.000000 3.865600 
# 
# 
# High freq. dielectric constant tensor:
#      x y z
#    x 1.958350 0.000000 -0.017330 
#    y 0.000000 1.956580 0.000000 
#    z -0.017330 0.000000 1.920070 
# 
# From -- ./inp_files/377.got.cif
#   From: 2010.03.12/outbox.cif.g09.slc.cpg/sg8_1_cif.got.tgz:377.got - 2010.03.31 10:45:26.
