data_PCOD8054038
_publ_section_title
;
Structure prediction by ZEFSAII (Michael W. Deem and Ramdas Pophale) SiO2 
 PCOD8054038
Probable space group: C M
;
_chemical_formula_sum "Si O2"
_cell_formula_units_Z 32
_cell_length_a 15.331284
_cell_length_b 9.091959
_cell_length_c 12.467108
_cell_angle_alpha 90.000000
_cell_angle_beta 109.101661
_cell_angle_gamma 90.000000
_cell_volume 1642.123017
_symmetry_space_group_name_H-M "C M"
_symmetry_group_IT_number 8
_symmetry_cell_setting 'monoclinic'
loop_
_space_group_symop_operation_xyz
x,y,z
x,-y,z
1/2+x,1/2+y,z
1/2+x,1/2-y,z
loop_
_atom_site_type_symbol
_atom_site_label
_atom_site_fract_x
_atom_site_fract_y
_atom_site_fract_z
Si Si1 0.748340 0.174788 0.147610
Si Si2 0.484639 0.671091 0.754213
Si Si3 0.489062 0.166058 0.543140
Si Si4 0.133514 0.674465 0.304583
Si Si5 0.433172 0.173220 0.284745
Si Si6 0.697056 0.167870 0.556837
Si Si7 0.820187 0.672749 0.772431
Si Si8 0.188567 0.171363 0.912064
O O1 0.685013 0.233451 0.219930
O O2 0.850459 0.239612 0.196750
O O3 0.754227 0.000000 0.149926
O O4 0.700313 0.229595 0.020793
O O5 0.464233 0.500000 0.752927
O O6 0.457310 0.725315 0.624265
O O7 0.420893 0.752517 0.816367
O O8 0.590169 0.709350 0.821209
O O9 0.436926 0.210391 0.412728
O O10 0.597976 0.179279 0.571831
O O11 0.462929 0.000000 0.565710
O O12 0.129884 0.500000 0.307788
O O13 0.189877 0.727718 0.431987
O O14 0.027427 0.729826 0.265783
O O15 0.418840 0.000000 0.260435
O O16 0.767401 0.272436 0.645916
O O17 0.733280 0.000000 0.575648
O O18 0.831769 0.500000 0.768848
O O19 0.766363 0.717757 0.858209
O O20 0.196127 0.000000 0.945749
#
# Coordination Sequence:
#
# PCOD8054038 Si02
#       8
#     4   4   4   4   4   4   4   4
#     4  11  23  38  61  89 116 152 202 247 287 345
#     4  11  23  39  60  87 118 155 197 245 300 353
#     4   9  18  34  59  89 122 157 195 239 292 353
#     4   8  18  37  58  84 118 155 190 232 290 348
#     4   9  19  38  60  84 119 159 194 233 290 351
#     4   9  17  34  60  87 120 157 191 236 293 350
#     4  11  23  39  59  87 118 153 199 244 297 357
#     4  10  24  45  61  79 117 160 198 244 297 351
#
# _framework density 19.486968000000001
#
# number of rings (size 3 to 8) (size 9 to 14) (size 15 to 20)
#    0.000    2.250    1.250    2.625    1.750    3.500 
#    0.000    7.500    0.000    0.000    0.000    0.000 
#    0.000    0.000    0.000    0.000    0.000    0.000 
#
# Total GULP energy -198425.338769 kJ/mol
# GULP energy per Si atom -12401.583673 kJ/mol
# Density = 1.944261 g / cm^3
# Si number density = 19.486968 Si / 1000 Ang^3
#
#
#
# Elastic Constant Matrix: (Units=GPa)
#
#
# Indices 1 2 3 4 5 6 
#
# 1 90.6224 38.5499 36.1470 0.0000 -21.1488 0.0000
# 2 38.5499 69.7924 40.8580 0.0000 -7.9170 0.0000
# 3 36.1470 40.8580 92.5941 0.0000 -17.3611 0.0000
# 4 0.0000 0.0000 0.0000 35.5930 0.0000 2.0212
# 5 -21.1488 -7.9170 -17.3611 0.0000 27.3934 0.0000
# 6 0.0000 0.0000 0.0000 2.0212 0.0000 30.7499
#
#
#
# Elastic Compliance Matrix: (Units=1/GPa)
#
#
# Indices 1 2 3 4 5 6 
#
# 1 0.017176 -0.007449 -0.001516 0.000000 0.010147 0.000000
# 2 -0.007449 0.022550 -0.007829 0.000000 -0.004195 0.000000
# 3 -0.001516 -0.007829 0.016118 0.000000 0.006782 0.000000
# 4 0.000000 0.000000 0.000000 0.028201 0.000000 -0.001854
# 5 0.010147 -0.004195 0.006782 0.000000 0.047425 0.000000
# 6 0.000000 0.000000 0.000000 -0.001854 0.000000 0.032642
#
#
# Mechanical properties :
#
#
# Convention : Reuss Voigt Hill
#
# Bulk Modulus (GPa) = 44.93077 53.79096 49.36086
# Shear Modulus (GPa) = 24.37616 27.91086 26.14351
#
# Velocity S-wave (km/s) = 3.54064 3.78866 3.66674
# Velocity P-wave (km/s) = 6.31044 6.84120 6.58118
#
# Compressibility (1/GPa) = 0.02225646
#
# Stress axis : x y z
#
# Youngs Moduli (GPa) = 58.22020 44.34581 62.04289
#
# Poissons Ratio (x) = 0.33032 0.09405
# Poissons Ratio (y) = 0.43367 0.48575
# Poissons Ratio (z) = 0.08825 0.34719
#
# Static dielectric constant tensor:
#      x y z
#    x 3.752220 0.000000 -0.105400 
#    y 0.000000 3.357710 0.000000 
#    z -0.105400 0.000000 3.512860 
# 
# 
# High freq. dielectric constant tensor:
#      x y z
#    x 1.770180 0.000000 -0.002010 
#    y 0.000000 1.744180 0.000000 
#    z -0.002010 0.000000 1.754260 
# 
# From -- ./inp_files/21602.got.cif
#   From: 2010.03.12/outbox.cif.g09.slc.cpg/sg8_11_cif.got.tgz:21602.got - 2010.03.31 10:45:26.
