data_PCOD8054147
_publ_section_title
;
Structure prediction by ZEFSAII (Michael W. Deem and Ramdas Pophale) SiO2 
 PCOD8054147
Probable space group: C M
;
_chemical_formula_sum "Si O2"
_cell_formula_units_Z 32
_cell_length_a 23.059887
_cell_length_b 9.308300
_cell_length_c 11.519724
_cell_angle_alpha 90.000000
_cell_angle_beta 49.868767
_cell_angle_gamma 90.000000
_cell_volume 1890.544772
_symmetry_space_group_name_H-M "C M"
_symmetry_group_IT_number 8
_symmetry_cell_setting 'monoclinic'
loop_
_space_group_symop_operation_xyz
x,y,z
x,-y,z
1/2+x,1/2+y,z
1/2+x,1/2-y,z
loop_
_atom_site_type_symbol
_atom_site_label
_atom_site_fract_x
_atom_site_fract_y
_atom_site_fract_z
Si Si1 0.184320 0.830313 0.764400
Si Si2 0.625153 0.162954 0.635139
Si Si3 0.029352 0.831672 0.083078
Si Si4 0.916750 0.664060 0.799810
Si Si5 0.965471 0.658290 0.971791
Si Si6 0.340710 0.164638 0.671638
Si Si7 0.984182 0.167414 0.394201
Si Si8 0.056240 0.833401 0.533716
O O1 0.183344 0.748684 0.642448
O O2 0.259109 0.778862 0.735863
O O3 0.182761 0.000000 0.742935
O O4 0.112934 0.782588 0.935354
O O5 0.542570 0.170234 0.798648
O O6 0.621677 0.240131 0.512956
O O7 0.653859 0.000000 0.582342
O O8 0.015369 0.775472 0.231007
O O9 0.019917 0.000000 0.087864
O O10 0.965418 0.767472 0.079045
O O11 0.949941 0.500000 0.743477
O O12 0.899205 0.689499 0.960517
O O13 0.844195 0.680533 0.808332
O O14 0.974782 0.785616 0.685437
O O15 0.955847 0.500000 0.038025
O O16 0.407291 0.250473 0.523167
O O17 0.351005 0.000000 0.621122
O O18 0.051993 0.193819 0.400212
O O19 0.963397 0.000000 0.416182
O O20 0.069806 0.000000 0.546153
#
# Coordination Sequence:
#
# PCOD8054147 Si02
#       8
#     4   4   4   4   4   4   4   4
#     4   9  17  29  46  67  89 114 145 179 216 258
#     4   9  16  26  41  62  87 113 142 178 219 257
#     4   9  17  29  44  63  88 116 145 176 213 258
#     4   8  14  25  40  60  86 111 139 178 219 256
#     4   8  14  24  39  60  84 109 140 178 215 250
#     4   9  17  29  46  67  89 114 144 180 219 257
#     4   9  18  30  44  64  89 118 147 177 216 258
#     4   9  15  24  40  61  84 109 142 182 217 252
#
# _framework density 16.926338000000001
#
# number of rings (size 3 to 8) (size 9 to 14) (size 15 to 20)
#    0.000    3.250    0.000    1.500    0.000    4.500 
#    0.000    0.000    0.000    1.500    0.000    5.250 
#    0.000    0.000    0.000    0.000    0.000    0.000 
#
# Total GULP energy -198227.850510 kJ/mol
# GULP energy per Si atom -12389.240657 kJ/mol
# Density = 1.688781 g / cm^3
# Si number density = 16.926338 Si / 1000 Ang^3
#
#
#
# Elastic Constant Matrix: (Units=GPa)
#
#
# Indices 1 2 3 4 5 6 
#
# 1 154.4480 50.4472 53.3305 0.0000 30.7985 0.0000
# 2 50.4472 58.5762 30.7153 0.0000 14.5346 0.0000
# 3 53.3305 30.7153 59.3398 0.0000 24.0886 0.0000
# 4 0.0000 0.0000 0.0000 16.1265 0.0000 6.0470
# 5 30.7985 14.5346 24.0886 0.0000 27.8420 0.0000
# 6 0.0000 0.0000 0.0000 6.0470 0.0000 26.8716
#
#
#
# Elastic Compliance Matrix: (Units=1/GPa)
#
#
# Indices 1 2 3 4 5 6 
#
# 1 0.011027 -0.005663 -0.004974 0.000000 -0.004937 0.000000
# 2 -0.005663 0.026470 -0.008548 0.000000 -0.000159 0.000000
# 3 -0.004974 -0.008548 0.033450 0.000000 -0.018976 0.000000
# 4 0.000000 0.000000 0.000000 0.067725 0.000000 -0.015240
# 5 -0.004937 -0.000159 -0.018976 0.000000 0.057880 0.000000
# 6 0.000000 0.000000 0.000000 -0.015240 0.000000 0.040644
#
#
# Mechanical properties :
#
#
# Convention : Reuss Voigt Hill
#
# Bulk Modulus (GPa) = 30.69594 60.15000 45.42297
# Shear Modulus (GPa) = 17.45668 23.35940 20.40804
#
# Velocity S-wave (km/s) = 3.21492 3.71895 3.47608
# Velocity P-wave (km/s) = 5.65290 7.35216 6.55780
#
# Compressibility (1/GPa) = 0.03257760
#
# Stress axis : x y z
#
# Youngs Moduli (GPa) = 90.69050 37.77832 29.89510
#
# Poissons Ratio (x) = 0.21393 0.14871
# Poissons Ratio (y) = 0.51356 0.25553
# Poissons Ratio (z) = 0.45113 0.32291
#
# Static dielectric constant tensor:
#      x y z
#    x 3.560590 0.000000 0.446820 
#    y 0.000000 3.206310 0.000000 
#    z 0.446820 0.000000 2.852900 
# 
# 
# High freq. dielectric constant tensor:
#      x y z
#    x 1.662570 0.000000 0.039210 
#    y 0.000000 1.655570 0.000000 
#    z 0.039210 0.000000 1.594120 
# 
# From -- ./inp_files/23687.got.cif
#   From: 2010.03.12/outbox.cif.g09.slc.cpg/sg8_12_cif.got.tgz:23687.got - 2010.03.31 10:45:26.
