data_PCOD8054230
_publ_section_title
;
Structure prediction by ZEFSAII (Michael W. Deem and Ramdas Pophale) SiO2 
 PCOD8054230
Probable space group: C C
;
_chemical_formula_sum "Si O2"
_cell_formula_units_Z 28
_cell_length_a 24.932589
_cell_length_b 7.133072
_cell_length_c 14.389835
_cell_angle_alpha 90.000000
_cell_angle_beta 153.596321
_cell_angle_gamma 90.000000
_cell_volume 1138.045937
_symmetry_space_group_name_H-M "C C"
_symmetry_group_IT_number 9
_symmetry_cell_setting 'monoclinic'
loop_
_space_group_symop_operation_xyz
x,y,z
x,-y,1/2+z
1/2+x,1/2+y,z
1/2+x,1/2-y,1/2+z
loop_
_atom_site_type_symbol
_atom_site_label
_atom_site_fract_x
_atom_site_fract_y
_atom_site_fract_z
Si Si1 0.107130 0.790868 0.890790
Si Si2 0.191395 0.110439 0.129898
Si Si3 0.778415 0.293278 0.387245
Si Si4 0.532208 0.153807 0.978447
Si Si5 0.944903 0.261998 0.809463
Si Si6 0.352090 0.587584 0.955309
Si Si7 0.816579 0.093182 0.121672
O O1 0.076059 0.693280 0.940670
O O2 0.986846 0.838987 0.645912
O O3 0.184675 0.985847 0.024994
O O4 0.183262 0.645486 0.948149
O O5 0.265309 0.990882 0.318528
O O6 0.261222 0.308219 0.242028
O O7 0.051787 0.129226 0.939805
O O8 0.869881 0.352001 0.609416
O O9 0.837735 0.134437 0.411363
O O10 0.647332 0.214781 0.220048
O O11 0.413362 0.268682 0.818502
O O12 0.500474 0.935958 0.952530
O O13 0.852195 0.116362 0.715185
O O14 0.317711 0.604416 0.011380
#
# Coordination Sequence:
#
# PCOD8054230 Si02
#       7
#     4   4   4   4   4   4   4
#     4  10  21  42  63  90 131 163 209 264 305 370
#     4  11  20  38  64  87 119 165 204 249 315 367
#     4  10  18  34  63  84 112 158 201 243 306 367
#     4  10  20  39  64  86 122 166 203 251 317 369
#     4  11  20  38  65  84 119 163 201 252 315 363
#     4  10  20  39  63  87 124 168 200 255 318 366
#     4  10  21  42  60  94 129 161 212 264 302 372
#
# _framework density 24.603577000000001
#
# number of rings (size 3 to 8) (size 9 to 14) (size 15 to 20)
#    0.000    1.714    7.143    1.714    0.000    0.000 
#    7.714    2.857    0.000    0.000    0.000    0.000 
#    0.000    0.000    0.000    0.000    0.000    0.000 
#
# Total GULP energy -173451.234231 kJ/mol
# GULP energy per Si atom -12389.373874 kJ/mol
# Density = 2.454758 g / cm^3
# Si number density = 24.603577 Si / 1000 Ang^3
#
#
#
# Elastic Constant Matrix: (Units=GPa)
#
#
# Indices 1 2 3 4 5 6 
#
# 1 32.4418 -1.2358 11.2241 0.0000 11.4101 0.0000
# 2 -1.2358 56.8021 -7.8824 0.0000 -10.7994 0.0000
# 3 11.2241 -7.8824 114.2834 0.0000 7.6120 0.0000
# 4 0.0000 0.0000 0.0000 51.9998 0.0000 -6.6083
# 5 11.4101 -10.7994 7.6120 0.0000 17.5591 0.0000
# 6 0.0000 0.0000 0.0000 -6.6083 0.0000 10.2173
#
#
#
# Elastic Compliance Matrix: (Units=1/GPa)
#
#
# Indices 1 2 3 4 5 6 
#
# 1 0.041733 -0.004970 -0.002504 0.000000 -0.029090 0.000000
# 2 -0.004970 0.020565 0.000874 0.000000 0.015499 0.000000
# 3 -0.002504 0.000874 0.009177 0.000000 -0.001814 0.000000
# 4 0.000000 0.000000 0.000000 0.020953 0.000000 0.013552
# 5 -0.029090 0.015499 -0.001814 0.000000 0.086172 0.000000
# 6 0.000000 0.000000 0.000000 0.013552 0.000000 0.106639
#
#
# Mechanical properties :
#
#
# Convention : Reuss Voigt Hill
#
# Bulk Modulus (GPa) = 17.16006 23.08212 20.12109
# Shear Modulus (GPa) = 15.73005 29.38332 22.55668
#
# Velocity S-wave (km/s) = 2.53126 3.45957 3.03116
# Velocity P-wave (km/s) = 3.94117 5.03589 4.52178
#
# Compressibility (1/GPa) = 0.05827486
#
# Stress axis : x y z
#
# Youngs Moduli (GPa) = 23.96210 48.62664 108.96581
#
# Poissons Ratio (x) = 0.24168 0.27284
# Poissons Ratio (y) = 0.11910 -0.09526
# Poissons Ratio (z) = 0.06000 -0.04251
#
# Static dielectric constant tensor:
#      x y z
#    x 3.631400 0.000000 0.067750 
#    y 0.000000 4.607720 0.000000 
#    z 0.067750 0.000000 4.820390 
# 
# 
# High freq. dielectric constant tensor:
#      x y z
#    x 1.906430 0.000000 0.006350 
#    y 0.000000 1.997140 0.000000 
#    z 0.006350 0.000000 2.006990 
# 
# From -- ./inp_files/25414.got.cif
#   From: 2010.06.25/outbox.cif.g09.slc.cpg/sg9_13_cif.got.tgz:25414.got - 2010.06.27 21:40:51.
