data_PCOD8054544
_publ_section_title
;
Structure prediction by ZEFSAII (Michael W. Deem and Ramdas Pophale) SiO2 
 PCOD8054544
Probable space group: C C
;
_chemical_formula_sum "Si O2"
_cell_formula_units_Z 32
_cell_length_a 10.763324
_cell_length_b 10.769195
_cell_length_c 14.641378
_cell_angle_alpha 90.000000
_cell_angle_beta 69.469034
_cell_angle_gamma 90.000000
_cell_volume 1589.320201
_symmetry_space_group_name_H-M "C C"
_symmetry_group_IT_number 9
_symmetry_cell_setting 'monoclinic'
loop_
_space_group_symop_operation_xyz
x,y,z
x,-y,1/2+z
1/2+x,1/2+y,z
1/2+x,1/2-y,1/2+z
loop_
_atom_site_type_symbol
_atom_site_label
_atom_site_fract_x
_atom_site_fract_y
_atom_site_fract_z
Si Si1 0.103240 0.688412 0.590690
Si Si2 0.271212 0.465470 0.486202
Si Si3 0.646875 0.383554 0.122894
Si Si4 0.695793 0.226898 0.756215
Si Si5 0.081794 0.263300 0.472120
Si Si6 0.387969 0.490412 0.270942
Si Si7 0.305904 0.120618 0.077998
Si Si8 0.339474 0.318192 0.634287
O O1 0.151959 0.561529 0.532853
O O2 0.097549 0.673404 0.702805
O O3 0.208580 0.797119 0.539195
O O4 0.960640 0.723295 0.586962
O O5 0.212378 0.337122 0.466308
O O6 0.372582 0.516189 0.383350
O O7 0.348277 0.432687 0.559880
O O8 0.573502 0.351010 0.045625
O O9 0.540204 0.452970 0.213780
O O10 0.770196 0.476393 0.073871
O O11 0.702688 0.259750 0.158698
O O12 0.789642 0.116476 0.764200
O O13 0.785916 0.337414 0.689599
O O14 0.606268 0.281674 0.861740
O O15 0.955159 0.353010 0.508714
O O16 0.351227 0.619504 0.230590
#
# Coordination Sequence:
#
# PCOD8054544 Si02
#       8
#     4   4   4   4   4   4   4   4
#     4  10  20  38  61  88 125 159 204 260 306 369
#     4  10  23  38  65  90 124 170 206 261 320 361
#     4  11  22  39  62  89 125 163 205 264 304 371
#     4   9  20  39  65  85 125 171 203 260 319 360
#     4  10  21  40  63  90 124 168 209 254 320 366
#     4  11  20  43  63  89 125 167 212 259 315 371
#     4  10  20  37  61  87 123 161 201 262 302 368
#     4  11  22  40  62  90 127 161 208 262 308 374
#
# _framework density 20.134395000000001
#
# number of rings (size 3 to 8) (size 9 to 14) (size 15 to 20)
#    0.750    1.000    3.750    0.750    0.000    3.000 
#    0.000    7.500    0.000    0.000    0.000    0.000 
#    0.000    0.000    0.000    0.000    0.000    0.000 
#
# Total GULP energy -198319.625831 kJ/mol
# GULP energy per Si atom -12394.976614 kJ/mol
# Density = 2.008857 g / cm^3
# Si number density = 20.134395 Si / 1000 Ang^3
#
#
#
# Elastic Constant Matrix: (Units=GPa)
#
#
# Indices 1 2 3 4 5 6 
#
# 1 66.2959 9.6457 16.9499 0.0000 -10.4111 0.0000
# 2 9.6457 64.7320 11.3365 0.0000 4.6459 0.0000
# 3 16.9499 11.3365 110.2192 0.0000 -3.3532 0.0000
# 4 0.0000 0.0000 0.0000 20.6986 0.0000 -9.4752
# 5 -10.4111 4.6459 -3.3532 0.0000 19.0634 0.0000
# 6 0.0000 0.0000 0.0000 -9.4752 0.0000 40.6431
#
#
#
# Elastic Compliance Matrix: (Units=1/GPa)
#
#
# Indices 1 2 3 4 5 6 
#
# 1 0.017621 -0.002974 -0.002100 0.000000 0.009978 0.000000
# 2 -0.002974 0.016566 -0.001426 0.000000 -0.005912 0.000000
# 3 -0.002100 -0.001426 0.009569 0.000000 0.000884 0.000000
# 4 0.000000 0.000000 0.000000 0.054085 0.000000 0.012609
# 5 0.009978 -0.005912 0.000884 0.000000 0.059502 0.000000
# 6 0.000000 0.000000 0.000000 0.012609 0.000000 0.027544
#
#
# Mechanical properties :
#
#
# Convention : Reuss Voigt Hill
#
# Bulk Modulus (GPa) = 32.51573 35.23457 33.87515
# Shear Modulus (GPa) = 24.02238 29.63533 26.82886
#
# Velocity S-wave (km/s) = 3.45788 3.84067 3.65429
# Velocity P-wave (km/s) = 5.66807 6.09961 5.88780
#
# Compressibility (1/GPa) = 0.03075434
#
# Stress axis : x y z
#
# Youngs Moduli (GPa) = 56.75178 60.36609 104.49959
#
# Poissons Ratio (x) = 0.17953 0.21948
# Poissons Ratio (y) = 0.16878 0.14905
# Poissons Ratio (z) = 0.11920 0.08610
#
# Static dielectric constant tensor:
#      x y z
#    x 3.469970 0.000000 0.114050 
#    y 0.000000 3.508420 0.000000 
#    z 0.114050 0.000000 3.796620 
# 
# 
# High freq. dielectric constant tensor:
#      x y z
#    x 1.782050 0.000000 0.000400 
#    y 0.000000 1.783470 0.000000 
#    z 0.000400 0.000000 1.772760 
# 
# From -- ./inp_files/24554.got.cif
#   From: 2010.06.25/outbox.cif.g09.slc.cpg/sg9_13_cif.got.tgz:24554.got - 2010.06.27 21:40:51.
