data_PCOD8054137
_publ_section_title
;
Structure prediction by ZEFSAII (Michael W. Deem and Ramdas Pophale) SiO2 
 PCOD8054137
Probable space group: C M
;
_chemical_formula_sum "Si O2"
_cell_formula_units_Z 24
_cell_length_a 16.814727
_cell_length_b 13.930975
_cell_length_c 9.621967
_cell_angle_alpha 90.000000
_cell_angle_beta 30.040149
_cell_angle_gamma 90.000000
_cell_volume 1128.318943
_symmetry_space_group_name_H-M "C M"
_symmetry_group_IT_number 8
_symmetry_cell_setting 'monoclinic'
loop_
_space_group_symop_operation_xyz
x,y,z
x,-y,z
1/2+x,1/2+y,z
1/2+x,1/2-y,z
loop_
_atom_site_type_symbol
_atom_site_label
_atom_site_fract_x
_atom_site_fract_y
_atom_site_fract_z
Si Si1 0.070280 0.500000 0.344391
Si Si2 0.059730 0.000000 0.705946
Si Si3 0.719111 0.500000 0.744108
Si Si4 0.588565 0.707020 0.990639
Si Si5 0.731444 0.802428 0.515608
Si Si6 0.557302 0.695133 0.557417
Si Si7 0.701305 0.791106 0.090874
Si Si8 0.228621 0.500000 0.383243
O O1 0.159560 0.403814 0.161239
O O2 0.080034 0.500000 0.499015
O O3 0.895591 0.500000 0.541142
O O4 0.207372 0.000000 0.592537
O O5 0.077458 0.914222 0.570800
O O6 0.894828 0.000000 0.044235
O O7 0.629052 0.594525 0.932358
O O8 0.405947 0.722567 0.305700
O O9 0.694279 0.762846 0.940911
O O10 0.610924 0.756574 0.807704
O O11 0.693045 0.756658 0.425563
O O12 0.714371 0.914736 0.514754
O O13 0.586470 0.719204 0.350578
O O14 0.381003 0.727024 0.868109
#
# Coordination Sequence:
#
# PCOD8054137 Si02
#       8
#     2   2   2   4   4   4   4   2
#     4  12  24  45  67  98 143 182 221 284 355 396
#     4  12  22  45  72  99 136 184 228 292 343 406
#     4  12  24  45  67  98 143 182 221 284 355 396
#     4  12  26  44  70 102 140 181 228 284 344 410
#     4  12  23  44  70 101 133 181 230 278 342 409
#     4  12  23  44  70 101 133 181 230 278 342 409
#     4  12  26  44  70 102 140 181 228 284 344 410
#     4  12  22  45  72  99 136 184 228 292 343 406
#
# _framework density 21.270582000000001
#
# number of rings (size 3 to 8) (size 9 to 14) (size 15 to 20)
#    0.000    0.000    6.667    4.000    0.000    1.333 
#    0.000    8.333    0.000    0.000    0.000    0.000 
#    0.000    0.000    0.000    0.000    0.000    0.000 
#
# Total GULP energy -148767.225878 kJ/mol
# GULP energy per Si atom -12397.268823 kJ/mol
# Density = 2.122217 g / cm^3
# Si number density = 21.270582 Si / 1000 Ang^3
#
#
#
# Elastic Constant Matrix: (Units=GPa)
#
#
# Indices 1 2 3 4 5 6 
#
# 1 121.7653 36.2572 32.0076 -0.0001 -14.3285 0.0000
# 2 36.2572 143.4235 38.2408 -0.0001 -1.6424 0.0001
# 3 32.0076 38.2408 71.9454 -0.0006 -7.3363 0.0001
# 4 -0.0001 -0.0001 -0.0006 -46.8213 0.0003 -11.4604
# 5 -14.3285 -1.6424 -7.3363 0.0003 36.0140 0.0000
# 6 0.0000 0.0001 0.0001 -11.4604 0.0000 36.7728
#
#
#
# Elastic Compliance Matrix: (Units=1/GPa)
#
#
# Indices 1 2 3 4 5 6 
#
# 1 0.009919 -0.001610 -0.003229 0.000000 0.003215 0.000000
# 2 -0.001610 0.008394 -0.003852 0.000000 -0.001042 0.000000
# 3 -0.003229 -0.003852 0.017600 0.000000 0.002125 0.000000
# 4 0.000000 0.000000 0.000000 -0.019844 0.000000 -0.006184
# 5 0.003215 -0.001042 0.002125 0.000000 0.029431 0.000000
# 6 0.000000 0.000000 0.000000 -0.006184 0.000000 0.025267
#
#
# Mechanical properties :
#
#
# Convention : Reuss Voigt Hill
#
# Bulk Modulus (GPa) = 53.96207 61.12726 57.54466
# Shear Modulus (GPa) = 53.00707 20.56835 36.78771
#
# Velocity S-wave (km/s) = 4.99745 3.11301 4.16325
# Velocity P-wave (km/s) = 7.66314 6.45921 7.08679
#
# Compressibility (1/GPa) = 0.01853154
#
# Stress axis : x y z
#
# Youngs Moduli (GPa) = 100.81618 119.12717 56.81729
#
# Poissons Ratio (x) = 0.19175 0.18349
# Poissons Ratio (y) = 0.16228 0.21886
# Poissons Ratio (z) = 0.32558 0.45888
#
# Static dielectric constant tensor:
#      x y z
#    x 4.157870 0.000000 -0.156680 
#    y 0.000000 5.179400 0.000000 
#    z -0.156680 0.000000 3.535870 
# 
# 
# High freq. dielectric constant tensor:
#      x y z
#    x 1.859680 0.000000 -0.008220 
#    y 0.000000 1.849010 0.000000 
#    z -0.008220 0.000000 1.812600 
# 
# From -- ./inp_files/15154.got.cif
#   From: 2010.03.12/outbox.cif.g09.slc.cpg/sg8_8_cif.got.tgz:15154.got - 2010.03.31 10:45:26.
