data_PCOD8054617
_publ_section_title
;
Structure prediction by ZEFSAII (Michael W. Deem and Ramdas Pophale) SiO2 
 PCOD8054617
Probable space group: C C
;
_chemical_formula_sum "Si O2"
_cell_formula_units_Z 32
_cell_length_a 12.983729
_cell_length_b 8.797293
_cell_length_c 25.462242
_cell_angle_alpha 90.000000
_cell_angle_beta 150.373211
_cell_angle_gamma 90.000000
_cell_volume 1437.732962
_symmetry_space_group_name_H-M "C C"
_symmetry_group_IT_number 9
_symmetry_cell_setting 'monoclinic'
loop_
_space_group_symop_operation_xyz
x,y,z
x,-y,1/2+z
1/2+x,1/2+y,z
1/2+x,1/2-y,1/2+z
loop_
_atom_site_type_symbol
_atom_site_label
_atom_site_fract_x
_atom_site_fract_y
_atom_site_fract_z
Si Si1 0.322550 0.672651 0.528770
Si Si2 0.602077 0.280162 0.792696
Si Si3 0.930919 0.826404 0.894471
Si Si4 0.237760 0.348986 0.463487
Si Si5 0.206229 0.868561 0.689456
Si Si6 0.167674 0.867380 0.102319
Si Si7 0.111980 0.924211 0.241139
Si Si8 0.920677 0.853631 0.349390
O O1 0.213874 0.532061 0.449430
O O2 0.534022 0.714590 0.589915
O O3 0.388104 0.619359 0.616581
O O4 0.163614 0.811429 0.465283
O O5 0.368088 0.228589 0.674946
O O6 0.595159 0.463613 0.783852
O O7 0.769347 0.208633 0.827472
O O8 0.663539 0.232927 0.878038
O O9 0.718092 0.732506 0.806844
O O10 0.900574 0.964335 0.839683
O O11 0.100283 0.707700 0.950269
O O12 0.009275 0.894360 0.984167
O O13 0.472382 0.304591 0.582332
O O14 0.351673 0.720673 0.762820
O O15 0.252312 0.965395 0.657358
O O16 0.241447 0.985133 0.753686
#
# Coordination Sequence:
#
# PCOD8054617 Si02
#       8
#     4   4   4   4   4   4   4   4
#     4  10  21  43  65  89 123 171 213 258 315 381
#     4  11  21  40  65  92 123 171 212 253 313 383
#     4  12  23  38  60  97 132 163 206 268 320 375
#     4  10  20  39  63  89 125 164 213 260 312 375
#     4   9  20  41  64  86 118 169 211 253 311 375
#     4  10  21  39  66  92 123 165 212 261 318 379
#     4   9  21  38  62  91 125 163 204 252 314 377
#     4  11  23  38  63  92 123 162 213 265 315 373
#
# _framework density 22.257263999999999
#
# number of rings (size 3 to 8) (size 9 to 14) (size 15 to 20)
#    0.000    2.000    0.000    7.500    0.000    3.000 
#    0.000    6.250    0.000    0.000    0.000    0.000 
#    0.000    0.000    0.000    0.000    0.000    0.000 
#
# Total GULP energy -198324.786729 kJ/mol
# GULP energy per Si atom -12395.299171 kJ/mol
# Density = 2.220661 g / cm^3
# Si number density = 22.257264 Si / 1000 Ang^3
#
#
#
# Elastic Constant Matrix: (Units=GPa)
#
#
# Indices 1 2 3 4 5 6 
#
# 1 63.1178 23.1539 23.2011 -0.0002 9.5142 0.0000
# 2 23.1539 131.2707 61.1324 -0.0005 2.8025 -0.0001
# 3 23.2011 61.1324 108.4354 -0.0005 -8.3844 -0.0004
# 4 -0.0002 -0.0005 -0.0005 19.0988 -0.0002 8.5371
# 5 9.5142 2.8025 -8.3844 -0.0002 43.6379 -0.0001
# 6 0.0000 -0.0001 -0.0004 8.5371 -0.0001 29.9392
#
#
#
# Elastic Compliance Matrix: (Units=1/GPa)
#
#
# Indices 1 2 3 4 5 6 
#
# 1 0.018351 -0.001555 -0.003402 0.000000 -0.004555 0.000000
# 2 -0.001555 0.010604 -0.005758 0.000000 -0.001448 0.000000
# 3 -0.003402 -0.005758 0.013482 0.000000 0.003702 0.000000
# 4 0.000000 0.000000 0.000000 0.060008 0.000000 -0.017111
# 5 -0.004555 -0.001448 0.003702 0.000000 0.024713 0.000000
# 6 0.000000 0.000000 0.000000 -0.017111 0.000000 0.038280
#
#
# Mechanical properties :
#
#
# Convention : Reuss Voigt Hill
#
# Bulk Modulus (GPa) = 47.60079 57.53317 52.56698
# Shear Modulus (GPa) = 25.79036 31.55761 28.67398
#
# Velocity S-wave (km/s) = 3.40772 3.76953 3.59318
# Velocity P-wave (km/s) = 6.07589 6.69709 6.39404
#
# Compressibility (1/GPa) = 0.02100806
#
# Stress axis : x y z
#
# Youngs Moduli (GPa) = 54.49314 94.30039 74.17245
#
# Poissons Ratio (x) = 0.14667 0.25231
# Poissons Ratio (y) = 0.08476 0.42706
# Poissons Ratio (z) = 0.18537 0.54294
#
# Static dielectric constant tensor:
#      x y z
#    x 3.844690 0.000000 -0.039290 
#    y 0.000000 3.991750 0.000000 
#    z -0.039290 0.000000 4.147750 
# 
# 
# High freq. dielectric constant tensor:
#      x y z
#    x 1.857170 0.000000 0.003460 
#    y 0.000000 1.863990 0.000000 
#    z 0.003460 0.000000 1.887670 
# 
# From -- ./inp_files/36722.got.cif
#   From: 2010.06.25/outbox.cif.g09.slc.cpg/sg9_19_cif.got.tgz:36722.got - 2010.06.27 21:40:51.
