data_PCOD8054173
_publ_section_title
;
Structure prediction by ZEFSAII (Michael W. Deem and Ramdas Pophale) SiO2 
 PCOD8054173
Probable space group: C C
;
_chemical_formula_sum "Si O2"
_cell_formula_units_Z 32
_cell_length_a 9.321642
_cell_length_b 16.133883
_cell_length_c 11.230937
_cell_angle_alpha 90.000000
_cell_angle_beta 65.917321
_cell_angle_gamma 90.000000
_cell_volume 1542.048068
_symmetry_space_group_name_H-M "C C"
_symmetry_group_IT_number 9
_symmetry_cell_setting 'monoclinic'
loop_
_space_group_symop_operation_xyz
x,y,z
x,-y,1/2+z
1/2+x,1/2+y,z
1/2+x,1/2-y,1/2+z
loop_
_atom_site_type_symbol
_atom_site_label
_atom_site_fract_x
_atom_site_fract_y
_atom_site_fract_z
Si Si1 0.206710 0.027236 0.568850
Si Si2 0.199952 0.729003 0.207616
Si Si3 0.757641 0.178662 0.438731
Si Si4 0.052764 0.847938 0.968215
Si Si5 0.149828 0.672402 0.967903
Si Si6 0.463911 0.635637 0.750660
Si Si7 0.933829 0.630194 0.639898
Si Si8 0.845774 0.634170 0.939379
O O1 0.367641 0.059300 0.574489
O O2 0.171832 0.076303 0.455159
O O3 0.062673 0.048617 0.708949
O O4 0.217414 0.930632 0.533707
O O5 0.222175 0.667422 0.310932
O O6 0.157197 0.673253 0.108481
O O7 0.358164 0.781524 0.128052
O O8 0.064988 0.795752 0.288262
O O9 0.926548 0.134859 0.406616
O O10 0.621269 0.135213 0.560786
O O11 0.768415 0.275625 0.469459
O O12 0.945958 0.829070 0.122218
O O13 0.155318 0.765140 0.909237
O O14 0.298340 0.620521 0.869270
O O15 0.993508 0.626740 0.977825
O O16 0.898254 0.608764 0.789099
#
# Coordination Sequence:
#
# PCOD8054173 Si02
#       8
#     4   4   4   4   4   4   4   4
#     4   9  20  41  59  88 125 167 189 252 328 353
#     4   9  18  30  56  96 122 156 200 254 305 350
#     4  10  19  35  63  93 121 157 208 258 292 365
#     4   8  18  33  58  89 118 157 202 246 309 353
#     4  10  16  33  59  96 117 158 214 247 294 371
#     4   8  16  31  60  81 121 164 191 246 313 357
#     4  10  19  38  63  85 126 163 197 253 311 362
#     4  10  22  37  64  94 120 158 213 256 302 369
#
# _framework density 20.751622000000001
#
# number of rings (size 3 to 8) (size 9 to 14) (size 15 to 20)
#    0.750    2.000    1.250    1.500    0.000    0.000 
#    2.250    5.000   16.500    0.000    0.000    0.000 
#    0.000    0.000    0.000    0.000    0.000    0.000 
#
# Total GULP energy -198274.491143 kJ/mol
# GULP energy per Si atom -12392.155696 kJ/mol
# Density = 2.070439 g / cm^3
# Si number density = 20.751622 Si / 1000 Ang^3
#
#
#
# Elastic Constant Matrix: (Units=GPa)
#
#
# Indices 1 2 3 4 5 6 
#
# 1 130.0457 33.3208 44.3156 0.0000 14.6524 0.0000
# 2 33.3208 66.0813 25.4159 0.0000 -3.5378 0.0000
# 3 44.3156 25.4159 75.3770 0.0000 4.2957 0.0000
# 4 0.0000 0.0000 0.0000 24.4824 0.0000 -0.9369
# 5 14.6524 -3.5378 4.2957 0.0000 38.3478 0.0000
# 6 0.0000 0.0000 0.0000 -0.9369 0.0000 19.4972
#
#
#
# Elastic Compliance Matrix: (Units=1/GPa)
#
#
# Indices 1 2 3 4 5 6 
#
# 1 0.010739 -0.003771 -0.004819 0.000000 -0.003911 0.000000
# 2 -0.003771 0.018911 -0.004369 0.000000 0.003675 0.000000
# 3 -0.004819 -0.004369 0.017604 0.000000 -0.000534 0.000000
# 4 0.000000 0.000000 0.000000 0.040921 0.000000 0.001966
# 5 -0.003911 0.003675 -0.000534 0.000000 0.027970 0.000000
# 6 0.000000 0.000000 0.000000 0.001966 0.000000 0.051384
#
#
# Mechanical properties :
#
#
# Convention : Reuss Voigt Hill
#
# Bulk Modulus (GPa) = 46.87015 53.06761 49.96888
# Shear Modulus (GPa) = 24.93036 27.69559 26.31298
#
# Velocity S-wave (km/s) = 3.46984 3.65721 3.56476
# Velocity P-wave (km/s) = 6.21999 6.59256 6.40899
#
# Compressibility (1/GPa) = 0.02133554
#
# Stress axis : x y z
#
# Youngs Moduli (GPa) = 93.12158 52.87808 56.80674
#
# Poissons Ratio (x) = 0.19939 0.27376
# Poissons Ratio (y) = 0.35114 0.24820
# Poissons Ratio (z) = 0.44877 0.23103
#
# Static dielectric constant tensor:
#      x y z
#    x 3.927260 0.000000 0.212780 
#    y 0.000000 3.238590 0.000000 
#    z 0.212780 0.000000 3.391310 
# 
# 
# High freq. dielectric constant tensor:
#      x y z
#    x 1.828150 0.000000 0.014420 
#    y 0.000000 1.768010 0.000000 
#    z 0.014420 0.000000 1.785130 
# 
# From -- ./inp_files/15422.got.cif
#   From: 2010.06.25/outbox.cif.g09.slc.cpg/sg9_8_cif.got.tgz:15422.got - 2010.06.27 21:40:51.
