data_PCOD8054046
_publ_section_title
;
Structure prediction by ZEFSAII (Michael W. Deem and Ramdas Pophale) SiO2 
 PCOD8054046
Probable space group: C M
;
_chemical_formula_sum "Si O2"
_cell_formula_units_Z 24
_cell_length_a 11.383398
_cell_length_b 18.030633
_cell_length_c 13.570860
_cell_angle_alpha 90.000000
_cell_angle_beta 158.926558
_cell_angle_gamma 90.000000
_cell_volume 1001.536675
_symmetry_space_group_name_H-M "C M"
_symmetry_group_IT_number 8
_symmetry_cell_setting 'monoclinic'
loop_
_space_group_symop_operation_xyz
x,y,z
x,-y,z
1/2+x,1/2+y,z
1/2+x,1/2-y,z
loop_
_atom_site_type_symbol
_atom_site_label
_atom_site_fract_x
_atom_site_fract_y
_atom_site_fract_z
Si Si1 0.477850 0.000000 0.600160
Si Si2 0.744821 0.000000 0.010538
Si Si3 0.715090 0.299236 0.570104
Si Si4 0.354335 0.840153 0.292461
Si Si5 0.061112 0.374670 0.010093
Si Si6 0.037160 0.500000 0.351317
Si Si7 0.630772 0.842434 0.710184
Si Si8 0.290867 0.000000 0.938224
O O1 0.690969 0.929695 0.737200
O O2 0.460928 0.000000 0.706303
O O3 0.122224 0.000000 0.269392
O O4 0.705636 0.074088 0.039512
O O5 0.642689 0.214063 0.477969
O O6 0.848405 0.311408 0.786556
O O7 0.975935 0.329280 0.695827
O O8 0.369412 0.340182 0.305401
O O9 0.376732 0.820587 0.426797
O O10 0.398337 0.925138 0.293471
O O11 0.994703 0.809201 0.983142
O O12 0.863203 0.424656 0.933704
O O13 0.416077 0.500000 0.672640
O O14 0.989088 0.500000 0.195945
#
# Coordination Sequence:
#
# PCOD8054046 Si02
#       8
#     2   2   4   4   4   2   4   2
#     4  12  20  36  70  99 134 175 212 288 334 410
#     4  11  18  35  62 103 138 163 213 278 347 392
#     4  12  25  44  70 101 149 175 232 299 351 414
#     4  12  28  46  70  99 139 188 241 283 347 434
#     4  11  22  42  67 112 137 178 226 288 352 419
#     4  12  26  52  67 102 137 196 240 288 342 432
#     4  12  24  44  69 103 135 187 229 288 360 407
#     4  11  26  43  79  98 145 188 233 288 355 422
#
# _framework density 23.963177000000002
#
# number of rings (size 3 to 8) (size 9 to 14) (size 15 to 20)
#    0.000    0.333    3.333    6.000    0.000    6.667 
#    0.000    0.000    0.000    0.000    0.000    0.000 
#    0.000    0.000    0.000    0.000    0.000    0.000 
#
# Total GULP energy -148656.707808 kJ/mol
# GULP energy per Si atom -12388.058984 kJ/mol
# Density = 2.390864 g / cm^3
# Si number density = 23.963177 Si / 1000 Ang^3
#
#
#
# Elastic Constant Matrix: (Units=GPa)
#
#
# Indices 1 2 3 4 5 6 
#
# 1 89.3747 17.8862 35.8353 0.0300 -13.3853 0.1424
# 2 17.8862 105.0053 38.2342 -0.0454 2.6342 -0.1740
# 3 35.8353 38.2342 132.1971 0.3852 -2.1585 1.5280
# 4 0.0300 -0.0454 0.3852 50.5487 0.1917 59.2537
# 5 -13.3853 2.6342 -2.1585 0.1917 39.2819 0.6738
# 6 0.1424 -0.1740 1.5280 59.2537 0.6738 286.1201
#
#
#
# Elastic Compliance Matrix: (Units=1/GPa)
#
#
# Indices 1 2 3 4 5 6 
#
# 1 0.013387 -0.001227 -0.003201 -0.000001 0.004468 -0.000001
# 2 -0.001227 0.010788 -0.002809 0.000009 -0.001296 0.000023
# 3 -0.003201 -0.002809 0.009239 -0.000017 -0.000394 -0.000045
# 4 -0.000001 0.000009 -0.000017 0.026125 -0.000037 -0.005410
# 5 0.004468 -0.001296 -0.000394 -0.000037 0.027046 -0.000057
# 6 -0.000001 0.000023 -0.000045 -0.005410 -0.000057 0.004616
#
#
# Mechanical properties :
#
#
# Convention : Reuss Voigt Hill
#
# Bulk Modulus (GPa) = 52.79902 56.72093 54.75998
# Shear Modulus (GPa) = 44.64800 90.83156 67.73978
#
# Velocity S-wave (km/s) = 4.32115 6.16335 5.32256
# Velocity P-wave (km/s) = 6.85403 8.62384 7.78936
#
# Compressibility (1/GPa) = 0.01893975
#
# Stress axis : x y z
#
# Youngs Moduli (GPa) = 74.69914 92.69875 108.23986
#
# Poissons Ratio (x) = 0.11372 0.34649
# Poissons Ratio (y) = 0.09164 0.30404
# Poissons Ratio (z) = 0.23912 0.26038
#
# Static dielectric constant tensor:
#      x y z
#    x 4.206640 -0.004240 -0.406950 
#    y -0.004240 -0.682690 -0.000390 
#    z -0.406950 -0.000390 4.512580 
# 
# 
# High freq. dielectric constant tensor:
#      x y z
#    x 1.933750 0.000000 -0.018380 
#    y 0.000000 1.968180 0.000000 
#    z -0.018380 0.000000 1.966450 
# 
# From -- ./inp_files/4207.got.cif
#   From: 2010.03.12/outbox.cif.g09.slc.cpg/sg8_3_cif.got.tgz:4207.got - 2010.03.31 10:45:26.
