data_PCOD8054806
_publ_section_title
;
Structure prediction by ZEFSAII (Michael W. Deem and Ramdas Pophale) SiO2 
 PCOD8054806
Probable space group: C C
;
_chemical_formula_sum "Si O2"
_cell_formula_units_Z 28
_cell_length_a 19.736683
_cell_length_b 5.398010
_cell_length_c 10.227005
_cell_angle_alpha 90.000000
_cell_angle_beta 81.163193
_cell_angle_gamma 90.000000
_cell_volume 1076.639624
_symmetry_space_group_name_H-M "C C"
_symmetry_group_IT_number 9
_symmetry_cell_setting 'monoclinic'
loop_
_space_group_symop_operation_xyz
x,y,z
x,-y,1/2+z
1/2+x,1/2+y,z
1/2+x,1/2-y,1/2+z
loop_
_atom_site_type_symbol
_atom_site_label
_atom_site_fract_x
_atom_site_fract_y
_atom_site_fract_z
Si Si1 0.075110 0.264439 0.808990
Si Si2 0.812526 0.573193 0.721140
Si Si3 0.980845 0.673282 0.095353
Si Si4 0.355464 0.578803 0.805328
Si Si5 0.953040 0.831292 0.511727
Si Si6 0.608148 0.260497 0.883476
Si Si7 0.243446 0.848378 0.970305
O O1 0.023984 0.361660 0.712742
O O2 0.127835 0.497013 0.808203
O O3 0.033550 0.218743 0.957636
O O4 0.111780 0.994335 0.779387
O O5 0.929813 0.563724 0.579280
O O6 0.762337 0.566120 0.861953
O O7 0.765228 0.567830 0.607390
O O8 0.855174 0.829283 0.717556
O O9 0.862003 0.672213 0.211958
O O10 0.030779 0.721917 0.957112
O O11 0.941662 0.941249 0.118715
O O12 0.417792 0.590198 0.887772
O O13 0.285132 0.602455 0.911355
O O14 0.661706 0.300065 0.987180
#
# Coordination Sequence:
#
# PCOD8054806 Si02
#       7
#     4   4   4   4   4   4   4
#     4  10  22  39  59  89 121 160 203 252 315 370
#     4  10  25  42  64  95 130 166 219 259 327 377
#     4  10  21  37  62  86 121 159 203 255 310 370
#     4  10  24  39  65  92 129 167 215 265 321 379
#     4  10  21  40  58  92 118 159 206 251 311 373
#     4  10  23  37  60  87 122 157 208 252 313 370
#     4  10  26  42  66  95 131 168 220 262 325 381
#
# _framework density 26.006844000000001
#
# number of rings (size 3 to 8) (size 9 to 14) (size 15 to 20)
#    0.857    1.143    0.000    1.714    6.000    2.286 
#    0.000    0.000    0.000    0.000    0.000    0.000 
#    0.000    0.000    0.000    0.000    0.000    0.000 
#
# Total GULP energy -173494.802940 kJ/mol
# GULP energy per Si atom -12392.485924 kJ/mol
# Density = 2.594765 g / cm^3
# Si number density = 26.006844 Si / 1000 Ang^3
#
#
#
# Elastic Constant Matrix: (Units=GPa)
#
#
# Indices 1 2 3 4 5 6 
#
# 1 74.4217 79.5780 34.0357 0.0000 32.9994 0.0000
# 2 79.5780 260.5912 69.7100 0.0000 37.3998 0.0000
# 3 34.0357 69.7100 103.2411 0.0000 46.3173 0.0000
# 4 0.0000 0.0000 0.0000 35.3591 0.0000 4.6743
# 5 32.9994 37.3998 46.3173 0.0000 55.4190 0.0000
# 6 0.0000 0.0000 0.0000 4.6743 0.0000 30.2838
#
#
#
# Elastic Compliance Matrix: (Units=1/GPa)
#
#
# Indices 1 2 3 4 5 6 
#
# 1 0.024587 -0.006187 0.001227 0.000000 -0.011490 0.000000
# 2 -0.006187 0.006264 -0.003114 0.000000 0.002059 0.000000
# 3 0.001227 -0.003114 0.017229 0.000000 -0.013029 0.000000
# 4 0.000000 0.000000 0.000000 0.028870 0.000000 -0.004456
# 5 -0.011490 0.002059 -0.013029 0.000000 0.034386 0.000000
# 6 0.000000 0.000000 0.000000 -0.004456 0.000000 0.033709
#
#
# Mechanical properties :
#
#
# Convention : Reuss Voigt Hill
#
# Bulk Modulus (GPa) = 31.31622 89.43350 60.37486
# Shear Modulus (GPa) = 29.09730 41.20772 35.15251
#
# Velocity S-wave (km/s) = 3.34852 3.98489 3.68049
# Velocity P-wave (km/s) = 5.19787 7.45893 6.42858
#
# Compressibility (1/GPa) = 0.03193233
#
# Stress axis : x y z
#
# Youngs Moduli (GPa) = 40.67238 159.63412 58.04099
#
# Poissons Ratio (x) = 0.98772 -0.07123
# Poissons Ratio (y) = 0.25166 0.18073
# Poissons Ratio (z) = -0.04991 0.49707
#
# Static dielectric constant tensor:
#      x y z
#    x 4.380540 0.000000 -0.212590 
#    y 0.000000 5.373110 0.000000 
#    z -0.212590 0.000000 4.321760 
# 
# 
# High freq. dielectric constant tensor:
#      x y z
#    x 2.035510 0.000000 -0.017280 
#    y 0.000000 2.068130 0.000000 
#    z -0.017280 0.000000 2.038220 
# 
# From -- ./inp_files/19542.got.cif
#   From: 2010.06.25/outbox.cif.g09.slc.cpg/sg9_10_cif.got.tgz:19542.got - 2010.06.27 21:40:51.
