data_PCOD8054381
_publ_section_title
;
Structure prediction by ZEFSAII (Michael W. Deem and Ramdas Pophale) SiO2 
 PCOD8054381
Probable space group: C C
;
_chemical_formula_sum "Si O2"
_cell_formula_units_Z 32
_cell_length_a 11.992734
_cell_length_b 13.160860
_cell_length_c 10.635365
_cell_angle_alpha 90.000000
_cell_angle_beta 75.782434
_cell_angle_gamma 90.000000
_cell_volume 1627.213311
_symmetry_space_group_name_H-M "C C"
_symmetry_group_IT_number 9
_symmetry_cell_setting 'monoclinic'
loop_
_space_group_symop_operation_xyz
x,y,z
x,-y,1/2+z
1/2+x,1/2+y,z
1/2+x,1/2-y,1/2+z
loop_
_atom_site_type_symbol
_atom_site_label
_atom_site_fract_x
_atom_site_fract_y
_atom_site_fract_z
Si Si1 0.125000 0.789354 0.542640
Si Si2 0.886781 0.413665 0.939564
Si Si3 0.211887 0.807877 0.152507
Si Si4 0.571321 0.814588 0.293665
Si Si5 0.978824 0.199272 0.852162
Si Si6 0.831020 0.376116 0.370852
Si Si7 0.602013 0.932233 0.048781
Si Si8 0.237910 0.632550 0.960989
O O1 0.085581 0.784219 0.699118
O O2 0.236327 0.860628 0.505585
O O3 0.153990 0.674665 0.483210
O O4 0.024331 0.828901 0.479154
O O5 0.939620 0.317127 0.851621
O O6 0.858385 0.503883 0.849887
O O7 0.763720 0.385770 0.036495
O O8 0.978368 0.453918 0.018290
O O9 0.286409 0.824306 0.256432
O O10 0.076120 0.825254 0.219995
O O11 0.232225 0.694115 0.093759
O O12 0.443468 0.815095 0.385230
O O13 0.584474 0.917895 0.204733
O O14 0.660755 0.808107 0.381155
O O15 0.866720 0.128025 0.867232
O O16 0.693032 0.019538 0.995293
#
# Coordination Sequence:
#
# PCOD8054381 Si02
#       8
#     4   4   4   4   4   4   4   4
#     4   8  20  38  57  85 120 152 196 241 301 350
#     4  10  19  37  63  91 113 155 211 242 291 358
#     4  10  22  38  56  92 121 155 196 251 305 352
#     4  10  20  35  57  89 118 143 202 243 294 344
#     4   9  20  38  61  84 125 156 192 246 305 354
#     4  11  19  37  65  85 117 157 202 249 294 351
#     4   9  19  37  58  88 117 146 204 245 286 356
#     4  11  21  36  61  90 117 158 199 245 300 361
#
# _framework density 19.665521999999999
#
# number of rings (size 3 to 8) (size 9 to 14) (size 15 to 20)
#    0.750    1.500    2.500    0.750    1.750    2.000 
#    4.500    3.750    2.750    0.000    0.000    0.000 
#    0.000    0.000    0.000    0.000    0.000    0.000 
#
# Total GULP energy -198234.958197 kJ/mol
# GULP energy per Si atom -12389.684887 kJ/mol
# Density = 1.962076 g / cm^3
# Si number density = 19.665522 Si / 1000 Ang^3
#
#
#
# Elastic Constant Matrix: (Units=GPa)
#
#
# Indices 1 2 3 4 5 6 
#
# 1 140.1736 40.2846 32.4933 0.0000 -18.2442 0.0000
# 2 40.2846 58.8347 14.2980 0.0000 -2.8605 0.0000
# 3 32.4933 14.2980 47.1053 0.0000 -2.8729 0.0000
# 4 0.0000 0.0000 0.0000 25.9510 0.0000 -4.4697
# 5 -18.2442 -2.8605 -2.8729 0.0000 32.8113 0.0000
# 6 0.0000 0.0000 0.0000 -4.4697 0.0000 33.2463
#
#
#
# Elastic Compliance Matrix: (Units=1/GPa)
#
#
# Indices 1 2 3 4 5 6 
#
# 1 0.010669 -0.005775 -0.005304 0.000000 0.004965 0.000000
# 2 -0.005775 0.021517 -0.002643 0.000000 -0.001567 0.000000
# 3 -0.005304 -0.002643 0.025633 0.000000 -0.000935 0.000000
# 4 0.000000 0.000000 0.000000 0.039448 0.000000 0.005303
# 5 0.004965 -0.001567 -0.000935 0.000000 0.033019 0.000000
# 6 0.000000 0.000000 0.000000 0.005303 0.000000 0.030792
#
#
# Mechanical properties :
#
#
# Convention : Reuss Voigt Hill
#
# Bulk Modulus (GPa) = 32.92159 46.69614 39.80887
# Shear Modulus (GPa) = 25.17023 29.00426 27.08724
#
# Velocity S-wave (km/s) = 3.58147 3.84458 3.71536
# Velocity P-wave (km/s) = 5.82063 6.59579 6.22030
#
# Compressibility (1/GPa) = 0.03037520
#
# Stress axis : x y z
#
# Youngs Moduli (GPa) = 93.72597 46.47455 39.01221
#
# Poissons Ratio (x) = 0.26839 0.20692
# Poissons Ratio (y) = 0.54127 0.10311
# Poissons Ratio (z) = 0.49713 0.12283
#
# Static dielectric constant tensor:
#      x y z
#    x 3.699380 0.000000 -0.162810 
#    y 0.000000 3.340520 0.000000 
#    z -0.162810 0.000000 3.462100 
# 
# 
# High freq. dielectric constant tensor:
#      x y z
#    x 1.773460 0.000000 -0.007980 
#    y 0.000000 1.736090 0.000000 
#    z -0.007980 0.000000 1.751690 
# 
# From -- ./inp_files/16695.got.cif
#   From: 2010.06.25/outbox.cif.g09.slc.cpg/sg9_9_cif.got.tgz:16695.got - 2010.06.27 21:40:51.
