data_PCOD8054493
_publ_section_title
;
Structure prediction by ZEFSAII (Michael W. Deem and Ramdas Pophale) SiO2 
 PCOD8054493
Probable space group: C C
;
_chemical_formula_sum "Si O2"
_cell_formula_units_Z 32
_cell_length_a 22.187830
_cell_length_b 7.986777
_cell_length_c 9.321599
_cell_angle_alpha 90.000000
_cell_angle_beta 51.112959
_cell_angle_gamma 90.000000
_cell_volume 1285.793873
_symmetry_space_group_name_H-M "C C"
_symmetry_group_IT_number 9
_symmetry_cell_setting 'monoclinic'
loop_
_space_group_symop_operation_xyz
x,y,z
x,-y,1/2+z
1/2+x,1/2+y,z
1/2+x,1/2-y,1/2+z
loop_
_atom_site_type_symbol
_atom_site_label
_atom_site_fract_x
_atom_site_fract_y
_atom_site_fract_z
Si Si1 0.123060 0.979523 0.463890
Si Si2 0.696596 0.014653 0.263049
Si Si3 0.709113 0.333086 0.587582
Si Si4 0.954673 0.846835 0.683514
Si Si5 0.162244 0.290673 0.557070
Si Si6 0.872908 0.450749 0.421407
Si Si7 0.871762 0.972200 0.553016
Si Si8 0.839521 0.304937 0.755703
O O1 0.166580 0.031387 0.253126
O O2 0.104563 0.145765 0.589315
O O3 0.174524 0.847719 0.478586
O O4 0.044097 0.891280 0.539458
O O5 0.699520 0.854663 0.155179
O O6 0.653627 0.959861 0.473311
O O7 0.650413 0.159269 0.242522
O O8 0.783046 0.083803 0.162547
O O9 0.799978 0.368255 0.447816
O O10 0.946634 0.663224 0.768005
O O11 0.919581 0.837482 0.574519
O O12 0.909916 0.988496 0.843179
O O13 0.247299 0.212367 0.403376
O O14 0.859065 0.453032 0.612169
O O15 0.878610 0.640596 0.349644
O O16 0.877794 0.137691 0.642249
#
# Coordination Sequence:
#
# PCOD8054493 Si02
#       8
#     4   4   4   4   4   4   4   4
#     4  11  23  40  62  92 131 173 211 266 330 396
#     4  10  20  35  60  91 125 160 213 275 315 369
#     4  11  20  40  61  92 129 164 219 267 324 381
#     4  11  23  39  63  90 130 170 216 259 330 393
#     4  10  20  37  57  93 128 163 212 268 328 373
#     4  11  20  39  60  97 121 167 217 269 314 378
#     4  10  20  39  58  92 127 163 213 267 322 380
#     4  10  20  35  59  91 125 156 211 275 317 366
#
# _framework density 24.887350000000001
#
# number of rings (size 3 to 8) (size 9 to 14) (size 15 to 20)
#    0.000    1.500    6.250    2.250    0.000    3.000 
#    0.000    1.250    0.000    3.000    0.000    0.000 
#    0.000    0.000    0.000    0.000    0.000    0.000 
#
# Total GULP energy -198362.970946 kJ/mol
# GULP energy per Si atom -12397.685684 kJ/mol
# Density = 2.483071 g / cm^3
# Si number density = 24.887350 Si / 1000 Ang^3
#
#
#
# Elastic Constant Matrix: (Units=GPa)
#
#
# Indices 1 2 3 4 5 6 
#
# 1 84.5281 9.3147 25.2840 0.0000 4.0759 0.0000
# 2 9.3147 28.4704 -2.3610 0.0000 -6.6395 0.0000
# 3 25.2840 -2.3610 67.9096 0.0000 17.9098 0.0000
# 4 0.0000 0.0000 0.0000 28.3870 0.0000 12.0183
# 5 4.0759 -6.6395 17.9098 0.0000 39.8390 0.0000
# 6 0.0000 0.0000 0.0000 12.0183 0.0000 33.9727
#
#
#
# Elastic Compliance Matrix: (Units=1/GPa)
#
#
# Indices 1 2 3 4 5 6 
#
# 1 0.013996 -0.004988 -0.005432 0.000000 0.000179 0.000000
# 2 -0.004988 0.038331 0.001555 0.000000 0.006199 0.000000
# 3 -0.005432 0.001555 0.018818 0.000000 -0.007645 0.000000
# 4 0.000000 0.000000 0.000000 0.041433 0.000000 -0.014657
# 5 0.000179 0.006199 -0.007645 0.000000 0.029553 0.000000
# 6 0.000000 0.000000 0.000000 -0.014657 0.000000 0.034621
#
#
# Mechanical properties :
#
#
# Convention : Reuss Voigt Hill
#
# Bulk Modulus (GPa) = 18.72114 27.26483 22.99298
# Shear Modulus (GPa) = 23.55315 30.35110 26.95212
#
# Velocity S-wave (km/s) = 3.07968 3.49598 3.29441
# Velocity P-wave (km/s) = 4.49273 5.22254 4.87132
#
# Compressibility (1/GPa) = 0.05341555
#
# Stress axis : x y z
#
# Youngs Moduli (GPa) = 71.44852 26.08866 53.14066
#
# Poissons Ratio (x) = 0.13013 0.28863
# Poissons Ratio (y) = 0.35638 -0.08262
# Poissons Ratio (z) = 0.38807 -0.04056
#
# Static dielectric constant tensor:
#      x y z
#    x 4.212670 0.000000 0.517130 
#    y 0.000000 4.650650 0.000000 
#    z 0.517130 0.000000 4.520700 
# 
# 
# High freq. dielectric constant tensor:
#      x y z
#    x 1.960950 0.000000 0.038640 
#    y 0.000000 1.993280 0.000000 
#    z 0.038640 0.000000 1.987740 
# 
# From -- ./inp_files/12054.got.cif
#   From: 2010.06.25/outbox.cif.g09.slc.cpg/sg9_7_cif.got.tgz:12054.got - 2010.06.27 21:40:51.
