data_PCOD8054714
_publ_section_title
;
Structure prediction by ZEFSAII (Michael W. Deem and Ramdas Pophale) SiO2 
 PCOD8054714
Probable space group: C C
;
_chemical_formula_sum "Si O2"
_cell_formula_units_Z 32
_cell_length_a 13.639084
_cell_length_b 18.922186
_cell_length_c 5.524678
_cell_angle_alpha 90.000000
_cell_angle_beta 70.971859
_cell_angle_gamma 90.000000
_cell_volume 1347.907351
_symmetry_space_group_name_H-M "C C"
_symmetry_group_IT_number 9
_symmetry_cell_setting 'monoclinic'
loop_
_space_group_symop_operation_xyz
x,y,z
x,-y,1/2+z
1/2+x,1/2+y,z
1/2+x,1/2-y,1/2+z
loop_
_atom_site_type_symbol
_atom_site_label
_atom_site_fract_x
_atom_site_fract_y
_atom_site_fract_z
Si Si1 0.606870 0.459750 0.683150
Si Si2 0.949058 0.719073 0.005622
Si Si3 0.531358 0.959753 0.105468
Si Si4 0.319114 0.896208 0.394313
Si Si5 0.189178 0.780932 0.282916
Si Si6 0.652942 0.834083 0.194443
Si Si7 0.319117 0.321683 0.394269
Si Si8 0.985288 0.834084 0.594112
O O1 0.579217 0.499931 0.453618
O O2 0.729679 0.443142 0.591839
O O3 0.534089 0.390079 0.743425
O O4 0.914482 0.771868 0.240999
O O5 0.870621 0.652998 0.057371
O O6 0.948249 0.762414 0.754054
O O7 0.063211 0.686679 0.960919
O O8 0.408546 0.943148 0.196810
O O9 0.604138 0.890083 0.045165
O O10 0.559018 0.999930 0.334992
O O11 0.267610 0.847009 0.231231
O O12 0.189983 0.737581 0.534468
O O13 0.075025 0.813330 0.327634
O O14 0.223768 0.728150 0.047501
O O15 0.758249 0.866591 0.237585
O O16 0.379978 0.366590 0.550970
#
# Coordination Sequence:
#
# PCOD8054714 Si02
#       8
#     4   4   4   4   4   4   4   4
#     4  11  26  45  67  95 136 186 227 272 326 404
#     4  10  21  39  61 104 130 166 213 289 350 395
#     4  11  26  45  67  95 136 186 227 272 326 404
#     4  10  20  42  67 103 132 164 224 286 352 400
#     4  10  21  39  61 104 130 166 213 289 350 395
#     4  10  23  40  63  93 138 170 227 272 339 401
#     4  12  20  36  67  95 130 174 214 278 346 400
#     4  10  23  40  63  93 138 170 227 272 339 401
#
# _framework density 23.740506
#
# number of rings (size 3 to 8) (size 9 to 14) (size 15 to 20)
#    0.000    1.500    2.500    1.500    3.500    4.000 
#    0.000    1.250    0.000    0.000    0.000    0.000 
#    0.000    0.000    0.000    0.000    0.000    0.000 
#
# Total GULP energy -198243.400333 kJ/mol
# GULP energy per Si atom -12390.212521 kJ/mol
# Density = 2.368647 g / cm^3
# Si number density = 23.740506 Si / 1000 Ang^3
#
#
#
# Elastic Constant Matrix: (Units=GPa)
#
#
# Indices 1 2 3 4 5 6 
#
# 1 148.3608 24.5338 18.3773 0.0000 18.5120 0.0000
# 2 24.5338 62.8485 16.2030 0.0000 0.9962 0.0000
# 3 18.3773 16.2030 72.4707 0.0000 8.1829 0.0000
# 4 0.0000 0.0000 0.0000 18.3895 0.0000 -4.8216
# 5 18.5120 0.9962 8.1829 0.0000 20.3168 0.0000
# 6 0.0000 0.0000 0.0000 -4.8216 0.0000 30.5727
#
#
#
# Elastic Compliance Matrix: (Units=1/GPa)
#
#
# Indices 1 2 3 4 5 6 
#
# 1 0.008182 -0.002921 -0.000624 0.000000 -0.007060 0.000000
# 2 -0.002921 0.017938 -0.003636 0.000000 0.003246 0.000000
# 3 -0.000624 -0.003636 0.015385 0.000000 -0.005449 0.000000
# 4 0.000000 0.000000 0.000000 0.056724 0.000000 0.008946
# 5 -0.007060 0.003246 -0.005449 0.000000 0.057689 0.000000
# 6 0.000000 0.000000 0.000000 0.008946 0.000000 0.034120
#
#
# Mechanical properties :
#
#
# Convention : Reuss Voigt Hill
#
# Bulk Modulus (GPa) = 36.84457 44.65646 40.75051
# Shear Modulus (GPa) = 23.42490 28.82686 26.12588
#
# Velocity S-wave (km/s) = 3.14460 3.48839 3.32094
# Velocity P-wave (km/s) = 5.36079 5.92252 5.64864
#
# Compressibility (1/GPa) = 0.02714104
#
# Stress axis : x y z
#
# Youngs Moduli (GPa) = 122.22497 55.74906 64.99685
#
# Poissons Ratio (x) = 0.16284 0.04059
# Poissons Ratio (y) = 0.35701 0.23635
# Poissons Ratio (z) = 0.07633 0.20272
#
# Static dielectric constant tensor:
#      x y z
#    x 4.494590 0.000000 -0.324860 
#    y 0.000000 4.071460 0.000000 
#    z -0.324860 0.000000 3.993770 
# 
# 
# High freq. dielectric constant tensor:
#      x y z
#    x 1.964950 0.000000 -0.004700 
#    y 0.000000 1.913250 0.000000 
#    z -0.004700 0.000000 1.917510 
# 
# From -- ./inp_files/2577.got.cif
#   From: 2010.06.25/outbox.cif.g09.slc.cpg/sg9_2_cif.got.tgz:2577.got - 2010.06.27 21:40:51.
