data_PCOD8054312
_publ_section_title
;
Structure prediction by ZEFSAII (Michael W. Deem and Ramdas Pophale) SiO2 
 PCOD8054312
Probable space group: C C
;
_chemical_formula_sum "Si O2"
_cell_formula_units_Z 24
_cell_length_a 13.420425
_cell_length_b 13.409384
_cell_length_c 9.488350
_cell_angle_alpha 90.000000
_cell_angle_beta 44.964709
_cell_angle_gamma 90.000000
_cell_volume 1206.655035
_symmetry_space_group_name_H-M "C C"
_symmetry_group_IT_number 9
_symmetry_cell_setting 'monoclinic'
loop_
_space_group_symop_operation_xyz
x,y,z
x,-y,1/2+z
1/2+x,1/2+y,z
1/2+x,1/2-y,1/2+z
loop_
_atom_site_type_symbol
_atom_site_label
_atom_site_fract_x
_atom_site_fract_y
_atom_site_fract_z
Si Si1 0.121870 0.277286 0.831670
Si Si2 0.041382 0.277167 0.222871
Si Si3 0.843231 0.624953 0.527356
Si Si4 0.237017 0.472895 0.831944
Si Si5 0.319896 0.624951 0.527427
Si Si6 0.425982 0.027225 0.723081
O O1 0.204266 0.193034 0.662973
O O2 0.220135 0.375011 0.750831
O O3 0.081548 0.236674 0.027296
O O4 0.981385 0.305161 0.886953
O O5 0.959070 0.192825 0.391385
O O6 0.943137 0.374923 0.303943
O O7 0.181959 0.304944 0.167417
O O8 0.840807 0.554879 0.667691
O O9 0.839756 0.557036 0.391768
O O10 0.323180 0.557230 0.663404
O O11 0.322079 0.445340 0.887552
O O12 0.081440 0.513287 0.027470
#
# Coordination Sequence:
#
# PCOD8054312 Si02
#       6
#     4   4   4   4   4   4
#     4   9  17  33  54  76  98 138 175 205 245 315
#     4   9  17  33  54  76  98 138 175 205 245 315
#     4  10  19  34  56  76 101 134 176 210 251 302
#     4   9  17  33  54  76  98 138 175 205 245 315
#     4  10  19  34  56  76 101 134 176 210 251 302
#     4   9  17  33  54  76  98 138 175 205 245 315
#
# _framework density 19.889696000000001
#
# number of rings (size 3 to 8) (size 9 to 14) (size 15 to 20)
#    0.000    3.333    0.000    8.000    0.000    0.000 
#    0.000   13.333    0.000    0.000    0.000    0.000 
#    0.000    0.000    0.000    0.000    0.000    0.000 
#
# Total GULP energy -148772.843082 kJ/mol
# GULP energy per Si atom -12397.736924 kJ/mol
# Density = 1.984443 g / cm^3
# Si number density = 19.889696 Si / 1000 Ang^3
#
#
#
# Elastic Constant Matrix: (Units=GPa)
#
#
# Indices 1 2 3 4 5 6 
#
# 1 56.5643 31.5597 31.5594 0.0000 0.2935 0.0000
# 2 31.5597 110.3390 101.9689 0.0000 -3.0780 0.0000
# 3 31.5594 101.9689 110.1967 0.0000 -2.4680 0.0000
# 4 0.0000 0.0000 0.0000 74.6091 0.0000 -2.8207
# 5 0.2935 -3.0780 -2.4680 0.0000 10.5987 0.0000
# 6 0.0000 0.0000 0.0000 -2.8207 0.0000 10.5933
#
#
#
# Elastic Compliance Matrix: (Units=1/GPa)
#
#
# Indices 1 2 3 4 5 6 
#
# 1 0.021250 -0.003245 -0.003133 0.000000 -0.002261 0.000000
# 2 -0.003245 0.063295 -0.057526 0.000000 0.005076 0.000000
# 3 -0.003133 -0.057526 0.063160 0.000000 -0.001912 0.000000
# 4 0.000000 0.000000 0.000000 0.013539 0.000000 0.003605
# 5 -0.002261 0.005076 -0.001912 0.000000 0.095442 0.000000
# 6 0.000000 0.000000 0.000000 0.003605 0.000000 0.095359
#
#
# Mechanical properties :
#
#
# Convention : Reuss Voigt Hill
#
# Bulk Modulus (GPa) = 50.26288 67.47511 58.86900
# Shear Modulus (GPa) = 10.27775 26.62768 18.45271
#
# Velocity S-wave (km/s) = 2.27565 3.66289 3.04921
# Velocity P-wave (km/s) = 5.67719 7.20328 6.48528
#
# Compressibility (1/GPa) = 0.01989540
#
# Stress axis : x y z
#
# Youngs Moduli (GPa) = 47.05958 15.79897 15.83273
#
# Poissons Ratio (x) = 0.05127 0.04961
# Poissons Ratio (y) = 0.15273 0.91080
# Poissons Ratio (z) = 0.14745 0.90886
#
# Static dielectric constant tensor:
#      x y z
#    x 3.152290 0.000000 -0.013660 
#    y 0.000000 3.466330 0.000000 
#    z -0.013660 0.000000 3.465970 
# 
# 
# High freq. dielectric constant tensor:
#      x y z
#    x 1.737690 0.000000 -0.001120 
#    y 0.000000 1.763390 0.000000 
#    z -0.001120 0.000000 1.763360 
# 
# From -- ./inp_files/7313.got.cif
#   From: 2010.06.25/outbox.cif.g09.slc.cpg/sg9_4_cif.got.tgz:7313.got - 2010.06.27 21:40:51.
