data_PCOD8054174
_publ_section_title
;
Structure prediction by ZEFSAII (Michael W. Deem and Ramdas Pophale) SiO2 
 PCOD8054174
Probable space group: C C
;
_chemical_formula_sum "Si O2"
_cell_formula_units_Z 32
_cell_length_a 9.243827
_cell_length_b 15.785438
_cell_length_c 11.561980
_cell_angle_alpha 90.000000
_cell_angle_beta 105.807033
_cell_angle_gamma 90.000000
_cell_volume 1623.300958
_symmetry_space_group_name_H-M "C C"
_symmetry_group_IT_number 9
_symmetry_cell_setting 'monoclinic'
loop_
_space_group_symop_operation_xyz
x,y,z
x,-y,1/2+z
1/2+x,1/2+y,z
1/2+x,1/2-y,1/2+z
loop_
_atom_site_type_symbol
_atom_site_label
_atom_site_fract_x
_atom_site_fract_y
_atom_site_fract_z
Si Si1 0.161210 0.840101 0.798990
Si Si2 0.209303 0.661924 0.110144
Si Si3 0.313794 0.146271 0.641160
Si Si4 0.494488 0.365407 0.534195
Si Si5 0.557381 0.546463 0.470645
Si Si6 0.968706 0.300055 0.387611
Si Si7 0.476170 0.183238 0.450493
Si Si8 0.267332 0.352829 0.883642
O O1 0.091114 0.758711 0.848853
O O2 0.340160 0.836951 0.834693
O O3 0.114968 0.842781 0.657534
O O4 0.106287 0.924598 0.853350
O O5 0.240700 0.761382 0.123379
O O6 0.334688 0.615362 0.059910
O O7 0.214768 0.624164 0.240881
O O8 0.048088 0.649889 0.010993
O O9 0.180099 0.079001 0.591657
O O10 0.398121 0.131583 0.782074
O O11 0.439737 0.143707 0.568151
O O12 0.549725 0.445266 0.472319
O O13 0.490215 0.284887 0.449822
O O14 0.391189 0.582447 0.459751
O O15 0.834280 0.241888 0.406020
O O16 0.625733 0.138889 0.436898
#
# Coordination Sequence:
#
# PCOD8054174 Si02
#       8
#     4   4   4   4   4   4   4   4
#     4  10  18  38  59  80 119 155 189 243 284 357
#     4  10  17  35  61  83 111 159 199 236 286 347
#     4   9  17  35  59  84 112 159 190 235 295 350
#     4  11  20  37  63  88 111 160 199 236 297 356
#     4  10  20  38  60  84 119 152 191 239 307 343
#     4  10  16  35  61  81 109 155 206 226 282 350
#     4  10  20  35  63  88 114 148 203 243 287 343
#     4  10  20  35  58  90 119 148 191 252 288 344
#
# _framework density 19.71292
#
# number of rings (size 3 to 8) (size 9 to 14) (size 15 to 20)
#    0.000    2.000   10.000    0.000    0.000    1.000 
#    4.500    2.500    8.250    0.000    0.000    0.000 
#    0.000    0.000    0.000    0.000    0.000    0.000 
#
# Total GULP energy -198344.229187 kJ/mol
# GULP energy per Si atom -12396.514324 kJ/mol
# Density = 1.966805 g / cm^3
# Si number density = 19.712920 Si / 1000 Ang^3
#
#
#
# Elastic Constant Matrix: (Units=GPa)
#
#
# Indices 1 2 3 4 5 6 
#
# 1 126.8350 26.9701 40.7393 0.0000 14.2387 0.0000
# 2 26.9701 64.2228 12.6723 0.0000 0.4215 0.0000
# 3 40.7393 12.6723 89.9226 0.0000 26.5188 0.0000
# 4 0.0000 0.0000 0.0000 16.0070 0.0000 -1.7659
# 5 14.2387 0.4215 26.5188 0.0000 32.3970 0.0000
# 6 0.0000 0.0000 0.0000 -1.7659 0.0000 13.4919
#
#
#
# Elastic Compliance Matrix: (Units=1/GPa)
#
#
# Indices 1 2 3 4 5 6 
#
# 1 0.009931 -0.003449 -0.003611 0.000000 -0.001364 0.000000
# 2 -0.003449 0.017330 -0.001661 0.000000 0.002650 0.000000
# 3 -0.003611 -0.001661 0.016499 0.000000 -0.011897 0.000000
# 4 0.000000 0.000000 0.000000 0.063388 0.000000 0.008296
# 5 -0.001364 0.002650 -0.011897 0.000000 0.041170 0.000000
# 6 0.000000 0.000000 0.000000 0.008296 0.000000 0.075204
#
#
# Mechanical properties :
#
#
# Convention : Reuss Voigt Hill
#
# Bulk Modulus (GPa) = 37.99737 49.08265 43.54001
# Shear Modulus (GPa) = 20.02117 25.75244 22.88681
#
# Velocity S-wave (km/s) = 3.19036 3.61830 3.41105
# Velocity P-wave (km/s) = 5.73484 6.51221 6.13585
#
# Compressibility (1/GPa) = 0.02631761
#
# Stress axis : x y z
#
# Youngs Moduli (GPa) = 100.69970 57.70506 60.60952
#
# Poissons Ratio (x) = 0.19902 0.21884
# Poissons Ratio (y) = 0.34730 0.10068
# Poissons Ratio (z) = 0.36360 0.09586
#
# Static dielectric constant tensor:
#      x y z
#    x 3.602690 0.000000 0.331300 
#    y 0.000000 3.166710 0.000000 
#    z 0.331300 0.000000 3.904920 
# 
# 
# High freq. dielectric constant tensor:
#      x y z
#    x 1.766540 0.000000 0.021760 
#    y 0.000000 1.723310 0.000000 
#    z 0.021760 0.000000 1.767050 
# 
# From -- ./inp_files/15110.got.cif
#   From: 2010.06.25/outbox.cif.g09.slc.cpg/sg9_8_cif.got.tgz:15110.got - 2010.06.27 21:40:51.
