data_PCOD8054232
_publ_section_title
;
Structure prediction by ZEFSAII (Michael W. Deem and Ramdas Pophale) SiO2 
 PCOD8054232
Probable space group: C C
;
_chemical_formula_sum "Si O2"
_cell_formula_units_Z 32
_cell_length_a 38.445718
_cell_length_b 8.351739
_cell_length_c 5.200477
_cell_angle_alpha 90.000000
_cell_angle_beta 90.040615
_cell_angle_gamma 90.000000
_cell_volume 1669.813472
_symmetry_space_group_name_H-M "C C"
_symmetry_group_IT_number 9
_symmetry_cell_setting 'monoclinic'
loop_
_space_group_symop_operation_xyz
x,y,z
x,-y,1/2+z
1/2+x,1/2+y,z
1/2+x,1/2-y,1/2+z
loop_
_atom_site_type_symbol
_atom_site_label
_atom_site_fract_x
_atom_site_fract_y
_atom_site_fract_z
Si Si1 0.498350 0.101949 0.055230
Si Si2 0.549259 0.605936 0.546445
Si Si3 0.854782 0.812015 0.099932
Si Si4 0.918423 0.601796 0.051898
Si Si5 0.698284 0.604556 0.539450
Si Si6 0.325136 0.340593 0.599473
Si Si7 0.624059 0.402053 0.136492
Si Si8 0.244379 0.406102 0.579764
O O1 0.458316 0.157117 0.067552
O O2 0.507280 0.981357 0.285929
O O3 0.520663 0.260280 0.087920
O O4 0.544750 0.470732 0.764909
O O5 0.587752 0.688903 0.574292
O O6 0.894997 0.760740 0.081037
O O7 0.836929 0.735737 0.354675
O O8 0.850431 0.003720 0.117012
O O9 0.832639 0.741352 0.858957
O O10 0.909856 0.478294 0.279222
O O11 0.702032 0.466387 0.753633
O O12 0.660183 0.690967 0.572897
O O13 0.728802 0.729798 0.582137
O O14 0.285795 0.396056 0.575906
O O15 0.624298 0.553403 0.938581
O O16 0.231128 0.500434 0.330095
#
# Coordination Sequence:
#
# PCOD8054232 Si02
#       8
#     4   4   4   4   4   4   4   4
#     4  10  21  38  56  79 118 156 175 220 292 337
#     4  10  19  35  58  86 111 143 194 233 262 320
#     4  10  18  35  54  75  93 136 178 211 258 332
#     4  10  21  37  54  75 108 143 176 217 273 328
#     4  10  21  38  57  84 112 147 190 225 275 332
#     4  10  19  35  56  71 101 132 173 215 281 310
#     4   8  16  32  55  77 111 148 177 226 277 317
#     4  12  21  38  60  79 114 149 179 229 286 338
#
# _framework density 19.163816000000001
#
# number of rings (size 3 to 8) (size 9 to 14) (size 15 to 20)
#    0.000    2.000    2.500    2.250    0.000    0.000 
#    4.500    5.000    0.000    0.000    0.000    0.000 
#    0.000    0.000    0.000    0.000    0.000    0.000 
#
# Total GULP energy -198274.511724 kJ/mol
# GULP energy per Si atom -12392.156983 kJ/mol
# Density = 1.912020 g / cm^3
# Si number density = 19.163816 Si / 1000 Ang^3
#
#
#
# Elastic Constant Matrix: (Units=GPa)
#
#
# Indices 1 2 3 4 5 6 
#
# 1 93.0695 48.6943 14.7267 0.0000 1.4197 0.0000
# 2 48.6943 47.9244 3.6164 0.0000 1.4194 0.0000
# 3 14.7267 3.6164 132.0521 0.0000 2.9042 0.0000
# 4 0.0000 0.0000 0.0000 19.3133 0.0000 -0.5295
# 5 1.4197 1.4194 2.9042 0.0000 17.5351 0.0000
# 6 0.0000 0.0000 0.0000 -0.5295 0.0000 10.0219
#
#
#
# Elastic Compliance Matrix: (Units=1/GPa)
#
#
# Indices 1 2 3 4 5 6 
#
# 1 0.023440 -0.023678 -0.001973 0.000000 0.000346 0.000000
# 2 -0.023678 0.044873 0.001455 0.000000 -0.001956 0.000000
# 3 -0.001973 0.001455 0.007780 0.000000 -0.001247 0.000000
# 4 0.000000 0.000000 0.000000 0.051853 0.000000 0.002739
# 5 0.000346 -0.001956 -0.001247 0.000000 0.057365 0.000000
# 6 0.000000 0.000000 0.000000 0.002739 0.000000 0.099927
#
#
# Mechanical properties :
#
#
# Convention : Reuss Voigt Hill
#
# Bulk Modulus (GPa) = 36.10077 45.23566 40.66821
# Shear Modulus (GPa) = 14.58305 23.10796 18.84550
#
# Velocity S-wave (km/s) = 2.76156 3.47625 3.13931
# Velocity P-wave (km/s) = 5.38954 6.30622 5.86581
#
# Compressibility (1/GPa) = 0.02770024
#
# Stress axis : x y z
#
# Youngs Moduli (GPa) = 42.66216 22.28532 128.52800
#
# Poissons Ratio (x) = 0.52767 0.25362
# Poissons Ratio (y) = 1.01015 -0.18697
# Poissons Ratio (z) = 0.08418 -0.03242
#
# Static dielectric constant tensor:
#      x y z
#    x 3.699050 0.000000 -0.045740 
#    y 0.000000 2.919590 0.000000 
#    z -0.045740 0.000000 4.629250 
# 
# 
# High freq. dielectric constant tensor:
#      x y z
#    x 1.753530 0.000000 0.000000 
#    y 0.000000 1.684790 0.000000 
#    z 0.000000 0.000000 1.785000 
# 
# From -- ./inp_files/3443.got.cif
#   From: 2010.06.25/outbox.cif.g09.slc.cpg/sg9_2_cif.got.tgz:3443.got - 2010.06.27 21:40:51.
