data_PCOD8054106
_publ_section_title
;
Structure prediction by ZEFSAII (Michael W. Deem and Ramdas Pophale) SiO2 
 PCOD8054106
Probable space group: C M
;
_chemical_formula_sum "Si O2"
_cell_formula_units_Z 32
_cell_length_a 12.665773
_cell_length_b 17.217059
_cell_length_c 11.322451
_cell_angle_alpha 90.000000
_cell_angle_beta 34.780914
_cell_angle_gamma 90.000000
_cell_volume 1408.448881
_symmetry_space_group_name_H-M "C M"
_symmetry_group_IT_number 8
_symmetry_cell_setting 'monoclinic'
loop_
_space_group_symop_operation_xyz
x,y,z
x,-y,z
1/2+x,1/2+y,z
1/2+x,1/2-y,z
loop_
_atom_site_type_symbol
_atom_site_label
_atom_site_fract_x
_atom_site_fract_y
_atom_site_fract_z
Si Si1 0.151920 0.410023 0.720820
Si Si2 0.811144 0.833468 0.794553
Si Si3 0.635920 0.327992 0.887953
Si Si4 0.255413 0.687314 0.110999
Si Si5 0.967828 0.913474 0.259533
Si Si6 0.201497 0.091152 0.447654
Si Si7 0.772911 0.638812 0.131861
Si Si8 0.925168 0.589230 0.475279
O O1 0.110476 0.500000 0.743698
O O2 0.236489 0.398073 0.773313
O O3 0.283027 0.381367 0.493285
O O4 0.960731 0.363437 0.882755
O O5 0.754602 0.750315 0.791983
O O6 0.029480 0.849532 0.604830
O O7 0.724435 0.839352 0.004443
O O8 0.781314 0.392667 0.712283
O O9 0.471214 0.320734 0.944931
O O10 0.537543 0.352602 0.099345
O O11 0.190857 0.774896 0.195697
O O12 0.119173 0.634188 0.314557
O O13 0.122207 0.920463 0.219571
O O14 0.936647 0.000000 0.235156
O O15 0.319199 0.111530 0.222329
O O16 0.331115 0.112568 0.438183
O O17 0.142410 0.000000 0.506794
O O18 0.978069 0.500000 0.433188
#
# Coordination Sequence:
#
# PCOD8054106 Si02
#       8
#     4   4   4   4   4   4   4   4
#     4  11  24  43  72 106 137 178 233 287 349 414
#     4  12  23  45  71 103 139 181 231 287 353 412
#     4  12  26  48  70  99 143 187 231 289 349 421
#     4  12  27  46  70 102 140 186 231 290 349 417
#     4  11  25  44  68  99 138 183 230 285 346 410
#     4  11  23  43  75 106 140 182 232 295 350 411
#     4  12  23  44  68 104 140 179 226 288 349 412
#     4  11  27  47  72 103 139 188 240 287 347 419
#
# _framework density 22.720030999999999
#
# number of rings (size 3 to 8) (size 9 to 14) (size 15 to 20)
#    0.000    0.500    5.000    3.375    0.000    4.000 
#    2.250    1.250    0.000    0.000    0.000    0.000 
#    0.000    0.000    0.000    0.000    0.000    0.000 
#
# Total GULP energy -198422.852798 kJ/mol
# GULP energy per Si atom -12401.428300 kJ/mol
# Density = 2.266832 g / cm^3
# Si number density = 22.720031 Si / 1000 Ang^3
#
#
#
# Elastic Constant Matrix: (Units=GPa)
#
#
# Indices 1 2 3 4 5 6 
#
# 1 50.8288 35.3057 33.7736 0.0316 -3.7725 -0.0167
# 2 35.3057 107.2314 55.0845 0.0514 -11.2397 -0.0340
# 3 33.7736 55.0845 142.1090 0.0426 -5.5484 -0.0184
# 4 0.0316 0.0514 0.0426 41.7797 -0.0273 -2.0483
# 5 -3.7725 -11.2397 -5.5484 -0.0273 41.8299 0.0147
# 6 -0.0167 -0.0340 -0.0184 -2.0483 0.0147 33.1181
#
#
#
# Elastic Compliance Matrix: (Units=1/GPa)
#
#
# Indices 1 2 3 4 5 6 
#
# 1 0.026986 -0.006973 -0.003708 -0.000008 0.000068 0.000004
# 2 -0.006973 0.013722 -0.003561 -0.000006 0.002586 0.000007
# 3 -0.003708 -0.003561 0.009296 -0.000002 -0.000058 0.000000
# 4 -0.000008 -0.000006 -0.000002 0.024008 0.000013 0.001485
# 5 0.000068 0.002586 -0.000058 0.000013 0.024600 -0.000008
# 6 0.000004 0.000007 0.000000 0.001485 -0.000008 0.030287
#
#
# Mechanical properties :
#
#
# Convention : Reuss Voigt Hill
#
# Bulk Modulus (GPa) = 46.46751 60.94411 53.70581
# Shear Modulus (GPa) = 30.38492 35.07923 32.73207
#
# Velocity S-wave (km/s) = 3.66096 3.93361 3.79973
# Velocity P-wave (km/s) = 6.19410 6.89299 6.55287
#
# Compressibility (1/GPa) = 0.02152041
#
# Stress axis : x y z
#
# Youngs Moduli (GPa) = 37.05578 72.87744 107.57356
#
# Poissons Ratio (x) = 0.50820 0.39887
# Poissons Ratio (y) = 0.25840 0.38302
# Poissons Ratio (z) = 0.13740 0.25949
#
# Static dielectric constant tensor:
#      x y z
#    x 4.072430 -0.000010 0.005650 
#    y -0.000010 3.920110 0.000030 
#    z 0.005650 0.000030 4.150650 
# 
# 
# High freq. dielectric constant tensor:
#      x y z
#    x 1.895030 0.000000 -0.002720 
#    y 0.000000 1.894840 0.000000 
#    z -0.002720 0.000000 1.908170 
# 
# From -- ./inp_files/22393.got.cif
#   From: 2010.03.12/outbox.cif.g09.slc.cpg/sg8_12_cif.got.tgz:22393.got - 2010.03.31 10:45:26.
