data_PCOD8054197
_publ_section_title
;
Structure prediction by ZEFSAII (Michael W. Deem and Ramdas Pophale) SiO2 
 PCOD8054197
Probable space group: C C
;
_chemical_formula_sum "Si O2"
_cell_formula_units_Z 28
_cell_length_a 27.285180
_cell_length_b 9.233300
_cell_length_c 8.852418
_cell_angle_alpha 90.000000
_cell_angle_beta 140.314678
_cell_angle_gamma 90.000000
_cell_volume 1424.146492
_symmetry_space_group_name_H-M "C C"
_symmetry_group_IT_number 9
_symmetry_cell_setting 'monoclinic'
loop_
_space_group_symop_operation_xyz
x,y,z
x,-y,1/2+z
1/2+x,1/2+y,z
1/2+x,1/2-y,1/2+z
loop_
_atom_site_type_symbol
_atom_site_label
_atom_site_fract_x
_atom_site_fract_y
_atom_site_fract_z
Si Si1 0.276990 0.863845 0.888520
Si Si2 0.870603 0.508878 0.361863
Si Si3 0.247796 0.330525 0.835614
Si Si4 0.414174 0.793865 0.716675
Si Si5 0.208055 0.379046 0.395987
Si Si6 0.574799 0.663661 0.125452
Si Si7 0.646031 0.435076 0.088305
O O1 0.263113 0.699124 0.904320
O O2 0.341424 0.871399 0.912980
O O3 0.200991 0.942971 0.643518
O O4 0.300300 0.947890 0.097129
O O5 0.909132 0.376360 0.544001
O O6 0.929243 0.589616 0.387501
O O7 0.238036 0.364703 0.636511
O O8 0.211387 0.454864 0.854553
O O9 0.201236 0.190962 0.781497
O O10 0.338106 0.299261 0.075171
O O11 0.486022 0.687926 0.878798
O O12 0.124264 0.302823 0.186283
O O13 0.597367 0.511977 0.102623
O O14 0.587299 0.637477 0.332015
#
# Coordination Sequence:
#
# PCOD8054197 Si02
#       7
#     4   4   4   4   4   4   4
#     4  10  17  37  63  92 109 161 215 254 286 370
#     4  10  19  36  66  87 120 162 207 253 308 366
#     4  11  22  37  62  90 123 155 217 249 303 361
#     4  11  23  39  62  95 125 157 206 263 310 369
#     4  10  23  37  59  90 123 159 203 260 300 362
#     4  10  24  42  60  90 128 158 205 252 321 367
#     4  10  20  40  66  86 120 168 209 245 304 385
#
# _framework density 19.660898
#
# number of rings (size 3 to 8) (size 9 to 14) (size 15 to 20)
#    0.000    1.714    4.286    1.714    2.000    4.571 
#    0.000    1.429    0.000    0.000    0.000    0.000 
#    0.000    0.000    0.000    0.000    0.000    0.000 
#
# Total GULP energy -173528.577508 kJ/mol
# GULP energy per Si atom -12394.898393 kJ/mol
# Density = 1.961615 g / cm^3
# Si number density = 19.660898 Si / 1000 Ang^3
#
#
#
# Elastic Constant Matrix: (Units=GPa)
#
#
# Indices 1 2 3 4 5 6 
#
# 1 72.3849 44.9275 45.5847 0.0000 7.3118 0.0000
# 2 44.9275 109.8894 38.7435 0.0000 9.9724 0.0000
# 3 45.5847 38.7435 100.6322 0.0000 13.9226 0.0000
# 4 0.0000 0.0000 0.0000 28.6416 0.0000 -1.4693
# 5 7.3118 9.9724 13.9226 0.0000 28.5910 0.0000
# 6 0.0000 0.0000 0.0000 -1.4693 0.0000 34.9023
#
#
#
# Elastic Compliance Matrix: (Units=1/GPa)
#
#
# Indices 1 2 3 4 5 6 
#
# 1 0.022810 -0.006589 -0.007835 0.000000 0.000280 0.000000
# 2 -0.006589 0.012522 -0.001571 0.000000 -0.001918 0.000000
# 3 -0.007835 -0.001571 0.014730 0.000000 -0.004622 0.000000
# 4 0.000000 0.000000 0.000000 0.034990 0.000000 0.001473
# 5 0.000280 -0.001918 -0.004622 0.000000 0.037824 0.000000
# 6 0.000000 0.000000 0.000000 0.001473 0.000000 0.028713
#
#
# Mechanical properties :
#
#
# Convention : Reuss Voigt Hill
#
# Bulk Modulus (GPa) = 55.33010 60.15755 57.74383
# Shear Modulus (GPa) = 26.37090 28.67036 27.52063
#
# Velocity S-wave (km/s) = 3.66633 3.82284 3.74540
# Velocity P-wave (km/s) = 6.79161 7.08163 6.93813
#
# Compressibility (1/GPa) = 0.01807334
#
# Stress axis : x y z
#
# Youngs Moduli (GPa) = 43.83986 79.86077 67.88711
#
# Poissons Ratio (x) = 0.52620 0.53187
# Poissons Ratio (y) = 0.28886 0.10664
# Poissons Ratio (z) = 0.34347 0.12545
#
# Static dielectric constant tensor:
#      x y z
#    x 3.426780 0.000000 -0.174590 
#    y 0.000000 3.634920 0.000000 
#    z -0.174590 0.000000 3.505270 
# 
# 
# High freq. dielectric constant tensor:
#      x y z
#    x 1.755700 0.000000 -0.018220 
#    y 0.000000 1.763320 0.000000 
#    z -0.018220 0.000000 1.758110 
# 
# From -- ./inp_files/10352.got.cif
#   From: 2010.06.25/outbox.cif.g09.slc.cpg/sg9_6_cif.got.tgz:10352.got - 2010.06.27 21:40:51.
