data_PCOD8054229
_publ_section_title
;
Structure prediction by ZEFSAII (Michael W. Deem and Ramdas Pophale) SiO2 
 PCOD8054229
Probable space group: C C
;
_chemical_formula_sum "Si O2"
_cell_formula_units_Z 32
_cell_length_a 14.458052
_cell_length_b 15.110264
_cell_length_c 20.918439
_cell_angle_alpha 90.000000
_cell_angle_beta 19.914773
_cell_angle_gamma 90.000000
_cell_volume 1556.624198
_symmetry_space_group_name_H-M "C C"
_symmetry_group_IT_number 9
_symmetry_cell_setting 'monoclinic'
loop_
_space_group_symop_operation_xyz
x,y,z
x,-y,1/2+z
1/2+x,1/2+y,z
1/2+x,1/2-y,1/2+z
loop_
_atom_site_type_symbol
_atom_site_label
_atom_site_fract_x
_atom_site_fract_y
_atom_site_fract_z
Si Si1 0.663730 0.081671 0.868810
Si Si2 0.660488 0.847444 0.136002
Si Si3 0.386566 0.399097 0.762195
Si Si4 0.224032 0.851033 0.047788
Si Si5 0.964582 0.463310 0.364054
Si Si6 0.607335 0.330192 0.746108
Si Si7 0.684413 0.270304 0.207766
Si Si8 0.221721 0.790882 0.324497
O O1 0.633356 0.076611 0.812776
O O2 0.928678 0.141505 0.708728
O O3 0.695044 0.984461 0.879254
O O4 0.401724 0.128833 0.069089
O O5 0.638327 0.941571 0.187103
O O6 0.622476 0.770697 0.213039
O O7 0.427036 0.845805 0.233989
O O8 0.951971 0.835161 0.914297
O O9 0.678779 0.413889 0.539630
O O10 0.437459 0.385919 0.804555
O O11 0.256759 0.315380 0.811011
O O12 0.184028 0.840816 0.150236
O O13 0.382027 0.768573 0.913665
O O14 0.415486 0.933961 0.907962
O O15 0.773748 0.317014 0.216627
O O16 0.906548 0.192664 0.048475
#
# Coordination Sequence:
#
# PCOD8054229 Si02
#       8
#     4   4   4   4   4   4   4   4
#     4  10  20  38  60  82 124 164 191 239 288 340
#     4  11  21  37  60  91 120 146 200 251 289 350
#     4   9  18  36  60  87 116 154 200 239 292 345
#     4  10  23  40  59  87 117 156 200 237 289 356
#     4  10  21  38  60  84 113 153 200 247 295 346
#     4  10  21  36  60  90 117 157 200 239 293 349
#     4  10  20  35  57  85 116 150 195 233 285 362
#     4  10  18  34  62  88 113 150 190 251 301 328
#
# _framework density 20.557307000000002
#
# number of rings (size 3 to 8) (size 9 to 14) (size 15 to 20)
#    0.000    2.000    0.000    6.000    0.000    3.000 
#    0.000   15.000    0.000    0.000    0.000    0.000 
#    0.000    0.000    0.000    0.000    0.000    0.000 
#
# Total GULP energy -198401.678644 kJ/mol
# GULP energy per Si atom -12400.104915 kJ/mol
# Density = 2.051052 g / cm^3
# Si number density = 20.557307 Si / 1000 Ang^3
#
#
#
# Elastic Constant Matrix: (Units=GPa)
#
#
# Indices 1 2 3 4 5 6 
#
# 1 106.1388 47.8096 65.4436 0.1729 4.1783 -0.3550
# 2 47.8096 77.0045 36.3959 0.2819 6.0957 -0.0446
# 3 65.4436 36.3959 111.5180 0.8196 10.7009 -0.0997
# 4 0.1729 0.2819 0.8196 33.7357 -0.0679 0.1710
# 5 4.1783 6.0957 10.7009 -0.0679 44.2295 0.1059
# 6 -0.3550 -0.0446 -0.0997 0.1710 0.1059 35.6528
#
#
#
# Elastic Compliance Matrix: (Units=1/GPa)
#
#
# Indices 1 2 3 4 5 6 
#
# 1 0.017620 -0.007208 -0.008113 0.000169 0.001292 0.000139
# 2 -0.007208 0.018341 -0.001616 -0.000080 -0.001456 -0.000049
# 3 -0.008113 -0.001616 0.014499 -0.000302 -0.002519 -0.000033
# 4 0.000169 -0.000080 -0.000302 0.029650 0.000114 -0.000142
# 5 0.001292 -0.001456 -0.002519 0.000114 0.023298 -0.000066
# 6 0.000139 -0.000049 -0.000033 -0.000142 -0.000066 0.028050
#
#
# Mechanical properties :
#
#
# Convention : Reuss Voigt Hill
#
# Bulk Modulus (GPa) = 60.28747 65.99550 63.14149
# Shear Modulus (GPa) = 29.26374 32.39111 30.82742
#
# Velocity S-wave (km/s) = 3.77705 3.97375 3.87665
# Velocity P-wave (km/s) = 6.95785 7.29569 7.12877
#
# Compressibility (1/GPa) = 0.01658719
#
# Stress axis : x y z
#
# Youngs Moduli (GPa) = 56.75382 54.52390 68.96898
#
# Poissons Ratio (x) = 0.39301 0.55953
# Poissons Ratio (y) = 0.40908 0.11142
# Poissons Ratio (z) = 0.46043 0.08809
#
# Static dielectric constant tensor:
#      x y z
#    x 3.747860 0.001450 -0.050330 
#    y 0.001450 3.477660 0.000450 
#    z -0.050330 0.000450 3.859590 
# 
# 
# High freq. dielectric constant tensor:
#      x y z
#    x 1.806370 0.000010 -0.005090 
#    y 0.000010 1.775750 0.000090 
#    z -0.005090 0.000090 1.812420 
# 
# From -- ./inp_files/9726.got.cif
#   From: 2010.06.25/outbox.cif.g09.slc.cpg/sg9_5_cif.got.tgz:9726.got - 2010.06.27 21:40:51.
