data_PCOD8054304
_publ_section_title
;
Structure prediction by ZEFSAII (Michael W. Deem and Ramdas Pophale) SiO2 
 PCOD8054304
Probable space group: C C
;
_chemical_formula_sum "Si O2"
_cell_formula_units_Z 24
_cell_length_a 13.902260
_cell_length_b 15.514104
_cell_length_c 5.204896
_cell_angle_alpha 90.000000
_cell_angle_beta 62.780125
_cell_angle_gamma 90.000000
_cell_volume 998.278746
_symmetry_space_group_name_H-M "C C"
_symmetry_group_IT_number 9
_symmetry_cell_setting 'monoclinic'
loop_
_space_group_symop_operation_xyz
x,y,z
x,-y,1/2+z
1/2+x,1/2+y,z
1/2+x,1/2-y,1/2+z
loop_
_atom_site_type_symbol
_atom_site_label
_atom_site_fract_x
_atom_site_fract_y
_atom_site_fract_z
Si Si1 0.548000 0.457721 0.183510
Si Si2 0.140228 0.703478 0.807562
Si Si3 0.242773 0.777590 0.182280
Si Si4 0.289574 0.558467 0.699032
Si Si5 0.440127 0.295947 0.200406
Si Si6 0.280554 0.030326 0.795938
O O1 0.492126 0.508426 0.488635
O O2 0.526061 0.356775 0.246676
O O3 0.675565 0.474773 0.020387
O O4 0.182171 0.721098 0.468536
O O5 0.169654 0.603100 0.831949
O O6 0.192776 0.765929 0.959528
O O7 0.010615 0.722685 0.966060
O O8 0.241553 0.874323 0.287219
O O9 0.367793 0.749225 0.006105
O O10 0.305923 0.491964 0.446751
O O11 0.369443 0.642763 0.596437
O O12 0.346400 0.981847 0.484711
#
# Coordination Sequence:
#
# PCOD8054304 Si02
#       6
#     4   4   4   4   4   4
#     4  10  19  32  56  88 116 151 202 261 318 373
#     4  11  24  43  66  96 138 179 221 282 344 403
#     4  11  24  41  62  99 136 171 223 283 338 402
#     4  11  24  44  67 100 138 178 228 285 341 408
#     4  11  24  41  68  97 128 176 227 274 335 405
#     4  10  19  35  57  84 122 161 201 261 326 381
#
# _framework density 24.041381000000001
#
# number of rings (size 3 to 8) (size 9 to 14) (size 15 to 20)
#    0.000    1.333    0.000    8.000    0.000    6.667 
#    0.000    1.667    0.000    0.000    0.000    0.000 
#    0.000    0.000    0.000    0.000    0.000    0.000 
#
# Total GULP energy -148672.980351 kJ/mol
# GULP energy per Si atom -12389.415029 kJ/mol
# Density = 2.398666 g / cm^3
# Si number density = 24.041381 Si / 1000 Ang^3
#
#
#
# Elastic Constant Matrix: (Units=GPa)
#
#
# Indices 1 2 3 4 5 6 
#
# 1 56.0795 37.3162 49.8581 0.0000 -4.3112 0.0000
# 2 37.3162 81.1997 33.1462 0.0000 -6.4157 0.0000
# 3 49.8581 33.1462 163.4888 0.0000 6.6168 0.0000
# 4 0.0000 0.0000 0.0000 27.1909 0.0000 -6.9828
# 5 -4.3112 -6.4157 6.6168 0.0000 46.4690 0.0000
# 6 0.0000 0.0000 0.0000 -6.9828 0.0000 44.0064
#
#
#
# Elastic Compliance Matrix: (Units=1/GPa)
#
#
# Indices 1 2 3 4 5 6 
#
# 1 0.032609 -0.011651 -0.007684 0.000000 0.002511 0.000000
# 2 -0.011651 0.017828 -0.000118 0.000000 0.001397 0.000000
# 3 -0.007684 -0.000118 0.008563 0.000000 -0.001948 0.000000
# 4 0.000000 0.000000 0.000000 0.038339 0.000000 0.006084
# 5 0.002511 0.001397 -0.001948 0.000000 0.022223 0.000000
# 6 0.000000 0.000000 0.000000 0.006084 0.000000 0.023689
#
#
# Mechanical properties :
#
#
# Convention : Reuss Voigt Hill
#
# Bulk Modulus (GPa) = 49.76553 60.15654 54.96103
# Shear Modulus (GPa) = 26.47525 35.56309 31.01917
#
# Velocity S-wave (km/s) = 3.32209 3.85027 3.59589
# Velocity P-wave (km/s) = 5.95482 6.69645 6.33650
#
# Compressibility (1/GPa) = 0.02009423
#
# Stress axis : x y z
#
# Youngs Moduli (GPa) = 30.66628 56.09109 116.78452
#
# Poissons Ratio (x) = 0.65351 0.89738
# Poissons Ratio (y) = 0.35729 0.01378
# Poissons Ratio (z) = 0.23564 0.00662
#
# Static dielectric constant tensor:
#      x y z
#    x 4.616100 0.000000 0.201850 
#    y 0.000000 4.425370 0.000000 
#    z 0.201850 0.000000 4.773290 
# 
# 
# High freq. dielectric constant tensor:
#      x y z
#    x 1.935340 0.000000 0.015160 
#    y 0.000000 1.951240 0.000000 
#    z 0.015160 0.000000 1.962290 
# 
# From -- ./inp_files/2346.got.cif
#   From: 2010.06.25/outbox.cif.g09.slc.cpg/sg9_2_cif.got.tgz:2346.got - 2010.06.27 21:40:51.
