data_PCOD8054024
_publ_section_title
;
Structure prediction by ZEFSAII (Michael W. Deem and Ramdas Pophale) SiO2 
 PCOD8054024
Probable space group: C M
;
_chemical_formula_sum "Si O2"
_cell_formula_units_Z 28
_cell_length_a 8.995425
_cell_length_b 29.882278
_cell_length_c 5.188010
_cell_angle_alpha 90.000000
_cell_angle_beta 121.511780
_cell_angle_gamma 90.000000
_cell_volume 1188.905263
_symmetry_space_group_name_H-M "C M"
_symmetry_group_IT_number 8
_symmetry_cell_setting 'monoclinic'
loop_
_space_group_symop_operation_xyz
x,y,z
x,-y,z
1/2+x,1/2+y,z
1/2+x,1/2-y,z
loop_
_atom_site_type_symbol
_atom_site_label
_atom_site_fract_x
_atom_site_fract_y
_atom_site_fract_z
Si Si1 0.012090 0.548173 0.396140
Si Si2 0.855116 0.765866 0.066284
Si Si3 0.747388 0.715994 0.451472
Si Si4 0.179745 0.950800 0.770058
Si Si5 0.369576 0.117743 0.646583
Si Si6 0.738084 0.861052 0.107469
Si Si7 0.855468 0.907589 0.696590
O O1 0.006981 0.500000 0.543719
O O2 0.209938 0.555925 0.479369
O O3 0.960140 0.592624 0.495794
O O4 0.876882 0.543665 0.043531
O O5 0.866480 0.736747 0.336313
O O6 0.738545 0.809454 0.020574
O O7 0.050278 0.779699 0.174590
O O8 0.776022 0.738743 0.754644
O O9 0.785594 0.663814 0.487386
O O10 0.203986 0.912403 0.579713
O O11 0.042492 0.932540 0.856635
O O12 0.119486 0.000000 0.610638
O O13 0.534978 0.126656 0.987012
O O14 0.845958 0.868155 0.471060
O O15 0.825406 0.890418 0.958865
#
# Coordination Sequence:
#
# PCOD8054024 Si02
#       7
#     4   4   4   4   4   4   4
#     4  10  23  44  66  97 137 180 227 283 340 403
#     4  12  26  47  68 107 132 187 221 293 336 422
#     4  12  27  44  74  97 144 174 237 275 356 401
#     4  11  24  42  68  99 134 180 231 281 340 407
#     4  11  24  43  70  98 135 182 223 285 340 411
#     4  11  24  45  71  98 141 174 230 275 348 398
#     4  11  24  43  69 102 137 183 223 286 332 412
#
# _framework density 23.551076999999999
#
# number of rings (size 3 to 8) (size 9 to 14) (size 15 to 20)
#    0.000    0.857    1.429    5.143    6.000    1.143 
#    0.000    1.429    0.000    0.000    0.000    0.000 
#    0.000    0.000    0.000    0.000    0.000    0.000 
#
# Total GULP energy -173502.773661 kJ/mol
# GULP energy per Si atom -12393.055261 kJ/mol
# Density = 2.349747 g / cm^3
# Si number density = 23.551077 Si / 1000 Ang^3
#
#
#
# Elastic Constant Matrix: (Units=GPa)
#
#
# Indices 1 2 3 4 5 6 
#
# 1 106.5960 38.0156 10.6222 0.0000 4.0629 0.0000
# 2 38.0156 167.0603 14.3789 0.0000 1.9430 0.0000
# 3 10.6222 14.3789 60.6314 0.0000 -6.8629 0.0000
# 4 0.0000 0.0000 0.0000 26.4563 0.0000 -3.0295
# 5 4.0629 1.9430 -6.8629 0.0000 33.2429 0.0000
# 6 0.0000 0.0000 0.0000 -3.0295 0.0000 33.0071
#
#
#
# Elastic Compliance Matrix: (Units=1/GPa)
#
#
# Indices 1 2 3 4 5 6 
#
# 1 0.010372 -0.002218 -0.001454 0.000000 -0.001438 0.000000
# 2 -0.002218 0.006600 -0.001218 0.000000 -0.000366 0.000000
# 3 -0.001454 -0.001218 0.017473 0.000000 0.003856 0.000000
# 4 0.000000 0.000000 0.000000 0.038200 0.000000 0.003506
# 5 -0.001438 -0.000366 0.003856 0.000000 0.031075 0.000000
# 6 0.000000 0.000000 0.000000 0.003506 0.000000 0.030618
#
#
# Mechanical properties :
#
#
# Convention : Reuss Voigt Hill
#
# Bulk Modulus (GPa) = 40.54376 51.14677 45.84526
# Shear Modulus (GPa) = 32.82142 36.62600 34.72371
#
# Velocity S-wave (km/s) = 3.73718 3.94785 3.84396
# Velocity P-wave (km/s) = 5.98955 6.52267 6.26178
#
# Compressibility (1/GPa) = 0.02466471
#
# Stress axis : x y z
#
# Youngs Moduli (GPa) = 96.41303 151.52089 57.23073
#
# Poissons Ratio (x) = 0.33613 0.08320
# Poissons Ratio (y) = 0.21388 0.06970
# Poissons Ratio (z) = 0.14017 0.18454
#
# Static dielectric constant tensor:
#      x y z
#    x 4.441150 0.000000 0.330840 
#    y 0.000000 4.698970 0.000000 
#    z 0.330840 0.000000 4.015270 
# 
# 
# High freq. dielectric constant tensor:
#      x y z
#    x 1.942080 0.000000 0.016350 
#    y 0.000000 1.949630 0.000000 
#    z 0.016350 0.000000 1.915250 
# 
# From -- ./inp_files/1940.got.cif
#   From: 2010.03.12/outbox.cif.g09.slc.cpg/sg8_1_cif.got.tgz:1940.got - 2010.03.31 10:45:26.
