data_PCOD8054730
_publ_section_title
;
Structure prediction by ZEFSAII (Michael W. Deem and Ramdas Pophale) SiO2 
 PCOD8054730
Probable space group: C C
;
_chemical_formula_sum "Si O2"
_cell_formula_units_Z 32
_cell_length_a 13.184717
_cell_length_b 4.923535
_cell_length_c 32.454417
_cell_angle_alpha 90.000000
_cell_angle_beta 131.646916
_cell_angle_gamma 90.000000
_cell_volume 1574.309129
_symmetry_space_group_name_H-M "C C"
_symmetry_group_IT_number 9
_symmetry_cell_setting 'monoclinic'
loop_
_space_group_symop_operation_xyz
x,y,z
x,-y,1/2+z
1/2+x,1/2+y,z
1/2+x,1/2-y,1/2+z
loop_
_atom_site_type_symbol
_atom_site_label
_atom_site_fract_x
_atom_site_fract_y
_atom_site_fract_z
Si Si1 0.933870 0.606854 0.723920
Si Si2 0.354491 0.764350 0.374397
Si Si3 0.754429 0.885953 0.169064
Si Si4 0.979090 0.330073 0.143982
Si Si5 0.299136 0.677450 0.589013
Si Si6 0.113986 0.481831 0.964365
Si Si7 0.609168 0.551581 0.409936
Si Si8 0.687401 0.737480 0.343735
O O1 0.871398 0.313739 0.717597
O O2 0.009053 0.605054 0.700011
O O3 0.041566 0.676790 0.787894
O O4 0.807422 0.810515 0.689270
O O5 0.450009 0.649356 0.363265
O O6 0.277883 0.507433 0.373849
O O7 0.459513 0.920460 0.434319
O O8 0.252369 0.003659 0.331467
O O9 0.616870 0.857810 0.156605
O O10 0.724687 0.821106 0.113103
O O11 0.862384 0.530370 0.095573
O O12 0.925281 0.027255 0.123292
O O13 0.186276 0.608752 0.525171
O O14 0.186761 0.741690 0.962410
O O15 0.115228 0.249154 0.929794
O O16 0.676218 0.572697 0.383494
#
# Coordination Sequence:
#
# PCOD8054730 Si02
#       8
#     4   4   4   4   4   4   4   4
#     4  10  23  37  61  86 119 147 193 244 292 344
#     4  10  22  39  57  85 121 153 204 242 283 351
#     4  10  21  41  58  89 114 147 193 245 291 357
#     4  10  21  39  62  87 114 148 193 243 290 362
#     4  10  21  39  60  86 118 148 194 239 295 343
#     4  10  20  43  58  83 128 156 189 260 286 338
#     4  10  22  39  56  84 122 156 197 246 279 351
#     4  12  22  39  62  86 118 165 195 241 300 352
#
# _framework density 20.326376
#
# number of rings (size 3 to 8) (size 9 to 14) (size 15 to 20)
#    0.750    1.000    1.250    3.000    0.000    2.000 
#    6.750    0.000    0.000    0.000    0.000    0.000 
#    0.000    0.000    0.000    0.000    0.000    0.000 
#
# Total GULP energy -198283.006057 kJ/mol
# GULP energy per Si atom -12392.687879 kJ/mol
# Density = 2.028011 g / cm^3
# Si number density = 20.326376 Si / 1000 Ang^3
#
#
#
# Elastic Constant Matrix: (Units=GPa)
#
#
# Indices 1 2 3 4 5 6 
#
# 1 117.1843 28.6055 29.4118 0.0004 2.6522 -0.0006
# 2 28.6055 98.3906 9.8875 0.0010 -4.1279 -0.0008
# 3 29.4118 9.8875 61.0930 -0.0007 0.6479 0.0004
# 4 0.0004 0.0010 -0.0007 23.5903 0.0002 0.6332
# 5 2.6522 -4.1279 0.6479 0.0002 14.7176 -0.0001
# 6 -0.0006 -0.0008 0.0004 0.6332 -0.0001 24.5293
#
#
#
# Elastic Compliance Matrix: (Units=1/GPa)
#
#
# Indices 1 2 3 4 5 6 
#
# 1 0.010378 -0.002662 -0.004540 0.000000 -0.002417 0.000000
# 2 -0.002662 0.011146 -0.000561 0.000000 0.003631 0.000000
# 3 -0.004540 -0.000561 0.018646 0.000001 -0.000160 0.000000
# 4 0.000000 0.000000 0.000001 0.042420 -0.000001 -0.001095
# 5 -0.002417 0.003631 -0.000160 -0.000001 0.069407 0.000000
# 6 0.000000 0.000000 0.000000 -0.001095 0.000000 0.040796
#
#
# Mechanical properties :
#
#
# Convention : Reuss Voigt Hill
#
# Bulk Modulus (GPa) = 40.57611 45.83083 43.20347
# Shear Modulus (GPa) = 23.09120 26.48497 24.78809
#
# Velocity S-wave (km/s) = 3.37415 3.61361 3.49593
# Velocity P-wave (km/s) = 5.93173 6.32513 6.13159
#
# Compressibility (1/GPa) = 0.02464504
#
# Stress axis : x y z
#
# Youngs Moduli (GPa) = 96.36213 89.71612 53.62968
#
# Poissons Ratio (x) = 0.23885 0.24345
# Poissons Ratio (y) = 0.25655 0.03007
# Poissons Ratio (z) = 0.43744 0.05031
#
# Static dielectric constant tensor:
#      x y z
#    x 3.542680 0.000000 0.042540 
#    y 0.000000 3.994850 0.000000 
#    z 0.042540 0.000000 3.330810 
# 
# 
# High freq. dielectric constant tensor:
#      x y z
#    x 1.786170 0.000000 0.008020 
#    y 0.000000 1.823390 0.000000 
#    z 0.008020 0.000000 1.764830 
# 
# From -- ./inp_files/35119.got.cif
#   From: 2010.06.25/outbox.cif.g09.slc.cpg/sg9_18_cif.got.tgz:35119.got - 2010.06.27 21:40:51.
