data_PCOD8054303
_publ_section_title
;
Structure prediction by ZEFSAII (Michael W. Deem and Ramdas Pophale) SiO2 
 PCOD8054303
Probable space group: C C
;
_chemical_formula_sum "Si O2"
_cell_formula_units_Z 28
_cell_length_a 29.278814
_cell_length_b 9.602280
_cell_length_c 8.812328
_cell_angle_alpha 90.000000
_cell_angle_beta 36.286248
_cell_angle_gamma 90.000000
_cell_volume 1466.249698
_symmetry_space_group_name_H-M "C C"
_symmetry_group_IT_number 9
_symmetry_cell_setting 'monoclinic'
loop_
_space_group_symop_operation_xyz
x,y,z
x,-y,1/2+z
1/2+x,1/2+y,z
1/2+x,1/2-y,1/2+z
loop_
_atom_site_type_symbol
_atom_site_label
_atom_site_fract_x
_atom_site_fract_y
_atom_site_fract_z
Si Si1 0.877260 0.376405 0.279390
Si Si2 0.237923 0.620557 0.217879
Si Si3 0.542960 0.140391 0.204745
Si Si4 0.455725 0.637652 0.793281
Si Si5 0.335763 0.855998 0.067074
Si Si6 0.386114 0.429826 0.786633
Si Si7 0.637039 0.035254 0.218789
O O1 0.818835 0.364225 0.292902
O O2 0.845299 0.489318 0.479447
O O3 0.881238 0.229384 0.360147
O O4 0.960579 0.415141 0.985100
O O5 0.265583 0.778211 0.171148
O O6 0.195363 0.619475 0.169991
O O7 0.180963 0.584046 0.508068
O O8 0.307969 0.510913 0.033065
O O9 0.534023 0.298906 0.159056
O O10 0.600516 0.143206 0.194761
O O11 0.571611 0.037113 0.996616
O O12 0.461078 0.510297 0.659609
O O13 0.414184 0.769373 0.824429
O O14 0.398521 0.575776 0.074009
#
# Coordination Sequence:
#
# PCOD8054303 Si02
#       7
#     4   4   4   4   4   4   4
#     4  10  19  33  55  80 105 130 166 223 270 302
#     4  10  19  34  53  80 102 137 179 206 256 306
#     4   9  18  33  51  79 103 136 178 208 258 305
#     4   9  18  33  53  77 104 129 169 219 257 303
#     4   9  19  32  51  79 106 129 168 218 258 301
#     4   9  18  33  54  79 104 130 168 221 266 303
#     4  10  19  32  55  74 108 145 172 209 243 320
#
# _framework density 19.096337999999999
#
# number of rings (size 3 to 8) (size 9 to 14) (size 15 to 20)
#    0.000    2.857    0.000    4.286    0.000    3.429 
#    0.000    5.714    0.000   24.000    0.000    0.000 
#    0.000    0.000    0.000    0.000    0.000    0.000 
#
# Total GULP energy -173466.096056 kJ/mol
# GULP energy per Si atom -12390.435433 kJ/mol
# Density = 1.905287 g / cm^3
# Si number density = 19.096338 Si / 1000 Ang^3
#
#
#
# Elastic Constant Matrix: (Units=GPa)
#
#
# Indices 1 2 3 4 5 6 
#
# 1 139.5482 68.7263 20.8819 0.0000 3.8149 0.0000
# 2 68.7263 134.7515 14.0840 0.0000 3.9592 0.0000
# 3 20.8819 14.0840 34.0486 0.0000 -5.9004 0.0000
# 4 0.0000 0.0000 0.0000 22.0135 0.0000 0.9448
# 5 3.8149 3.9592 -5.9004 0.0000 20.4210 0.0000
# 6 0.0000 0.0000 0.0000 0.9448 0.0000 41.3471
#
#
#
# Elastic Compliance Matrix: (Units=1/GPa)
#
#
# Indices 1 2 3 4 5 6 
#
# 1 0.010236 -0.004652 -0.004767 0.000000 -0.002388 0.000000
# 2 -0.004652 0.010000 -0.001546 0.000000 -0.001516 0.000000
# 3 -0.004767 -0.001546 0.034886 0.000000 0.011270 0.000000
# 4 0.000000 0.000000 0.000000 0.045471 0.000000 -0.001039
# 5 -0.002388 -0.001516 0.011270 0.000000 0.052966 0.000000
# 6 0.000000 0.000000 0.000000 -0.001039 0.000000 0.024209
#
#
# Mechanical properties :
#
#
# Convention : Reuss Voigt Hill
#
# Bulk Modulus (GPa) = 30.12844 57.30362 43.71603
# Shear Modulus (GPa) = 23.72351 30.40006 27.06178
#
# Velocity S-wave (km/s) = 3.52846 3.99423 3.76855
# Velocity P-wave (km/s) = 5.69310 7.16552 6.47132
#
# Compressibility (1/GPa) = 0.03319123
#
# Stress axis : x y z
#
# Youngs Moduli (GPa) = 97.69768 100.00146 28.66492
#
# Poissons Ratio (x) = 0.46521 0.13664
# Poissons Ratio (y) = 0.45449 0.04432
# Poissons Ratio (z) = 0.46572 0.15461
#
# Static dielectric constant tensor:
#      x y z
#    x 3.788330 0.000000 0.055590 
#    y 0.000000 3.501740 0.000000 
#    z 0.055590 0.000000 3.229170 
# 
# 
# High freq. dielectric constant tensor:
#      x y z
#    x 1.751950 0.000000 0.015650 
#    y 0.000000 1.729110 0.000000 
#    z 0.015650 0.000000 1.713750 
# 
# From -- ./inp_files/11164.got.cif
#   From: 2010.06.25/outbox.cif.g09.slc.cpg/sg9_6_cif.got.tgz:11164.got - 2010.06.27 21:40:51.
