data_PCOD8054234
_publ_section_title
;
Structure prediction by ZEFSAII (Michael W. Deem and Ramdas Pophale) SiO2 
 PCOD8054234
Probable space group: C C
;
_chemical_formula_sum "Si O2"
_cell_formula_units_Z 28
_cell_length_a 29.151941
_cell_length_b 8.495134
_cell_length_c 5.304601
_cell_angle_alpha 90.000000
_cell_angle_beta 101.455923
_cell_angle_gamma 90.000000
_cell_volume 1287.511091
_symmetry_space_group_name_H-M "C C"
_symmetry_group_IT_number 9
_symmetry_cell_setting 'monoclinic'
loop_
_space_group_symop_operation_xyz
x,y,z
x,-y,1/2+z
1/2+x,1/2+y,z
1/2+x,1/2-y,1/2+z
loop_
_atom_site_type_symbol
_atom_site_label
_atom_site_fract_x
_atom_site_fract_y
_atom_site_fract_z
Si Si1 0.066080 0.596994 0.627760
Si Si2 0.758132 0.686264 0.335660
Si Si3 0.391843 0.051883 0.473594
Si Si4 0.172732 0.401494 0.268140
Si Si5 0.509417 0.589984 0.088118
Si Si6 0.795755 0.643873 0.876784
Si Si7 0.898453 0.091091 0.969174
O O1 0.056214 0.524626 0.342495
O O2 0.119386 0.658322 0.700879
O O3 0.030944 0.738899 0.628576
O O4 0.705476 0.749271 0.283239
O O5 0.787592 0.746032 0.614571
O O6 0.757033 0.496270 0.329518
O O7 0.785871 0.748365 0.115217
O O8 0.377248 0.233659 0.449119
O O9 0.420909 0.994173 0.258600
O O10 0.346114 0.939859 0.441202
O O11 0.183468 0.484697 0.545360
O O12 0.526519 0.492775 0.350297
O O13 0.453941 0.609538 0.030543
O O14 0.881073 0.997623 0.198010
#
# Coordination Sequence:
#
# PCOD8054234 Si02
#       7
#     4   4   4   4   4   4   4
#     4  10  21  38  61  87 124 154 194 243 291 347
#     4  10  18  35  55  75 106 145 182 227 294 319
#     4  12  21  38  64  85 117 150 201 247 294 340
#     4  10  21  37  55  81 115 152 186 234 285 349
#     4  10  21  40  61  87 124 154 194 238 293 352
#     4  10  19  35  56  74 107 141 180 251 275 316
#     4  10  23  41  60  87 123 158 187 242 300 357
#
# _framework density 21.747388999999998
#
# number of rings (size 3 to 8) (size 9 to 14) (size 15 to 20)
#    0.000    1.714    2.857    2.571    0.000    1.143 
#    5.143    1.429    0.000    0.000    0.000    0.000 
#    0.000    0.000    0.000    0.000    0.000    0.000 
#
# Total GULP energy -173505.388217 kJ/mol
# GULP energy per Si atom -12393.242015 kJ/mol
# Density = 2.169789 g / cm^3
# Si number density = 21.747389 Si / 1000 Ang^3
#
#
#
# Elastic Constant Matrix: (Units=GPa)
#
#
# Indices 1 2 3 4 5 6 
#
# 1 25.9128 7.7220 22.3701 0.0000 -2.7874 0.0000
# 2 7.7220 59.5699 25.3897 0.0000 -5.2917 0.0000
# 3 22.3701 25.3897 194.1012 0.0000 -43.3054 0.0000
# 4 0.0000 0.0000 0.0000 29.9753 0.0000 -2.8629
# 5 -2.7874 -5.2917 -43.3054 0.0000 14.5101 0.0000
# 6 0.0000 0.0000 0.0000 -2.8629 0.0000 35.3260
#
#
#
# Elastic Compliance Matrix: (Units=1/GPa)
#
#
# Indices 1 2 3 4 5 6 
#
# 1 0.045553 -0.003749 -0.009314 0.000000 -0.020415 0.000000
# 2 -0.003749 0.018096 -0.001865 0.000000 0.000312 0.000000
# 3 -0.009314 -0.001865 0.017713 0.000000 0.050394 0.000000
# 4 0.000000 0.000000 0.000000 0.033621 0.000000 0.002725
# 5 -0.020415 0.000312 0.050394 0.000000 0.215511 0.000000
# 6 0.000000 0.000000 0.000000 0.002725 0.000000 0.028529
#
#
# Mechanical properties :
#
#
# Convention : Reuss Voigt Hill
#
# Bulk Modulus (GPa) = 19.41576 43.39414 31.40495
# Shear Modulus (GPa) = 12.31384 30.90243 21.60814
#
# Velocity S-wave (km/s) = 2.38212 3.77367 3.15556
# Velocity P-wave (km/s) = 4.06365 6.24375 5.26772
#
# Compressibility (1/GPa) = 0.05150456
#
# Stress axis : x y z
#
# Youngs Moduli (GPa) = 21.95246 55.26171 56.45641
#
# Poissons Ratio (x) = 0.20715 0.52586
# Poissons Ratio (y) = 0.08229 0.10532
# Poissons Ratio (z) = 0.20448 0.10309
#
# Static dielectric constant tensor:
#      x y z
#    x 3.739220 0.000000 -0.413420 
#    y 0.000000 3.601160 0.000000 
#    z -0.413420 0.000000 5.690980 
# 
# 
# High freq. dielectric constant tensor:
#      x y z
#    x 1.829530 0.000000 -0.016240 
#    y 0.000000 1.825990 0.000000 
#    z -0.016240 0.000000 1.897110 
# 
# From -- ./inp_files/3386.got.cif
#   From: 2010.06.25/outbox.cif.g09.slc.cpg/sg9_2_cif.got.tgz:3386.got - 2010.06.27 21:40:51.
