data_PCOD8054621
_publ_section_title
;
Structure prediction by ZEFSAII (Michael W. Deem and Ramdas Pophale) SiO2 
 PCOD8054621
Probable space group: C C
;
_chemical_formula_sum "Si O2"
_cell_formula_units_Z 32
_cell_length_a 8.746267
_cell_length_b 13.535704
_cell_length_c 13.481748
_cell_angle_alpha 90.000000
_cell_angle_beta 85.391689
_cell_angle_gamma 90.000000
_cell_volume 1590.902405
_symmetry_space_group_name_H-M "C C"
_symmetry_group_IT_number 9
_symmetry_cell_setting 'monoclinic'
loop_
_space_group_symop_operation_xyz
x,y,z
x,-y,1/2+z
1/2+x,1/2+y,z
1/2+x,1/2-y,1/2+z
loop_
_atom_site_type_symbol
_atom_site_label
_atom_site_fract_x
_atom_site_fract_y
_atom_site_fract_z
Si Si1 0.636950 0.724324 0.049490
Si Si2 0.391593 0.844175 0.668574
Si Si3 0.070837 0.948745 0.400669
Si Si4 0.529681 0.356162 0.192628
Si Si5 0.398052 0.017541 0.823066
Si Si6 0.535890 0.975093 0.517701
Si Si7 0.337192 0.583161 0.521833
Si Si8 0.876140 0.640767 0.640824
O O1 0.718716 0.665616 0.135254
O O2 0.482851 0.769329 0.103112
O O3 0.576619 0.649051 0.969118
O O4 0.756774 0.809443 0.001023
O O5 0.446022 0.745901 0.719491
O O6 0.411683 0.923967 0.752401
O O7 0.498223 0.868183 0.566703
O O8 0.028261 0.919677 0.291568
O O9 0.241324 0.992283 0.392812
O O10 0.952654 0.036763 0.434579
O O11 0.697696 0.333114 0.140111
O O12 0.431439 0.415533 0.117867
O O13 0.409767 0.115144 0.754564
O O14 0.532438 0.024070 0.898016
O O15 0.703204 0.004647 0.545609
O O16 0.406777 0.048119 0.567977
#
# Coordination Sequence:
#
# PCOD8054621 Si02
#       8
#     4   4   4   4   4   4   4   4
#     4  10  22  43  60  93 127 168 210 266 324 382
#     4  10  22  39  62  90 125 158 207 269 309 385
#     4  11  23  41  66  91 127 168 213 263 325 394
#     4  10  23  42  60  96 123 163 217 258 320 390
#     4  10  21  40  62  92 121 168 206 254 328 382
#     4  10  20  39  64  87 124 165 204 254 322 376
#     4  10  24  41  63  91 130 165 210 269 314 391
#     4   9  21  39  63  86 127 165 203 265 310 382
#
# _framework density 20.114369
#
# number of rings (size 3 to 8) (size 9 to 14) (size 15 to 20)
#    0.000    2.000    1.250    0.750    8.750    4.000 
#    4.500    1.250    0.000    0.000    0.000    0.000 
#    0.000    0.000    0.000    0.000    0.000    0.000 
#
# Total GULP energy -198313.324732 kJ/mol
# GULP energy per Si atom -12394.582796 kJ/mol
# Density = 2.006859 g / cm^3
# Si number density = 20.114369 Si / 1000 Ang^3
#
#
#
# Elastic Constant Matrix: (Units=GPa)
#
#
# Indices 1 2 3 4 5 6 
#
# 1 114.3339 33.9265 53.9907 0.0000 6.8144 0.0000
# 2 33.9265 56.8362 37.8128 0.0000 2.2456 0.0000
# 3 53.9907 37.8128 105.5311 0.0000 5.4507 0.0000
# 4 0.0000 0.0000 0.0000 27.6583 0.0000 -0.6273
# 5 6.8144 2.2456 5.4507 0.0000 29.9874 0.0000
# 6 0.0000 0.0000 0.0000 -0.6273 0.0000 31.8355
#
#
#
# Elastic Compliance Matrix: (Units=1/GPa)
#
#
# Indices 1 2 3 4 5 6 
#
# 1 0.012303 -0.004133 -0.004729 0.000000 -0.001627 0.000000
# 2 -0.004133 0.024491 -0.006677 0.000000 0.000319 0.000000
# 3 -0.004729 -0.006677 0.014341 0.000000 -0.001032 0.000000
# 4 0.000000 0.000000 0.000000 0.036172 0.000000 0.000713
# 5 -0.001627 0.000319 -0.001032 0.000000 0.033881 0.000000
# 6 0.000000 0.000000 0.000000 0.000713 0.000000 0.031426
#
#
# Mechanical properties :
#
#
# Convention : Reuss Voigt Hill
#
# Bulk Modulus (GPa) = 49.86074 58.68460 54.27267
# Shear Modulus (GPa) = 26.26341 27.96098 27.11219
#
# Velocity S-wave (km/s) = 3.61737 3.73245 3.67536
# Velocity P-wave (km/s) = 6.50305 6.91474 6.71205
#
# Compressibility (1/GPa) = 0.02005586
#
# Stress axis : x y z
#
# Youngs Moduli (GPa) = 81.28097 40.83061 69.72848
#
# Poissons Ratio (x) = 0.16876 0.32977
# Poissons Ratio (y) = 0.33595 0.46561
# Poissons Ratio (z) = 0.38441 0.27264
#
# Static dielectric constant tensor:
#      x y z
#    x 3.750960 0.000000 -0.007990 
#    y 0.000000 3.675380 0.000000 
#    z -0.007990 0.000000 3.698210 
# 
# 
# High freq. dielectric constant tensor:
#      x y z
#    x 1.791170 0.000000 0.008330 
#    y 0.000000 1.781040 0.000000 
#    z 0.008330 0.000000 1.784360 
# 
# From -- ./inp_files/14625.got.cif
#   From: 2010.06.25/outbox.cif.g09.slc.cpg/sg9_8_cif.got.tgz:14625.got - 2010.06.27 21:40:51.
