data_PCOD8054701
_publ_section_title
;
Structure prediction by ZEFSAII (Michael W. Deem and Ramdas Pophale) SiO2 
 PCOD8054701
Probable space group: C C
;
_chemical_formula_sum "Si O2"
_cell_formula_units_Z 28
_cell_length_a 9.954144
_cell_length_b 14.322241
_cell_length_c 14.778109
_cell_angle_alpha 90.000000
_cell_angle_beta 37.367183
_cell_angle_gamma 90.000000
_cell_volume 1278.691363
_symmetry_space_group_name_H-M "C C"
_symmetry_group_IT_number 9
_symmetry_cell_setting 'monoclinic'
loop_
_space_group_symop_operation_xyz
x,y,z
x,-y,1/2+z
1/2+x,1/2+y,z
1/2+x,1/2-y,1/2+z
loop_
_atom_site_type_symbol
_atom_site_label
_atom_site_fract_x
_atom_site_fract_y
_atom_site_fract_z
Si Si1 0.543700 0.942661 0.413130
Si Si2 0.985666 0.251042 0.542290
Si Si3 0.157956 0.871564 0.519479
Si Si4 0.889905 0.359761 0.767933
Si Si5 0.773993 0.038566 0.132814
Si Si6 0.014784 0.716831 0.711309
Si Si7 0.038778 0.467555 0.099794
O O1 0.574973 0.839282 0.436687
O O2 0.299178 0.949259 0.498343
O O3 0.722510 0.962866 0.239093
O O4 0.576233 0.021221 0.472852
O O5 0.165513 0.168429 0.438897
O O6 0.963360 0.279268 0.658698
O O7 0.755115 0.211182 0.628642
O O8 0.990965 0.817533 0.676385
O O9 0.327752 0.794401 0.387959
O O10 0.018424 0.921056 0.515869
O O11 0.851174 0.457469 0.733214
O O12 0.087989 0.378064 0.734608
O O13 0.761300 0.990523 0.040137
O O14 0.970643 0.637557 0.659404
#
# Coordination Sequence:
#
# PCOD8054701 Si02
#       7
#     4   4   4   4   4   4   4
#     4  10  21  45  64  96 127 179 224 263 331 390
#     4  10  20  41  71  95 126 177 226 267 319 406
#     4  11  24  43  66  97 136 173 221 271 335 394
#     4   9  21  39  65  96 129 165 226 267 328 381
#     4  10  23  44  63  94 141 163 219 279 330 390
#     4  11  23  41  68  96 132 175 225 266 332 390
#     4   9  22  43  63  96 129 166 227 263 329 391
#
# _framework density 21.897386999999998
#
# number of rings (size 3 to 8) (size 9 to 14) (size 15 to 20)
#    0.857    1.143    1.429    1.714    2.000    3.429 
#    2.571    0.000    0.000    0.000    0.000    0.000 
#    0.000    0.000    0.000    0.000    0.000    0.000 
#
# Total GULP energy -173492.276632 kJ/mol
# GULP energy per Si atom -12392.305474 kJ/mol
# Density = 2.184755 g / cm^3
# Si number density = 21.897387 Si / 1000 Ang^3
#
#
#
# Elastic Constant Matrix: (Units=GPa)
#
#
# Indices 1 2 3 4 5 6 
#
# 1 101.7220 11.0033 34.2353 0.0110 7.3770 -0.0063
# 2 11.0033 49.1107 20.9824 -0.0020 -1.0382 -0.0011
# 3 34.2353 20.9824 74.9600 0.0029 1.1012 -0.0050
# 4 0.0110 -0.0020 0.0029 36.2773 -0.0044 8.5558
# 5 7.3770 -1.0382 1.1012 -0.0044 30.8940 0.0039
# 6 -0.0063 -0.0011 -0.0050 8.5558 0.0039 33.7130
#
#
#
# Elastic Compliance Matrix: (Units=1/GPa)
#
#
# Indices 1 2 3 4 5 6 
#
# 1 0.011836 -0.000472 -0.005235 -0.000004 -0.002656 0.000003
# 2 -0.000472 0.023178 -0.006289 0.000002 0.001116 -0.000001
# 3 -0.005235 -0.006289 0.017485 0.000000 0.000415 0.000001
# 4 -0.000004 0.000002 0.000000 0.029320 0.000006 -0.007441
# 5 -0.002656 0.001116 0.000415 0.000006 0.033026 -0.000006
# 6 0.000003 -0.000001 0.000001 -0.007441 -0.000006 0.031551
#
#
# Mechanical properties :
#
#
# Convention : Reuss Voigt Hill
#
# Bulk Modulus (GPa) = 35.07607 39.80387 37.43997
# Shear Modulus (GPa) = 27.79474 30.81495 29.30484
#
# Velocity S-wave (km/s) = 3.56661 3.75539 3.66222
# Velocity P-wave (km/s) = 5.74579 6.08448 5.91756
#
# Compressibility (1/GPa) = 0.02850946
#
# Stress axis : x y z
#
# Youngs Moduli (GPa) = 84.48743 43.14375 57.19025
#
# Poissons Ratio (x) = 0.02034 0.29937
# Poissons Ratio (y) = 0.03984 0.35967
# Poissons Ratio (z) = 0.44227 0.27133
#
# Static dielectric constant tensor:
#      x y z
#    x 3.931760 0.000000 0.132360 
#    y 0.000000 3.862730 0.000000 
#    z 0.132360 0.000000 3.656880 
# 
# 
# High freq. dielectric constant tensor:
#      x y z
#    x 1.852780 0.000000 0.011520 
#    y 0.000000 1.854790 0.000000 
#    z 0.011520 0.000000 1.840140 
# 
# From -- ./inp_files/23313.got.cif
#   From: 2010.06.25/outbox.cif.g09.slc.cpg/sg9_12_cif.got.tgz:23313.got - 2010.06.27 21:40:51.
