data_PCOD8054341
_publ_section_title
;
Structure prediction by ZEFSAII (Michael W. Deem and Ramdas Pophale) SiO2 
 PCOD8054341
Probable space group: C C
;
_chemical_formula_sum "Si O2"
_cell_formula_units_Z 32
_cell_length_a 8.328317
_cell_length_b 15.647902
_cell_length_c 14.268426
_cell_angle_alpha 90.000000
_cell_angle_beta 113.271317
_cell_angle_gamma 90.000000
_cell_volume 1708.192489
_symmetry_space_group_name_H-M "C C"
_symmetry_group_IT_number 9
_symmetry_cell_setting 'monoclinic'
loop_
_space_group_symop_operation_xyz
x,y,z
x,-y,1/2+z
1/2+x,1/2+y,z
1/2+x,1/2-y,1/2+z
loop_
_atom_site_type_symbol
_atom_site_label
_atom_site_fract_x
_atom_site_fract_y
_atom_site_fract_z
Si Si1 0.869840 0.213349 0.165730
Si Si2 0.483273 0.255560 0.062054
Si Si3 0.010188 0.952227 0.609843
Si Si4 0.458188 0.807906 0.007191
Si Si5 0.065796 0.157608 0.386089
Si Si6 0.791704 0.094440 0.602522
Si Si7 0.659180 0.353892 0.478598
Si Si8 0.518611 0.521568 0.798726
O O1 0.667441 0.225127 0.145220
O O2 0.887864 0.124883 0.115109
O O3 0.937767 0.287303 0.112480
O O4 0.982017 0.216323 0.286069
O O5 0.394097 0.315778 0.118621
O O6 0.503653 0.305632 0.969821
O O7 0.360534 0.173113 0.019575
O O8 0.138855 0.923526 0.557220
O O9 0.874125 0.026916 0.545959
O O10 0.119139 0.988791 0.726085
O O11 0.588521 0.889260 0.033515
O O12 0.274877 0.837087 0.921325
O O13 0.532616 0.727472 0.965344
O O14 0.999619 0.059597 0.363256
O O15 0.829407 0.056429 0.716432
O O16 0.615859 0.400355 0.371104
#
# Coordination Sequence:
#
# PCOD8054341 Si02
#       8
#     4   4   4   4   4   4   4   4
#     4   9  19  36  54  80 115 146 183 235 284 331
#     4  10  21  34  57  83 113 146 187 242 279 333
#     4   8  18  35  55  76 113 148 181 231 281 335
#     4   9  20  35  58  84 109 150 191 233 281 338
#     4  10  20  36  56  80 114 151 185 232 287 338
#     4   9  19  36  55  80 110 148 184 235 276 335
#     4  10  19  36  57  84 109 150 191 234 280 342
#     4   9  20  34  56  79 111 151 180 232 290 336
#
# _framework density 18.733250999999999
#
# number of rings (size 3 to 8) (size 9 to 14) (size 15 to 20)
#    0.750    2.000    0.000    0.750    3.500    1.000 
#    0.000    0.000    0.000    9.000    0.000    0.000 
#    0.000    0.000    0.000    0.000    0.000    0.000 
#
# Total GULP energy -198225.089848 kJ/mol
# GULP energy per Si atom -12389.068116 kJ/mol
# Density = 1.869061 g / cm^3
# Si number density = 18.733251 Si / 1000 Ang^3
#
#
#
# Elastic Constant Matrix: (Units=GPa)
#
#
# Indices 1 2 3 4 5 6 
#
# 1 104.6111 42.5257 51.6895 0.0000 21.5033 0.0000
# 2 42.5257 85.5665 49.3154 0.0000 10.2272 0.0000
# 3 51.6895 49.3154 112.1746 0.0000 19.5025 0.0000
# 4 0.0000 0.0000 0.0000 39.2669 0.0000 0.7576
# 5 21.5033 10.2272 19.5025 0.0000 23.5980 0.0000
# 6 0.0000 0.0000 0.0000 0.7576 0.0000 24.5462
#
#
#
# Elastic Compliance Matrix: (Units=1/GPa)
#
#
# Indices 1 2 3 4 5 6 
#
# 1 0.014813 -0.004363 -0.003374 0.000000 -0.008818 0.000000
# 2 -0.004363 0.016971 -0.005679 0.000000 0.001314 0.000000
# 3 -0.003374 -0.005679 0.014018 0.000000 -0.006049 0.000000
# 4 0.000000 0.000000 0.000000 0.025482 0.000000 -0.000786
# 5 -0.008818 0.001314 -0.006049 0.000000 0.054842 0.000000
# 6 0.000000 0.000000 0.000000 -0.000786 0.000000 0.040764
#
#
# Mechanical properties :
#
#
# Convention : Reuss Voigt Hill
#
# Bulk Modulus (GPa) = 52.71768 65.49038 59.10403
# Shear Modulus (GPa) = 24.99437 28.07035 26.53236
#
# Velocity S-wave (km/s) = 3.65667 3.87515 3.76749
# Velocity P-wave (km/s) = 6.78459 7.42009 7.10944
#
# Compressibility (1/GPa) = 0.01896897
#
# Stress axis : x y z
#
# Youngs Moduli (GPa) = 67.50908 58.92339 71.33722
#
# Poissons Ratio (x) = 0.25708 0.24072
# Poissons Ratio (y) = 0.29454 0.40513
# Poissons Ratio (z) = 0.22781 0.33463
#
# Static dielectric constant tensor:
#      x y z
#    x 3.258060 0.000000 -0.025050 
#    y 0.000000 3.574140 0.000000 
#    z -0.025050 0.000000 3.356260 
# 
# 
# High freq. dielectric constant tensor:
#      x y z
#    x 1.702520 0.000000 -0.003960 
#    y 0.000000 1.735170 0.000000 
#    z -0.003960 0.000000 1.719390 
# 
# From -- ./inp_files/14951.got.cif
#   From: 2010.06.25/outbox.cif.g09.slc.cpg/sg9_8_cif.got.tgz:14951.got - 2010.06.27 21:40:51.
