data_PCOD8054414
_publ_section_title
;
Structure prediction by ZEFSAII (Michael W. Deem and Ramdas Pophale) SiO2 
 PCOD8054414
Probable space group: C C
;
_chemical_formula_sum "Si O2"
_cell_formula_units_Z 32
_cell_length_a 25.919242
_cell_length_b 9.999555
_cell_length_c 12.599806
_cell_angle_alpha 90.000000
_cell_angle_beta 148.934110
_cell_angle_gamma 90.000000
_cell_volume 1685.141161
_symmetry_space_group_name_H-M "C C"
_symmetry_group_IT_number 9
_symmetry_cell_setting 'monoclinic'
loop_
_space_group_symop_operation_xyz
x,y,z
x,-y,1/2+z
1/2+x,1/2+y,z
1/2+x,1/2-y,1/2+z
loop_
_atom_site_type_symbol
_atom_site_label
_atom_site_fract_x
_atom_site_fract_y
_atom_site_fract_z
Si Si1 0.710250 0.141035 0.511750
Si Si2 0.845123 0.286671 0.128705
Si Si3 0.759860 0.367516 0.767500
Si Si4 0.849948 0.014257 0.595733
Si Si5 0.076288 0.018467 0.480039
Si Si6 0.729448 0.373921 0.110128
Si Si7 0.066635 0.289435 0.577488
Si Si8 0.213975 0.592283 0.175448
O O1 0.744916 0.254248 0.653665
O O2 0.610820 0.184565 0.272513
O O3 0.801755 0.122937 0.589952
O O4 0.683122 0.003676 0.524172
O O5 0.831290 0.128634 0.116049
O O6 0.754724 0.362367 0.030179
O O7 0.950031 0.328256 0.366555
O O8 0.841676 0.324473 0.998428
O O9 0.653208 0.396901 0.639048
O O10 0.797181 0.506145 0.779150
O O11 0.966540 0.043263 0.780827
O O12 0.800568 0.018424 0.393257
O O13 0.112800 0.088069 0.431422
O O14 0.083195 0.132488 0.582173
O O15 0.758521 0.232881 0.214081
O O16 0.118991 0.384667 0.583453
#
# Coordination Sequence:
#
# PCOD8054414 Si02
#       8
#     4   4   4   4   4   4   4   4
#     4  11  21  38  63  93 117 157 207 254 298 355
#     4  11  20  39  60  92 122 160 199 252 304 362
#     4  10  23  38  60  91 124 154 202 253 294 363
#     4  10  20  38  65  88 117 161 206 245 298 367
#     4   8  20  41  57  88 117 165 197 243 296 367
#     4   9  21  38  60  84 123 162 189 248 315 343
#     4   9  22  37  61  84 126 159 199 245 311 356
#     4  10  19  39  60  86 120 158 201 254 294 359
#
# _framework density 18.989505999999999
#
# number of rings (size 3 to 8) (size 9 to 14) (size 15 to 20)
#    0.750    1.500    2.500    0.000    1.750    2.000 
#    2.250    1.250    0.000    0.000    0.000    0.000 
#    0.000    0.000    0.000    0.000    0.000    0.000 
#
# Total GULP energy -198266.378908 kJ/mol
# GULP energy per Si atom -12391.648682 kJ/mol
# Density = 1.894629 g / cm^3
# Si number density = 18.989506 Si / 1000 Ang^3
#
#
#
# Elastic Constant Matrix: (Units=GPa)
#
#
# Indices 1 2 3 4 5 6 
#
# 1 81.4000 32.8088 51.4477 0.0000 -8.0080 0.0000
# 2 32.8088 88.9756 43.4131 0.0000 -3.5064 0.0000
# 3 51.4477 43.4131 126.6637 0.0000 -7.8275 0.0000
# 4 0.0000 0.0000 0.0000 21.8447 0.0000 -0.3790
# 5 -8.0080 -3.5064 -7.8275 0.0000 28.1972 0.0000
# 6 0.0000 0.0000 0.0000 -0.3790 0.0000 31.8615
#
#
#
# Elastic Compliance Matrix: (Units=1/GPa)
#
#
# Indices 1 2 3 4 5 6 
#
# 1 0.017664 -0.003585 -0.005763 0.000000 0.002971 0.000000
# 2 -0.003585 0.014228 -0.003433 0.000000 -0.000202 0.000000
# 3 -0.005763 -0.003433 0.011482 0.000000 0.001124 0.000000
# 4 0.000000 0.000000 0.000000 0.045787 0.000000 0.000545
# 5 0.002971 -0.000202 0.001124 0.000000 0.036595 0.000000
# 6 0.000000 0.000000 0.000000 0.000545 0.000000 0.031392
#
#
# Mechanical properties :
#
#
# Convention : Reuss Voigt Hill
#
# Bulk Modulus (GPa) = 56.13777 61.37541 58.75659
# Shear Modulus (GPa) = 26.50455 27.67200 27.08827
#
# Velocity S-wave (km/s) = 3.74002 3.82150 3.78098
# Velocity P-wave (km/s) = 6.94817 7.20158 7.07601
#
# Compressibility (1/GPa) = 0.01781332
#
# Stress axis : x y z
#
# Youngs Moduli (GPa) = 56.61125 70.28415 87.09584
#
# Poissons Ratio (x) = 0.25195 0.50189
# Poissons Ratio (y) = 0.20294 0.29900
# Poissons Ratio (z) = 0.32623 0.24128
#
# Static dielectric constant tensor:
#      x y z
#    x 3.460140 0.000000 -0.030100 
#    y 0.000000 3.467220 0.000000 
#    z -0.030100 0.000000 3.255310 
# 
# 
# High freq. dielectric constant tensor:
#      x y z
#    x 1.737500 0.000000 -0.006680 
#    y 0.000000 1.740790 0.000000 
#    z -0.006680 0.000000 1.714700 
# 
# From -- ./inp_files/21244.got.cif
#   From: 2010.06.25/outbox.cif.g09.slc.cpg/sg9_11_cif.got.tgz:21244.got - 2010.06.27 21:40:51.
