data_PCOD8054764
_publ_section_title
;
Structure prediction by ZEFSAII (Michael W. Deem and Ramdas Pophale) SiO2 
 PCOD8054764
Probable space group: C C
;
_chemical_formula_sum "Si O2"
_cell_formula_units_Z 28
_cell_length_a 16.375989
_cell_length_b 8.688297
_cell_length_c 11.940871
_cell_angle_alpha 90.000000
_cell_angle_beta 47.333901
_cell_angle_gamma 90.000000
_cell_volume 1249.257758
_symmetry_space_group_name_H-M "C C"
_symmetry_group_IT_number 9
_symmetry_cell_setting 'monoclinic'
loop_
_space_group_symop_operation_xyz
x,y,z
x,-y,1/2+z
1/2+x,1/2+y,z
1/2+x,1/2-y,1/2+z
loop_
_atom_site_type_symbol
_atom_site_label
_atom_site_fract_x
_atom_site_fract_y
_atom_site_fract_z
Si Si1 0.095230 0.150239 0.751930
Si Si2 0.812672 0.680764 0.683894
Si Si3 0.183426 0.711129 0.733298
Si Si4 0.086268 0.903106 0.009113
Si Si5 0.154588 0.772349 0.508722
Si Si6 0.400270 0.516357 0.542897
Si Si7 0.541774 0.065508 0.446522
O O1 0.214878 0.113020 0.695912
O O2 0.110457 0.174156 0.605331
O O3 0.057485 0.314210 0.832289
O O4 0.002906 0.015653 0.860460
O O5 0.910202 0.554926 0.590072
O O6 0.847138 0.851864 0.616024
O O7 0.778974 0.703287 0.845737
O O8 0.147521 0.783617 0.648412
O O9 0.300495 0.628333 0.598106
O O10 0.087867 0.596363 0.864310
O O11 0.179980 0.841061 0.833694
O O12 0.958093 0.884194 0.088829
O O13 0.087573 0.088198 0.014804
O O14 0.102860 0.616094 0.505216
#
# Coordination Sequence:
#
# PCOD8054764 Si02
#       7
#     4   4   4   4   4   4   4
#     4  10  22  42  73 100 142 192 236 293 369 427
#     4  10  20  45  74 100 145 194 235 301 367 428
#     4  12  28  43  78 113 142 192 256 296 369 441
#     4  12  26  46  69 108 146 190 243 302 368 436
#     4  11  24  45  71 103 150 190 240 302 365 431
#     4  11  23  46  72 106 144 192 243 298 369 432
#     4  10  23  45  71 106 143 188 245 300 363 433
#
# _framework density 22.413309000000002
#
# number of rings (size 3 to 8) (size 9 to 14) (size 15 to 20)
#    0.000    1.143    7.143    0.857    4.000    4.571 
#    2.571    0.000    0.000    0.000    0.000    0.000 
#    0.000    0.000    0.000    0.000    0.000    0.000 
#
# Total GULP energy -173445.015415 kJ/mol
# GULP energy per Si atom -12388.929672 kJ/mol
# Density = 2.236230 g / cm^3
# Si number density = 22.413309 Si / 1000 Ang^3
#
#
#
# Elastic Constant Matrix: (Units=GPa)
#
#
# Indices 1 2 3 4 5 6 
#
# 1 105.6792 30.5450 82.7616 0.0000 -1.0249 0.0000
# 2 30.5450 63.0541 31.1864 0.0000 3.5447 0.0000
# 3 82.7616 31.1864 146.8799 0.0000 14.3877 0.0000
# 4 0.0000 0.0000 0.0000 39.2926 0.0000 -3.4901
# 5 -1.0249 3.5447 14.3877 0.0000 54.3058 0.0000
# 6 0.0000 0.0000 0.0000 -3.4901 0.0000 28.6794
#
#
#
# Elastic Compliance Matrix: (Units=1/GPa)
#
#
# Indices 1 2 3 4 5 6 
#
# 1 0.018366 -0.004250 -0.009761 0.000000 0.003210 0.000000
# 2 -0.004250 0.018705 -0.001488 0.000000 -0.000907 0.000000
# 3 -0.009761 -0.001488 0.012969 0.000000 -0.003523 0.000000
# 4 0.000000 0.000000 0.000000 0.025728 0.000000 0.003131
# 5 0.003210 -0.000907 -0.003523 0.000000 0.019467 0.000000
# 6 0.000000 0.000000 0.000000 0.003131 0.000000 0.035249
#
#
# Mechanical properties :
#
#
# Convention : Reuss Voigt Hill
#
# Bulk Modulus (GPa) = 52.51264 67.17771 59.84517
# Shear Modulus (GPa) = 29.79199 35.86357 32.82778
#
# Velocity S-wave (km/s) = 3.64979 4.00447 3.83123
# Velocity P-wave (km/s) = 6.42194 7.17066 6.80660
#
# Compressibility (1/GPa) = 0.01904303
#
# Stress axis : x y z
#
# Youngs Moduli (GPa) = 54.44807 53.46131 77.10579
#
# Poissons Ratio (x) = 0.22720 0.75261
# Poissons Ratio (y) = 0.23139 0.11474
# Poissons Ratio (z) = 0.53145 0.07956
#
# Static dielectric constant tensor:
#      x y z
#    x 4.027950 0.000000 -0.254980 
#    y 0.000000 3.979630 0.000000 
#    z -0.254980 0.000000 4.420530 
# 
# 
# High freq. dielectric constant tensor:
#      x y z
#    x 1.873850 0.000000 -0.009940 
#    y 0.000000 1.883880 0.000000 
#    z -0.009940 0.000000 1.888420 
# 
# From -- ./inp_files/19001.got.cif
#   From: 2010.06.25/outbox.cif.g09.slc.cpg/sg9_10_cif.got.tgz:19001.got - 2010.06.27 21:40:51.
