data_PCOD8054797
_publ_section_title
;
Structure prediction by ZEFSAII (Michael W. Deem and Ramdas Pophale) SiO2 
 PCOD8054797
Probable space group: C C
;
_chemical_formula_sum "Si O2"
_cell_formula_units_Z 32
_cell_length_a 6.737644
_cell_length_b 19.063425
_cell_length_c 12.211603
_cell_angle_alpha 90.000000
_cell_angle_beta 77.443218
_cell_angle_gamma 90.000000
_cell_volume 1530.973027
_symmetry_space_group_name_H-M "C C"
_symmetry_group_IT_number 9
_symmetry_cell_setting 'monoclinic'
loop_
_space_group_symop_operation_xyz
x,y,z
x,-y,1/2+z
1/2+x,1/2+y,z
1/2+x,1/2-y,1/2+z
loop_
_atom_site_type_symbol
_atom_site_label
_atom_site_fract_x
_atom_site_fract_y
_atom_site_fract_z
Si Si1 0.696320 0.370952 0.115210
Si Si2 0.646461 0.942221 0.756522
Si Si3 0.909122 0.246665 0.563043
Si Si4 0.244690 0.356860 0.529748
Si Si5 0.967382 0.252117 0.136829
Si Si6 0.197345 0.932300 0.879653
Si Si7 0.432323 0.551141 0.820875
Si Si8 0.873343 0.829510 0.848942
O O1 0.541245 0.307487 0.115120
O O2 0.608983 0.416579 0.224391
O O3 0.910114 0.333618 0.121315
O O4 0.731642 0.418865 0.004477
O O5 0.713369 0.913943 0.629456
O O6 0.404589 0.951930 0.792228
O O7 0.707596 0.889969 0.847725
O O8 0.762880 0.015545 0.762783
O O9 0.029815 0.318908 0.530173
O O10 0.821511 0.213295 0.462678
O O11 0.698086 0.259543 0.650337
O O12 0.412161 0.298285 0.540990
O O13 0.318922 0.392075 0.409100
O O14 0.840791 0.224892 0.255112
O O15 0.098643 0.863888 0.833535
O O16 0.041653 0.996539 0.888426
#
# Coordination Sequence:
#
# PCOD8054797 Si02
#       8
#     4   4   4   4   4   4   4   4
#     4  10  23  39  57  92 119 154 199 245 295 348
#     4  10  21  40  61  83 119 163 197 245 291 347
#     4  10  21  37  60  86 119 153 190 247 296 356
#     4  10  23  39  57  92 119 154 199 245 295 348
#     4  10  21  37  60  86 119 153 190 247 296 356
#     4  10  21  40  61  83 119 163 197 245 291 347
#     4  11  24  38  60  88 124 155 202 244 284 361
#     4   9  20  36  58  88 112 149 198 238 300 347
#
# _framework density 20.901738999999999
#
# number of rings (size 3 to 8) (size 9 to 14) (size 15 to 20)
#    0.000    2.000    0.000    2.250    3.500    3.000 
#    4.500    0.000    0.000    0.000    0.000    0.000 
#    0.000    0.000    0.000    0.000    0.000    0.000 
#
# Total GULP energy -198382.467894 kJ/mol
# GULP energy per Si atom -12398.904243 kJ/mol
# Density = 2.085417 g / cm^3
# Si number density = 20.901739 Si / 1000 Ang^3
#
#
#
# Elastic Constant Matrix: (Units=GPa)
#
#
# Indices 1 2 3 4 5 6 
#
# 1 81.9362 16.4503 7.9532 0.0000 -14.1888 0.0000
# 2 16.4503 82.0540 33.8717 0.0000 0.1145 0.0000
# 3 7.9532 33.8717 79.7592 0.0000 2.2058 0.0000
# 4 0.0000 0.0000 0.0000 28.7712 0.0000 -0.9434
# 5 -14.1888 0.1145 2.2058 0.0000 31.2588 0.0000
# 6 0.0000 0.0000 0.0000 -0.9434 0.0000 30.4038
#
#
#
# Elastic Compliance Matrix: (Units=1/GPa)
#
#
# Indices 1 2 3 4 5 6 
#
# 1 0.013868 -0.002602 -0.000453 0.000000 0.006337 0.000000
# 2 -0.002602 0.015271 -0.006203 0.000000 -0.000799 0.000000
# 3 -0.000453 -0.006203 0.015252 0.000000 -0.001259 0.000000
# 4 0.000000 0.000000 0.000000 0.034792 0.000000 0.001080
# 5 0.006337 -0.000799 -0.001259 0.000000 0.034959 0.000000
# 6 0.000000 0.000000 0.000000 0.001080 0.000000 0.032924
#
#
# Mechanical properties :
#
#
# Convention : Reuss Voigt Hill
#
# Bulk Modulus (GPa) = 38.64916 40.03333 39.34124
# Shear Modulus (GPa) = 28.70119 30.45170 29.57645
#
# Velocity S-wave (km/s) = 3.70962 3.82107 3.76576
# Velocity P-wave (km/s) = 6.07284 6.21789 6.14579
#
# Compressibility (1/GPa) = 0.02587379
#
# Stress axis : x y z
#
# Youngs Moduli (GPa) = 72.10677 65.48494 65.56426
#
# Poissons Ratio (x) = 0.17040 0.02970
# Poissons Ratio (y) = 0.18763 0.40673
# Poissons Ratio (z) = 0.03267 0.40624
#
# Static dielectric constant tensor:
#      x y z
#    x 3.801440 0.000000 0.108000 
#    y 0.000000 3.805950 0.000000 
#    z 0.108000 0.000000 3.513690 
# 
# 
# High freq. dielectric constant tensor:
#      x y z
#    x 1.823040 0.000000 0.002890 
#    y 0.000000 1.817610 0.000000 
#    z 0.002890 0.000000 1.810710 
# 
# From -- ./inp_files/13487.got.cif
#   From: 2010.06.25/outbox.cif.g09.slc.cpg/sg9_7_cif.got.tgz:13487.got - 2010.06.27 21:40:51.
