data_PCOD8054557
_publ_section_title
;
Structure prediction by ZEFSAII (Michael W. Deem and Ramdas Pophale) SiO2 
 PCOD8054557
Probable space group: C C
;
_chemical_formula_sum "Si O2"
_cell_formula_units_Z 32
_cell_length_a 8.910136
_cell_length_b 21.418100
_cell_length_c 8.728864
_cell_angle_alpha 90.000000
_cell_angle_beta 99.095459
_cell_angle_gamma 90.000000
_cell_volume 1644.855341
_symmetry_space_group_name_H-M "C C"
_symmetry_group_IT_number 9
_symmetry_cell_setting 'monoclinic'
loop_
_space_group_symop_operation_xyz
x,y,z
x,-y,1/2+z
1/2+x,1/2+y,z
1/2+x,1/2-y,1/2+z
loop_
_atom_site_type_symbol
_atom_site_label
_atom_site_fract_x
_atom_site_fract_y
_atom_site_fract_z
Si Si1 0.885610 0.307662 0.847910
Si Si2 0.968463 0.426455 0.015414
Si Si3 0.614148 0.867347 0.659580
Si Si4 0.879248 0.462664 0.665342
Si Si5 0.842735 0.167871 0.941373
Si Si6 0.111916 0.118568 0.187907
Si Si7 0.379129 0.561696 0.367414
Si Si8 0.303969 0.565270 0.689648
O O1 0.881844 0.238379 0.908151
O O2 0.718772 0.324162 0.756720
O O3 0.013382 0.316154 0.735829
O O4 0.925562 0.353342 0.998620
O O5 0.861623 0.465255 0.114190
O O6 0.135123 0.440595 0.100438
O O7 0.943664 0.456887 0.846193
O O8 0.502805 0.923299 0.583592
O O9 0.692471 0.836457 0.523456
O O10 0.740971 0.893034 0.797063
O O11 0.713021 0.433354 0.619393
O O12 0.820354 0.130325 0.781114
O O13 0.987150 0.140702 0.049852
O O14 0.035508 0.087005 0.322910
O O15 0.407938 0.563197 0.554589
O O16 0.345183 0.491220 0.308810
#
# Coordination Sequence:
#
# PCOD8054557 Si02
#       8
#     4   4   4   4   4   4   4   4
#     4  10  23  42  62  85 126 163 205 253 295 364
#     4  10  20  37  64  90 121 157 203 248 300 366
#     4   9  19  40  61  86 120 160 202 252 299 358
#     4  10  20  38  63  88 122 155 195 259 310 352
#     4  11  25  38  65  88 119 170 209 245 305 361
#     4   9  23  42  58  90 129 157 199 262 305 358
#     4  11  20  37  64  93 126 152 202 259 310 356
#     4  12  22  36  65  94 121 162 207 250 302 377
#
# _framework density 19.454599000000002
#
# number of rings (size 3 to 8) (size 9 to 14) (size 15 to 20)
#    0.000    2.000    3.750    1.500    3.500    5.000 
#    0.000    5.000    0.000    0.000    0.000    0.000 
#    0.000    0.000    0.000    0.000    0.000    0.000 
#
# Total GULP energy -198334.452623 kJ/mol
# GULP energy per Si atom -12395.903289 kJ/mol
# Density = 1.941032 g / cm^3
# Si number density = 19.454599 Si / 1000 Ang^3
#
#
#
# Elastic Constant Matrix: (Units=GPa)
#
#
# Indices 1 2 3 4 5 6 
#
# 1 115.4451 47.1803 37.3532 0.0000 -5.9139 0.0000
# 2 47.1803 141.2361 73.9967 0.0000 -21.5378 0.0000
# 3 37.3532 73.9967 87.6021 0.0000 -13.7073 0.0000
# 4 0.0000 0.0000 0.0000 17.6617 0.0000 -8.8109
# 5 -5.9139 -21.5378 -13.7073 0.0000 18.8999 0.0000
# 6 0.0000 0.0000 0.0000 -8.8109 0.0000 22.9463
#
#
#
# Elastic Compliance Matrix: (Units=1/GPa)
#
#
# Indices 1 2 3 4 5 6 
#
# 1 0.010397 -0.002226 -0.002753 0.000000 -0.001280 0.000000
# 2 -0.002226 0.014211 -0.009734 0.000000 0.008438 0.000000
# 3 -0.002753 -0.009734 0.021366 0.000000 0.003541 0.000000
# 4 0.000000 0.000000 0.000000 0.070035 0.000000 0.026892
# 5 -0.001280 0.008438 0.003541 0.000000 0.064693 0.000000
# 6 0.000000 0.000000 0.000000 0.026892 0.000000 0.053906
#
#
# Mechanical properties :
#
#
# Convention : Reuss Voigt Hill
#
# Bulk Modulus (GPa) = 60.43553 73.48265 66.95909
# Shear Modulus (GPa) = 18.54939 24.28511 21.41725
#
# Velocity S-wave (km/s) = 3.09118 3.53696 3.32156
# Velocity P-wave (km/s) = 6.62366 7.38468 7.01450
#
# Compressibility (1/GPa) = 0.01654656
#
# Stress axis : x y z
#
# Youngs Moduli (GPa) = 96.18063 70.37041 46.80371
#
# Poissons Ratio (x) = 0.15663 0.12887
# Poissons Ratio (y) = 0.21408 0.45560
# Poissons Ratio (z) = 0.26483 0.68500
#
# Static dielectric constant tensor:
#      x y z
#    x 3.750680 0.000000 -0.117460 
#    y 0.000000 3.557880 0.000000 
#    z -0.117460 0.000000 3.579280 
# 
# 
# High freq. dielectric constant tensor:
#      x y z
#    x 1.769510 0.000000 0.000050 
#    y 0.000000 1.747500 0.000000 
#    z 0.000050 0.000000 1.749840 
# 
# From -- ./inp_files/5812.got.cif
#   From: 2010.06.25/outbox.cif.g09.slc.cpg/sg9_3_cif.got.tgz:5812.got - 2010.06.27 21:40:51.
