data_PCOD8054254
_publ_section_title
;
Structure prediction by ZEFSAII (Michael W. Deem and Ramdas Pophale) SiO2 
 PCOD8054254
Probable space group: C C
;
_chemical_formula_sum "Si O2"
_cell_formula_units_Z 32
_cell_length_a 8.648343
_cell_length_b 15.439039
_cell_length_c 23.435525
_cell_angle_alpha 90.000000
_cell_angle_beta 31.877681
_cell_angle_gamma 90.000000
_cell_volume 1652.533465
_symmetry_space_group_name_H-M "C C"
_symmetry_group_IT_number 9
_symmetry_cell_setting 'monoclinic'
loop_
_space_group_symop_operation_xyz
x,y,z
x,-y,1/2+z
1/2+x,1/2+y,z
1/2+x,1/2-y,1/2+z
loop_
_atom_site_type_symbol
_atom_site_label
_atom_site_fract_x
_atom_site_fract_y
_atom_site_fract_z
Si Si1 0.919820 0.975594 0.348330
Si Si2 0.390168 0.099460 0.079022
Si Si3 0.793383 0.364502 0.736806
Si Si4 0.290230 0.497932 0.762159
Si Si5 0.455662 0.149898 0.310434
Si Si6 0.209797 0.682082 0.793163
Si Si7 0.744529 0.316480 0.206281
Si Si8 0.375574 0.746630 0.500163
O O1 0.687355 0.945043 0.467129
O O2 0.182896 0.904347 0.261495
O O3 0.751229 0.986322 0.341494
O O4 0.035893 0.068244 0.332467
O O5 0.436842 0.106736 0.132511
O O6 0.348046 0.194298 0.065107
O O7 0.115674 0.038214 0.147682
O O8 0.003432 0.365306 0.726895
O O9 0.667709 0.266724 0.766604
O O10 0.203434 0.591155 0.760509
O O11 0.041932 0.433896 0.818434
O O12 0.658114 0.229722 0.268633
O O13 0.121312 0.172848 0.429670
O O14 0.537760 0.682866 0.715882
O O15 0.964404 0.689231 0.920213
O O16 0.080691 0.307761 0.081772
#
# Coordination Sequence:
#
# PCOD8054254 Si02
#       8
#     4   4   4   4   4   4   4   4
#     4  10  20  40  60  89 114 162 201 237 292 368
#     4  11  19  37  64  86 115 160 201 238 299 364
#     4   9  22  37  57  84 125 151 193 248 294 348
#     4  10  20  37  64  84 117 155 203 244 292 354
#     4  10  20  38  58  88 119 148 194 257 293 345
#     4   9  20  40  57  88 118 155 198 248 291 357
#     4   9  17  35  63  82 113 155 194 241 299 346
#     4  10  18  36  65  83 117 158 196 243 304 348
#
# _framework density 19.364204999999998
#
# number of rings (size 3 to 8) (size 9 to 14) (size 15 to 20)
#    0.000    2.500    5.000    0.000    0.000    6.000 
#    4.500    6.250   11.000    0.000    0.000    0.000 
#    0.000    0.000    0.000    0.000    0.000    0.000 
#
# Total GULP energy -198227.032365 kJ/mol
# GULP energy per Si atom -12389.189523 kJ/mol
# Density = 1.932013 g / cm^3
# Si number density = 19.364205 Si / 1000 Ang^3
#
#
#
# Elastic Constant Matrix: (Units=GPa)
#
#
# Indices 1 2 3 4 5 6 
#
# 1 45.2502 42.8497 41.4379 -0.1093 4.4435 0.0149
# 2 42.8497 181.6331 55.5211 -0.0865 -9.2728 -0.0197
# 3 41.4379 55.5211 130.5307 -0.3083 -11.8149 -0.1598
# 4 -0.1093 -0.0865 -0.3083 31.4254 0.0967 -1.7165
# 5 4.4435 -9.2728 -11.8149 0.0967 28.6902 0.0244
# 6 0.0149 -0.0197 -0.1598 -1.7165 0.0244 36.3409
#
#
#
# Elastic Compliance Matrix: (Units=1/GPa)
#
#
# Indices 1 2 3 4 5 6 
#
# 1 0.039671 -0.006677 -0.010912 0.000049 -0.012796 -0.000057
# 2 -0.006677 0.007478 -0.000778 -0.000020 0.003131 0.000000
# 3 -0.010912 -0.000778 0.012035 0.000061 0.006395 0.000056
# 4 0.000049 -0.000020 0.000061 0.031905 -0.000097 0.001507
# 5 -0.012796 0.003131 0.006395 -0.000097 0.040482 0.000003
# 6 -0.000057 0.000000 0.000056 0.001507 0.000003 0.027589
#
#
# Mechanical properties :
#
#
# Convention : Reuss Voigt Hill
#
# Bulk Modulus (GPa) = 44.54136 70.78128 57.66132
# Shear Modulus (GPa) = 24.58475 33.79832 29.19154
#
# Velocity S-wave (km/s) = 3.56701 4.18233 3.88687
# Velocity P-wave (km/s) = 6.32586 7.74303 7.07005
#
# Compressibility (1/GPa) = 0.02245105
#
# Stress axis : x y z
#
# Youngs Moduli (GPa) = 25.20714 133.71908 83.09002
#
# Poissons Ratio (x) = 0.89279 0.90670
# Poissons Ratio (y) = 0.16830 0.06465
# Poissons Ratio (z) = 0.27507 0.10404
#
# Static dielectric constant tensor:
#      x y z
#    x 3.205000 -0.000210 -0.000140 
#    y -0.000210 4.260770 0.000220 
#    z -0.000140 0.000220 3.354170 
# 
# 
# High freq. dielectric constant tensor:
#      x y z
#    x 1.714730 0.000000 -0.002850 
#    y 0.000000 1.779590 0.000000 
#    z -0.002850 0.000000 1.739970 
# 
# From -- ./inp_files/35061.got.cif
#   From: 2010.06.25/outbox.cif.g09.slc.cpg/sg9_18_cif.got.tgz:35061.got - 2010.06.27 21:40:51.
