data_PCOD8054741
_publ_section_title
;
Structure prediction by ZEFSAII (Michael W. Deem and Ramdas Pophale) SiO2 
 PCOD8054741
Probable space group: C C
;
_chemical_formula_sum "Si O2"
_cell_formula_units_Z 24
_cell_length_a 4.910568
_cell_length_b 14.399620
_cell_length_c 13.138016
_cell_angle_alpha 90.000000
_cell_angle_beta 102.465178
_cell_angle_gamma 90.000000
_cell_volume 907.094412
_symmetry_space_group_name_H-M "C C"
_symmetry_group_IT_number 9
_symmetry_cell_setting 'monoclinic'
loop_
_space_group_symop_operation_xyz
x,y,z
x,-y,1/2+z
1/2+x,1/2+y,z
1/2+x,1/2-y,1/2+z
loop_
_atom_site_type_symbol
_atom_site_label
_atom_site_fract_x
_atom_site_fract_y
_atom_site_fract_z
Si Si1 0.578870 0.115204 0.550820
Si Si2 0.764428 0.458090 0.438691
Si Si3 0.013466 0.143700 0.431415
Si Si4 0.647782 0.805374 0.719101
Si Si5 0.600210 0.406552 0.634324
Si Si6 0.268263 0.104666 0.718252
O O1 0.327998 0.178213 0.480257
O O2 0.550194 0.116465 0.672131
O O3 0.867205 0.153166 0.530579
O O4 0.537565 0.008680 0.508399
O O5 0.528283 0.536006 0.394241
O O6 0.646837 0.389374 0.517177
O O7 0.852668 0.406123 0.342877
O O8 0.844198 0.199590 0.334279
O O9 0.358312 0.859185 0.716906
O O10 0.583186 0.697805 0.689858
O O11 0.813964 0.856832 0.641917
O O12 0.588953 0.517253 0.659775
#
# Coordination Sequence:
#
# PCOD8054741 Si02
#       6
#     4   4   4   4   4   4
#     4   9  22  40  67  97 135 177 222 281 337 400
#     4   9  22  43  70  97 133 188 219 281 346 399
#     4  10  20  43  67  96 135 178 221 284 332 398
#     4  12  26  44  72 105 139 180 233 282 338 418
#     4  11  26  48  67 101 148 173 231 290 339 403
#     4  11  24  46  73 104 134 192 226 280 352 402
#
# _framework density 26.458106000000001
#
# number of rings (size 3 to 8) (size 9 to 14) (size 15 to 20)
#    1.000    0.667    1.667    2.000    4.667    5.333 
#    6.000    0.000    0.000    0.000    0.000    0.000 
#    0.000    0.000    0.000    0.000    0.000    0.000 
#
# Total GULP energy -148689.095814 kJ/mol
# GULP energy per Si atom -12390.757984 kJ/mol
# Density = 2.639789 g / cm^3
# Si number density = 26.458106 Si / 1000 Ang^3
#
#
#
# Elastic Constant Matrix: (Units=GPa)
#
#
# Indices 1 2 3 4 5 6 
#
# 1 72.8257 22.0878 -14.8569 0.0000 -9.8644 0.0000
# 2 22.0878 138.2477 21.4214 0.0000 -2.1312 0.0000
# 3 -14.8569 21.4214 134.1487 0.0000 -23.1280 0.0000
# 4 0.0000 0.0000 0.0000 22.9180 0.0000 -4.7395
# 5 -9.8644 -2.1312 -23.1280 0.0000 36.4897 0.0000
# 6 0.0000 0.0000 0.0000 -4.7395 0.0000 13.5131
#
#
#
# Elastic Compliance Matrix: (Units=1/GPa)
#
#
# Indices 1 2 3 4 5 6 
#
# 1 0.016189 -0.003010 0.003366 0.000000 0.006334 0.000000
# 2 -0.003010 0.007981 -0.001872 0.000000 -0.001534 0.000000
# 3 0.003366 -0.001872 0.009278 0.000000 0.006681 0.000000
# 4 0.000000 0.000000 0.000000 0.047046 0.000000 0.016501
# 5 0.006334 -0.001534 0.006681 0.000000 0.033262 0.000000
# 6 0.000000 0.000000 0.000000 0.016501 0.000000 0.079790
#
#
# Mechanical properties :
#
#
# Convention : Reuss Voigt Hill
#
# Bulk Modulus (GPa) = 32.87998 44.72519 38.80259
# Shear Modulus (GPa) = 24.18748 35.68880 29.93814
#
# Velocity S-wave (km/s) = 3.02682 3.67669 3.36747
# Velocity P-wave (km/s) = 4.96686 5.91312 5.46052
#
# Compressibility (1/GPa) = 0.03041364
#
# Stress axis : x y z
#
# Youngs Moduli (GPa) = 61.77028 125.30029 107.78178
#
# Poissons Ratio (x) = 0.37720 -0.36275
# Poissons Ratio (y) = 0.18595 0.20181
# Poissons Ratio (z) = -0.20790 0.23461
#
# Static dielectric constant tensor:
#      x y z
#    x 4.426130 0.000000 -0.310760 
#    y 0.000000 4.518570 0.000000 
#    z -0.310760 0.000000 4.654600 
# 
# 
# High freq. dielectric constant tensor:
#      x y z
#    x 2.049330 0.000000 -0.012460 
#    y 0.000000 2.034970 0.000000 
#    z -0.012460 0.000000 2.070860 
# 
# From -- ./inp_files/21765.got.cif
#   From: 2010.06.25/outbox.cif.g09.slc.cpg/sg9_11_cif.got.tgz:21765.got - 2010.06.27 21:40:51.
