data_PCOD8054648
_publ_section_title
;
Structure prediction by ZEFSAII (Michael W. Deem and Ramdas Pophale) SiO2 
 PCOD8054648
Probable space group: C C
;
_chemical_formula_sum "Si O2"
_cell_formula_units_Z 32
_cell_length_a 11.043334
_cell_length_b 11.190987
_cell_length_c 17.746409
_cell_angle_alpha 90.000000
_cell_angle_beta 47.426338
_cell_angle_gamma 90.000000
_cell_volume 1615.093527
_symmetry_space_group_name_H-M "C C"
_symmetry_group_IT_number 9
_symmetry_cell_setting 'monoclinic'
loop_
_space_group_symop_operation_xyz
x,y,z
x,-y,1/2+z
1/2+x,1/2+y,z
1/2+x,1/2-y,1/2+z
loop_
_atom_site_type_symbol
_atom_site_label
_atom_site_fract_x
_atom_site_fract_y
_atom_site_fract_z
Si Si1 0.287580 0.150729 0.371800
Si Si2 0.429533 0.345663 0.047903
Si Si3 0.684773 0.668505 0.086644
Si Si4 0.077929 0.965324 0.395659
Si Si5 0.819903 0.587745 0.523678
Si Si6 0.951431 0.847567 0.208015
Si Si7 0.609786 0.229536 0.462838
Si Si8 0.428746 0.428157 0.806893
O O1 0.368484 0.124106 0.418435
O O2 0.410873 0.231147 0.272848
O O3 0.109786 0.215596 0.459380
O O4 0.255029 0.027562 0.338834
O O5 0.294445 0.283796 0.054111
O O6 0.374853 0.337683 0.157337
O O7 0.445557 0.483425 0.012811
O O8 0.805355 0.554947 0.032596
O O9 0.555738 0.655268 0.208535
O O10 0.593809 0.691098 0.045367
O O11 0.096312 0.822510 0.398000
O O12 0.018073 0.004663 0.338429
O O13 0.647843 0.643550 0.622424
O O14 0.960810 0.635087 0.520374
O O15 0.867777 0.965268 0.278600
O O16 0.778856 0.155975 0.393340
#
# Coordination Sequence:
#
# PCOD8054648 Si02
#       8
#     4   4   4   4   4   4   4   4
#     4   9  18  37  64  87 121 168 203 256 311 358
#     4   9  20  38  66  87 123 169 200 266 312 362
#     4  11  22  44  62  92 129 160 218 259 311 377
#     4  10  20  40  63  91 129 164 209 260 305 372
#     4  10  23  39  63  91 128 168 203 266 308 370
#     4  10  20  40  61  94 125 160 218 252 311 378
#     4  12  23  42  67  91 131 168 207 260 319 368
#     4  11  24  38  64  93 126 169 208 263 311 377
#
# _framework density 19.813095000000001
#
# number of rings (size 3 to 8) (size 9 to 14) (size 15 to 20)
#    0.750    1.000    2.500    2.250    1.750    3.000 
#    0.000    1.250    0.000    0.000    0.000    0.000 
#    0.000    0.000    0.000    0.000    0.000    0.000 
#
# Total GULP energy -198307.689564 kJ/mol
# GULP energy per Si atom -12394.230598 kJ/mol
# Density = 1.976800 g / cm^3
# Si number density = 19.813095 Si / 1000 Ang^3
#
#
#
# Elastic Constant Matrix: (Units=GPa)
#
#
# Indices 1 2 3 4 5 6 
#
# 1 96.1462 44.5381 29.8035 0.0000 11.0930 0.0000
# 2 44.5381 87.5852 26.7066 0.0000 0.5197 0.0000
# 3 29.8035 26.7066 79.6694 0.0000 20.3011 0.0000
# 4 0.0000 0.0000 0.0000 30.2292 0.0000 0.2870
# 5 11.0930 0.5197 20.3011 0.0000 23.3131 0.0000
# 6 0.0000 0.0000 0.0000 0.2870 0.0000 35.2326
#
#
#
# Elastic Compliance Matrix: (Units=1/GPa)
#
#
# Indices 1 2 3 4 5 6 
#
# 1 0.014794 -0.006919 -0.001877 0.000000 -0.005251 0.000000
# 2 -0.006919 0.016316 -0.004662 0.000000 0.006988 0.000000
# 3 -0.001877 -0.004662 0.018715 0.000000 -0.015301 0.000000
# 4 0.000000 0.000000 0.000000 0.033083 0.000000 -0.000270
# 5 -0.005251 0.006988 -0.015301 0.000000 0.058561 0.000000
# 6 0.000000 0.000000 0.000000 -0.000270 0.000000 0.028385
#
#
# Mechanical properties :
#
#
# Convention : Reuss Voigt Hill
#
# Bulk Modulus (GPa) = 43.64958 51.72192 47.68575
# Shear Modulus (GPa) = 24.46115 28.57848 26.51981
#
# Velocity S-wave (km/s) = 3.51749 3.80202 3.66252
# Velocity P-wave (km/s) = 6.21092 6.74058 6.48116
#
# Compressibility (1/GPa) = 0.02290973
#
# Stress axis : x y z
#
# Youngs Moduli (GPa) = 67.59663 61.28966 53.43191
#
# Poissons Ratio (x) = 0.42408 0.10028
# Poissons Ratio (y) = 0.46772 0.24908
# Poissons Ratio (z) = 0.12686 0.28571
#
# Static dielectric constant tensor:
#      x y z
#    x 3.526600 0.000000 0.201600 
#    y 0.000000 3.483190 0.000000 
#    z 0.201600 0.000000 3.510420 
# 
# 
# High freq. dielectric constant tensor:
#      x y z
#    x 1.770830 0.000000 0.020600 
#    y 0.000000 1.767630 0.000000 
#    z 0.020600 0.000000 1.763840 
# 
# From -- ./inp_files/30019.got.cif
#   From: 2010.06.25/outbox.cif.g09.slc.cpg/sg9_16_cif.got.tgz:30019.got - 2010.06.27 21:40:51.
