data_PCOD8054916
_publ_section_title
;
Structure prediction by ZEFSAII (Michael W. Deem and Ramdas Pophale) SiO2 
 PCOD8054916
Probable space group: C C
;
_chemical_formula_sum "Si O2"
_cell_formula_units_Z 24
_cell_length_a 6.513691
_cell_length_b 14.879100
_cell_length_c 13.487912
_cell_angle_alpha 90.000000
_cell_angle_beta 120.613149
_cell_angle_gamma 90.000000
_cell_volume 1125.026076
_symmetry_space_group_name_H-M "C C"
_symmetry_group_IT_number 9
_symmetry_cell_setting 'monoclinic'
loop_
_space_group_symop_operation_xyz
x,y,z
x,-y,1/2+z
1/2+x,1/2+y,z
1/2+x,1/2-y,1/2+z
loop_
_atom_site_type_symbol
_atom_site_label
_atom_site_fract_x
_atom_site_fract_y
_atom_site_fract_z
Si Si1 0.836470 0.556543 0.705350
Si Si2 0.668303 0.139904 0.943868
Si Si3 0.775590 0.332244 0.011928
Si Si4 0.160621 0.198030 0.111019
Si Si5 0.106370 0.912936 0.780395
Si Si6 0.061868 0.405252 0.627801
O O1 0.704336 0.629967 0.603466
O O2 0.659348 0.509050 0.740254
O O3 0.055464 0.603845 0.815558
O O4 0.939132 0.488019 0.650629
O O5 0.607623 0.245831 0.947486
O O6 0.564550 0.082042 0.010008
O O7 0.957884 0.130468 0.013603
O O8 0.056312 0.299754 0.081615
O O9 0.742802 0.407230 0.918798
O O10 0.201332 0.168479 0.235224
O O11 0.410703 0.185691 0.115540
O O12 0.828752 0.897513 0.734306
#
# Coordination Sequence:
#
# PCOD8054916 Si02
#       6
#     4   4   4   4   4   4
#     4  11  22  39  63  90 125 164 206 260 318 369
#     4   9  21  38  62  91 121 157 213 260 307 368
#     4  10  21  42  65  85 128 162 209 267 303 368
#     4   8  20  40  63  86 123 159 210 260 304 364
#     4  10  21  40  61  93 127 159 207 257 314 378
#     4  10  21  41  62  89 126 163 207 256 320 375
#
# _framework density 21.332839
#
# number of rings (size 3 to 8) (size 9 to 14) (size 15 to 20)
#    1.000    1.333    0.000    2.000    0.000    5.333 
#    9.000    0.000    0.000    0.000    0.000    0.000 
#    0.000    0.000    0.000    0.000    0.000    0.000 
#
# Total GULP energy -148668.997829 kJ/mol
# GULP energy per Si atom -12389.083152 kJ/mol
# Density = 2.128428 g / cm^3
# Si number density = 21.332839 Si / 1000 Ang^3
#
#
#
# Elastic Constant Matrix: (Units=GPa)
#
#
# Indices 1 2 3 4 5 6 
#
# 1 107.1027 30.7375 30.7399 0.0000 2.6797 0.0000
# 2 30.7375 83.1110 43.7839 0.0000 -2.3627 0.0000
# 3 30.7399 43.7839 144.4549 0.0000 -6.6407 0.0000
# 4 0.0000 0.0000 0.0000 39.4197 0.0000 -0.5561
# 5 2.6797 -2.3627 -6.6407 0.0000 13.8038 0.0000
# 6 0.0000 0.0000 0.0000 -0.5561 0.0000 24.2508
#
#
#
# Elastic Compliance Matrix: (Units=1/GPa)
#
#
# Indices 1 2 3 4 5 6 
#
# 1 0.010789 -0.003326 -0.001442 0.000000 -0.003358 0.000000
# 2 -0.003326 0.015346 -0.003879 0.000000 0.001406 0.000000
# 3 -0.001442 -0.003879 0.008577 0.000000 0.003742 0.000000
# 4 0.000000 0.000000 0.000000 0.025376 0.000000 0.000582
# 5 -0.003358 0.001406 0.003742 0.000000 0.075137 0.000000
# 6 0.000000 0.000000 0.000000 0.000582 0.000000 0.041249
#
#
# Mechanical properties :
#
#
# Convention : Reuss Voigt Hill
#
# Bulk Modulus (GPa) = 57.41159 60.57680 58.99420
# Shear Modulus (GPa) = 25.05335 30.78868 27.92101
#
# Velocity S-wave (km/s) = 3.43067 3.80314 3.62170
# Velocity P-wave (km/s) = 6.53173 6.90962 6.72333
#
# Compressibility (1/GPa) = 0.01741809
#
# Stress axis : x y z
#
# Youngs Moduli (GPa) = 92.68449 65.16551 116.58853
#
# Poissons Ratio (x) = 0.21674 0.16815
# Poissons Ratio (y) = 0.30826 0.45222
# Poissons Ratio (z) = 0.13367 0.25276
#
# Static dielectric constant tensor:
#      x y z
#    x 3.646240 0.000000 -0.082970 
#    y 0.000000 3.715600 0.000000 
#    z -0.082970 0.000000 3.800130 
# 
# 
# High freq. dielectric constant tensor:
#      x y z
#    x 1.810690 0.000000 -0.006850 
#    y 0.000000 1.820710 0.000000 
#    z -0.006850 0.000000 1.842990 
# 
# From -- ./inp_files/13030.got.cif
#   From: 2010.06.25/outbox.cif.g09.slc.cpg/sg9_7_cif.got.tgz:13030.got - 2010.06.27 21:40:51.
