data_PCOD8054497
_publ_section_title
;
Structure prediction by ZEFSAII (Michael W. Deem and Ramdas Pophale) SiO2 
 PCOD8054497
Probable space group: C C
;
_chemical_formula_sum "Si O2"
_cell_formula_units_Z 32
_cell_length_a 9.423415
_cell_length_b 30.719910
_cell_length_c 5.056742
_cell_angle_alpha 90.000000
_cell_angle_beta 78.035936
_cell_angle_gamma 90.000000
_cell_volume 1432.060136
_symmetry_space_group_name_H-M "C C"
_symmetry_group_IT_number 9
_symmetry_cell_setting 'monoclinic'
loop_
_space_group_symop_operation_xyz
x,y,z
x,-y,1/2+z
1/2+x,1/2+y,z
1/2+x,1/2-y,1/2+z
loop_
_atom_site_type_symbol
_atom_site_label
_atom_site_fract_x
_atom_site_fract_y
_atom_site_fract_z
Si Si1 0.876150 0.829936 0.993460
Si Si2 0.443680 0.275395 0.467138
Si Si3 0.221512 0.027049 0.611959
Si Si4 0.585328 0.877216 0.966115
Si Si5 0.402584 0.857940 0.534527
Si Si6 0.063878 0.526757 0.461827
Si Si7 0.650830 0.618588 0.461764
Si Si8 0.757775 0.297258 0.233137
O O1 0.921009 0.793175 0.770141
O O2 0.717406 0.847249 0.998224
O O3 0.989796 0.869586 0.926797
O O4 0.874998 0.808661 0.284062
O O5 0.615718 0.268606 0.355181
O O6 0.361600 0.229058 0.491902
O O7 0.392478 0.034512 0.518332
O O8 0.141513 0.073413 0.621558
O O9 0.170532 0.993908 0.404749
O O10 0.511827 0.854723 0.739882
O O11 0.637589 0.926277 0.882062
O O12 0.475623 0.881433 0.255702
O O13 0.261581 0.886670 0.671526
O O14 0.347491 0.809743 0.465065
O O15 0.115815 0.506585 0.717249
O O16 0.711387 0.657511 0.619044
#
# Coordination Sequence:
#
# PCOD8054497 Si02
#       8
#     4   4   4   4   4   4   4   4
#     4  11  27  48  66  98 141 185 220 289 339 413
#     4  11  27  45  71  98 137 174 237 277 346 392
#     4  10  22  36  65 103 130 169 227 286 330 402
#     4  12  25  42  68 102 134 183 233 276 345 414
#     4  12  23  41  71  99 129 178 229 279 333 407
#     4  10  20  35  60  95 135 172 220 287 336 400
#     4  11  24  47  70  99 140 181 226 278 357 398
#     4  11  26  46  73 102 134 186 222 296 336 414
#
# _framework density 22.34543
#
# number of rings (size 3 to 8) (size 9 to 14) (size 15 to 20)
#    0.000    1.000    3.750    1.500    8.750    1.000 
#    2.250    1.250    0.000    0.000    0.000    0.000 
#    0.000    0.000    0.000    0.000    0.000    0.000 
#
# Total GULP energy -198444.253575 kJ/mol
# GULP energy per Si atom -12402.765848 kJ/mol
# Density = 2.229457 g / cm^3
# Si number density = 22.345430 Si / 1000 Ang^3
#
#
#
# Elastic Constant Matrix: (Units=GPa)
#
#
# Indices 1 2 3 4 5 6 
#
# 1 92.4131 48.2442 31.2100 0.0000 4.8128 0.0000
# 2 48.2442 103.9484 16.1736 0.0000 -2.3369 0.0000
# 3 31.2100 16.1736 86.7709 0.0000 8.3781 0.0000
# 4 0.0000 0.0000 0.0000 34.1799 0.0000 6.9066
# 5 4.8128 -2.3369 8.3781 0.0000 30.7295 0.0000
# 6 0.0000 0.0000 0.0000 6.9066 0.0000 22.1674
#
#
#
# Elastic Compliance Matrix: (Units=1/GPa)
#
#
# Indices 1 2 3 4 5 6 
#
# 1 0.015884 -0.006748 -0.004278 0.000000 -0.001834 0.000000
# 2 -0.006748 0.012824 -0.000164 0.000000 0.002077 0.000000
# 3 -0.004278 -0.000164 0.013383 0.000000 -0.002991 0.000000
# 4 0.000000 0.000000 0.000000 0.031223 0.000000 -0.009728
# 5 -0.001834 0.002077 -0.002991 0.000000 0.033803 0.000000
# 6 0.000000 0.000000 0.000000 -0.009728 0.000000 0.048142
#
#
# Mechanical properties :
#
#
# Convention : Reuss Voigt Hill
#
# Bulk Modulus (GPa) = 50.73258 52.70977 51.72117
# Shear Modulus (GPa) = 27.14320 29.91568 28.52944
#
# Velocity S-wave (km/s) = 3.48905 3.66291 3.57703
# Velocity P-wave (km/s) = 6.24375 6.44430 6.34482
#
# Compressibility (1/GPa) = 0.01971120
#
# Stress axis : x y z
#
# Youngs Moduli (GPa) = 62.95652 77.97876 74.72279
#
# Poissons Ratio (x) = 0.52617 0.31969
# Poissons Ratio (y) = 0.42480 0.01224
# Poissons Ratio (z) = 0.26935 0.01278
#
# Static dielectric constant tensor:
#      x y z
#    x 4.023790 0.000000 0.073800 
#    y 0.000000 3.921840 0.000000 
#    z 0.073800 0.000000 4.202050 
# 
# 
# High freq. dielectric constant tensor:
#      x y z
#    x 1.862890 0.000000 0.015730 
#    y 0.000000 1.880350 0.000000 
#    z 0.015730 0.000000 1.887680 
# 
# From -- ./inp_files/1378.got.cif
#   From: 2010.06.25/outbox.cif.g09.slc.cpg/sg9_1_cif.got.tgz:1378.got - 2010.06.27 21:40:51.
