data_PCOD8054687
_publ_section_title
;
Structure prediction by ZEFSAII (Michael W. Deem and Ramdas Pophale) SiO2 
 PCOD8054687
Probable space group: C C
;
_chemical_formula_sum "Si O2"
_cell_formula_units_Z 24
_cell_length_a 21.730681
_cell_length_b 6.017388
_cell_length_c 12.932630
_cell_angle_alpha 90.000000
_cell_angle_beta 139.954581
_cell_angle_gamma 90.000000
_cell_volume 1088.041991
_symmetry_space_group_name_H-M "C C"
_symmetry_group_IT_number 9
_symmetry_cell_setting 'monoclinic'
loop_
_space_group_symop_operation_xyz
x,y,z
x,-y,1/2+z
1/2+x,1/2+y,z
1/2+x,1/2-y,1/2+z
loop_
_atom_site_type_symbol
_atom_site_label
_atom_site_fract_x
_atom_site_fract_y
_atom_site_fract_z
Si Si1 0.816670 0.396399 0.176920
Si Si2 0.411307 0.421820 0.969182
Si Si3 0.480220 0.805390 0.917551
Si Si4 0.256994 0.391907 0.408035
Si Si5 0.662220 0.430387 0.622511
Si Si6 0.092849 0.684429 0.174560
O O1 0.859320 0.234603 0.318800
O O2 0.892042 0.589238 0.239940
O O3 0.720540 0.513578 0.094307
O O4 0.792154 0.264662 0.043264
O O5 0.435018 0.661352 0.951753
O O6 0.345391 0.456359 0.984278
O O7 0.511768 0.311814 0.137186
O O8 0.556159 0.655302 0.951027
O O9 0.539137 0.010737 0.034792
O O10 0.218873 0.253396 0.261351
O O11 0.172693 0.552575 0.344432
O O12 0.651133 0.648877 0.676845
#
# Coordination Sequence:
#
# PCOD8054687 Si02
#       6
#     4   4   4   4   4   4
#     4  11  22  39  68  98 126 175 223 264 335 396
#     4  10  20  41  65  91 136 165 214 284 324 388
#     4   9  20  40  64  91 129 172 209 277 336 372
#     4  11  22  39  68  98 126 175 223 264 335 396
#     4  10  20  41  65  91 136 165 214 284 324 388
#     4   9  20  40  64  91 129 172 209 277 336 372
#
# _framework density 22.057970999999998
#
# number of rings (size 3 to 8) (size 9 to 14) (size 15 to 20)
#    0.000    2.000    3.333    0.000    0.000    1.333 
#    0.000   18.333    0.000    0.000    0.000    0.000 
#    0.000    0.000    0.000    0.000    0.000    0.000 
#
# Total GULP energy -148722.614169 kJ/mol
# GULP energy per Si atom -12393.551181 kJ/mol
# Density = 2.200777 g / cm^3
# Si number density = 22.057971 Si / 1000 Ang^3
#
#
#
# Elastic Constant Matrix: (Units=GPa)
#
#
# Indices 1 2 3 4 5 6 
#
# 1 112.5524 35.2604 71.0966 0.0000 27.1353 0.0000
# 2 35.2604 90.3747 37.9853 0.0000 17.9104 0.0000
# 3 71.0966 37.9853 97.8895 0.0000 28.1458 0.0000
# 4 0.0000 0.0000 0.0000 45.0870 0.0000 8.1223
# 5 27.1353 17.9104 28.1458 0.0000 33.6356 0.0000
# 6 0.0000 0.0000 0.0000 8.1223 0.0000 37.5954
#
#
#
# Elastic Compliance Matrix: (Units=1/GPa)
#
#
# Indices 1 2 3 4 5 6 
#
# 1 0.017036 -0.001350 -0.010672 0.000000 -0.004095 0.000000
# 2 -0.001350 0.013671 -0.003351 0.000000 -0.003387 0.000000
# 3 -0.010672 -0.003351 0.021436 0.000000 -0.007543 0.000000
# 4 0.000000 0.000000 0.000000 0.023078 0.000000 -0.004986
# 5 -0.004095 -0.003387 -0.007543 0.000000 0.041149 0.000000
# 6 0.000000 0.000000 0.000000 -0.004986 0.000000 0.027676
#
#
# Mechanical properties :
#
#
# Convention : Reuss Voigt Hill
#
# Bulk Modulus (GPa) = 46.73392 65.50014 56.11703
# Shear Modulus (GPa) = 27.48391 33.69522 30.58956
#
# Velocity S-wave (km/s) = 3.53368 3.91266 3.72799
# Velocity P-wave (km/s) = 6.15484 7.08314 6.63525
#
# Compressibility (1/GPa) = 0.02139773
#
# Stress axis : x y z
#
# Youngs Moduli (GPa) = 58.69873 73.14612 46.65058
#
# Poissons Ratio (x) = 0.09872 0.49786
# Poissons Ratio (y) = 0.07922 0.15632
# Poissons Ratio (z) = 0.62644 0.24511
#
# Static dielectric constant tensor:
#      x y z
#    x 3.889580 0.000000 0.818230 
#    y 0.000000 4.550580 0.000000 
#    z 0.818230 0.000000 4.191800 
# 
# 
# High freq. dielectric constant tensor:
#      x y z
#    x 1.843850 0.000000 0.050580 
#    y 0.000000 1.894430 0.000000 
#    z 0.050580 0.000000 1.860300 
# 
# From -- ./inp_files/18785.got.cif
#   From: 2010.06.25/outbox.cif.g09.slc.cpg/sg9_10_cif.got.tgz:18785.got - 2010.06.27 21:40:51.
