data_PCOD8054216
_publ_section_title
;
Structure prediction by ZEFSAII (Michael W. Deem and Ramdas Pophale) SiO2 
 PCOD8054216
Probable space group: C C
;
_chemical_formula_sum "Si O2"
_cell_formula_units_Z 28
_cell_length_a 11.146636
_cell_length_b 16.625705
_cell_length_c 11.187634
_cell_angle_alpha 90.000000
_cell_angle_beta 131.136170
_cell_angle_gamma 90.000000
_cell_volume 1561.502239
_symmetry_space_group_name_H-M "C C"
_symmetry_group_IT_number 9
_symmetry_cell_setting 'monoclinic'
loop_
_space_group_symop_operation_xyz
x,y,z
x,-y,1/2+z
1/2+x,1/2+y,z
1/2+x,1/2-y,1/2+z
loop_
_atom_site_type_symbol
_atom_site_label
_atom_site_fract_x
_atom_site_fract_y
_atom_site_fract_z
Si Si1 0.260720 0.409792 0.566760
Si Si2 0.582510 0.432374 0.874096
Si Si3 0.712807 0.833688 0.292598
Si Si4 0.979303 0.154830 0.531333
Si Si5 0.878530 0.927663 0.198094
Si Si6 0.751904 0.234487 0.202710
Si Si7 0.852355 0.686319 0.525457
O O1 0.449992 0.385997 0.705418
O O2 0.204143 0.398561 0.394086
O O3 0.241677 0.502542 0.596902
O O4 0.170597 0.347766 0.596708
O O5 0.551912 0.528783 0.835474
O O6 0.547071 0.415468 0.990806
O O7 0.756266 0.398904 0.950949
O O8 0.835234 0.866194 0.273981
O O9 0.777152 0.748286 0.381190
O O10 0.538087 0.826964 0.119098
O O11 0.879864 0.118260 0.573961
O O12 0.874102 0.216484 0.387028
O O13 0.121015 0.208662 0.677185
O O14 0.836689 0.280904 0.149140
#
# Coordination Sequence:
#
# PCOD8054216 Si02
#       7
#     4   4   4   4   4   4   4
#     4   8  17  33  56  74 101 141 179 217 260 315
#     4   8  18  36  57  78  97 144 186 220 262 312
#     4  11  20  34  56  83 111 141 182 220 269 321
#     4  10  18  33  54  77 105 136 179 213 266 318
#     4  10  21  33  57  78 112 144 166 222 285 317
#     4   9  17  32  55  78  97 136 182 221 249 311
#     4  10  19  35  59  82 103 142 190 225 253 320
#
# _framework density 17.931450000000002
#
# number of rings (size 3 to 8) (size 9 to 14) (size 15 to 20)
#    0.857    1.714    0.000    5.143    0.000    1.143 
#    0.000    4.286    0.000    0.000    0.000    0.000 
#    0.000    0.000    0.000    0.000    0.000    0.000 
#
# Total GULP energy -173439.579509 kJ/mol
# GULP energy per Si atom -12388.541394 kJ/mol
# Density = 1.789064 g / cm^3
# Si number density = 17.931450 Si / 1000 Ang^3
#
#
#
# Elastic Constant Matrix: (Units=GPa)
#
#
# Indices 1 2 3 4 5 6 
#
# 1 54.5653 40.5139 30.2182 0.0000 2.9280 0.0000
# 2 40.5139 69.6798 24.3390 0.0000 4.6412 0.0000
# 3 30.2182 24.3390 66.9831 0.0000 9.5530 0.0000
# 4 0.0000 0.0000 0.0000 18.5827 0.0000 4.9513
# 5 2.9280 4.6412 9.5530 0.0000 21.3758 0.0000
# 6 0.0000 0.0000 0.0000 4.9513 0.0000 20.4245
#
#
#
# Elastic Compliance Matrix: (Units=1/GPa)
#
#
# Indices 1 2 3 4 5 6 
#
# 1 0.037872 -0.018456 -0.010906 0.000000 0.003693 0.000000
# 2 -0.018456 0.025451 -0.000528 0.000000 -0.002762 0.000000
# 3 -0.010906 -0.000528 0.021160 0.000000 -0.007848 0.000000
# 4 0.000000 0.000000 0.000000 0.057530 0.000000 -0.013946
# 5 0.003693 -0.002762 -0.007848 0.000000 0.050383 0.000000
# 6 0.000000 0.000000 0.000000 -0.013946 0.000000 0.052342
#
#
# Mechanical properties :
#
#
# Convention : Reuss Voigt Hill
#
# Bulk Modulus (GPa) = 40.48052 42.37450 41.42751
# Shear Modulus (GPa) = 15.98720 18.48704 17.23712
#
# Velocity S-wave (km/s) = 2.98916 3.21438 3.10381
# Velocity P-wave (km/s) = 5.87687 6.12037 5.99986
#
# Compressibility (1/GPa) = 0.02470324
#
# Stress axis : x y z
#
# Youngs Moduli (GPa) = 26.40501 39.29156 47.25898
#
# Poissons Ratio (x) = 0.72518 0.51538
# Poissons Ratio (y) = 0.48734 0.02493
# Poissons Ratio (z) = 0.28796 0.02073
#
# Static dielectric constant tensor:
#      x y z
#    x 2.945820 0.000000 0.021110 
#    y 0.000000 3.293040 0.000000 
#    z 0.021110 0.000000 3.215290 
# 
# 
# High freq. dielectric constant tensor:
#      x y z
#    x 1.652520 0.000000 -0.005120 
#    y 0.000000 1.689940 0.000000 
#    z -0.005120 0.000000 1.688680 
# 
# From -- ./inp_files/16965.got.cif
#   From: 2010.06.25/outbox.cif.g09.slc.cpg/sg9_9_cif.got.tgz:16965.got - 2010.06.27 21:40:51.
