data_PCOD8054571
_publ_section_title
;
Structure prediction by ZEFSAII (Michael W. Deem and Ramdas Pophale) SiO2 
 PCOD8054571
Probable space group: C C
;
_chemical_formula_sum "Si O2"
_cell_formula_units_Z 24
_cell_length_a 8.869668
_cell_length_b 23.739785
_cell_length_c 5.276813
_cell_angle_alpha 90.000000
_cell_angle_beta 85.645646
_cell_angle_gamma 90.000000
_cell_volume 1107.899764
_symmetry_space_group_name_H-M "C C"
_symmetry_group_IT_number 9
_symmetry_cell_setting 'monoclinic'
loop_
_space_group_symop_operation_xyz
x,y,z
x,-y,1/2+z
1/2+x,1/2+y,z
1/2+x,1/2-y,1/2+z
loop_
_atom_site_type_symbol
_atom_site_label
_atom_site_fract_x
_atom_site_fract_y
_atom_site_fract_z
Si Si1 0.609430 0.940554 0.611590
Si Si2 0.097112 0.229115 0.627446
Si Si3 0.738052 0.935150 0.093175
Si Si4 0.257004 0.965986 0.649774
Si Si5 0.029178 0.879836 0.885918
Si Si6 0.428714 0.726264 0.157713
O O1 0.668972 0.906651 0.357204
O O2 0.432504 0.951031 0.625111
O O3 0.705188 0.998457 0.616794
O O4 0.649185 0.907531 0.865193
O O5 0.106918 0.161161 0.585153
O O6 0.260951 0.255173 0.621448
O O7 0.001674 0.255498 0.401529
O O8 0.021227 0.244909 0.900844
O O9 0.916835 0.923403 0.042201
O O10 0.158504 0.910685 0.709330
O O11 0.216696 0.990503 0.379571
O O12 0.934488 0.841456 0.698803
#
# Coordination Sequence:
#
# PCOD8054571 Si02
#       6
#     4   4   4   4   4   4
#     4  10  20  40  59  84 134 177 216 258 317 376
#     4  10  23  47  70  98 136 172 227 287 350 401
#     4  10  20  38  58  91 124 173 217 260 312 390
#     4  12  24  42  61  96 139 182 217 272 322 398
#     4  10  28  38  72 100 135 171 233 269 346 397
#     4  10  23  47  70  99 134 175 224 290 347 404
#
# _framework density 21.662609
#
# number of rings (size 3 to 8) (size 9 to 14) (size 15 to 20)
#    1.000    0.667    3.333    1.000    9.333    0.000 
#    3.000    0.000    0.000    0.000    0.000    0.000 
#    0.000    0.000    0.000    0.000    0.000    0.000 
#
# Total GULP energy -148684.990285 kJ/mol
# GULP energy per Si atom -12390.415857 kJ/mol
# Density = 2.161330 g / cm^3
# Si number density = 21.662609 Si / 1000 Ang^3
#
#
#
# Elastic Constant Matrix: (Units=GPa)
#
#
# Indices 1 2 3 4 5 6 
#
# 1 75.5502 47.2421 -1.7432 0.0000 -8.5873 0.0000
# 2 47.2421 53.0084 3.7667 0.0000 -14.5062 0.0000
# 3 -1.7432 3.7667 150.2241 0.0000 4.4070 0.0000
# 4 0.0000 0.0000 0.0000 8.5969 0.0000 3.4985
# 5 -8.5873 -14.5062 4.4070 0.0000 43.9817 0.0000
# 6 0.0000 0.0000 0.0000 3.4985 0.0000 37.6462
#
#
#
# Elastic Compliance Matrix: (Units=1/GPa)
#
#
# Indices 1 2 3 4 5 6 
#
# 1 0.030526 -0.028237 0.001164 0.000000 -0.003470 0.000000
# 2 -0.028237 0.046936 -0.001802 0.000000 0.010148 0.000000
# 3 0.001164 -0.001802 0.006746 0.000000 -0.001043 0.000000
# 4 0.000000 0.000000 0.000000 0.120893 0.000000 -0.011235
# 5 -0.003470 0.010148 -0.001043 0.000000 0.025511 0.000000
# 6 0.000000 0.000000 0.000000 -0.011235 0.000000 0.027607
#
#
# Mechanical properties :
#
#
# Convention : Reuss Voigt Hill
#
# Bulk Modulus (GPa) = 37.79819 41.92378 39.86098
# Shear Modulus (GPa) = 15.39466 33.34612 24.37039
#
# Velocity S-wave (km/s) = 2.66870 3.92770 3.35774
# Velocity P-wave (km/s) = 5.19446 6.32172 5.78561
#
# Compressibility (1/GPa) = 0.02645629
#
# Stress axis : x y z
#
# Youngs Moduli (GPa) = 32.75924 21.30575 148.23564
#
# Poissons Ratio (x) = 0.60162 -0.17255
# Poissons Ratio (y) = 0.92504 0.26715
# Poissons Ratio (z) = -0.03813 0.03840
#
# Static dielectric constant tensor:
#      x y z
#    x 3.743130 0.000000 0.188850 
#    y 0.000000 3.498610 0.000000 
#    z 0.188850 0.000000 5.279820 
# 
# 
# High freq. dielectric constant tensor:
#      x y z
#    x 1.851840 0.000000 -0.001530 
#    y 0.000000 1.804330 0.000000 
#    z -0.001530 0.000000 1.881240 
# 
# From -- ./inp_files/1102.got.cif
#   From: 2010.06.25/outbox.cif.g09.slc.cpg/sg9_1_cif.got.tgz:1102.got - 2010.06.27 21:40:51.
