data_PCOD8054593
_publ_section_title
;
Structure prediction by ZEFSAII (Michael W. Deem and Ramdas Pophale) SiO2 
 PCOD8054593
Probable space group: C C
;
_chemical_formula_sum "Si O2"
_cell_formula_units_Z 32
_cell_length_a 14.361474
_cell_length_b 17.499015
_cell_length_c 8.525778
_cell_angle_alpha 90.000000
_cell_angle_beta 141.322930
_cell_angle_gamma 90.000000
_cell_volume 1338.992685
_symmetry_space_group_name_H-M "C C"
_symmetry_group_IT_number 9
_symmetry_cell_setting 'monoclinic'
loop_
_space_group_symop_operation_xyz
x,y,z
x,-y,1/2+z
1/2+x,1/2+y,z
1/2+x,1/2-y,1/2+z
loop_
_atom_site_type_symbol
_atom_site_label
_atom_site_fract_x
_atom_site_fract_y
_atom_site_fract_z
Si Si1 0.143620 0.545229 0.657680
Si Si2 0.126511 0.290251 0.123638
Si Si3 0.288327 0.385182 0.854741
Si Si4 0.079856 0.156240 0.578942
Si Si5 0.937209 0.514522 0.111265
Si Si6 0.307002 0.763026 0.591964
Si Si7 0.535744 0.197664 0.844160
Si Si8 0.797061 0.408969 0.144165
O O1 0.216915 0.629011 0.758259
O O2 0.246846 0.473135 0.845534
O O3 0.077901 0.539773 0.397547
O O4 0.004270 0.554841 0.594926
O O5 0.240531 0.235163 0.182039
O O6 0.078380 0.263240 0.233995
O O7 0.976642 0.292425 0.819558
O O8 0.168407 0.359242 0.568127
O O9 0.452916 0.392370 0.997132
O O10 0.293274 0.323645 0.003631
O O11 0.009912 0.236368 0.437069
O O12 0.133153 0.112171 0.489983
O O13 0.220315 0.173579 0.876238
O O14 0.797883 0.485139 0.035347
O O15 0.893180 0.579861 0.930154
O O16 0.376052 0.155575 0.642248
#
# Coordination Sequence:
#
# PCOD8054593 Si02
#       8
#     4   4   4   4   4   4   4   4
#     4  11  20  38  68  95 135 173 243 286 345 417
#     4  12  25  41  69 109 138 185 244 304 353 423
#     4  11  22  44  68 104 136 194 235 290 367 429
#     4  11  25  42  67  99 143 186 228 291 362 433
#     4  10  20  38  66  95 118 184 229 281 333 424
#     4  11  25  44  69 105 145 186 244 299 358 436
#     4  11  23  40  70  97 137 190 238 284 352 436
#     4  11  22  43  67  98 132 180 235 285 348 428
#
# _framework density 23.898561999999998
#
# number of rings (size 3 to 8) (size 9 to 14) (size 15 to 20)
#    0.000    1.000    5.000    3.000    7.000    0.000 
#    0.000    3.750    2.750    0.000    0.000    0.000 
#    0.000    0.000    0.000    0.000    0.000    0.000 
#
# Total GULP energy -198221.398881 kJ/mol
# GULP energy per Si atom -12388.837430 kJ/mol
# Density = 2.384417 g / cm^3
# Si number density = 23.898562 Si / 1000 Ang^3
#
#
#
# Elastic Constant Matrix: (Units=GPa)
#
#
# Indices 1 2 3 4 5 6 
#
# 1 153.3237 27.0275 12.0213 0.0000 4.2298 0.0000
# 2 27.0275 71.3228 5.6300 0.0000 5.2356 0.0000
# 3 12.0213 5.6300 39.5579 0.0000 1.3616 0.0000
# 4 0.0000 0.0000 0.0000 18.4550 0.0000 4.0095
# 5 4.2298 5.2356 1.3616 0.0000 41.2064 0.0000
# 6 0.0000 0.0000 0.0000 4.0095 0.0000 36.8563
#
#
#
# Elastic Compliance Matrix: (Units=1/GPa)
#
#
# Indices 1 2 3 4 5 6 
#
# 1 0.007118 -0.002530 -0.001791 0.000000 -0.000350 0.000000
# 2 -0.002530 0.015205 -0.001339 0.000000 -0.001628 0.000000
# 3 -0.001791 -0.001339 0.026032 0.000000 -0.000506 0.000000
# 4 0.000000 0.000000 0.000000 0.055498 0.000000 -0.006037
# 5 -0.000350 -0.001628 -0.000506 0.000000 0.024528 0.000000
# 6 0.000000 0.000000 0.000000 -0.006037 0.000000 0.027789
#
#
# Mechanical properties :
#
#
# Convention : Reuss Voigt Hill
#
# Bulk Modulus (GPa) = 27.00223 39.28468 33.14345
# Shear Modulus (GPa) = 27.80334 33.93858 30.87096
#
# Velocity S-wave (km/s) = 3.41455 3.77252 3.59799
# Velocity P-wave (km/s) = 5.18351 5.95396 5.58204
#
# Compressibility (1/GPa) = 0.03703398
#
# Stress axis : x y z
#
# Youngs Moduli (GPa) = 140.48353 65.76856 38.41475
#
# Poissons Ratio (x) = 0.16642 0.06880
# Poissons Ratio (y) = 0.35548 0.05144
# Poissons Ratio (z) = 0.25161 0.08807
#
# Static dielectric constant tensor:
#      x y z
#    x 4.564280 0.000000 -0.190280 
#    y 0.000000 4.131070 0.000000 
#    z -0.190280 0.000000 4.020030 
# 
# 
# High freq. dielectric constant tensor:
#      x y z
#    x 1.967700 0.000000 -0.020180 
#    y 0.000000 1.934080 0.000000 
#    z -0.020180 0.000000 1.913690 
# 
# From -- ./inp_files/9933.got.cif
#   From: 2010.06.25/outbox.cif.g09.slc.cpg/sg9_5_cif.got.tgz:9933.got - 2010.06.27 21:40:51.
