data_PCOD8054951
_publ_section_title
;
Structure prediction by ZEFSAII (Michael W. Deem and Ramdas Pophale) SiO2 
 PCOD8054951
Probable space group: C C
;
_chemical_formula_sum "Si O2"
_cell_formula_units_Z 20
_cell_length_a 9.281463
_cell_length_b 17.083434
_cell_length_c 5.044281
_cell_angle_alpha 90.000000
_cell_angle_beta 84.435615
_cell_angle_gamma 90.000000
_cell_volume 796.048618
_symmetry_space_group_name_H-M "C C"
_symmetry_group_IT_number 9
_symmetry_cell_setting 'monoclinic'
loop_
_space_group_symop_operation_xyz
x,y,z
x,-y,1/2+z
1/2+x,1/2+y,z
1/2+x,1/2-y,1/2+z
loop_
_atom_site_type_symbol
_atom_site_label
_atom_site_fract_x
_atom_site_fract_y
_atom_site_fract_z
Si Si1 0.922830 0.780045 0.995540
Si Si2 0.020640 0.947011 0.869615
Si Si3 0.644172 0.945407 0.660446
Si Si4 0.244426 0.279884 0.538624
Si Si5 0.840320 0.547620 0.353697
O O1 0.841729 0.740234 0.755787
O O2 0.920281 0.873338 0.945273
O O3 0.822604 0.758025 0.256346
O O4 0.082447 0.751053 0.036494
O O5 0.185368 0.912284 0.834054
O O6 0.989628 0.985252 0.589926
O O7 0.748466 0.872711 0.594337
O O8 0.481714 0.906625 0.718859
O O9 0.672937 0.008116 0.425471
O O10 0.848330 0.530873 0.667099
#
# Coordination Sequence:
#
# PCOD8054951 Si02
#       5
#     4   4   4   4   4
#     4  12  28  49  72 104 144 192 235 291 359 424
#     4  10  21  40  69 103 136 177 233 292 348 411
#     4  10  21  40  69 103 136 177 233 292 348 411
#     4  12  28  49  72 104 144 192 235 291 359 424
#     4   8  16  32  56  94 130 166 210 268 342 400
#
# _framework density 25.124092999999998
#
# number of rings (size 3 to 8) (size 9 to 14) (size 15 to 20)
#    0.000    1.600    0.000    3.600    2.800    4.800 
#   14.400    0.000    0.000    0.000    0.000    0.000 
#    0.000    0.000    0.000    0.000    0.000    0.000 
#
# Total GULP energy -123886.102587 kJ/mol
# GULP energy per Si atom -12388.610259 kJ/mol
# Density = 2.506691 g / cm^3
# Si number density = 25.124093 Si / 1000 Ang^3
#
#
#
# Elastic Constant Matrix: (Units=GPa)
#
#
# Indices 1 2 3 4 5 6 
#
# 1 89.3831 19.0091 11.7751 0.0000 26.9063 0.0000
# 2 19.0091 54.8139 13.0804 0.0000 -1.1803 0.0000
# 3 11.7751 13.0804 115.9097 0.0000 4.7120 0.0000
# 4 0.0000 0.0000 0.0000 9.4902 0.0000 0.3035
# 5 26.9063 -1.1803 4.7120 0.0000 46.3655 0.0000
# 6 0.0000 0.0000 0.0000 0.3035 0.0000 31.7371
#
#
#
# Elastic Compliance Matrix: (Units=1/GPa)
#
#
# Indices 1 2 3 4 5 6 
#
# 1 0.015032 -0.005265 -0.000575 0.000000 -0.008799 0.000000
# 2 -0.005265 0.020615 -0.001945 0.000000 0.003778 0.000000
# 3 -0.000575 -0.001945 0.008931 0.000000 -0.000623 0.000000
# 4 0.000000 0.000000 0.000000 0.105404 0.000000 -0.001008
# 5 -0.008799 0.003778 -0.000623 0.000000 0.026833 0.000000
# 6 0.000000 0.000000 0.000000 -0.001008 0.000000 0.031519
#
#
# Mechanical properties :
#
#
# Convention : Reuss Voigt Hill
#
# Bulk Modulus (GPa) = 34.47488 38.64845 36.56167
# Shear Modulus (GPa) = 21.40653 31.93469 26.67061
#
# Velocity S-wave (km/s) = 2.92213 3.56909 3.26169
# Velocity P-wave (km/s) = 5.01365 5.69218 5.36366
#
# Compressibility (1/GPa) = 0.02900662
#
# Stress axis : x y z
#
# Youngs Moduli (GPa) = 66.52493 48.50837 111.97349
#
# Poissons Ratio (x) = 0.25541 0.06441
# Poissons Ratio (y) = 0.35027 0.21780
# Poissons Ratio (z) = 0.03827 0.09435
#
# Static dielectric constant tensor:
#      x y z
#    x 5.450250 0.000000 -0.217000 
#    y 0.000000 3.994570 0.000000 
#    z -0.217000 0.000000 4.755640 
# 
# 
# High freq. dielectric constant tensor:
#      x y z
#    x 2.035290 0.000000 -0.001460 
#    y 0.000000 1.963870 0.000000 
#    z -0.001460 0.000000 2.017200 
# 
# From -- ./inp_files/525.got.cif
#   From: 2010.06.25/outbox.cif.g09.slc.cpg/sg9_1_cif.got.tgz:525.got - 2010.06.27 21:40:51.
