data_PCOD8054896
_publ_section_title
;
Structure prediction by ZEFSAII (Michael W. Deem and Ramdas Pophale) SiO2 
 PCOD8054896
Probable space group: C C
;
_chemical_formula_sum "Si O2"
_cell_formula_units_Z 32
_cell_length_a 14.001556
_cell_length_b 10.648784
_cell_length_c 14.199411
_cell_angle_alpha 90.000000
_cell_angle_beta 41.550736
_cell_angle_gamma 90.000000
_cell_volume 1404.253495
_symmetry_space_group_name_H-M "C C"
_symmetry_group_IT_number 9
_symmetry_cell_setting 'monoclinic'
loop_
_space_group_symop_operation_xyz
x,y,z
x,-y,1/2+z
1/2+x,1/2+y,z
1/2+x,1/2-y,1/2+z
loop_
_atom_site_type_symbol
_atom_site_label
_atom_site_fract_x
_atom_site_fract_y
_atom_site_fract_z
Si Si1 0.897370 0.507996 0.177210
Si Si2 0.485243 0.738216 0.045807
Si Si3 0.165316 0.092984 0.212774
Si Si4 0.293711 0.693177 0.354863
Si Si5 0.879301 0.416951 0.398760
Si Si6 0.883840 0.938573 0.461519
Si Si7 0.684644 0.881527 0.231324
Si Si8 0.700951 0.081642 0.931062
O O1 0.935249 0.382349 0.090896
O O2 0.750356 0.565293 0.246390
O O3 0.872925 0.489444 0.305428
O O4 0.030042 0.606519 0.068196
O O5 0.409370 0.664439 0.187608
O O6 0.439938 0.676721 0.981521
O O7 0.658095 0.722464 0.920325
O O8 0.164431 0.243503 0.203142
O O9 0.249307 0.037664 0.060659
O O10 0.010717 0.026368 0.326306
O O11 0.370083 0.767226 0.383647
O O12 0.228886 0.563884 0.438257
O O13 0.026465 0.444931 0.346906
O O14 0.799934 0.859869 0.440512
O O15 0.785768 0.031918 0.594237
O O16 0.747464 0.878565 0.291718
#
# Coordination Sequence:
#
# PCOD8054896 Si02
#       8
#     4   4   4   4   4   4   4   4
#     4  10  23  45  70  95 129 177 224 271 325 398
#     4  10  22  42  68  96 126 168 223 277 317 379
#     4  12  26  43  66 103 137 171 220 277 336 386
#     4  10  21  39  68  96 127 165 228 271 315 383
#     4  11  23  42  70  95 129 178 225 270 328 391
#     4  12  25  42  68 100 135 172 224 275 329 389
#     4  12  24  44  66  99 138 177 215 274 331 405
#     4  11  22  41  66  96 129 180 213 265 337 395
#
# _framework density 22.787908000000002
#
# number of rings (size 3 to 8) (size 9 to 14) (size 15 to 20)
#    0.000    1.000    3.750    3.750    5.250    1.000 
#    2.250    1.250    0.000    0.000    0.000    0.000 
#    0.000    0.000    0.000    0.000    0.000    0.000 
#
# Total GULP energy -198350.534374 kJ/mol
# GULP energy per Si atom -12396.908398 kJ/mol
# Density = 2.273604 g / cm^3
# Si number density = 22.787908 Si / 1000 Ang^3
#
#
#
# Elastic Constant Matrix: (Units=GPa)
#
#
# Indices 1 2 3 4 5 6 
#
# 1 117.5926 15.3753 37.5428 0.0000 10.5035 0.0000
# 2 15.3753 26.1771 15.8127 0.0000 -3.4467 0.0000
# 3 37.5428 15.8127 135.1474 0.0000 7.1804 0.0000
# 4 0.0000 0.0000 0.0000 24.2798 0.0000 3.9217
# 5 10.5035 -3.4467 7.1804 0.0000 43.0052 0.0000
# 6 0.0000 0.0000 0.0000 3.9217 0.0000 29.1339
#
#
#
# Elastic Compliance Matrix: (Units=1/GPa)
#
#
# Indices 1 2 3 4 5 6 
#
# 1 0.010040 -0.004974 -0.002074 0.000000 -0.002505 0.000000
# 2 -0.004974 0.044313 -0.004093 0.000000 0.005450 0.000000
# 3 -0.002074 -0.004093 0.008520 0.000000 -0.001244 0.000000
# 4 0.000000 0.000000 0.000000 0.042102 0.000000 -0.005667
# 5 -0.002505 0.005450 -0.001244 0.000000 0.024509 0.000000
# 6 0.000000 0.000000 0.000000 -0.005667 0.000000 0.035087
#
#
# Mechanical properties :
#
#
# Convention : Reuss Voigt Hill
#
# Bulk Modulus (GPa) = 24.63540 46.26430 35.44985
# Shear Modulus (GPa) = 24.95218 33.29620 29.12419
#
# Velocity S-wave (km/s) = 3.31263 3.82663 3.57887
# Velocity P-wave (km/s) = 5.04634 6.31429 5.71559
#
# Compressibility (1/GPa) = 0.04059199
#
# Stress axis : x y z
#
# Youngs Moduli (GPa) = 99.59999 22.56692 117.36520
#
# Poissons Ratio (x) = 0.11225 0.24342
# Poissons Ratio (y) = 0.49542 0.48032
# Poissons Ratio (z) = 0.20657 0.09236
#
# Static dielectric constant tensor:
#      x y z
#    x 4.437100 0.000000 -0.211060 
#    y 0.000000 3.751750 0.000000 
#    z -0.211060 0.000000 4.183140 
# 
# 
# High freq. dielectric constant tensor:
#      x y z
#    x 1.917300 0.000000 -0.004290 
#    y 0.000000 1.863590 0.000000 
#    z -0.004290 0.000000 1.909990 
# 
# From -- ./inp_files/25862.got.cif
#   From: 2010.06.25/outbox.cif.g09.slc.cpg/sg9_13_cif.got.tgz:25862.got - 2010.06.27 21:40:51.
