data_PCOD8054668
_publ_section_title
;
Structure prediction by ZEFSAII (Michael W. Deem and Ramdas Pophale) SiO2 
 PCOD8054668
Probable space group: C C
;
_chemical_formula_sum "Si O2"
_cell_formula_units_Z 28
_cell_length_a 19.108229
_cell_length_b 8.387856
_cell_length_c 13.859466
_cell_angle_alpha 90.000000
_cell_angle_beta 36.045805
_cell_angle_gamma 90.000000
_cell_volume 1307.115784
_symmetry_space_group_name_H-M "C C"
_symmetry_group_IT_number 9
_symmetry_cell_setting 'monoclinic'
loop_
_space_group_symop_operation_xyz
x,y,z
x,-y,1/2+z
1/2+x,1/2+y,z
1/2+x,1/2-y,1/2+z
loop_
_atom_site_type_symbol
_atom_site_label
_atom_site_fract_x
_atom_site_fract_y
_atom_site_fract_z
Si Si1 0.335530 0.550112 0.050050
Si Si2 0.981579 0.897989 0.729160
Si Si3 0.238277 0.750412 0.737056
Si Si4 0.077714 0.509854 0.353852
Si Si5 0.911802 0.264112 0.126097
Si Si6 0.885288 0.422727 0.422244
Si Si7 0.244015 0.993878 0.901679
O O1 0.335734 0.392985 0.120349
O O2 0.197688 0.592397 0.179882
O O3 0.397755 0.694925 0.034749
O O4 0.401820 0.524844 0.875272
O O5 0.938339 0.884606 0.666974
O O6 0.961622 0.723993 0.796308
O O7 0.116121 0.957651 0.584896
O O8 0.108334 0.670012 0.859180
O O9 0.272284 0.873856 0.614398
O O10 0.239944 0.835160 0.839739
O O11 0.023159 0.612753 0.502954
O O12 0.978881 0.519330 0.381222
O O13 0.790886 0.355305 0.288628
O O14 0.832815 0.531330 0.393908
#
# Coordination Sequence:
#
# PCOD8054668 Si02
#       7
#     4   4   4   4   4   4   4
#     4   9  23  46  65  96 132 180 220 274 345 400
#     4  10  23  40  66  97 138 172 219 278 341 399
#     4   9  21  42  67  98 135 179 221 277 346 397
#     4  10  21  43  70  93 138 178 223 276 335 416
#     4  11  22  43  69  98 130 182 226 279 336 405
#     4  10  20  40  68 101 137 181 222 275 350 397
#     4  11  22  40  69 103 130 180 233 279 337 414
#
# _framework density 21.421206999999999
#
# number of rings (size 3 to 8) (size 9 to 14) (size 15 to 20)
#    0.857    1.143    1.429    1.714    2.000    3.429 
#    5.143    1.429    0.000    0.000    0.000    0.000 
#    0.000    0.000    0.000    0.000    0.000    0.000 
#
# Total GULP energy -173471.491183 kJ/mol
# GULP energy per Si atom -12390.820799 kJ/mol
# Density = 2.137245 g / cm^3
# Si number density = 21.421207 Si / 1000 Ang^3
#
#
#
# Elastic Constant Matrix: (Units=GPa)
#
#
# Indices 1 2 3 4 5 6 
#
# 1 143.2347 61.0687 61.0454 0.0000 4.0360 0.0000
# 2 61.0687 55.4293 43.1110 -0.0002 -0.0508 0.0001
# 3 61.0454 43.1110 161.2287 -0.0001 -4.2039 0.0000
# 4 0.0000 -0.0002 -0.0001 28.5009 0.0000 1.5007
# 5 4.0360 -0.0508 -4.2039 0.0000 27.2990 0.0000
# 6 0.0000 0.0001 0.0000 1.5007 0.0000 38.3118
#
#
#
# Elastic Compliance Matrix: (Units=1/GPa)
#
#
# Indices 1 2 3 4 5 6 
#
# 1 0.013558 -0.013763 -0.001512 0.000000 -0.002263 0.000000
# 2 -0.013763 0.036771 -0.004585 0.000000 0.001397 0.000000
# 3 -0.001512 -0.004585 0.008039 0.000000 0.001453 0.000000
# 4 0.000000 0.000000 0.000000 0.035159 0.000000 -0.001377
# 5 -0.002263 0.001397 0.001453 0.000000 0.037192 0.000000
# 6 0.000000 0.000000 0.000000 -0.001377 0.000000 0.026156
#
#
# Mechanical properties :
#
#
# Convention : Reuss Voigt Hill
#
# Bulk Modulus (GPa) = 53.62570 76.70478 65.16524
# Shear Modulus (GPa) = 24.65348 31.80018 28.22683
#
# Velocity S-wave (km/s) = 3.39616 3.85712 3.63396
# Velocity P-wave (km/s) = 6.36135 7.46473 6.93502
#
# Compressibility (1/GPa) = 0.01864778
#
# Stress axis : x y z
#
# Youngs Moduli (GPa) = 73.75866 27.19500 124.39721
#
# Poissons Ratio (x) = 0.37429 0.18812
# Poissons Ratio (y) = 1.01514 0.57034
# Poissons Ratio (z) = 0.11154 0.12469
#
# Static dielectric constant tensor:
#      x y z
#    x 3.692940 0.000000 0.114240 
#    y 0.000000 3.628910 0.000000 
#    z 0.114240 0.000000 3.941570 
# 
# 
# High freq. dielectric constant tensor:
#      x y z
#    x 1.827180 0.000000 0.003950 
#    y 0.000000 1.821270 0.000000 
#    z 0.003950 0.000000 1.848770 
# 
# From -- ./inp_files/27331.got.cif
#   From: 2010.06.25/outbox.cif.g09.slc.cpg/sg9_14_cif.got.tgz:27331.got - 2010.06.27 21:40:51.
