data_PCOD8054669
_publ_section_title
;
Structure prediction by ZEFSAII (Michael W. Deem and Ramdas Pophale) SiO2 
 PCOD8054669
Probable space group: C C
;
_chemical_formula_sum "Si O2"
_cell_formula_units_Z 32
_cell_length_a 10.258940
_cell_length_b 16.705620
_cell_length_c 9.473959
_cell_angle_alpha 90.000000
_cell_angle_beta 115.737771
_cell_angle_gamma 90.000000
_cell_volume 1462.583269
_symmetry_space_group_name_H-M "C C"
_symmetry_group_IT_number 9
_symmetry_cell_setting 'monoclinic'
loop_
_space_group_symop_operation_xyz
x,y,z
x,-y,1/2+z
1/2+x,1/2+y,z
1/2+x,1/2-y,1/2+z
loop_
_atom_site_type_symbol
_atom_site_label
_atom_site_fract_x
_atom_site_fract_y
_atom_site_fract_z
Si Si1 0.105140 0.402443 0.569490
Si Si2 0.011385 0.052746 0.098103
Si Si3 0.705013 0.021062 0.400407
Si Si4 0.084984 0.085359 0.840431
Si Si5 0.339247 0.807564 0.362349
Si Si6 0.691438 0.193936 0.483332
Si Si7 0.862478 0.205832 0.117638
Si Si8 0.387743 0.726182 0.815041
O O1 0.103359 0.455898 0.427815
O O2 0.134619 0.459381 0.716756
O O3 0.223395 0.333502 0.622403
O O4 0.954265 0.356631 0.508468
O O5 0.988622 0.138953 0.163438
O O6 0.067572 0.995399 0.245829
O O7 0.127033 0.061517 0.022913
O O8 0.864473 0.016481 0.961174
O O9 0.707768 0.099026 0.501527
O O10 0.196602 0.137939 0.802913
O O11 0.938497 0.136716 0.795376
O O12 0.303224 0.722625 0.416216
O O13 0.398126 0.783599 0.233086
O O14 0.525383 0.214600 0.365637
O O15 0.746667 0.241356 0.650082
O O16 0.826767 0.236054 0.943882
#
# Coordination Sequence:
#
# PCOD8054669 Si02
#       8
#     4   4   4   4   4   4   4   4
#     4  11  25  41  65  98 130 170 225 272 338 399
#     4  10  20  40  68  96 126 166 230 265 329 401
#     4  11  22  39  68  95 127 172 217 276 327 400
#     4  10  22  40  62  97 129 170 214 278 329 399
#     4  11  25  43  63  94 136 171 216 274 338 400
#     4  11  22  41  66  94 135 175 218 274 341 401
#     4  10  23  41  64  94 126 173 224 271 319 409
#     4  10  23  39  64  98 131 173 224 278 337 397
#
# _framework density 21.879097000000002
#
# number of rings (size 3 to 8) (size 9 to 14) (size 15 to 20)
#    0.000    1.500    2.500    2.250    7.000    1.000 
#    0.000    1.250    0.000    0.000    0.000    0.000 
#    0.000    0.000    0.000    0.000    0.000    0.000 
#
# Total GULP energy -198268.314554 kJ/mol
# GULP energy per Si atom -12391.769660 kJ/mol
# Density = 2.182930 g / cm^3
# Si number density = 21.879097 Si / 1000 Ang^3
#
#
#
# Elastic Constant Matrix: (Units=GPa)
#
#
# Indices 1 2 3 4 5 6 
#
# 1 49.8970 46.4382 46.0462 0.0000 -13.0618 0.0000
# 2 46.4382 80.3060 24.7899 0.0000 -10.0691 0.0000
# 3 46.0462 24.7899 102.7014 0.0000 -19.8391 0.0000
# 4 0.0000 0.0000 0.0000 35.2030 0.0000 -3.6058
# 5 -13.0618 -10.0691 -19.8391 0.0000 31.6828 0.0000
# 6 0.0000 0.0000 0.0000 -3.6058 0.0000 15.6749
#
#
#
# Elastic Compliance Matrix: (Units=1/GPa)
#
#
# Indices 1 2 3 4 5 6 
#
# 1 0.080882 -0.038095 -0.026126 0.000000 0.004879 0.000000
# 2 -0.038095 0.031581 0.009513 0.000000 0.000288 0.000000
# 3 -0.026126 0.009513 0.020088 0.000000 0.004831 0.000000
# 4 0.000000 0.000000 0.000000 0.029092 0.000000 0.006692
# 5 0.004879 0.000288 0.004831 0.000000 0.036691 0.000000
# 6 0.000000 0.000000 0.000000 0.006692 0.000000 0.065336
#
#
# Mechanical properties :
#
#
# Convention : Reuss Voigt Hill
#
# Bulk Modulus (GPa) = 43.22573 51.93925 47.58249
# Shear Modulus (GPa) = 13.13033 24.22081 18.67557
#
# Velocity S-wave (km/s) = 2.45242 3.33082 2.92478
# Velocity P-wave (km/s) = 5.27434 6.21154 5.76202
#
# Compressibility (1/GPa) = 0.02313437
#
# Stress axis : x y z
#
# Youngs Moduli (GPa) = 12.36362 31.66461 49.78197
#
# Poissons Ratio (x) = 1.20626 1.30060
# Poissons Ratio (y) = 0.47099 -0.47355
# Poissons Ratio (z) = 0.32301 -0.30121
#
# Static dielectric constant tensor:
#      x y z
#    x 3.751900 0.000000 -0.244400 
#    y 0.000000 3.981220 0.000000 
#    z -0.244400 0.000000 3.962400 
# 
# 
# High freq. dielectric constant tensor:
#      x y z
#    x 1.842820 0.000000 -0.022890 
#    y 0.000000 1.863460 0.000000 
#    z -0.022890 0.000000 1.857630 
# 
# From -- ./inp_files/8066.got.cif
#   From: 2010.06.25/outbox.cif.g09.slc.cpg/sg9_5_cif.got.tgz:8066.got - 2010.06.27 21:40:51.
