data_PCOD8054538
_publ_section_title
;
Structure prediction by ZEFSAII (Michael W. Deem and Ramdas Pophale) SiO2 
 PCOD8054538
Probable space group: C C
;
_chemical_formula_sum "Si O2"
_cell_formula_units_Z 24
_cell_length_a 13.002225
_cell_length_b 16.149956
_cell_length_c 5.171860
_cell_angle_alpha 90.000000
_cell_angle_beta 65.338425
_cell_angle_gamma 90.000000
_cell_volume 986.957533
_symmetry_space_group_name_H-M "C C"
_symmetry_group_IT_number 9
_symmetry_cell_setting 'monoclinic'
loop_
_space_group_symop_operation_xyz
x,y,z
x,-y,1/2+z
1/2+x,1/2+y,z
1/2+x,1/2-y,1/2+z
loop_
_atom_site_type_symbol
_atom_site_label
_atom_site_fract_x
_atom_site_fract_y
_atom_site_fract_z
Si Si1 0.825010 0.274704 0.208000
Si Si2 0.328340 0.557614 0.790691
Si Si3 0.868543 0.462638 0.177516
Si Si4 0.114022 0.035961 0.874951
Si Si5 0.701489 0.783577 0.343805
Si Si6 0.011269 0.816122 0.259665
O O1 0.865690 0.366080 0.236513
O O2 0.741550 0.238622 0.512580
O O3 0.772505 0.269588 0.976564
O O4 0.939662 0.221591 0.070782
O O5 0.327670 0.488627 0.567995
O O6 0.217512 0.617680 0.877915
O O7 0.435165 0.621293 0.666693
O O8 0.931157 0.510651 0.346774
O O9 0.740734 0.497793 0.280336
O O10 0.110189 0.132502 0.805640
O O11 0.050751 0.983304 0.712632
O O12 0.570330 0.754618 0.519342
#
# Coordination Sequence:
#
# PCOD8054538 Si02
#       6
#     4   4   4   4   4   4
#     4  11  24  42  63  96 134 176 224 279 335 403
#     4  11  24  46  68 102 139 180 230 288 342 412
#     4  10  20  37  59  86 126 165 205 266 329 387
#     4  10  21  34  59  93 122 158 202 267 337 390
#     4  11  25  43  68  97 140 178 224 283 344 406
#     4  11  24  42  69  98 133 177 231 277 337 410
#
# _framework density 24.317153999999999
#
# number of rings (size 3 to 8) (size 9 to 14) (size 15 to 20)
#    0.000    1.333    1.667    4.000    4.667    6.667 
#    0.000    1.667    0.000    0.000    0.000    0.000 
#    0.000    0.000    0.000    0.000    0.000    0.000 
#
# Total GULP energy -148700.828076 kJ/mol
# GULP energy per Si atom -12391.735673 kJ/mol
# Density = 2.426181 g / cm^3
# Si number density = 24.317154 Si / 1000 Ang^3
#
#
#
# Elastic Constant Matrix: (Units=GPa)
#
#
# Indices 1 2 3 4 5 6 
#
# 1 36.4172 33.8082 39.3393 0.0000 6.4338 0.0000
# 2 33.8082 140.5242 57.9398 0.0000 2.8741 0.0000
# 3 39.3393 57.9398 159.0992 0.0000 18.7643 0.0000
# 4 0.0000 0.0000 0.0000 44.4749 0.0000 -7.2023
# 5 6.4338 2.8741 18.7643 0.0000 42.7865 0.0000
# 6 0.0000 0.0000 0.0000 -7.2023 0.0000 45.0157
#
#
#
# Elastic Compliance Matrix: (Units=1/GPa)
#
#
# Indices 1 2 3 4 5 6 
#
# 1 0.042800 -0.007068 -0.007704 0.000000 -0.002582 0.000000
# 2 -0.007068 0.009568 -0.001884 0.000000 0.001246 0.000000
# 3 -0.007704 -0.001884 0.009201 0.000000 -0.002750 0.000000
# 4 0.000000 0.000000 0.000000 0.023083 0.000000 0.003693
# 5 -0.002582 0.001246 -0.002750 0.000000 0.024882 0.000000
# 6 0.000000 0.000000 0.000000 0.003693 0.000000 0.022805
#
#
# Mechanical properties :
#
#
# Convention : Reuss Voigt Hill
#
# Bulk Modulus (GPa) = 35.38985 66.46835 50.92910
# Shear Modulus (GPa) = 28.56018 40.11897 34.33958
#
# Velocity S-wave (km/s) = 3.43080 4.06621 3.76194
# Velocity P-wave (km/s) = 5.50262 7.03126 6.31338
#
# Compressibility (1/GPa) = 0.02825669
#
# Stress axis : x y z
#
# Youngs Moduli (GPa) = 23.36472 104.51731 108.68695
#
# Poissons Ratio (x) = 0.73869 0.83736
# Poissons Ratio (y) = 0.16513 0.20474
# Poissons Ratio (z) = 0.18001 0.19689
#
# Static dielectric constant tensor:
#      x y z
#    x 4.337580 0.000000 0.102770 
#    y 0.000000 4.534420 0.000000 
#    z 0.102770 0.000000 4.748160 
# 
# 
# High freq. dielectric constant tensor:
#      x y z
#    x 1.934620 0.000000 0.018950 
#    y 0.000000 1.970150 0.000000 
#    z 0.018950 0.000000 1.974170 
# 
# From -- ./inp_files/2366.got.cif
#   From: 2010.06.25/outbox.cif.g09.slc.cpg/sg9_2_cif.got.tgz:2366.got - 2010.06.27 21:40:51.
