data_PCOD8054565
_publ_section_title
;
Structure prediction by ZEFSAII (Michael W. Deem and Ramdas Pophale) SiO2 
 PCOD8054565
Probable space group: C C
;
_chemical_formula_sum "Si O2"
_cell_formula_units_Z 20
_cell_length_a 7.865069
_cell_length_b 19.264295
_cell_length_c 5.381946
_cell_angle_alpha 90.000000
_cell_angle_beta 91.624130
_cell_angle_gamma 90.000000
_cell_volume 815.118008
_symmetry_space_group_name_H-M "C C"
_symmetry_group_IT_number 9
_symmetry_cell_setting 'monoclinic'
loop_
_space_group_symop_operation_xyz
x,y,z
x,-y,1/2+z
1/2+x,1/2+y,z
1/2+x,1/2-y,1/2+z
loop_
_atom_site_type_symbol
_atom_site_label
_atom_site_fract_x
_atom_site_fract_y
_atom_site_fract_z
Si Si1 0.706680 0.188819 0.743290
Si Si2 0.988743 0.011978 0.431450
Si Si3 0.581204 0.254553 0.248497
Si Si4 0.214217 0.901729 0.225042
Si Si5 0.090749 0.457489 0.196319
O O1 0.592084 0.210289 0.501543
O O2 0.727040 0.105184 0.735819
O O3 0.889398 0.221504 0.710716
O O4 0.628503 0.211016 0.005076
O O5 0.133836 0.951322 0.435044
O O6 0.876159 0.991058 0.673594
O O7 0.095582 0.082961 0.473607
O O8 0.704897 0.320780 0.286236
O O9 0.408267 0.920869 0.197197
O O10 0.115983 0.510959 0.423028
#
# Coordination Sequence:
#
# PCOD8054565 Si02
#       5
#     4   4   4   4   4
#     4  12  28  50  71 110 142 198 242 302 371 423
#     4   8  16  30  50  92 126 166 216 262 326 416
#     4  12  27  48  76 104 150 188 247 304 359 446
#     4  10  20  37  66  99 135 180 233 277 353 423
#     4  12  23  43  69 101 145 188 232 295 357 438
#
# _framework density 24.536325999999999
#
# number of rings (size 3 to 8) (size 9 to 14) (size 15 to 20)
#    1.200    0.000    2.000    4.800    2.800    0.000 
#    3.600    0.000    0.000    0.000    0.000    0.000 
#    0.000    0.000    0.000    0.000    0.000    0.000 
#
# Total GULP energy -123900.512871 kJ/mol
# GULP energy per Si atom -12390.051287 kJ/mol
# Density = 2.448048 g / cm^3
# Si number density = 24.536326 Si / 1000 Ang^3
#
#
#
# Elastic Constant Matrix: (Units=GPa)
#
#
# Indices 1 2 3 4 5 6 
#
# 1 100.6199 18.4261 30.7636 0.0000 -10.5919 0.0000
# 2 18.4261 130.5970 16.8901 0.0000 -14.4643 0.0000
# 3 30.7636 16.8901 117.0192 0.0000 -25.3622 0.0000
# 4 0.0000 0.0000 0.0000 39.5850 0.0000 1.7500
# 5 -10.5919 -14.4643 -25.3622 0.0000 45.2642 0.0000
# 6 0.0000 0.0000 0.0000 1.7500 0.0000 40.7082
#
#
#
# Elastic Compliance Matrix: (Units=1/GPa)
#
#
# Indices 1 2 3 4 5 6 
#
# 1 0.011012 -0.001136 -0.002562 0.000000 0.000778 0.000000
# 2 -0.001136 0.008103 -0.000418 0.000000 0.002089 0.000000
# 3 -0.002562 -0.000418 0.010381 0.000000 0.005084 0.000000
# 4 0.000000 0.000000 0.000000 0.025310 0.000000 -0.001088
# 5 0.000778 0.002089 0.005084 0.000000 0.025791 0.000000
# 6 0.000000 0.000000 0.000000 -0.001088 0.000000 0.024612
#
#
# Mechanical properties :
#
#
# Convention : Reuss Voigt Hill
#
# Bulk Modulus (GPa) = 47.02994 53.37730 50.20362
# Shear Modulus (GPa) = 41.48369 43.92191 42.70280
#
# Velocity S-wave (km/s) = 4.11628 4.23552 4.17633
# Velocity P-wave (km/s) = 6.46535 6.76174 6.61521
#
# Compressibility (1/GPa) = 0.02126305
#
# Stress axis : x y z
#
# Youngs Moduli (GPa) = 90.81216 123.41259 96.32642
#
# Poissons Ratio (x) = 0.14021 0.24682
# Poissons Ratio (y) = 0.10317 0.04027
# Poissons Ratio (z) = 0.23269 0.05159
#
# Static dielectric constant tensor:
#      x y z
#    x 4.567360 0.000000 -0.106960 
#    y 0.000000 4.748710 0.000000 
#    z -0.106960 0.000000 4.481800 
# 
# 
# High freq. dielectric constant tensor:
#      x y z
#    x 2.004740 0.000000 -0.002810 
#    y 0.000000 1.977050 0.000000 
#    z -0.002810 0.000000 1.984620 
# 
# From -- ./inp_files/622.got.cif
#   From: 2010.06.25/outbox.cif.g09.slc.cpg/sg9_1_cif.got.tgz:622.got - 2010.06.27 21:40:51.
