data_PCOD8054324
_publ_section_title
;
Structure prediction by ZEFSAII (Michael W. Deem and Ramdas Pophale) SiO2 
 PCOD8054324
Probable space group: C C
;
_chemical_formula_sum "Si O2"
_cell_formula_units_Z 28
_cell_length_a 16.538236
_cell_length_b 21.072496
_cell_length_c 11.082714
_cell_angle_alpha 90.000000
_cell_angle_beta 158.127242
_cell_angle_gamma 90.000000
_cell_volume 1438.904207
_symmetry_space_group_name_H-M "C C"
_symmetry_group_IT_number 9
_symmetry_cell_setting 'monoclinic'
loop_
_space_group_symop_operation_xyz
x,y,z
x,-y,1/2+z
1/2+x,1/2+y,z
1/2+x,1/2-y,1/2+z
loop_
_atom_site_type_symbol
_atom_site_label
_atom_site_fract_x
_atom_site_fract_y
_atom_site_fract_z
Si Si1 0.904240 0.927770 0.234390
Si Si2 0.648734 0.176227 0.699268
Si Si3 0.613883 0.945702 0.623621
Si Si4 0.280451 0.987817 0.339320
Si Si5 0.561874 0.680188 0.108470
Si Si6 0.505175 0.930594 0.848572
Si Si7 0.996146 0.615285 0.719785
O O1 0.041398 0.990181 0.465302
O O2 0.023732 0.862531 0.435860
O O3 0.842354 0.931304 0.007525
O O4 0.669539 0.925079 0.967016
O O5 0.560802 0.247210 0.566544
O O6 0.475609 0.134483 0.382112
O O7 0.652724 0.153834 0.844478
O O8 0.886631 0.167374 0.970885
O O9 0.616861 0.899532 0.512190
O O10 0.391047 0.940291 0.394789
O O11 0.611947 0.019234 0.586013
O O12 0.426023 0.050924 0.556434
O O13 0.279086 0.953209 0.470508
O O14 0.796030 0.660133 0.482206
#
# Coordination Sequence:
#
# PCOD8054324 Si02
#       7
#     4   4   4   4   4   4   4
#     4   9  20  35  56  84 113 148 187 229 284 338
#     4  11  19  36  61  82 115 146 200 232 277 341
#     4  10  19  35  57  81 120 142 182 236 282 339
#     4   9  18  35  56  82 112 146 184 227 290 336
#     4  10  21  36  61  82 106 155 195 232 280 333
#     4   9  19  33  54  84 110 147 180 236 282 333
#     4  10  20  36  57  83 112 150 186 236 281 334
#
# _framework density 19.459253
#
# number of rings (size 3 to 8) (size 9 to 14) (size 15 to 20)
#    0.000    2.286    2.857    0.000    0.000    4.571 
#    0.000    0.000    9.429    0.000    0.000    0.000 
#    0.000    0.000    0.000    0.000    0.000    0.000 
#
# Total GULP energy -173441.389721 kJ/mol
# GULP energy per Si atom -12388.670694 kJ/mol
# Density = 1.941496 g / cm^3
# Si number density = 19.459253 Si / 1000 Ang^3
#
#
#
# Elastic Constant Matrix: (Units=GPa)
#
#
# Indices 1 2 3 4 5 6 
#
# 1 98.0481 53.7802 50.0974 0.0000 -16.9166 0.0000
# 2 53.7802 100.8024 52.9358 0.0000 -14.2704 0.0000
# 3 50.0974 52.9358 98.9255 -0.0001 -32.6864 0.0000
# 4 0.0000 0.0000 -0.0001 20.1861 0.0000 -0.7153
# 5 -16.9166 -14.2704 -32.6864 0.0000 29.2828 0.0000
# 6 0.0000 0.0000 0.0000 -0.7153 0.0000 26.1062
#
#
#
# Elastic Compliance Matrix: (Units=1/GPa)
#
#
# Indices 1 2 3 4 5 6 
#
# 1 0.015998 -0.006014 -0.004433 0.000000 0.001363 0.000000
# 2 -0.006014 0.016166 -0.006575 0.000000 -0.002935 0.000000
# 3 -0.004433 -0.006575 0.022128 0.000000 0.018935 0.000000
# 4 0.000000 0.000000 0.000000 0.049587 0.000000 0.001359
# 5 0.001363 -0.002935 0.018935 0.000000 0.054643 0.000000
# 6 0.000000 0.000000 0.000000 0.001359 0.000000 0.038342
#
#
# Mechanical properties :
#
#
# Convention : Reuss Voigt Hill
#
# Bulk Modulus (GPa) = 49.38691 67.93363 58.66027
# Shear Modulus (GPa) = 21.03854 24.51253 22.77553
#
# Velocity S-wave (km/s) = 3.29166 3.55305 3.42485
# Velocity P-wave (km/s) = 6.31518 7.19852 6.77127
#
# Compressibility (1/GPa) = 0.02024828
#
# Stress axis : x y z
#
# Youngs Moduli (GPa) = 62.50675 61.85657 45.19114
#
# Poissons Ratio (x) = 0.37204 0.20034
# Poissons Ratio (y) = 0.37595 0.29712
# Poissons Ratio (z) = 0.27710 0.40669
#
# Static dielectric constant tensor:
#      x y z
#    x 3.869920 0.000000 -0.099250 
#    y 0.000000 3.543780 0.000000 
#    z -0.099250 0.000000 3.592030 
# 
# 
# High freq. dielectric constant tensor:
#      x y z
#    x 1.768540 0.000000 -0.001170 
#    y 0.000000 1.738320 0.000000 
#    z -0.001170 0.000000 1.736370 
# 
# From -- ./inp_files/5456.got.cif
#   From: 2010.06.25/outbox.cif.g09.slc.cpg/sg9_3_cif.got.tgz:5456.got - 2010.06.27 21:40:51.
