data_PCOD8054400
_publ_section_title
;
Structure prediction by ZEFSAII (Michael W. Deem and Ramdas Pophale) SiO2 
 PCOD8054400
Probable space group: C C
;
_chemical_formula_sum "Si O2"
_cell_formula_units_Z 32
_cell_length_a 18.980504
_cell_length_b 10.459935
_cell_length_c 15.805627
_cell_angle_alpha 90.000000
_cell_angle_beta 28.134918
_cell_angle_gamma 90.000000
_cell_volume 1479.706712
_symmetry_space_group_name_H-M "C C"
_symmetry_group_IT_number 9
_symmetry_cell_setting 'monoclinic'
loop_
_space_group_symop_operation_xyz
x,y,z
x,-y,1/2+z
1/2+x,1/2+y,z
1/2+x,1/2-y,1/2+z
loop_
_atom_site_type_symbol
_atom_site_label
_atom_site_fract_x
_atom_site_fract_y
_atom_site_fract_z
Si Si1 0.104150 0.744970 0.235230
Si Si2 0.342388 0.076234 0.540840
Si Si3 0.869178 0.427460 0.338085
Si Si4 0.639983 0.236567 0.512628
Si Si5 0.513944 0.681803 0.551104
Si Si6 0.837902 0.595384 0.204163
Si Si7 0.407065 0.423468 0.697610
Si Si8 0.376545 0.371847 0.359672
O O1 0.001850 0.641539 0.391999
O O2 0.992832 0.849869 0.312422
O O3 0.211013 0.819108 0.186794
O O4 0.207031 0.666411 0.060287
O O5 0.341163 0.020446 0.446601
O O6 0.308712 0.974850 0.647559
O O7 0.735567 0.323404 0.476334
O O8 0.875753 0.501939 0.241573
O O9 0.026442 0.354264 0.184510
O O10 0.546623 0.326442 0.547733
O O11 0.754616 0.150328 0.334843
O O12 0.689203 0.675410 0.381080
O O13 0.468891 0.802625 0.541361
O O14 0.446196 0.542492 0.593241
O O15 0.434175 0.721674 0.724020
O O16 0.386745 0.481388 0.815057
#
# Coordination Sequence:
#
# PCOD8054400 Si02
#       8
#     4   4   4   4   4   4   4   4
#     4  10  19  38  62  92 130 163 216 271 319 376
#     4  11  25  41  64  97 130 174 217 275 320 388
#     4  11  23  41  66  94 132 173 213 269 323 381
#     4  10  20  37  61  95 128 172 212 255 322 390
#     4  10  22  39  64  94 125 163 216 272 320 390
#     4  12  25  43  65  97 129 167 222 271 329 391
#     4   9  19  32  58  95 121 163 214 257 314 379
#     4   9  17  33  66  94 117 165 214 260 319 377
#
# _framework density 21.625907999999999
#
# number of rings (size 3 to 8) (size 9 to 14) (size 15 to 20)
#    0.750    1.000    1.250    4.500    1.750    2.000 
#    0.000    2.500    0.000    0.000    0.000    0.000 
#    0.000    0.000    0.000    0.000    0.000    0.000 
#
# Total GULP energy -198252.679938 kJ/mol
# GULP energy per Si atom -12390.792496 kJ/mol
# Density = 2.157669 g / cm^3
# Si number density = 21.625908 Si / 1000 Ang^3
#
#
#
# Elastic Constant Matrix: (Units=GPa)
#
#
# Indices 1 2 3 4 5 6 
#
# 1 62.1494 37.8378 40.8028 0.0000 -8.9847 0.0000
# 2 37.8378 105.9023 35.4359 0.0000 -18.2074 0.0000
# 3 40.8028 35.4359 88.5297 0.0000 -36.7039 0.0000
# 4 0.0000 0.0000 0.0000 40.0555 0.0000 -10.8329
# 5 -8.9847 -18.2074 -36.7039 0.0000 37.9303 0.0000
# 6 0.0000 0.0000 0.0000 -10.8329 0.0000 30.4772
#
#
#
# Elastic Compliance Matrix: (Units=1/GPa)
#
#
# Indices 1 2 3 4 5 6 
#
# 1 0.028649 -0.007143 -0.014951 0.000000 -0.011111 0.000000
# 2 -0.007143 0.012749 0.000042 0.000000 0.004468 0.000000
# 3 -0.014951 0.000042 0.027905 0.000000 0.023481 0.000000
# 4 0.000000 0.000000 0.000000 0.027620 0.000000 0.009817
# 5 -0.011111 0.004468 0.023481 0.000000 0.048599 0.000000
# 6 0.000000 0.000000 0.000000 0.009817 0.000000 0.036301
#
#
# Mechanical properties :
#
#
# Convention : Reuss Voigt Hill
#
# Bulk Modulus (GPa) = 39.68669 53.85939 46.77304
# Shear Modulus (GPa) = 21.33755 31.19293 26.26524
#
# Velocity S-wave (km/s) = 3.14453 3.80200 3.48879
# Velocity P-wave (km/s) = 5.61920 6.65076 6.15663
#
# Compressibility (1/GPa) = 0.02519737
#
# Stress axis : x y z
#
# Youngs Moduli (GPa) = 34.90525 78.43644 35.83580
#
# Poissons Ratio (x) = 0.56030 0.53579
# Poissons Ratio (y) = 0.24934 -0.00149
# Poissons Ratio (z) = 0.52188 -0.00327
#
# Static dielectric constant tensor:
#      x y z
#    x 3.404630 0.000000 -0.337420 
#    y 0.000000 4.097350 0.000000 
#    z -0.337420 0.000000 3.978320 
# 
# 
# High freq. dielectric constant tensor:
#      x y z
#    x 1.806910 0.000000 -0.034150 
#    y 0.000000 1.862670 0.000000 
#    z -0.034150 0.000000 1.853520 
# 
# From -- ./inp_files/26829.got.cif
#   From: 2010.06.25/outbox.cif.g09.slc.cpg/sg9_14_cif.got.tgz:26829.got - 2010.06.27 21:40:51.
