data_PCOD8054018
_publ_section_title
;
Structure prediction by ZEFSAII (Michael W. Deem and Ramdas Pophale) SiO2 
 PCOD8054018
Probable space group: C M
;
_chemical_formula_sum "Si O2"
_cell_formula_units_Z 32
_cell_length_a 15.262799
_cell_length_b 8.489292
_cell_length_c 11.811350
_cell_angle_alpha 90.000000
_cell_angle_beta 89.837704
_cell_angle_gamma 90.000000
_cell_volume 1530.394702
_symmetry_space_group_name_H-M "C M"
_symmetry_group_IT_number 8
_symmetry_cell_setting 'monoclinic'
loop_
_space_group_symop_operation_xyz
x,y,z
x,-y,z
1/2+x,1/2+y,z
1/2+x,1/2-y,z
loop_
_atom_site_type_symbol
_atom_site_label
_atom_site_fract_x
_atom_site_fract_y
_atom_site_fract_z
Si Si1 0.907400 0.184026 0.269650
Si Si2 0.758630 0.318447 0.118870
Si Si3 0.063414 0.819547 0.644305
Si Si4 0.904380 0.680823 0.514808
Si Si5 0.244887 0.319005 0.646982
Si Si6 0.510245 0.181168 0.874412
Si Si7 0.819718 0.815714 0.888978
Si Si8 0.061925 0.180030 0.104075
O O1 0.817625 0.220471 0.204974
O O2 0.911667 0.284392 0.382782
O O3 0.989910 0.238145 0.193988
O O4 0.911951 0.000000 0.298971
O O5 0.789316 0.500000 0.116345
O O6 0.657902 0.303676 0.159546
O O7 0.763509 0.243765 0.994509
O O8 0.996807 0.713969 0.573407
O O9 0.162572 0.783378 0.605406
O O10 0.054308 0.786154 0.777452
O O11 0.041349 0.000000 0.618628
O O12 0.879466 0.500000 0.533816
O O13 0.828874 0.786016 0.569973
O O14 0.218945 0.500000 0.633661
O O15 0.264820 0.278501 0.777137
O O16 0.408353 0.217820 0.884950
O O17 0.524235 0.000000 0.841603
O O18 0.557446 0.213960 0.992641
O O19 0.841955 0.000000 0.900440
O O20 0.042085 0.000000 0.069153
#
# Coordination Sequence:
#
# PCOD8054018 Si02
#       8
#     4   4   4   4   4   4   4   4
#     4  11  24  44  67  90 125 171 216 266 323 379
#     4  11  23  40  64  96 129 166 213 262 317 382
#     4  12  25  43  67  96 133 172 214 264 323 385
#     4  12  26  45  68  94 128 169 219 271 323 381
#     4  11  24  43  68  98 131 169 216 265 322 387
#     4  12  23  37  64  97 131 168 213 262 319 384
#     4  11  22  38  63  94 131 170 208 257 323 386
#     4  10  23  42  65  93 130 169 209 259 322 382
#
# _framework density 20.90964
#
# number of rings (size 3 to 8) (size 9 to 14) (size 15 to 20)
#    0.000    0.750    2.500    5.625    0.000    6.000 
#    0.000    3.750    0.000    0.000    0.000    0.000 
#    0.000    0.000    0.000    0.000    0.000    0.000 
#
# Total GULP energy -198530.557199 kJ/mol
# GULP energy per Si atom -12408.159825 kJ/mol
# Density = 2.086205 g / cm^3
# Si number density = 20.909640 Si / 1000 Ang^3
#
#
#
# Elastic Constant Matrix: (Units=GPa)
#
#
# Indices 1 2 3 4 5 6 
#
# 1 122.1833 18.6790 37.4427 0.0000 8.3670 0.0000
# 2 18.6790 54.0864 24.1571 0.0000 -3.8364 0.0000
# 3 37.4427 24.1571 105.0500 0.0000 -0.3531 0.0000
# 4 0.0000 0.0000 0.0000 42.2877 0.0000 -59.9777
# 5 8.3670 -3.8364 -0.3531 0.0000 5.1516 0.0000
# 6 0.0000 0.0000 0.0000 -59.9777 0.0000 490.5325
#
#
#
# Elastic Compliance Matrix: (Units=1/GPa)
#
#
# Indices 1 2 3 4 5 6 
#
# 1 0.011229 -0.003987 -0.003157 0.000000 -0.021422 0.000000
# 2 -0.003987 0.023253 -0.003847 0.000000 0.023529 0.000000
# 3 -0.003157 -0.003847 0.011540 0.000000 0.003054 0.000000
# 4 0.000000 0.000000 0.000000 0.028609 0.000000 0.003498
# 5 -0.021422 0.023529 0.003054 0.000000 0.246638 0.000000
# 6 0.000000 0.000000 0.000000 0.003498 0.000000 0.002466
#
#
# Mechanical properties :
#
#
# Convention : Reuss Voigt Hill
#
# Bulk Modulus (GPa) = 41.60047 49.09749 45.34898
# Shear Modulus (GPa) = 14.13509 120.99709 67.56609
#
# Velocity S-wave (km/s) = 2.60284 7.61527 5.69065
# Velocity P-wave (km/s) = 5.38252 10.04265 8.05687
#
# Compressibility (1/GPa) = 0.02403819
#
# Stress axis : x y z
#
# Youngs Moduli (GPa) = 89.05898 43.00508 86.65868
#
# Poissons Ratio (x) = 0.17147 0.27361
# Poissons Ratio (y) = 0.35509 0.33338
# Poissons Ratio (z) = 0.28118 0.16544
#
# Static dielectric constant tensor:
#      x y z
#    x 3.844670 0.000000 -0.021900 
#    y 0.000000 1.683580 0.000000 
#    z -0.021900 0.000000 3.747760 
# 
# 
# High freq. dielectric constant tensor:
#      x y z
#    x 1.832560 0.000000 0.000040 
#    y 0.000000 1.827130 0.000000 
#    z 0.000040 0.000000 1.812720 
# 
# From -- ./inp_files/21575.got.cif
#   From: 2010.03.12/outbox.cif.g09.slc.cpg/sg8_11_cif.got.tgz:21575.got - 2010.03.31 10:45:26.
