data_PCOD8054093
_publ_section_title
;
Structure prediction by ZEFSAII (Michael W. Deem and Ramdas Pophale) SiO2 
 PCOD8054093
Probable space group: C M
;
_chemical_formula_sum "Si O2"
_cell_formula_units_Z 24
_cell_length_a 9.207449
_cell_length_b 17.566638
_cell_length_c 9.539873
_cell_angle_alpha 90.000000
_cell_angle_beta 135.232289
_cell_angle_gamma 90.000000
_cell_volume 1086.645013
_symmetry_space_group_name_H-M "C M"
_symmetry_group_IT_number 8
_symmetry_cell_setting 'monoclinic'
loop_
_space_group_symop_operation_xyz
x,y,z
x,-y,z
1/2+x,1/2+y,z
1/2+x,1/2-y,z
loop_
_atom_site_type_symbol
_atom_site_label
_atom_site_fract_x
_atom_site_fract_y
_atom_site_fract_z
Si Si1 0.353840 0.858661 0.628700
Si Si2 0.607683 0.500000 0.578169
Si Si3 0.587482 0.885415 0.529710
Si Si4 0.655083 0.000000 0.161071
Si Si5 0.045265 0.253149 0.298435
Si Si6 0.950209 0.000000 0.761589
Si Si7 0.122013 0.668797 0.057178
Si Si8 0.839869 0.500000 0.193016
O O1 0.547144 0.887883 0.668974
O O2 0.224013 0.809398 0.428258
O O3 0.210583 0.925965 0.584829
O O4 0.442120 0.811132 0.822048
O O5 0.364788 0.500000 0.389629
O O6 0.621944 0.500000 0.755969
O O7 0.589680 0.801258 0.468629
O O8 0.807783 0.925252 0.655652
O O9 0.397369 0.926309 0.322122
O O10 0.646531 0.923111 0.062452
O O11 0.465365 0.000000 0.135604
O O12 0.058730 0.305308 0.169452
O O13 0.826163 0.212155 0.150155
O O14 0.092967 0.000000 0.998236
#
# Coordination Sequence:
#
# PCOD8054093 Si02
#       8
#     4   2   4   2   4   2   4   2
#     4  12  28  46  73 107 149 186 244 303 365 435
#     4  12  22  46  76 107 145 194 237 309 359 424
#     4  11  25  46  66 107 144 184 242 304 359 428
#     4  12  22  48  75 105 142 189 250 296 354 435
#     4  12  26  46  71 104 147 189 237 306 364 432
#     4  11  24  42  77 101 142 198 244 292 364 438
#     4  12  27  48  75 106 144 198 245 295 370 437
#     4  11  22  42  72 103 139 187 245 297 353 431
#
# _framework density 22.086328999999999
#
# number of rings (size 3 to 8) (size 9 to 14) (size 15 to 20)
#    0.000    0.333    6.667    2.500    2.333    2.667 
#    3.000    0.000    0.000    0.000    0.000    0.000 
#    0.000    0.000    0.000    0.000    0.000    0.000 
#
# Total GULP energy -148808.722905 kJ/mol
# GULP energy per Si atom -12400.726909 kJ/mol
# Density = 2.203606 g / cm^3
# Si number density = 22.086329 Si / 1000 Ang^3
#
#
#
# Elastic Constant Matrix: (Units=GPa)
#
#
# Indices 1 2 3 4 5 6 
#
# 1 116.4940 43.5484 40.1418 0.0000 -8.1668 0.0000
# 2 43.5484 112.2823 35.5203 0.0000 7.2530 0.0000
# 3 40.1418 35.5203 139.0988 0.0000 8.5038 0.0000
# 4 0.0000 0.0000 0.0000 -8.0730 0.0000 -22.4192
# 5 -8.1668 7.2530 8.5038 0.0000 28.4753 0.0000
# 6 0.0000 0.0000 0.0000 -22.4192 0.0000 15.6110
#
#
#
# Elastic Compliance Matrix: (Units=1/GPa)
#
#
# Indices 1 2 3 4 5 6 
#
# 1 0.011269 -0.003881 -0.002566 0.000000 0.004987 0.000000
# 2 -0.003881 0.011113 -0.001504 0.000000 -0.003494 0.000000
# 3 -0.002566 -0.001504 0.008490 0.000000 -0.002888 0.000000
# 4 0.000000 0.000000 0.000000 -0.024833 0.000000 -0.035662
# 5 0.004987 -0.003494 -0.002888 0.000000 0.038301 0.000000
# 6 0.000000 0.000000 0.000000 -0.035662 0.000000 0.012842
#
#
# Mechanical properties :
#
#
# Convention : Reuss Voigt Hill
#
# Bulk Modulus (GPa) = 66.80026 67.36622 67.08324
# Shear Modulus (GPa) = 64.04203 23.78031 43.91117
#
# Velocity S-wave (km/s) = 5.39066 3.28487 4.46372
# Velocity P-wave (km/s) = 8.31001 6.70482 7.55020
#
# Compressibility (1/GPa) = 0.01497000
#
# Stress axis : x y z
#
# Youngs Moduli (GPa) = 88.74192 89.98545 117.78201
#
# Poissons Ratio (x) = 0.34923 0.30220
# Poissons Ratio (y) = 0.34440 0.17717
# Poissons Ratio (z) = 0.22769 0.13535
#
# Static dielectric constant tensor:
#      x y z
#    x 3.918090 0.000000 -0.031130 
#    y 0.000000 4.025820 0.000000 
#    z -0.031130 0.000000 4.106150 
# 
# 
# High freq. dielectric constant tensor:
#      x y z
#    x 1.873110 0.000000 0.000570 
#    y 0.000000 1.871780 0.000000 
#    z 0.000570 0.000000 1.880110 
# 
# From -- ./inp_files/8674.got.cif
#   From: 2010.03.12/outbox.cif.g09.slc.cpg/sg8_5_cif.got.tgz:8674.got - 2010.03.31 10:45:26.
