data_PCOD8054966
_publ_section_title
;
Structure prediction by ZEFSAII (Michael W. Deem and Ramdas Pophale) SiO2 
 PCOD8054966
Probable space group: C C
;
_chemical_formula_sum "Si O2"
_cell_formula_units_Z 24
_cell_length_a 26.540435
_cell_length_b 7.570969
_cell_length_c 5.203581
_cell_angle_alpha 90.000000
_cell_angle_beta 89.187190
_cell_angle_gamma 90.000000
_cell_volume 1045.485760
_symmetry_space_group_name_H-M "C C"
_symmetry_group_IT_number 9
_symmetry_cell_setting 'monoclinic'
loop_
_space_group_symop_operation_xyz
x,y,z
x,-y,1/2+z
1/2+x,1/2+y,z
1/2+x,1/2-y,1/2+z
loop_
_atom_site_type_symbol
_atom_site_label
_atom_site_fract_x
_atom_site_fract_y
_atom_site_fract_z
Si Si1 0.841920 0.078648 0.852960
Si Si2 0.675546 0.387341 0.247479
Si Si3 0.585053 0.117620 0.257530
Si Si4 0.730042 0.928961 0.845032
Si Si5 0.402592 0.113993 0.266835
Si Si6 0.992746 0.118647 0.768064
O O1 0.847786 0.289538 0.801557
O O2 0.868900 0.971808 0.619458
O O3 0.784711 0.013522 0.897553
O O4 0.671156 0.538735 0.460790
O O5 0.633846 0.238630 0.293228
O O6 0.728755 0.281612 0.284341
O O7 0.537038 0.241353 0.294442
O O8 0.583829 0.968333 0.476024
O O9 0.701454 0.033291 0.616898
O O10 0.441112 0.274074 0.300755
O O11 0.409217 0.967578 0.485025
O O12 0.996824 0.025798 0.491774
#
# Coordination Sequence:
#
# PCOD8054966 Si02
#       6
#     4   4   4   4   4   4
#     4  10  21  41  63  86 120 163 207 254 314 374
#     4  12  24  41  64  95 127 164 211 262 313 373
#     4  12  24  42  66  95 130 169 208 256 310 373
#     4  10  21  41  63  86 120 163 207 254 314 374
#     4  12  24  41  64  95 127 164 211 262 313 373
#     4  12  24  42  66  95 130 169 208 256 310 373
#
# _framework density 22.955835
#
# number of rings (size 3 to 8) (size 9 to 14) (size 15 to 20)
#    0.000    0.667    0.000    9.000    0.000    0.000 
#    0.000   20.000    0.000    0.000    0.000    0.000 
#    0.000    0.000    0.000    0.000    0.000    0.000 
#
# Total GULP energy -148735.024711 kJ/mol
# GULP energy per Si atom -12394.585393 kJ/mol
# Density = 2.290359 g / cm^3
# Si number density = 22.955835 Si / 1000 Ang^3
#
#
#
# Elastic Constant Matrix: (Units=GPa)
#
#
# Indices 1 2 3 4 5 6 
#
# 1 68.2800 31.8746 -6.7383 0.0000 10.8720 0.0000
# 2 31.8746 100.0125 14.1118 0.0000 7.2864 0.0000
# 3 -6.7383 14.1118 132.9194 0.0000 -13.6590 0.0000
# 4 0.0000 0.0000 0.0000 67.3922 0.0000 -2.4614
# 5 10.8720 7.2864 -13.6590 0.0000 7.7585 0.0000
# 6 0.0000 0.0000 0.0000 -2.4614 0.0000 58.1085
#
#
#
# Elastic Compliance Matrix: (Units=1/GPa)
#
#
# Indices 1 2 3 4 5 6 
#
# 1 0.020993 -0.004513 -0.001275 0.000000 -0.027423 0.000000
# 2 -0.004513 0.012530 -0.002586 0.000000 -0.009998 0.000000
# 3 -0.001275 -0.002586 0.009970 0.000000 0.021768 0.000000
# 4 0.000000 0.000000 0.000000 0.014861 0.000000 0.000630
# 5 -0.027423 -0.009998 0.021768 0.000000 0.215032 0.000000
# 6 0.000000 0.000000 0.000000 0.000630 0.000000 0.017236
#
#
# Mechanical properties :
#
#
# Convention : Reuss Voigt Hill
#
# Bulk Modulus (GPa) = 37.38935 42.18980 39.78958
# Shear Modulus (GPa) = 15.80849 44.11610 29.96229
#
# Velocity S-wave (km/s) = 2.62706 4.38857 3.61670
# Velocity P-wave (km/s) = 5.05221 6.64063 5.90012
#
# Compressibility (1/GPa) = 0.02674559
#
# Stress axis : x y z
#
# Youngs Moduli (GPa) = 47.63502 79.80624 100.29808
#
# Poissons Ratio (x) = 0.36015 0.12785
# Poissons Ratio (y) = 0.21497 0.25942
# Poissons Ratio (z) = 0.06072 0.20642
#
# Static dielectric constant tensor:
#      x y z
#    x 4.541330 0.000000 0.031610 
#    y 0.000000 4.507670 0.000000 
#    z 0.031610 0.000000 5.031110 
# 
# 
# High freq. dielectric constant tensor:
#      x y z
#    x 1.898050 0.000000 -0.003800 
#    y 0.000000 1.914040 0.000000 
#    z -0.003800 0.000000 1.942820 
# 
# From -- ./inp_files/348.got.cif
#   From: 2010.06.25/outbox.cif.g09.slc.cpg/sg9_1_cif.got.tgz:348.got - 2010.06.27 21:40:51.
