data_PCOD8054360
_publ_section_title
;
Structure prediction by ZEFSAII (Michael W. Deem and Ramdas Pophale) SiO2 
 PCOD8054360
Probable space group: C C
;
_chemical_formula_sum "Si O2"
_cell_formula_units_Z 32
_cell_length_a 8.886256
_cell_length_b 29.908681
_cell_length_c 5.374936
_cell_angle_alpha 90.000000
_cell_angle_beta 101.565967
_cell_angle_gamma 90.000000
_cell_volume 1399.523048
_symmetry_space_group_name_H-M "C C"
_symmetry_group_IT_number 9
_symmetry_cell_setting 'monoclinic'
loop_
_space_group_symop_operation_xyz
x,y,z
x,-y,1/2+z
1/2+x,1/2+y,z
1/2+x,1/2-y,1/2+z
loop_
_atom_site_type_symbol
_atom_site_label
_atom_site_fract_x
_atom_site_fract_y
_atom_site_fract_z
Si Si1 0.286030 0.978243 0.269850
Si Si2 0.528975 0.246543 0.044823
Si Si3 0.538495 0.884014 0.905851
Si Si4 0.162736 0.659164 0.950191
Si Si5 0.626288 0.985194 0.888655
Si Si6 0.240088 0.118618 0.587222
Si Si7 0.737145 0.303535 0.443962
Si Si8 0.496320 0.334487 0.739651
O O1 0.248419 0.925614 0.258520
O O2 0.213295 0.999250 0.496974
O O3 0.469070 0.985615 0.329107
O O4 0.629881 0.212187 0.911184
O O5 0.630014 0.264637 0.301169
O O6 0.382912 0.220920 0.115605
O O7 0.465242 0.286834 0.855771
O O8 0.620897 0.864776 0.179187
O O9 0.355275 0.886488 0.889885
O O10 0.569404 0.856540 0.664720
O O11 0.601254 0.932949 0.877898
O O12 0.343060 0.649200 0.053693
O O13 0.717989 0.999393 0.667832
O O14 0.300320 0.162223 0.756309
O O15 0.061259 0.127935 0.453243
O O16 0.640586 0.331533 0.605743
#
# Coordination Sequence:
#
# PCOD8054360 Si02
#       8
#     4   4   4   4   4   4   4   4
#     4  10  21  35  67 102 137 168 223 294 341 401
#     4  11  24  42  65 100 130 187 233 286 344 403
#     4  12  25  42  72 106 136 177 238 285 350 408
#     4  12  28  45  69 100 145 186 225 288 350 417
#     4  10  19  36  66 104 134 169 220 295 338 399
#     4  11  24  42  68 106 132 183 233 292 347 405
#     4  11  25  42  69  95 142 178 241 286 344 412
#     4  11  28  44  66  97 144 188 231 290 344 423
#
# _framework density 22.864933000000001
#
# number of rings (size 3 to 8) (size 9 to 14) (size 15 to 20)
#    0.000    1.000    5.000    1.500   10.500    0.000 
#    0.000    0.000    0.000    4.500    0.000    0.000 
#    0.000    0.000    0.000    0.000    0.000    0.000 
#
# Total GULP energy -198354.443075 kJ/mol
# GULP energy per Si atom -12397.152692 kJ/mol
# Density = 2.281289 g / cm^3
# Si number density = 22.864933 Si / 1000 Ang^3
#
#
#
# Elastic Constant Matrix: (Units=GPa)
#
#
# Indices 1 2 3 4 5 6 
#
# 1 49.0794 13.0706 14.0325 0.0000 5.7850 0.0000
# 2 13.0706 103.0846 37.4840 0.0000 12.2876 0.0000
# 3 14.0325 37.4840 125.0812 0.0000 -6.8106 0.0000
# 4 0.0000 0.0000 0.0000 32.7285 0.0000 4.3917
# 5 5.7850 12.2876 -6.8106 0.0000 39.6379 0.0000
# 6 0.0000 0.0000 0.0000 4.3917 0.0000 16.5352
#
#
#
# Elastic Compliance Matrix: (Units=1/GPa)
#
#
# Indices 1 2 3 4 5 6 
#
# 1 0.021773 -0.001628 -0.002120 0.000000 -0.003037 0.000000
# 2 -0.001628 0.011666 -0.003530 0.000000 -0.003985 0.000000
# 3 -0.002120 -0.003530 0.009456 0.000000 0.003029 0.000000
# 4 0.000000 0.000000 0.000000 0.031684 0.000000 -0.008415
# 5 -0.003037 -0.003985 0.003029 0.000000 0.027427 0.000000
# 6 0.000000 0.000000 0.000000 -0.008415 0.000000 0.062712
#
#
# Mechanical properties :
#
#
# Convention : Reuss Voigt Hill
#
# Bulk Modulus (GPa) = 35.28869 45.15771 40.22320
# Shear Modulus (GPa) = 26.49430 31.95756 29.22593
#
# Velocity S-wave (km/s) = 3.40771 3.74259 3.57907
# Velocity P-wave (km/s) = 5.56330 6.20231 5.89148
#
# Compressibility (1/GPa) = 0.02833769
#
# Stress axis : x y z
#
# Youngs Moduli (GPa) = 45.92881 85.71950 105.75792
#
# Poissons Ratio (x) = 0.13952 0.22423
# Poissons Ratio (y) = 0.07476 0.37337
# Poissons Ratio (z) = 0.09738 0.30263
#
# Static dielectric constant tensor:
#      x y z
#    x 3.816690 0.000000 -0.135940 
#    y 0.000000 4.183440 0.000000 
#    z -0.135940 0.000000 4.682970 
# 
# 
# High freq. dielectric constant tensor:
#      x y z
#    x 1.864630 0.000000 -0.001550 
#    y 0.000000 1.914040 0.000000 
#    z -0.001550 0.000000 1.913870 
# 
# From -- ./inp_files/1225.got.cif
#   From: 2010.06.25/outbox.cif.g09.slc.cpg/sg9_1_cif.got.tgz:1225.got - 2010.06.27 21:40:51.
