data_PCOD8054941
_publ_section_title
;
Structure prediction by ZEFSAII (Michael W. Deem and Ramdas Pophale) SiO2 
 PCOD8054941
Probable space group: C C
;
_chemical_formula_sum "Si O2"
_cell_formula_units_Z 24
_cell_length_a 11.705760
_cell_length_b 9.224039
_cell_length_c 11.579411
_cell_angle_alpha 90.000000
_cell_angle_beta 111.132253
_cell_angle_gamma 90.000000
_cell_volume 1166.199407
_symmetry_space_group_name_H-M "C C"
_symmetry_group_IT_number 9
_symmetry_cell_setting 'monoclinic'
loop_
_space_group_symop_operation_xyz
x,y,z
x,-y,1/2+z
1/2+x,1/2+y,z
1/2+x,1/2-y,1/2+z
loop_
_atom_site_type_symbol
_atom_site_label
_atom_site_fract_x
_atom_site_fract_y
_atom_site_fract_z
Si Si1 0.262530 0.512797 0.905540
Si Si2 0.452619 0.272809 0.016328
Si Si3 0.175349 0.202538 0.448822
Si Si4 0.232151 0.104613 0.003255
Si Si5 0.283179 0.238313 0.257425
Si Si6 0.053988 0.720344 0.299273
O O1 0.285918 0.589011 0.788726
O O2 0.141040 0.417382 0.848244
O O3 0.377573 0.422665 0.992032
O O4 0.244104 0.643191 0.993450
O O5 0.533743 0.272058 0.930071
O O6 0.357231 0.138855 0.978790
O O7 0.539905 0.261286 0.159523
O O8 0.197751 0.158114 0.322004
O O9 0.229637 0.065118 0.539881
O O10 0.224472 0.209534 0.111664
O O11 0.113314 0.140084 0.883148
O O12 0.423145 0.180645 0.307994
#
# Coordination Sequence:
#
# PCOD8054941 Si02
#       6
#     4   4   4   4   4   4
#     4   9  22  42  62  92 123 169 208 254 314 371
#     4  10  22  41  64  93 124 164 210 259 311 373
#     4  10  23  39  65  92 122 168 213 252 314 371
#     4  10  22  42  63  91 129 163 208 265 308 373
#     4   9  22  42  61  92 127 163 211 253 314 365
#     4  10  21  40  67  90 127 165 204 263 317 365
#
# _framework density 20.57967
#
# number of rings (size 3 to 8) (size 9 to 14) (size 15 to 20)
#    1.000    1.333    0.000    1.000    4.667    4.000 
#    3.000    6.667    0.000    0.000    0.000    0.000 
#    0.000    0.000    0.000    0.000    0.000    0.000 
#
# Total GULP energy -148657.935645 kJ/mol
# GULP energy per Si atom -12388.161304 kJ/mol
# Density = 2.053283 g / cm^3
# Si number density = 20.579670 Si / 1000 Ang^3
#
#
#
# Elastic Constant Matrix: (Units=GPa)
#
#
# Indices 1 2 3 4 5 6 
#
# 1 160.0115 34.8524 40.7074 0.0000 -13.2535 0.0000
# 2 34.8524 134.7434 26.4805 0.0000 4.4998 0.0000
# 3 40.7074 26.4805 85.6133 0.0000 9.5222 0.0000
# 4 0.0000 0.0000 0.0000 22.5904 0.0000 -5.0959
# 5 -13.2535 4.4998 9.5222 0.0000 23.9590 0.0000
# 6 0.0000 0.0000 0.0000 -5.0959 0.0000 30.3336
#
#
#
# Elastic Compliance Matrix: (Units=1/GPa)
#
#
# Indices 1 2 3 4 5 6 
#
# 1 0.008164 -0.001515 -0.004129 0.000000 0.006442 0.000000
# 2 -0.001515 0.008190 -0.001620 0.000000 -0.001732 0.000000
# 3 -0.004129 -0.001620 0.015030 0.000000 -0.007953 0.000000
# 4 0.000000 0.000000 0.000000 0.046010 0.000000 0.007730
# 5 0.006442 -0.001732 -0.007953 0.000000 0.048788 0.000000
# 6 0.000000 0.000000 0.000000 0.007730 0.000000 0.034265
#
#
# Mechanical properties :
#
#
# Convention : Reuss Voigt Hill
#
# Bulk Modulus (GPa) = 59.33431 64.93877 62.13654
# Shear Modulus (GPa) = 27.68652 33.93178 30.80915
#
# Velocity S-wave (km/s) = 3.67186 4.06495 3.87339
# Velocity P-wave (km/s) = 6.84623 7.32496 7.08964
#
# Compressibility (1/GPa) = 0.01685365
#
# Stress axis : x y z
#
# Youngs Moduli (GPa) = 122.49364 122.10538 66.53540
#
# Poissons Ratio (x) = 0.18501 0.27476
# Poissons Ratio (y) = 0.18560 0.10779
# Poissons Ratio (z) = 0.50584 0.19781
#
# Static dielectric constant tensor:
#      x y z
#    x 3.859130 0.000000 -0.053630 
#    y 0.000000 3.772110 0.000000 
#    z -0.053630 0.000000 3.378940 
# 
# 
# High freq. dielectric constant tensor:
#      x y z
#    x 1.816910 0.000000 -0.003350 
#    y 0.000000 1.807560 0.000000 
#    z -0.003350 0.000000 1.771830 
# 
# From -- ./inp_files/23996.got.cif
#   From: 2010.06.25/outbox.cif.g09.slc.cpg/sg9_12_cif.got.tgz:23996.got - 2010.06.27 21:40:51.
