data_PCOD8054756
_publ_section_title
;
Structure prediction by ZEFSAII (Michael W. Deem and Ramdas Pophale) SiO2 
 PCOD8054756
Probable space group: C C
;
_chemical_formula_sum "Si O2"
_cell_formula_units_Z 28
_cell_length_a 13.240784
_cell_length_b 13.240784
_cell_length_c 9.111346
_cell_angle_alpha 90.000000
_cell_angle_beta 43.397031
_cell_angle_gamma 90.000000
_cell_volume 1097.483997
_symmetry_space_group_name_H-M "C C"
_symmetry_group_IT_number 9
_symmetry_cell_setting 'monoclinic'
loop_
_space_group_symop_operation_xyz
x,y,z
x,-y,1/2+z
1/2+x,1/2+y,z
1/2+x,1/2-y,1/2+z
loop_
_atom_site_type_symbol
_atom_site_label
_atom_site_fract_x
_atom_site_fract_y
_atom_site_fract_z
Si Si1 0.493230 0.477015 0.022610
Si Si2 0.028768 0.432104 0.861713
Si Si3 0.732797 0.317896 0.861713
Si Si4 0.107438 0.272985 0.022610
Si Si5 0.715558 0.625000 0.692162
Si Si6 0.866464 0.875000 0.890349
Si Si7 0.064653 0.625000 0.993974
O O1 0.628630 0.413072 0.942161
O O2 0.401113 0.530109 0.248165
O O3 0.564606 0.561810 0.841706
O O4 0.383517 0.409146 0.041440
O O5 0.853521 0.451180 0.042617
O O6 0.106052 0.532402 0.842883
O O7 0.052486 0.336928 0.942162
O O8 0.088452 0.411444 0.636157
O O9 0.727139 0.298820 0.042618
O O10 0.674344 0.217598 0.842882
O O11 0.898670 0.338556 0.636158
O O12 0.974000 0.219891 0.248166
O O13 0.216967 0.188191 0.841705
O O14 0.198320 0.340855 0.041440
#
# Coordination Sequence:
#
# PCOD8054756 Si02
#       7
#     4   4   4   4   4   4   4
#     4  11  23  43  71 102 133 182 232 285 338 418
#     4  11  23  43  71 102 133 182 232 285 338 418
#     4  11  23  43  71 102 133 182 232 285 338 418
#     4  11  23  43  71 102 133 182 232 285 338 418
#     4  10  20  44  68  96 126 184 222 270 340 416
#     4  11  26  43  73  98 141 178 232 285 348 409
#     4  11  26  43  73  98 141 178 232 285 348 409
#
# _framework density 25.512899999999998
#
# number of rings (size 3 to 8) (size 9 to 14) (size 15 to 20)
#    0.000    1.143    5.714    0.000    0.000    4.571 
#    0.000    0.000    0.000    0.000    0.000    0.000 
#    0.000    0.000    0.000    0.000    0.000    0.000 
#
# Total GULP energy -173637.489098 kJ/mol
# GULP energy per Si atom -12402.677793 kJ/mol
# Density = 2.545483 g / cm^3
# Si number density = 25.512900 Si / 1000 Ang^3
#
#
#
# Elastic Constant Matrix: (Units=GPa)
#
#
# Indices 1 2 3 4 5 6 
#
# 1 122.6804 36.5824 19.0350 0.0000 5.6190 0.0000
# 2 36.5824 123.9336 19.1417 0.0000 1.9670 0.0000
# 3 19.0350 19.1417 31.8680 0.0000 4.6223 0.0000
# 4 0.0000 0.0000 0.0000 27.3251 0.0000 3.7170
# 5 5.6190 1.9670 4.6223 0.0000 27.0235 0.0000
# 6 0.0000 0.0000 0.0000 3.7170 0.0000 60.2835
#
#
#
# Elastic Compliance Matrix: (Units=1/GPa)
#
#
# Indices 1 2 3 4 5 6 
#
# 1 0.009494 -0.002131 -0.004232 0.000000 -0.001095 0.000000
# 2 -0.002131 0.009374 -0.004433 0.000000 0.000519 0.000000
# 3 -0.004232 -0.004433 0.037321 0.000000 -0.005181 0.000000
# 4 0.000000 0.000000 0.000000 0.036906 0.000000 -0.002276
# 5 -0.001095 0.000519 -0.005181 0.000000 0.038081 0.000000
# 6 0.000000 0.000000 0.000000 -0.002276 0.000000 0.016729
#
#
# Mechanical properties :
#
#
# Convention : Reuss Voigt Hill
#
# Bulk Modulus (GPa) = 28.90392 47.55556 38.22974
# Shear Modulus (GPa) = 27.61990 36.50795 32.06393
#
# Velocity S-wave (km/s) = 3.29384 3.78691 3.54895
# Velocity P-wave (km/s) = 5.08129 6.14827 5.64007
#
# Compressibility (1/GPa) = 0.03459739
#
# Stress axis : x y z
#
# Youngs Moduli (GPa) = 105.33491 106.67353 26.79441
#
# Poissons Ratio (x) = 0.22736 0.11338
# Poissons Ratio (y) = 0.22450 0.11878
# Poissons Ratio (z) = 0.44573 0.47288
#
# Static dielectric constant tensor:
#      x y z
#    x 4.573470 0.000000 0.028530 
#    y 0.000000 4.576650 0.000000 
#    z 0.028530 0.000000 4.320510 
# 
# 
# High freq. dielectric constant tensor:
#      x y z
#    x 2.022000 0.000000 -0.000200 
#    y 0.000000 2.021970 0.000000 
#    z -0.000200 0.000000 2.023760 
# 
# From -- ./inp_files/7352.got.cif
#   From: 2010.06.25/outbox.cif.g09.slc.cpg/sg9_4_cif.got.tgz:7352.got - 2010.06.27 21:40:51.
