data_PCOD8054355
_publ_section_title
;
Structure prediction by ZEFSAII (Michael W. Deem and Ramdas Pophale) SiO2 
 PCOD8054355
Probable space group: C C
;
_chemical_formula_sum "Si O2"
_cell_formula_units_Z 28
_cell_length_a 5.249901
_cell_length_b 31.530888
_cell_length_c 6.444921
_cell_angle_alpha 90.000000
_cell_angle_beta 78.551824
_cell_angle_gamma 90.000000
_cell_volume 1045.628364
_symmetry_space_group_name_H-M "C C"
_symmetry_group_IT_number 9
_symmetry_cell_setting 'monoclinic'
loop_
_space_group_symop_operation_xyz
x,y,z
x,-y,1/2+z
1/2+x,1/2+y,z
1/2+x,1/2-y,1/2+z
loop_
_atom_site_type_symbol
_atom_site_label
_atom_site_fract_x
_atom_site_fract_y
_atom_site_fract_z
Si Si1 0.745200 0.306595 0.613230
Si Si2 0.435832 0.462003 0.269389
Si Si3 0.914699 0.783824 0.001001
Si Si4 0.949306 0.579521 0.704822
Si Si5 0.873017 0.672811 0.650143
Si Si6 0.870730 0.603213 0.196281
Si Si7 0.359404 0.440736 0.742835
O O1 0.925419 0.264768 0.571511
O O2 0.705727 0.323885 0.388200
O O3 0.887644 0.345372 0.715056
O O4 0.458304 0.291974 0.746114
O O5 0.735329 0.454256 0.158010
O O6 0.392839 0.437774 0.490290
O O7 0.382664 0.511222 0.319213
O O8 0.238782 0.441847 0.125569
O O9 0.658999 0.806705 0.126469
O O10 0.195186 0.802875 0.017122
O O11 0.907007 0.623487 0.586310
O O12 0.930963 0.588017 0.953266
O O13 0.582624 0.588323 0.308789
O O14 0.072913 0.580259 0.326051
#
# Coordination Sequence:
#
# PCOD8054355 Si02
#       7
#     4   4   4   4   4   4   4
#     4  11  26  48  72 101 143 182 231 292 346 411
#     4  10  19  36  62  89 123 164 216 264 324 399
#     4  12  27  43  73 104 135 181 238 280 351 421
#     4   9  19  39  64  87 124 174 211 264 339 395
#     4  11  26  47  70 101 143 180 227 292 347 412
#     4   9  21  39  63  87 127 174 212 265 337 398
#     4  10  20  38  60  91 123 167 215 263 330 394
#
# _framework density 26.778158000000001
#
# number of rings (size 3 to 8) (size 9 to 14) (size 15 to 20)
#    0.000    1.714    1.429    1.714    2.000    6.857 
#    7.714    0.000    0.000    0.000    0.000    0.000 
#    0.000    0.000    0.000    0.000    0.000    0.000 
#
# Total GULP energy -173606.462712 kJ/mol
# GULP energy per Si atom -12400.461622 kJ/mol
# Density = 2.671721 g / cm^3
# Si number density = 26.778158 Si / 1000 Ang^3
#
#
#
# Elastic Constant Matrix: (Units=GPa)
#
#
# Indices 1 2 3 4 5 6 
#
# 1 208.2642 108.5632 34.8449 0.0000 -14.3833 0.0000
# 2 108.5632 230.2331 38.1800 0.0000 -5.6772 0.0000
# 3 34.8449 38.1800 61.1621 0.0000 -19.1885 0.0000
# 4 0.0000 0.0000 0.0000 45.2732 0.0000 -4.7048
# 5 -14.3833 -5.6772 -19.1885 0.0000 33.5416 0.0000
# 6 0.0000 0.0000 0.0000 -4.7048 0.0000 36.5071
#
#
#
# Elastic Compliance Matrix: (Units=1/GPa)
#
#
# Indices 1 2 3 4 5 6 
#
# 1 0.006643 -0.002839 -0.001547 0.000000 0.001483 0.000000
# 2 -0.002839 0.006093 -0.002735 0.000000 -0.001751 0.000000
# 3 -0.001547 -0.002735 0.022651 0.000000 0.011832 0.000000
# 4 0.000000 0.000000 0.000000 0.022388 0.000000 0.002885
# 5 0.001483 -0.001751 0.011832 0.000000 0.036922 0.000000
# 6 0.000000 0.000000 0.000000 0.002885 0.000000 0.027764
#
#
# Mechanical properties :
#
#
# Convention : Reuss Voigt Hill
#
# Bulk Modulus (GPa) = 47.29531 95.87064 71.58298
# Shear Modulus (GPa) = 34.78260 44.26914 39.52587
#
# Velocity S-wave (km/s) = 3.60796 4.07034 3.84611
# Velocity P-wave (km/s) = 5.92087 7.61379 6.82006
#
# Compressibility (1/GPa) = 0.02114375
#
# Stress axis : x y z
#
# Youngs Moduli (GPa) = 150.53744 164.13303 44.14900
#
# Poissons Ratio (x) = 0.46602 0.06829
# Poissons Ratio (y) = 0.42742 0.12075
# Poissons Ratio (z) = 0.23286 0.44891
#
# Static dielectric constant tensor:
#      x y z
#    x 4.788790 0.000000 -0.006870 
#    y 0.000000 4.761480 0.000000 
#    z -0.006870 0.000000 5.313140 
# 
# 
# High freq. dielectric constant tensor:
#      x y z
#    x 2.061600 0.000000 -0.005150 
#    y 0.000000 2.081930 0.000000 
#    z -0.005150 0.000000 2.133100 
# 
# From -- ./inp_files/4238.got.cif
#   From: 2010.06.25/outbox.cif.g09.slc.cpg/sg9_3_cif.got.tgz:4238.got - 2010.06.27 21:40:51.
