data_PCOD8054580
_publ_section_title
;
Structure prediction by ZEFSAII (Michael W. Deem and Ramdas Pophale) SiO2 
 PCOD8054580
Probable space group: C C
;
_chemical_formula_sum "Si O2"
_cell_formula_units_Z 32
_cell_length_a 12.364554
_cell_length_b 20.462602
_cell_length_c 9.097292
_cell_angle_alpha 90.000000
_cell_angle_beta 137.376386
_cell_angle_gamma 90.000000
_cell_volume 1558.673366
_symmetry_space_group_name_H-M "C C"
_symmetry_group_IT_number 9
_symmetry_cell_setting 'monoclinic'
loop_
_space_group_symop_operation_xyz
x,y,z
x,-y,1/2+z
1/2+x,1/2+y,z
1/2+x,1/2-y,1/2+z
loop_
_atom_site_type_symbol
_atom_site_label
_atom_site_fract_x
_atom_site_fract_y
_atom_site_fract_z
Si Si1 0.214630 0.680691 0.271830
Si Si2 0.709685 0.555651 0.257644
Si Si3 0.715556 0.179980 0.606424
Si Si4 0.342525 0.555703 0.890555
Si Si5 0.840551 0.559922 0.706943
Si Si6 0.711692 0.940153 0.578136
Si Si7 0.837856 0.319225 0.394943
Si Si8 0.336697 0.179948 0.227454
O O1 0.275093 0.668570 0.498595
O O2 0.279044 0.622837 0.232956
O O3 0.276355 0.749930 0.272312
O O4 0.026243 0.681355 0.082298
O O5 0.737440 0.551071 0.458629
O O6 0.821674 0.503579 0.288941
O O7 0.753571 0.627605 0.247959
O O8 0.526080 0.539899 0.039498
O O9 0.798725 0.127705 0.793408
O O10 0.526126 0.174691 0.431521
O O11 0.776050 0.250036 0.722945
O O12 0.230414 0.503724 0.697547
O O13 0.314811 0.551036 0.036059
O O14 0.773331 0.622990 0.726981
O O15 0.026136 0.568349 0.851601
O O16 0.777268 0.331389 0.500594
#
# Coordination Sequence:
#
# PCOD8054580 Si02
#       8
#     4   4   4   4   4   4   4   4
#     4   9  20  37  61  88 116 151 193 238 290 349
#     4  12  25  40  60  89 120 155 199 250 302 358
#     4  10  20  38  62  89 120 157 198 244 297 357
#     4  12  25  40  60  89 120 155 199 250 302 358
#     4  11  23  41  62  86 118 159 200 244 299 360
#     4  11  23  41  62  86 118 159 200 244 299 360
#     4   9  20  37  61  88 116 151 193 238 290 349
#     4  10  20  38  62  89 120 157 198 244 297 357
#
# _framework density 20.530280000000001
#
# number of rings (size 3 to 8) (size 9 to 14) (size 15 to 20)
#    0.000    1.500    0.000    5.250    0.000    6.000 
#    0.000    2.500    0.000    0.000    0.000    0.000 
#    0.000    0.000    0.000    0.000    0.000    0.000 
#
# Total GULP energy -198505.203418 kJ/mol
# GULP energy per Si atom -12406.575214 kJ/mol
# Density = 2.048355 g / cm^3
# Si number density = 20.530280 Si / 1000 Ang^3
#
#
#
# Elastic Constant Matrix: (Units=GPa)
#
#
# Indices 1 2 3 4 5 6 
#
# 1 68.1214 34.9660 22.9100 0.0000 -12.3973 0.0000
# 2 34.9660 142.6233 36.0975 0.0000 -25.5171 0.0000
# 3 22.9100 36.0975 69.2862 0.0000 -12.9337 0.0000
# 4 0.0000 0.0000 0.0000 91.6043 0.0000 -56.6187
# 5 -12.3973 -25.5171 -12.9337 0.0000 34.6950 0.0000
# 6 0.0000 0.0000 0.0000 -56.6187 0.0000 88.2737
#
#
#
# Elastic Compliance Matrix: (Units=1/GPa)
#
#
# Indices 1 2 3 4 5 6 
#
# 1 0.018007 -0.002920 -0.003904 0.000000 0.002831 0.000000
# 2 -0.002920 0.009331 -0.003020 0.000000 0.004694 0.000000
# 3 -0.003904 -0.003020 0.017865 0.000000 0.003044 0.000000
# 4 0.000000 0.000000 0.000000 0.018087 0.000000 0.011601
# 5 0.002831 0.004694 0.003044 0.000000 0.034421 0.000000
# 6 0.000000 0.000000 0.000000 0.011601 0.000000 0.018769
#
#
# Mechanical properties :
#
#
# Convention : Reuss Voigt Hill
#
# Bulk Modulus (GPa) = 39.19204 51.99755 45.59479
# Shear Modulus (GPa) = 34.56046 55.31842 44.93944
#
# Velocity S-wave (km/s) = 4.10736 5.19647 4.68368
# Velocity P-wave (km/s) = 6.45176 7.83496 7.17676
#
# Compressibility (1/GPa) = 0.02551539
#
# Stress axis : x y z
#
# Youngs Moduli (GPa) = 55.53475 107.16450 55.97406
#
# Poissons Ratio (x) = 0.31291 0.21854
# Poissons Ratio (y) = 0.16215 0.16904
# Poissons Ratio (z) = 0.21683 0.32363
#
# Static dielectric constant tensor:
#      x y z
#    x 3.672810 0.000000 -0.081630 
#    y 0.000000 1.115700 0.000000 
#    z -0.081630 0.000000 3.676830 
# 
# 
# High freq. dielectric constant tensor:
#      x y z
#    x 1.801680 0.000000 0.000900 
#    y 0.000000 1.817400 0.000000 
#    z 0.000900 0.000000 1.801600 
# 
# From -- ./inp_files/8264.got.cif
#   From: 2010.06.25/outbox.cif.g09.slc.cpg/sg9_5_cif.got.tgz:8264.got - 2010.06.27 21:40:51.
