data_PCOD8054052
_publ_section_title
;
Structure prediction by ZEFSAII (Michael W. Deem and Ramdas Pophale) SiO2 
 PCOD8054052
Probable space group: C M
;
_chemical_formula_sum "Si O2"
_cell_formula_units_Z 32
_cell_length_a 20.049157
_cell_length_b 8.789413
_cell_length_c 25.072426
_cell_angle_alpha 90.000000
_cell_angle_beta 156.669085
_cell_angle_gamma 90.000000
_cell_volume 1749.816493
_symmetry_space_group_name_H-M "C M"
_symmetry_group_IT_number 8
_symmetry_cell_setting 'monoclinic'
loop_
_space_group_symop_operation_xyz
x,y,z
x,-y,z
1/2+x,1/2+y,z
1/2+x,1/2-y,z
loop_
_atom_site_type_symbol
_atom_site_label
_atom_site_fract_x
_atom_site_fract_y
_atom_site_fract_z
Si Si1 0.365810 0.677587 0.397940
Si Si2 0.704395 0.679296 0.934349
Si Si3 0.101445 0.819785 0.480249
Si Si4 0.408866 0.821394 0.775396
Si Si5 0.698853 0.680452 0.438489
Si Si6 0.680144 0.675202 0.703949
Si Si7 0.055897 0.179566 0.222436
Si Si8 0.077172 0.679137 0.731946
O O1 0.316113 0.500000 0.361494
O O2 0.436430 0.731684 0.391924
O O3 0.509040 0.711663 0.546636
O O4 0.203963 0.780349 0.289979
O O5 0.702550 0.500000 0.930203
O O6 0.583051 0.734671 0.893001
O O7 0.647854 0.744209 0.836399
O O8 0.890446 0.735009 0.083181
O O9 0.272563 0.757746 0.632857
O O10 0.092960 0.764502 0.412681
O O11 0.113051 0.000000 0.493349
O O12 0.341482 0.786886 0.785472
O O13 0.440321 0.000000 0.790571
O O14 0.705079 0.500000 0.440226
O O15 0.608572 0.743458 0.319444
O O16 0.889208 0.741962 0.582653
O O17 0.683697 0.500000 0.723925
O O18 0.692113 0.777714 0.765578
O O19 0.024345 0.000000 0.199421
O O20 0.079397 0.500000 0.742739
#
# Coordination Sequence:
#
# PCOD8054052 Si02
#       8
#     4   4   4   4   4   4   4   4
#     4   9  17  31  54  82 112 145 179 225 275 325
#     4  12  25  39  55  80 113 151 192 238 285 333
#     4   8  14  29  55  83 109 138 178 224 272 325
#     4   9  17  34  58  82 112 150 186 224 275 337
#     4   9  17  31  56  85 108 136 183 230 270 323
#     4   9  18  32  55  87 118 146 183 229 277 330
#     4  11  22  37  56  80 111 150 187 226 279 342
#     4  11  20  35  59  85 113 146 188 236 279 333
#
# _framework density 18.287631999999999
#
# number of rings (size 3 to 8) (size 9 to 14) (size 15 to 20)
#    0.000    2.250    2.500    3.375    0.000    0.500 
#    0.000    3.125    0.000    6.000    0.000    0.000 
#    0.000    0.000    0.000    0.000    0.000    0.000 
#
# Total GULP energy -198373.971149 kJ/mol
# GULP energy per Si atom -12398.373197 kJ/mol
# Density = 1.824601 g / cm^3
# Si number density = 18.287632 Si / 1000 Ang^3
#
#
#
# Elastic Constant Matrix: (Units=GPa)
#
#
# Indices 1 2 3 4 5 6 
#
# 1 145.6801 44.1989 62.4420 -0.0061 10.8375 -0.0005
# 2 44.1989 72.5458 40.8081 -0.0150 2.0693 -0.0010
# 3 62.4420 40.8081 96.0194 -0.0218 4.2582 -0.0029
# 4 -0.0061 -0.0150 -0.0218 21.9371 -0.0018 5.6975
# 5 10.8375 2.0693 4.2582 -0.0018 26.5351 0.0009
# 6 -0.0005 -0.0010 -0.0029 5.6975 0.0009 29.4179
#
#
#
# Elastic Compliance Matrix: (Units=1/GPa)
#
#
# Indices 1 2 3 4 5 6 
#
# 1 0.010309 -0.003283 -0.005170 -0.000005 -0.003125 0.000001
# 2 -0.003283 0.019162 -0.006045 0.000007 0.000817 -0.000001
# 3 -0.005170 -0.006045 0.016347 0.000011 -0.000040 -0.000001
# 4 -0.000005 0.000007 0.000011 0.047999 0.000003 -0.009296
# 5 -0.003125 0.000817 -0.000040 0.000003 0.038905 -0.000002
# 6 0.000001 -0.000001 -0.000001 -0.009296 -0.000002 0.035793
#
#
# Mechanical properties :
#
#
# Convention : Reuss Voigt Hill
#
# Bulk Modulus (GPa) = 59.44620 67.68260 63.56440
# Shear Modulus (GPa) = 24.61608 26.69777 25.65693
#
# Velocity S-wave (km/s) = 3.67284 3.82498 3.74968
# Velocity P-wave (km/s) = 7.11077 7.52315 7.31986
#
# Compressibility (1/GPa) = 0.01682193
#
# Stress axis : x y z
#
# Youngs Moduli (GPa) = 97.00287 52.18710 61.17185
#
# Poissons Ratio (x) = 0.17136 0.31625
# Poissons Ratio (y) = 0.31851 0.36977
# Poissons Ratio (z) = 0.50150 0.31546
#
# Static dielectric constant tensor:
#      x y z
#    x 3.713750 0.000000 0.046980 
#    y 0.000000 3.102240 0.000000 
#    z 0.046980 0.000000 3.216140 
# 
# 
# High freq. dielectric constant tensor:
#      x y z
#    x 1.726320 0.000000 0.009500 
#    y 0.000000 1.685300 0.000000 
#    z 0.009500 0.000000 1.684330 
# 
# From -- ./inp_files/24317.got.cif
#   From: 2010.03.12/outbox.cif.g09.slc.cpg/sg8_13_cif.got.tgz:24317.got - 2010.03.31 10:45:26.
