data_PCOD8054464
_publ_section_title
;
Structure prediction by ZEFSAII (Michael W. Deem and Ramdas Pophale) SiO2 
 PCOD8054464
Probable space group: C C
;
_chemical_formula_sum "Si O2"
_cell_formula_units_Z 28
_cell_length_a 17.026645
_cell_length_b 16.291264
_cell_length_c 5.063494
_cell_angle_alpha 90.000000
_cell_angle_beta 66.838165
_cell_angle_gamma 90.000000
_cell_volume 1291.330773
_symmetry_space_group_name_H-M "C C"
_symmetry_group_IT_number 9
_symmetry_cell_setting 'monoclinic'
loop_
_space_group_symop_operation_xyz
x,y,z
x,-y,1/2+z
1/2+x,1/2+y,z
1/2+x,1/2-y,1/2+z
loop_
_atom_site_type_symbol
_atom_site_label
_atom_site_fract_x
_atom_site_fract_y
_atom_site_fract_z
Si Si1 0.839020 0.555309 0.494380
Si Si2 0.936479 0.713004 0.199979
Si Si3 0.745561 0.042877 0.637434
Si Si4 0.011075 0.787696 0.626430
Si Si5 0.943371 0.957762 0.851580
Si Si6 0.701693 0.683151 0.772625
Si Si7 0.760032 0.769807 0.210206
O O1 0.848515 0.518070 0.773312
O O2 0.912567 0.621475 0.326379
O O3 0.745603 0.598606 0.614498
O O4 0.852499 0.763037 0.223192
O O5 0.982686 0.758812 0.377512
O O6 0.000230 0.715138 0.860734
O O7 0.844515 0.018760 0.500282
O O8 0.731166 0.139402 0.673904
O O9 0.700889 0.005717 0.436937
O O10 0.105793 0.825797 0.503733
O O11 0.950016 0.861068 0.800118
O O12 0.988050 0.010883 0.560458
O O13 0.694869 0.741302 0.524771
O O14 0.758886 0.717276 0.940684
#
# Coordination Sequence:
#
# PCOD8054464 Si02
#       7
#     4   4   4   4   4   4   4
#     4  11  23  42  67  94 124 164 219 267 319 377
#     4  11  23  39  68  89 120 168 215 262 304 364
#     4  10  20  32  57  86 114 151 193 242 290 343
#     4  12  23  40  61  94 129 166 204 253 318 379
#     4  10  21  33  53  88 124 154 187 233 290 359
#     4  11  25  39  64  91 126 166 201 258 328 376
#     4  11  21  41  60  88 121 161 213 255 291 378
#
# _framework density 21.683060000000001
#
# number of rings (size 3 to 8) (size 9 to 14) (size 15 to 20)
#    0.000    1.143    1.429    6.857    4.000    1.143 
#    0.000    0.000    0.000   17.143    0.000    0.000 
#    0.000    0.000    0.000    0.000    0.000    0.000 
#
# Total GULP energy -173546.843812 kJ/mol
# GULP energy per Si atom -12396.203129 kJ/mol
# Density = 2.163371 g / cm^3
# Si number density = 21.683060 Si / 1000 Ang^3
#
#
#
# Elastic Constant Matrix: (Units=GPa)
#
#
# Indices 1 2 3 4 5 6 
#
# 1 49.1112 16.7290 23.6431 0.0000 12.5225 0.0000
# 2 16.7290 92.2554 33.7744 0.0000 12.5517 0.0000
# 3 23.6431 33.7744 129.9850 0.0000 28.1382 0.0000
# 4 0.0000 0.0000 0.0000 47.8274 0.0000 10.8533
# 5 12.5225 12.5517 28.1382 0.0000 36.0359 0.0000
# 6 0.0000 0.0000 0.0000 10.8533 0.0000 17.7017
#
#
#
# Elastic Compliance Matrix: (Units=1/GPa)
#
#
# Indices 1 2 3 4 5 6 
#
# 1 0.023847 -0.002683 -0.002466 0.000000 -0.005427 0.000000
# 2 -0.002683 0.012414 -0.002411 0.000000 -0.001509 0.000000
# 3 -0.002466 -0.002411 0.010110 0.000000 -0.006198 0.000000
# 4 0.000000 0.000000 0.000000 0.024288 0.000000 -0.014891
# 5 -0.005427 -0.001509 -0.006198 0.000000 0.035001 0.000000
# 6 0.000000 0.000000 0.000000 -0.014891 0.000000 0.065622
#
#
# Mechanical properties :
#
#
# Convention : Reuss Voigt Hill
#
# Bulk Modulus (GPa) = 31.99886 46.62717 39.31301
# Shear Modulus (GPa) = 25.40431 33.46001 29.43216
#
# Velocity S-wave (km/s) = 3.42661 3.93254 3.68826
# Velocity P-wave (km/s) = 5.51771 6.49388 6.02560
#
# Compressibility (1/GPa) = 0.03125111
#
# Stress axis : x y z
#
# Youngs Moduli (GPa) = 41.93458 80.55458 98.91530
#
# Poissons Ratio (x) = 0.21615 0.24388
# Poissons Ratio (y) = 0.11252 0.23847
# Poissons Ratio (z) = 0.10339 0.19420
#
# Static dielectric constant tensor:
#      x y z
#    x 3.538460 0.000000 0.265860 
#    y 0.000000 3.781300 0.000000 
#    z 0.265860 0.000000 4.528630 
# 
# 
# High freq. dielectric constant tensor:
#      x y z
#    x 1.814790 0.000000 0.024770 
#    y 0.000000 1.845450 0.000000 
#    z 0.024770 0.000000 1.880210 
# 
# From -- ./inp_files/2911.got.cif
#   From: 2010.06.25/outbox.cif.g09.slc.cpg/sg9_2_cif.got.tgz:2911.got - 2010.06.27 21:40:51.
