data_PCOD8054444
_publ_section_title
;
Structure prediction by ZEFSAII (Michael W. Deem and Ramdas Pophale) SiO2 
 PCOD8054444
Probable space group: C C
;
_chemical_formula_sum "Si O2"
_cell_formula_units_Z 32
_cell_length_a 9.082360
_cell_length_b 11.216390
_cell_length_c 19.531656
_cell_angle_alpha 90.000000
_cell_angle_beta 50.867218
_cell_angle_gamma 90.000000
_cell_volume 1543.392971
_symmetry_space_group_name_H-M "C C"
_symmetry_group_IT_number 9
_symmetry_cell_setting 'monoclinic'
loop_
_space_group_symop_operation_xyz
x,y,z
x,-y,1/2+z
1/2+x,1/2+y,z
1/2+x,1/2-y,1/2+z
loop_
_atom_site_type_symbol
_atom_site_label
_atom_site_fract_x
_atom_site_fract_y
_atom_site_fract_z
Si Si1 0.118770 0.880664 0.386290
Si Si2 0.554635 0.534429 0.755223
Si Si3 0.367788 0.057003 0.390262
Si Si4 0.540644 0.718440 0.484701
Si Si5 0.404625 0.901118 0.634079
Si Si6 0.840645 0.266867 0.787197
Si Si7 0.189131 0.604859 0.389747
Si Si8 0.258300 0.469088 0.020157
O O1 0.135982 0.739731 0.386230
O O2 0.281296 0.934427 0.386956
O O3 0.143606 0.929253 0.302246
O O4 0.909307 0.923656 0.469660
O O5 0.731451 0.484671 0.659216
O O6 0.462620 0.647370 0.745557
O O7 0.400567 0.428818 0.804541
O O8 0.449453 0.135593 0.302429
O O9 0.533976 0.025407 0.394461
O O10 0.197610 0.134314 0.476045
O O11 0.492111 0.832975 0.543422
O O12 0.632743 0.756329 0.383568
O O13 0.347150 0.644767 0.531502
O O14 0.317172 0.813934 0.717103
O O15 0.577563 0.979658 0.614730
O O16 0.169947 0.575801 0.474701
#
# Coordination Sequence:
#
# PCOD8054444 Si02
#       8
#     4   4   4   4   4   4   4   4
#     4  10  19  41  65  93 126 165 217 271 327 398
#     4  11  23  38  61  97 130 169 219 264 334 392
#     4   9  19  39  69  90 123 175 217 258 338 389
#     4   9  21  44  65  91 126 172 220 269 332 393
#     4  12  23  41  67  93 137 175 221 282 326 393
#     4  10  21  44  67  89 132 176 216 270 335 390
#     4  11  21  37  68  96 122 170 212 277 328 400
#     4  10  23  40  64  95 128 170 220 269 340 387
#
# _framework density 20.733540000000001
#
# number of rings (size 3 to 8) (size 9 to 14) (size 15 to 20)
#    0.750    1.000    2.500    3.000    0.000    6.000 
#    2.250    1.250    0.000    0.000    0.000    0.000 
#    0.000    0.000    0.000    0.000    0.000    0.000 
#
# Total GULP energy -198297.341754 kJ/mol
# GULP energy per Si atom -12393.583860 kJ/mol
# Density = 2.068635 g / cm^3
# Si number density = 20.733540 Si / 1000 Ang^3
#
#
#
# Elastic Constant Matrix: (Units=GPa)
#
#
# Indices 1 2 3 4 5 6 
#
# 1 108.6025 55.5316 29.6028 0.0000 -13.0880 0.0000
# 2 55.5316 88.1830 38.1742 0.0000 -16.8460 0.0000
# 3 29.6028 38.1742 93.3646 0.0001 -16.4759 0.0000
# 4 0.0000 0.0000 0.0001 23.6179 0.0000 0.0513
# 5 -13.0880 -16.8460 -16.4759 0.0000 22.8295 0.0000
# 6 0.0000 0.0000 0.0000 0.0513 0.0000 33.0265
#
#
#
# Elastic Compliance Matrix: (Units=1/GPa)
#
#
# Indices 1 2 3 4 5 6 
#
# 1 0.013689 -0.008004 -0.000831 0.000000 0.001342 0.000000
# 2 -0.008004 0.019507 -0.004249 0.000000 0.006739 0.000000
# 3 -0.000831 -0.004249 0.013836 0.000000 0.006374 0.000000
# 4 0.000000 0.000000 0.000000 0.042341 0.000000 -0.000066
# 5 0.001342 0.006739 0.006374 0.000000 0.054145 0.000000
# 6 0.000000 0.000000 0.000000 -0.000066 0.000000 0.030279
#
#
# Mechanical properties :
#
#
# Convention : Reuss Voigt Hill
#
# Bulk Modulus (GPa) = 47.92818 59.64081 53.78449
# Shear Modulus (GPa) = 24.16388 27.01753 25.59071
#
# Velocity S-wave (km/s) = 3.41757 3.61374 3.51702
# Velocity P-wave (km/s) = 6.22411 6.80000 6.51842
#
# Compressibility (1/GPa) = 0.02086455
#
# Stress axis : x y z
#
# Youngs Moduli (GPa) = 73.05180 51.26251 72.27451
#
# Poissons Ratio (x) = 0.41033 0.06004
# Poissons Ratio (y) = 0.58474 0.30708
# Poissons Ratio (z) = 0.06069 0.21781
#
# Static dielectric constant tensor:
#      x y z
#    x 3.670180 0.000000 -0.180290 
#    y 0.000000 3.739680 0.000000 
#    z -0.180290 0.000000 3.497220 
# 
# 
# High freq. dielectric constant tensor:
#      x y z
#    x 1.808710 0.000000 -0.016080 
#    y 0.000000 1.818270 0.000000 
#    z -0.016080 0.000000 1.783100 
# 
# From -- ./inp_files/32558.got.cif
#   From: 2010.06.25/outbox.cif.g09.slc.cpg/sg9_17_cif.got.tgz:32558.got - 2010.06.27 21:40:51.
