data_PCOD8054481
_publ_section_title
;
Structure prediction by ZEFSAII (Michael W. Deem and Ramdas Pophale) SiO2 
 PCOD8054481
Probable space group: C C
;
_chemical_formula_sum "Si O2"
_cell_formula_units_Z 28
_cell_length_a 17.408521
_cell_length_b 13.158846
_cell_length_c 8.828932
_cell_angle_alpha 90.000000
_cell_angle_beta 34.191364
_cell_angle_gamma 90.000000
_cell_volume 1136.559713
_symmetry_space_group_name_H-M "C C"
_symmetry_group_IT_number 9
_symmetry_cell_setting 'monoclinic'
loop_
_space_group_symop_operation_xyz
x,y,z
x,-y,1/2+z
1/2+x,1/2+y,z
1/2+x,1/2-y,1/2+z
loop_
_atom_site_type_symbol
_atom_site_label
_atom_site_fract_x
_atom_site_fract_y
_atom_site_fract_z
Si Si1 0.815030 0.795072 0.944770
Si Si2 0.006880 0.641930 0.473565
Si Si3 0.734704 0.941347 0.807657
Si Si4 0.862735 0.433721 0.716404
Si Si5 0.183464 0.968620 0.758079
Si Si6 0.091104 0.342127 0.518461
Si Si7 0.497255 0.440894 0.806533
O O1 0.874266 0.697191 0.763072
O O2 0.756950 0.884551 0.930805
O O3 0.938502 0.836389 0.842729
O O4 0.695461 0.767863 0.260158
O O5 0.952730 0.530881 0.521419
O O6 0.143575 0.634510 0.353150
O O7 0.046818 0.702966 0.254225
O O8 0.885125 0.967648 0.494887
O O9 0.656038 0.047852 0.954905
O O10 0.791868 0.396685 0.673009
O O11 0.961908 0.347275 0.617129
O O12 0.756273 0.455169 0.023837
O O13 0.061104 0.913285 0.867453
O O14 0.121193 0.034483 0.994186
#
# Coordination Sequence:
#
# PCOD8054481 Si02
#       7
#     4   4   4   4   4   4   4
#     4  11  24  42  66 100 132 175 222 286 347 393
#     4  11  24  42  66  99 135 170 222 292 340 397
#     4  10  21  41  70  96 131 177 229 273 333 417
#     4  10  20  39  67 102 130 177 221 275 327 409
#     4  10  20  34  66 102 131 165 222 272 322 392
#     4  10  21  43  72  94 128 181 233 271 334 415
#     4  10  20  39  65  99 133 177 223 271 321 411
#
# _framework density 24.635749000000001
#
# number of rings (size 3 to 8) (size 9 to 14) (size 15 to 20)
#    0.000    1.714    2.857    2.571    4.000    2.286 
#    2.571    1.429    0.000    0.000    0.000    0.000 
#    0.000    0.000    0.000    0.000    0.000    0.000 
#
# Total GULP energy -173506.674319 kJ/mol
# GULP energy per Si atom -12393.333880 kJ/mol
# Density = 2.457968 g / cm^3
# Si number density = 24.635749 Si / 1000 Ang^3
#
#
#
# Elastic Constant Matrix: (Units=GPa)
#
#
# Indices 1 2 3 4 5 6 
#
# 1 212.7210 28.1201 43.9877 0.0000 -4.8794 0.0000
# 2 28.1201 38.8551 13.1622 0.0000 -2.3159 0.0000
# 3 43.9877 13.1622 151.5579 0.0000 15.0193 0.0000
# 4 0.0000 0.0000 0.0000 19.7062 0.0000 1.8000
# 5 -4.8794 -2.3159 15.0193 0.0000 40.2949 0.0000
# 6 0.0000 0.0000 0.0000 1.8000 0.0000 12.2203
#
#
#
# Elastic Compliance Matrix: (Units=1/GPa)
#
#
# Indices 1 2 3 4 5 6 
#
# 1 0.005463 -0.003426 -0.001385 0.000000 0.000981 0.000000
# 2 -0.003426 0.028905 -0.001702 0.000000 0.001881 0.000000
# 3 -0.001385 -0.001702 0.007450 0.000000 -0.003042 0.000000
# 4 0.000000 0.000000 0.000000 0.051437 0.000000 -0.007577
# 5 0.000981 0.001881 -0.003042 0.000000 0.026178 0.000000
# 6 0.000000 0.000000 0.000000 -0.007577 0.000000 0.082947
#
#
# Mechanical properties :
#
#
# Convention : Reuss Voigt Hill
#
# Bulk Modulus (GPa) = 34.73390 63.74153 49.23772
# Shear Modulus (GPa) = 22.22195 35.63524 28.92859
#
# Velocity S-wave (km/s) = 3.00662 3.80739 3.43045
# Velocity P-wave (km/s) = 5.11690 6.72741 5.97665
#
# Compressibility (1/GPa) = 0.02879031
#
# Stress axis : x y z
#
# Youngs Moduli (GPa) = 183.05628 34.59638 134.23715
#
# Poissons Ratio (x) = 0.11852 0.18594
# Poissons Ratio (y) = 0.62712 0.22852
# Poissons Ratio (z) = 0.25357 0.05890
#
# Static dielectric constant tensor:
#      x y z
#    x 5.091920 0.000000 -0.130390 
#    y 0.000000 3.666920 0.000000 
#    z -0.130390 0.000000 4.645520 
# 
# 
# High freq. dielectric constant tensor:
#      x y z
#    x 2.008450 0.000000 -0.002580 
#    y 0.000000 1.927500 0.000000 
#    z -0.002580 0.000000 1.997390 
# 
# From -- ./inp_files/10879.got.cif
#   From: 2010.06.25/outbox.cif.g09.slc.cpg/sg9_6_cif.got.tgz:10879.got - 2010.06.27 21:40:51.
