data_PCOD8054820
_publ_section_title
;
Structure prediction by ZEFSAII (Michael W. Deem and Ramdas Pophale) SiO2 
 PCOD8054820
Probable space group: C C
;
_chemical_formula_sum "Si O2"
_cell_formula_units_Z 32
_cell_length_a 13.694637
_cell_length_b 13.697026
_cell_length_c 16.201921
_cell_angle_alpha 90.000000
_cell_angle_beta 147.699371
_cell_angle_gamma 90.000000
_cell_volume 1623.972162
_symmetry_space_group_name_H-M "C C"
_symmetry_group_IT_number 9
_symmetry_cell_setting 'monoclinic'
loop_
_space_group_symop_operation_xyz
x,y,z
x,-y,1/2+z
1/2+x,1/2+y,z
1/2+x,1/2-y,1/2+z
loop_
_atom_site_type_symbol
_atom_site_label
_atom_site_fract_x
_atom_site_fract_y
_atom_site_fract_z
Si Si1 0.390210 0.955585 0.022990
Si Si2 0.205519 0.353415 0.522758
Si Si3 0.144214 0.647373 0.385644
Si Si4 0.571667 0.646592 0.388904
Si Si5 0.596786 0.530206 0.023483
Si Si6 0.961476 0.469784 0.888175
Si Si7 0.255902 0.455591 0.388685
Si Si8 0.784578 0.647365 0.026006
O O1 0.311452 0.065256 0.975182
O O2 0.583684 0.943755 0.205838
O O3 0.407994 0.930800 0.939655
O O4 0.250391 0.879986 0.963638
O O5 0.398675 0.349309 0.705831
O O6 0.104512 0.250004 0.455826
O O7 0.234785 0.379991 0.448032
O O8 0.075143 0.430315 0.475864
O O9 0.272748 0.565263 0.436483
O O10 0.244962 0.750006 0.455818
O O11 0.088865 0.613374 0.438170
O O12 0.967021 0.661790 0.205824
O O13 0.535080 0.569698 0.435803
O O14 0.784179 0.510507 0.205831
O O15 0.624176 0.613359 0.973478
O O16 0.440352 0.569191 0.972015
#
# Coordination Sequence:
#
# PCOD8054820 Si02
#       8
#     4   4   4   4   4   4   4   4
#     4  10  21  38  57  82 113 146 185 230 277 332
#     4  11  22  38  59  83 111 147 187 233 284 336
#     4   9  20  36  55  79 109 141 179 223 268 320
#     4  11  22  38  59  83 111 147 187 233 284 336
#     4  10  21  38  57  82 113 146 185 230 277 332
#     4  10  21  38  57  82 113 146 185 230 277 332
#     4  10  21  38  57  82 113 146 185 230 277 332
#     4   9  20  36  55  79 109 141 179 223 268 320
#
# _framework density 19.704771999999998
#
# number of rings (size 3 to 8) (size 9 to 14) (size 15 to 20)
#    0.000    2.000    0.000    5.250    0.000    8.000 
#    0.000    5.000    0.000    0.000    0.000    0.000 
#    0.000    0.000    0.000    0.000    0.000    0.000 
#
# Total GULP energy -198445.204178 kJ/mol
# GULP energy per Si atom -12402.825261 kJ/mol
# Density = 1.965992 g / cm^3
# Si number density = 19.704772 Si / 1000 Ang^3
#
#
#
# Elastic Constant Matrix: (Units=GPa)
#
#
# Indices 1 2 3 4 5 6 
#
# 1 59.4259 -27.6933 8.8553 -0.0132 0.0098 -0.0019
# 2 -27.6933 54.0109 17.1329 -0.0261 -1.4464 -0.0051
# 3 8.8553 17.1329 71.7594 -0.0146 -0.4257 -0.0032
# 4 -0.0132 -0.0261 -0.0146 35.2638 -0.0116 -0.8916
# 5 0.0098 -1.4464 -0.4257 -0.0116 24.9258 -0.0006
# 6 -0.0019 -0.0051 -0.0032 -0.8916 -0.0006 7.4790
#
#
#
# Elastic Compliance Matrix: (Units=1/GPa)
#
#
# Indices 1 2 3 4 5 6 
#
# 1 0.024683 0.014758 -0.006565 0.000018 0.000735 0.000016
# 2 0.014758 0.028885 -0.008709 0.000024 0.001522 0.000023
# 3 -0.006565 -0.008709 0.016824 -0.000002 -0.000215 -0.000001
# 4 0.000018 0.000024 -0.000002 0.028443 0.000015 0.003391
# 5 0.000735 0.001522 -0.000215 0.000015 0.040203 0.000006
# 6 0.000016 0.000023 -0.000001 0.003391 0.000006 0.134111
#
#
# Mechanical properties :
#
#
# Convention : Reuss Voigt Hill
#
# Bulk Modulus (GPa) = 14.41732 20.19846 17.30789
# Shear Modulus (GPa) = 16.81793 25.99382 21.40587
#
# Velocity S-wave (km/s) = 2.92463 3.63597 3.29953
# Velocity P-wave (km/s) = 4.32865 5.28203 4.82892
#
# Compressibility (1/GPa) = 0.06936102
#
# Stress axis : x y z
#
# Youngs Moduli (GPa) = 40.51293 34.61987 59.44030
#
# Poissons Ratio (x) = -0.51093 0.39024
# Poissons Ratio (y) = -0.59790 0.51765
# Poissons Ratio (z) = 0.26598 0.30149
#
# Static dielectric constant tensor:
#      x y z
#    x 3.593190 0.000000 0.000040 
#    y 0.000000 3.526970 0.000000 
#    z 0.000040 0.000000 3.591830 
# 
# 
# High freq. dielectric constant tensor:
#      x y z
#    x 1.767510 0.000000 -0.000310 
#    y 0.000000 1.765660 0.000000 
#    z -0.000310 0.000000 1.777220 
# 
# From -- ./inp_files/9126.got.cif
#   From: 2010.06.25/outbox.cif.g09.slc.cpg/sg9_5_cif.got.tgz:9126.got - 2010.06.27 21:40:51.
