data_PCOD8054099
_publ_section_title
;
Structure prediction by ZEFSAII (Michael W. Deem and Ramdas Pophale) SiO2 
 PCOD8054099
Probable space group: C M
;
_chemical_formula_sum "Si O2"
_cell_formula_units_Z 32
_cell_length_a 11.217404
_cell_length_b 22.044844
_cell_length_c 5.615277
_cell_angle_alpha 90.000000
_cell_angle_beta 98.080830
_cell_angle_gamma 90.000000
_cell_volume 1374.791392
_symmetry_space_group_name_H-M "C M"
_symmetry_group_IT_number 8
_symmetry_cell_setting 'monoclinic'
loop_
_space_group_symop_operation_xyz
x,y,z
x,-y,z
1/2+x,1/2+y,z
1/2+x,1/2-y,z
loop_
_atom_site_type_symbol
_atom_site_label
_atom_site_fract_x
_atom_site_fract_y
_atom_site_fract_z
Si Si1 0.490690 0.070269 0.713830
Si Si2 0.152441 0.651544 0.052540
Si Si3 0.805758 0.340237 0.484910
Si Si4 0.555609 0.632683 0.255517
Si Si5 0.946152 0.880727 0.714746
Si Si6 0.975398 0.265828 0.231754
Si Si7 0.719823 0.932319 0.457847
Si Si8 0.311816 0.732162 0.787851
O O1 0.359950 0.099594 0.624219
O O2 0.585948 0.076537 0.525064
O O3 0.470229 0.000000 0.775707
O O4 0.545539 0.105556 0.954842
O O5 0.244418 0.614403 0.246910
O O6 0.103209 0.707873 0.188968
O O7 0.216804 0.681246 0.844513
O O8 0.701142 0.362261 0.276908
O O9 0.926614 0.306572 0.431725
O O10 0.744496 0.285383 0.620954
O O11 0.522306 0.598384 0.498299
O O12 0.489174 0.695472 0.283034
O O13 0.512758 0.604555 0.988304
O O14 0.822388 0.919764 0.684497
O O15 0.915697 0.808247 0.688227
O O16 0.871122 0.272885 0.007622
O O17 0.733847 0.000000 0.362119
#
# Coordination Sequence:
#
# PCOD8054099 Si02
#       8
#     4   4   4   4   4   4   4   4
#     4  11  25  45  69 102 141 191 248 303 366 437
#     4  12  23  40  69 104 142 187 237 312 366 438
#     4  12  25  43  66 102 144 196 237 300 366 459
#     4  11  27  42  70 101 149 186 240 290 379 448
#     4  11  24  47  65 105 142 189 235 312 361 442
#     4  11  23  39  62 100 140 190 224 294 363 446
#     4  11  24  45  74 102 140 191 253 311 371 436
#     4  11  24  37  65 100 141 182 234 298 380 430
#
# _framework density 23.276260000000001
#
# number of rings (size 3 to 8) (size 9 to 14) (size 15 to 20)
#    0.000    0.750    5.000    2.625    8.750    0.000 
#    0.000    1.250    0.000    0.000    0.000    0.000 
#    0.000    0.000    0.000    0.000    0.000    0.000 
#
# Total GULP energy -198244.000126 kJ/mol
# GULP energy per Si atom -12390.250008 kJ/mol
# Density = 2.322328 g / cm^3
# Si number density = 23.276260 Si / 1000 Ang^3
#
#
#
# Elastic Constant Matrix: (Units=GPa)
#
#
# Indices 1 2 3 4 5 6 
#
# 1 78.8131 18.9608 34.9258 0.0000 9.7399 0.0000
# 2 18.9608 81.7949 24.5887 0.0000 4.0902 0.0000
# 3 34.9258 24.5887 117.1681 0.0000 13.5241 0.0000
# 4 0.0000 0.0000 0.0000 29.0768 0.0000 3.9338
# 5 9.7399 4.0902 13.5241 0.0000 42.4574 0.0000
# 6 0.0000 0.0000 0.0000 3.9338 0.0000 29.3611
#
#
#
# Elastic Compliance Matrix: (Units=1/GPa)
#
#
# Indices 1 2 3 4 5 6 
#
# 1 0.015176 -0.002270 -0.003811 0.000000 -0.002049 0.000000
# 2 -0.002270 0.013395 -0.002124 0.000000 -0.000093 0.000000
# 3 -0.003811 -0.002124 0.010373 0.000000 -0.002225 0.000000
# 4 0.000000 0.000000 0.000000 0.035027 0.000000 -0.004693
# 5 -0.002049 -0.000093 -0.002225 0.000000 0.024741 0.000000
# 6 0.000000 0.000000 0.000000 -0.004693 0.000000 0.034687
#
#
# Mechanical properties :
#
#
# Convention : Reuss Voigt Hill
#
# Bulk Modulus (GPa) = 44.37440 48.30294 46.33867
# Shear Modulus (GPa) = 31.78228 33.46579 32.62404
#
# Velocity S-wave (km/s) = 3.69919 3.79590 3.74786
# Velocity P-wave (km/s) = 6.11154 6.32526 6.21932
#
# Compressibility (1/GPa) = 0.02253552
#
# Stress axis : x y z
#
# Youngs Moduli (GPa) = 65.89187 74.65494 96.40180
#
# Poissons Ratio (x) = 0.16946 0.36738
# Poissons Ratio (y) = 0.14957 0.20472
# Poissons Ratio (z) = 0.25111 0.15854
#
# Static dielectric constant tensor:
#      x y z
#    x 3.988260 0.000000 -0.017810 
#    y 0.000000 3.982090 0.000000 
#    z -0.017810 0.000000 4.289770 
# 
# 
# High freq. dielectric constant tensor:
#      x y z
#    x 1.907950 0.000000 0.007680 
#    y 0.000000 1.899880 0.000000 
#    z 0.007680 0.000000 1.921290 
# 
# From -- ./inp_files/3167.got.cif
#   From: 2010.03.12/outbox.cif.g09.slc.cpg/sg8_2_cif.got.tgz:3167.got - 2010.03.31 10:45:26.
