data_PCOD8054316
_publ_section_title
;
Structure prediction by ZEFSAII (Michael W. Deem and Ramdas Pophale) SiO2 
 PCOD8054316
Probable space group: C C
;
_chemical_formula_sum "Si O2"
_cell_formula_units_Z 32
_cell_length_a 20.981262
_cell_length_b 8.302162
_cell_length_c 13.252528
_cell_angle_alpha 90.000000
_cell_angle_beta 40.084553
_cell_angle_gamma 90.000000
_cell_volume 1486.454740
_symmetry_space_group_name_H-M "C C"
_symmetry_group_IT_number 9
_symmetry_cell_setting 'monoclinic'
loop_
_space_group_symop_operation_xyz
x,y,z
x,-y,1/2+z
1/2+x,1/2+y,z
1/2+x,1/2-y,1/2+z
loop_
_atom_site_type_symbol
_atom_site_label
_atom_site_fract_x
_atom_site_fract_y
_atom_site_fract_z
Si Si1 0.647540 0.243627 0.864930
Si Si2 0.198066 0.613674 0.293507
Si Si3 0.468012 0.121857 0.180805
Si Si4 0.660318 0.364705 0.636989
Si Si5 0.028089 0.268698 0.127401
Si Si6 0.791752 0.640166 0.535540
Si Si7 0.822777 0.537318 0.197268
Si Si8 0.813338 0.216487 0.328210
O O1 0.618802 0.345144 0.800533
O O2 0.742970 0.319676 0.802828
O O3 0.663160 0.062556 0.805599
O O4 0.559581 0.244596 0.055277
O O5 0.247579 0.697739 0.137053
O O6 0.274009 0.585633 0.295727
O O7 0.106555 0.726728 0.440519
O O8 0.382163 0.196306 0.354703
O O9 0.427101 0.095218 0.116377
O O10 0.503835 0.953373 0.187689
O O11 0.569913 0.337349 0.669036
O O12 0.708280 0.544501 0.572232
O O13 0.746197 0.229215 0.510630
O O14 0.927604 0.181712 0.212763
O O15 0.835771 0.517956 0.566007
O O16 0.787958 0.386871 0.305845
#
# Coordination Sequence:
#
# PCOD8054316 Si02
#       8
#     4   4   4   4   4   4   4   4
#     4  10  22  37  59  89 118 150 196 252 292 348
#     4   9  20  38  57  86 120 148 190 248 300 343
#     4  10  20  38  61  89 112 165 201 234 299 364
#     4  10  19  34  60  89 114 151 200 240 289 354
#     4   9  18  35  60  85 109 154 202 233 279 361
#     4  10  19  37  64  84 118 160 194 238 299 355
#     4   9  19  37  63  81 117 153 204 244 279 363
#     4   9  17  38  62  79 112 161 195 235 291 356
#
# _framework density 21.527732
#
# number of rings (size 3 to 8) (size 9 to 14) (size 15 to 20)
#    0.000    2.500    2.500    0.000    1.750    0.000 
#    6.750    6.250    2.750    0.000    0.000    0.000 
#    0.000    0.000    0.000    0.000    0.000    0.000 
#
# Total GULP energy -198311.070581 kJ/mol
# GULP energy per Si atom -12394.441911 kJ/mol
# Density = 2.147873 g / cm^3
# Si number density = 21.527732 Si / 1000 Ang^3
#
#
#
# Elastic Constant Matrix: (Units=GPa)
#
#
# Indices 1 2 3 4 5 6 
#
# 1 95.9420 19.3174 35.2979 0.0000 -18.3908 0.0001
# 2 19.3174 47.0289 31.6154 0.0001 -1.8730 -0.0006
# 3 35.2979 31.6154 131.6915 0.0001 -8.0198 -0.0001
# 4 0.0000 0.0001 0.0001 26.1484 -0.0002 -3.5276
# 5 -18.3908 -1.8730 -8.0198 -0.0002 33.8284 0.0002
# 6 0.0001 -0.0006 -0.0001 -3.5276 0.0002 24.3705
#
#
#
# Elastic Compliance Matrix: (Units=1/GPa)
#
#
# Indices 1 2 3 4 5 6 
#
# 1 0.013232 -0.003647 -0.002278 0.000000 0.006452 0.000000
# 2 -0.003647 0.026361 -0.005462 0.000000 -0.001818 0.000001
# 3 -0.002278 -0.005462 0.009560 0.000000 0.000725 0.000000
# 4 0.000000 0.000000 0.000000 0.039005 0.000000 0.005646
# 5 0.006452 -0.001818 0.000725 0.000000 0.033140 0.000000
# 6 0.000000 0.000001 0.000000 0.005646 0.000000 0.041851
#
#
# Mechanical properties :
#
#
# Convention : Reuss Voigt Hill
#
# Bulk Modulus (GPa) = 37.90897 49.68045 43.79471
# Shear Modulus (GPa) = 25.67871 29.43156 27.55514
#
# Velocity S-wave (km/s) = 3.45747 3.70151 3.58157
# Velocity P-wave (km/s) = 5.79538 6.43395 6.12299
#
# Compressibility (1/GPa) = 0.02637898
#
# Stress axis : x y z
#
# Youngs Moduli (GPa) = 75.57388 37.93526 104.60740
#
# Poissons Ratio (x) = 0.13834 0.23833
# Poissons Ratio (y) = 0.27559 0.57134
# Poissons Ratio (z) = 0.17218 0.20719
#
# Static dielectric constant tensor:
#      x y z
#    x 3.992000 0.000000 -0.054650 
#    y 0.000000 3.559450 0.000000 
#    z -0.054650 0.000000 3.856220 
# 
# 
# High freq. dielectric constant tensor:
#      x y z
#    x 1.840380 0.000000 -0.002000 
#    y 0.000000 1.812310 0.000000 
#    z -0.002000 0.000000 1.846570 
# 
# From -- ./inp_files/26669.got.cif
#   From: 2010.06.25/outbox.cif.g09.slc.cpg/sg9_14_cif.got.tgz:26669.got - 2010.06.27 21:40:51.
