data_PCOD8054837
_publ_section_title
;
Structure prediction by ZEFSAII (Michael W. Deem and Ramdas Pophale) SiO2 
 PCOD8054837
Probable space group: C C
;
_chemical_formula_sum "Si O2"
_cell_formula_units_Z 32
_cell_length_a 17.225837
_cell_length_b 12.729882
_cell_length_c 13.692868
_cell_angle_alpha 90.000000
_cell_angle_beta 32.100467
_cell_angle_gamma 90.000000
_cell_volume 1595.604178
_symmetry_space_group_name_H-M "C C"
_symmetry_group_IT_number 9
_symmetry_cell_setting 'monoclinic'
loop_
_space_group_symop_operation_xyz
x,y,z
x,-y,1/2+z
1/2+x,1/2+y,z
1/2+x,1/2-y,1/2+z
loop_
_atom_site_type_symbol
_atom_site_label
_atom_site_fract_x
_atom_site_fract_y
_atom_site_fract_z
Si Si1 0.702010 0.522079 0.529050
Si Si2 0.972647 0.115869 0.640531
Si Si3 0.835124 0.116202 0.046787
Si Si4 0.796968 0.360043 0.282540
Si Si5 0.690945 0.962176 0.516920
Si Si6 0.613005 0.490647 0.331411
Si Si7 0.428434 0.804304 0.808885
Si Si8 0.128529 0.344586 0.946759
O O1 0.544512 0.541707 0.647913
O O2 0.800300 0.438333 0.369606
O O3 0.683975 0.472331 0.655170
O O4 0.779838 0.634860 0.444476
O O5 0.981580 0.238581 0.657524
O O6 0.800854 0.086283 0.818445
O O7 0.060804 0.093502 0.446992
O O8 0.781413 0.031072 0.022788
O O9 0.708486 0.128654 0.260895
O O10 0.886635 0.225864 0.941977
O O11 0.973033 0.079867 0.961320
O O12 0.735302 0.421373 0.254672
O O13 0.695707 0.261834 0.418425
O O14 0.962659 0.324139 0.089750
O O15 0.557667 0.886536 0.690404
O O16 0.637346 0.070786 0.525995
#
# Coordination Sequence:
#
# PCOD8054837 Si02
#       8
#     4   4   4   4   4   4   4   4
#     4  11  22  42  62  93 132 167 219 270 319 389
#     4  10  21  38  63  93 129 172 205 262 330 383
#     4  11  24  38  69 101 128 170 217 268 324 390
#     4  11  27  40  68  91 132 175 217 274 331 389
#     4  11  23  41  66  95 134 165 218 273 322 385
#     4  11  22  41  64  98 131 170 216 265 322 395
#     4  11  22  40  66  98 129 168 218 273 322 376
#     4  12  25  44  64  97 131 173 220 273 330 391
#
# _framework density 20.055098000000001
#
# number of rings (size 3 to 8) (size 9 to 14) (size 15 to 20)
#    0.000    1.000    5.000    3.000    7.000    0.000 
#    0.000    1.250   11.000    0.000    0.000    0.000 
#    0.000    0.000    0.000    0.000    0.000    0.000 
#
# Total GULP energy -198308.811350 kJ/mol
# GULP energy per Si atom -12394.300709 kJ/mol
# Density = 2.000945 g / cm^3
# Si number density = 20.055098 Si / 1000 Ang^3
#
#
#
# Elastic Constant Matrix: (Units=GPa)
#
#
# Indices 1 2 3 4 5 6 
#
# 1 90.9483 27.9067 52.6813 0.0000 12.8002 0.0000
# 2 27.9067 51.6107 30.6920 0.0000 17.5965 0.0000
# 3 52.6813 30.6920 111.8717 0.0000 -3.8622 0.0000
# 4 0.0000 0.0000 0.0000 37.1216 0.0000 -1.7356
# 5 12.8002 17.5965 -3.8622 0.0000 40.2626 0.0000
# 6 0.0000 0.0000 0.0000 -1.7356 0.0000 15.7084
#
#
#
# Elastic Compliance Matrix: (Units=1/GPa)
#
#
# Indices 1 2 3 4 5 6 
#
# 1 0.016798 -0.003240 -0.007181 0.000000 -0.004613 0.000000
# 2 -0.003240 0.029596 -0.007028 0.000000 -0.012579 0.000000
# 3 -0.007181 -0.007028 0.014481 0.000000 0.006744 0.000000
# 4 0.000000 0.000000 0.000000 0.027078 0.000000 0.002992
# 5 -0.004613 -0.012579 0.006744 0.000000 0.032448 0.000000
# 6 0.000000 0.000000 0.000000 0.002992 0.000000 0.063991
#
#
# Mechanical properties :
#
#
# Convention : Reuss Voigt Hill
#
# Bulk Modulus (GPa) = 38.49462 52.99897 45.74679
# Shear Modulus (GPa) = 21.93469 28.16190 25.04830
#
# Velocity S-wave (km/s) = 3.31073 3.75137 3.53792
# Velocity P-wave (km/s) = 5.81814 6.72664 6.28882
#
# Compressibility (1/GPa) = 0.02597766
#
# Stress axis : x y z
#
# Youngs Moduli (GPa) = 59.53063 33.78834 69.05449
#
# Poissons Ratio (x) = 0.10947 0.49586
# Poissons Ratio (y) = 0.19287 0.48533
# Poissons Ratio (z) = 0.42748 0.23747
#
# Static dielectric constant tensor:
#      x y z
#    x 3.707020 0.000000 -0.032330 
#    y 0.000000 3.567560 0.000000 
#    z -0.032330 0.000000 3.893270 
# 
# 
# High freq. dielectric constant tensor:
#      x y z
#    x 1.781830 0.000000 -0.012390 
#    y 0.000000 1.761560 0.000000 
#    z -0.012390 0.000000 1.803070 
# 
# From -- ./inp_files/9516.got.cif
#   From: 2010.06.25/outbox.cif.g09.slc.cpg/sg9_5_cif.got.tgz:9516.got - 2010.06.27 21:40:51.
