data_PCOD8054804
_publ_section_title
;
Structure prediction by ZEFSAII (Michael W. Deem and Ramdas Pophale) SiO2 
 PCOD8054804
Probable space group: C C
;
_chemical_formula_sum "Si O2"
_cell_formula_units_Z 28
_cell_length_a 8.560484
_cell_length_b 6.460545
_cell_length_c 21.646834
_cell_angle_alpha 90.000000
_cell_angle_beta 111.416751
_cell_angle_gamma 90.000000
_cell_volume 1114.519828
_symmetry_space_group_name_H-M "C C"
_symmetry_group_IT_number 9
_symmetry_cell_setting 'monoclinic'
loop_
_space_group_symop_operation_xyz
x,y,z
x,-y,1/2+z
1/2+x,1/2+y,z
1/2+x,1/2-y,1/2+z
loop_
_atom_site_type_symbol
_atom_site_label
_atom_site_fract_x
_atom_site_fract_y
_atom_site_fract_z
Si Si1 0.752310 0.889576 0.547280
Si Si2 0.595960 0.502167 0.791486
Si Si3 0.445480 0.140676 0.831620
Si Si4 0.322986 0.840681 0.724846
Si Si5 0.570395 0.491488 0.961386
Si Si6 0.723753 0.142128 0.427804
Si Si7 0.595596 0.244694 0.586282
O O1 0.660145 0.714577 0.495485
O O2 0.922738 0.786047 0.599399
O O3 0.791389 0.077752 0.505819
O O4 0.638704 0.997745 0.584862
O O5 0.754233 0.652805 0.833035
O O6 0.438197 0.636579 0.746193
O O7 0.664224 0.340168 0.749442
O O8 0.535050 0.362843 0.840614
O O9 0.429636 0.044530 0.759386
O O10 0.557461 0.985585 0.887613
O O11 0.249879 0.853202 0.644845
O O12 0.669304 0.614655 0.921194
O O13 0.387890 0.410745 0.909329
O O14 0.558166 0.655894 0.014770
#
# Coordination Sequence:
#
# PCOD8054804 Si02
#       7
#     4   4   4   4   4   4   4
#     4  10  21  37  61  91 122 163 204 264 317 378
#     4  10  24  41  64  90 130 169 217 258 328 371
#     4  10  24  41  64  94 131 174 214 270 316 393
#     4  10  24  40  63  92 129 175 217 267 319 389
#     4  10  21  37  63  91 121 165 201 264 316 376
#     4  10  21  39  61  91 125 156 216 252 322 377
#     4  10  21  39  58  89 124 158 215 255 318 378
#
# _framework density 25.122924000000001
#
# number of rings (size 3 to 8) (size 9 to 14) (size 15 to 20)
#    0.857    1.143    0.000    2.571    2.000    4.571 
#    0.000    0.000    0.000    0.000    0.000    0.000 
#    0.000    0.000    0.000    0.000    0.000    0.000 
#
# Total GULP energy -173443.487598 kJ/mol
# GULP energy per Si atom -12388.820543 kJ/mol
# Density = 2.506574 g / cm^3
# Si number density = 25.122924 Si / 1000 Ang^3
#
#
#
# Elastic Constant Matrix: (Units=GPa)
#
#
# Indices 1 2 3 4 5 6 
#
# 1 154.4779 80.4305 48.0460 0.0000 29.2009 0.0000
# 2 80.4305 138.9244 39.8736 0.0000 27.4137 0.0000
# 3 48.0460 39.8736 90.2653 0.0000 34.1494 0.0000
# 4 0.0000 0.0000 0.0000 31.2527 0.0000 7.7614
# 5 29.2009 27.4137 34.1494 0.0000 32.4575 0.0000
# 6 0.0000 0.0000 0.0000 7.7614 0.0000 47.9953
#
#
#
# Elastic Compliance Matrix: (Units=1/GPa)
#
#
# Indices 1 2 3 4 5 6 
#
# 1 0.010138 -0.004666 -0.002285 0.000000 -0.002776 0.000000
# 2 -0.004666 0.010956 -0.000737 0.000000 -0.004280 0.000000
# 3 -0.002285 -0.000737 0.019282 0.000000 -0.017609 0.000000
# 4 0.000000 0.000000 0.000000 0.033336 0.000000 -0.005391
# 5 -0.002776 -0.004280 -0.017609 0.000000 0.055450 0.000000
# 6 0.000000 0.000000 0.000000 -0.005391 0.000000 0.021707
#
#
# Mechanical properties :
#
#
# Convention : Reuss Voigt Hill
#
# Bulk Modulus (GPa) = 39.99847 80.04087 60.01967
# Shear Modulus (GPa) = 28.64067 36.69562 32.66815
#
# Velocity S-wave (km/s) = 3.38008 3.82598 3.60992
# Velocity P-wave (km/s) = 5.58471 7.17261 6.42788
#
# Compressibility (1/GPa) = 0.02500096
#
# Stress axis : x y z
#
# Youngs Moduli (GPa) = 98.63682 91.27809 51.86163
#
# Poissons Ratio (x) = 0.42590 0.11850
# Poissons Ratio (y) = 0.46023 0.03820
# Poissons Ratio (z) = 0.22538 0.06723
#
# Static dielectric constant tensor:
#      x y z
#    x 4.905550 0.000000 0.190060 
#    y 0.000000 4.602060 0.000000 
#    z 0.190060 0.000000 4.347080 
# 
# 
# High freq. dielectric constant tensor:
#      x y z
#    x 2.009900 0.000000 0.008840 
#    y 0.000000 2.002420 0.000000 
#    z 0.008840 0.000000 2.001190 
# 
# From -- ./inp_files/34855.got.cif
#   From: 2010.06.25/outbox.cif.g09.slc.cpg/sg9_18_cif.got.tgz:34855.got - 2010.06.27 21:40:51.
