data_PCOD8054590
_publ_section_title
;
Structure prediction by ZEFSAII (Michael W. Deem and Ramdas Pophale) SiO2 
 PCOD8054590
Probable space group: C C
;
_chemical_formula_sum "Si O2"
_cell_formula_units_Z 24
_cell_length_a 9.138098
_cell_length_b 24.719952
_cell_length_c 5.223189
_cell_angle_alpha 90.000000
_cell_angle_beta 121.227668
_cell_angle_gamma 90.000000
_cell_volume 1008.935017
_symmetry_space_group_name_H-M "C C"
_symmetry_group_IT_number 9
_symmetry_cell_setting 'monoclinic'
loop_
_space_group_symop_operation_xyz
x,y,z
x,-y,1/2+z
1/2+x,1/2+y,z
1/2+x,1/2-y,1/2+z
loop_
_atom_site_type_symbol
_atom_site_label
_atom_site_fract_x
_atom_site_fract_y
_atom_site_fract_z
Si Si1 0.892040 0.201965 0.214030
Si Si2 0.572055 0.024489 0.127502
Si Si3 0.891535 0.727416 0.214089
Si Si4 0.560892 0.851892 0.536853
Si Si5 0.690330 0.477542 0.770201
Si Si6 0.722429 0.646994 0.386859
O O1 0.849008 0.236756 0.427237
O O2 0.724334 0.165323 0.013608
O O3 0.057803 0.164044 0.406738
O O4 0.935479 0.238362 0.006691
O O5 0.586554 0.088485 0.169354
O O6 0.664798 0.996669 0.454235
O O7 0.375657 0.005845 0.937623
O O8 0.736046 0.686962 0.152511
O O9 0.047816 0.688016 0.271333
O O10 0.391409 0.847712 0.211715
O O11 0.590996 0.501313 0.432644
O O12 0.701985 0.413267 0.763361
#
# Coordination Sequence:
#
# PCOD8054590 Si02
#       6
#     4   4   4   4   4   4
#     4  12  30  44  64 108 136 170 238 274 324 406
#     4  10  20  38  65  97 125 166 225 265 324 404
#     4  12  26  48  68  98 140 182 222 278 330 400
#     4  12  26  44  75  96 137 183 219 278 341 390
#     4  10  20  38  65  97 125 166 225 265 324 404
#     4  12  26  44  75  96 137 183 219 278 341 390
#
# _framework density 23.787457
#
# number of rings (size 3 to 8) (size 9 to 14) (size 15 to 20)
#    0.000    0.667    5.000    4.000    4.667    0.000 
#    0.000    1.667    0.000    0.000    0.000    0.000 
#    0.000    0.000    0.000    0.000    0.000    0.000 
#
# Total GULP energy -148717.657791 kJ/mol
# GULP energy per Si atom -12393.138149 kJ/mol
# Density = 2.373332 g / cm^3
# Si number density = 23.787457 Si / 1000 Ang^3
#
#
#
# Elastic Constant Matrix: (Units=GPa)
#
#
# Indices 1 2 3 4 5 6 
#
# 1 116.5536 64.3977 55.5121 0.0000 -2.9954 0.0000
# 2 64.3977 163.3818 44.1265 0.0000 -7.1541 0.0000
# 3 55.5121 44.1265 129.4708 0.0000 -39.4809 0.0000
# 4 0.0000 0.0000 0.0000 1.7103 0.0000 -3.3825
# 5 -2.9954 -7.1541 -39.4809 0.0000 43.5656 0.0000
# 6 0.0000 0.0000 0.0000 -3.3825 0.0000 -23.4002
#
#
#
# Elastic Compliance Matrix: (Units=1/GPa)
#
#
# Indices 1 2 3 4 5 6 
#
# 1 0.013477 -0.003912 -0.006023 0.000000 -0.005174 0.000000
# 2 -0.003912 0.007934 -0.000983 0.000000 0.000143 0.000000
# 3 -0.006023 -0.000983 0.014462 0.000000 0.012531 0.000000
# 4 0.000000 0.000000 0.000000 0.454697 0.000000 -0.065727
# 5 -0.005174 0.000143 0.012531 0.000000 0.033977 0.000000
# 6 0.000000 0.000000 0.000000 -0.065727 0.000000 -0.033234
#
#
# Mechanical properties :
#
#
# Convention : Reuss Voigt Hill
#
# Bulk Modulus (GPa) = 71.23822 81.94208 76.59015
# Shear Modulus (GPa) = 9.65570 20.73313 15.19441
#
# Velocity S-wave (km/s) = 2.01692 2.95549 2.53011
# Velocity P-wave (km/s) = 5.95288 6.79477 6.38771
#
# Compressibility (1/GPa) = 0.01403741
#
# Stress axis : x y z
#
# Youngs Moduli (GPa) = 74.20271 126.03436 69.14484
#
# Poissons Ratio (x) = 0.49302 0.41644
# Poissons Ratio (y) = 0.29026 0.06800
# Poissons Ratio (z) = 0.44690 0.12395
#
# Static dielectric constant tensor:
#      x y z
#    x 5.922960 0.000000 -3.745590 
#    y 0.000000 4.494980 0.000000 
#    z -3.745590 0.000000 11.204740 
# 
# 
# High freq. dielectric constant tensor:
#      x y z
#    x 1.930450 0.000000 -0.034610 
#    y 0.000000 1.959150 0.000000 
#    z -0.034610 0.000000 1.930840 
# 
# From -- ./inp_files/658.got.cif
#   From: 2010.06.25/outbox.cif.g09.slc.cpg/sg9_1_cif.got.tgz:658.got - 2010.06.27 21:40:51.
