data_PCOD8054139
_publ_section_title
;
Structure prediction by ZEFSAII (Michael W. Deem and Ramdas Pophale) SiO2 
 PCOD8054139
Probable space group: C M
;
_chemical_formula_sum "Si O2"
_cell_formula_units_Z 24
_cell_length_a 12.361531
_cell_length_b 18.630218
_cell_length_c 4.930143
_cell_angle_alpha 90.000000
_cell_angle_beta 78.803520
_cell_angle_gamma 90.000000
_cell_volume 1113.792147
_symmetry_space_group_name_H-M "C M"
_symmetry_group_IT_number 8
_symmetry_cell_setting 'monoclinic'
loop_
_space_group_symop_operation_xyz
x,y,z
x,-y,z
1/2+x,1/2+y,z
1/2+x,1/2-y,z
loop_
_atom_site_type_symbol
_atom_site_label
_atom_site_fract_x
_atom_site_fract_y
_atom_site_fract_z
Si Si1 0.305040 0.875630 0.677340
Si Si2 0.748815 0.780593 0.522272
Si Si3 0.971865 0.156790 0.301585
Si Si4 0.438122 0.919232 0.128017
Si Si5 0.599744 0.796112 0.094268
Si Si6 0.562811 0.418077 0.768859
O O1 0.303268 0.793943 0.581543
O O2 0.348039 0.924098 0.409648
O O3 0.185259 0.903991 0.824515
O O4 0.386714 0.881399 0.890661
O O5 0.846653 0.839185 0.470258
O O6 0.699877 0.778474 0.245233
O O7 0.650054 0.801856 0.769710
O O8 0.010548 0.232828 0.160436
O O9 0.047710 0.132387 0.514988
O O10 0.978396 0.100007 0.052511
O O11 0.541415 0.872116 0.182366
O O12 0.477318 0.000000 0.039297
O O13 0.544867 0.500000 0.689898
#
# Coordination Sequence:
#
# PCOD8054139 Si02
#       6
#     4   4   4   4   4   4
#     4  12  23  42  70 100 136 168 221 288 339 400
#     4  12  25  43  69 102 126 172 233 273 322 395
#     4  12  24  43  69  98 133 178 224 276 330 405
#     4  12  26  43  67 102 138 177 219 278 348 400
#     4  12  24  44  69  97 135 175 223 275 326 399
#     4  12  25  43  66 101 139 174 218 278 346 401
#
# _framework density 21.548005
#
# number of rings (size 3 to 8) (size 9 to 14) (size 15 to 20)
#    0.000    0.000    5.000    6.000    2.333    0.000 
#    0.000    5.000    0.000    0.000    0.000    0.000 
#    0.000    0.000    0.000    0.000    0.000    0.000 
#
# Total GULP energy -148895.969647 kJ/mol
# GULP energy per Si atom -12407.997471 kJ/mol
# Density = 2.149896 g / cm^3
# Si number density = 21.548005 Si / 1000 Ang^3
#
#
#
# Elastic Constant Matrix: (Units=GPa)
#
#
# Indices 1 2 3 4 5 6 
#
# 1 70.8045 40.0049 28.0388 0.0000 -2.2529 0.0000
# 2 40.0049 111.4428 26.7973 0.0000 -6.8418 0.0000
# 3 28.0388 26.7973 107.9172 0.0000 -0.4941 0.0000
# 4 0.0000 0.0000 0.0000 7.2789 0.0000 -29.0872
# 5 -2.2529 -6.8418 -0.4941 0.0000 40.1603 0.0000
# 6 0.0000 0.0000 0.0000 -29.0872 0.0000 -1.5201
#
#
#
# Elastic Compliance Matrix: (Units=1/GPa)
#
#
# Indices 1 2 3 4 5 6 
#
# 1 0.018832 -0.005938 -0.003418 0.000000 0.000003 0.000000
# 2 -0.005938 0.011519 -0.001310 0.000000 0.001613 0.000000
# 3 -0.003418 -0.001310 0.010479 0.000000 -0.000286 0.000000
# 4 0.000000 0.000000 0.000000 0.001773 0.000000 -0.033936
# 5 0.000003 0.001613 -0.000286 0.000000 0.025172 0.000000
# 6 0.000000 0.000000 0.000000 -0.033936 0.000000 -0.008492
#
#
# Mechanical properties :
#
#
# Convention : Reuss Voigt Hill
#
# Bulk Modulus (GPa) = 51.29143 53.31629 52.30386
# Shear Modulus (GPa) = 57.39561 22.20539 39.80050
#
# Velocity S-wave (km/s) = 5.16662 3.21363 4.30241
# Velocity P-wave (km/s) = 7.71019 6.21021 7.00049
#
# Compressibility (1/GPa) = 0.01949643
#
# Stress axis : x y z
#
# Youngs Moduli (GPa) = 53.10037 86.81393 95.43316
#
# Poissons Ratio (x) = 0.51551 0.32623
# Poissons Ratio (y) = 0.31532 0.12503
# Poissons Ratio (z) = 0.18152 0.11373
#
# Static dielectric constant tensor:
#      x y z
#    x 3.726080 0.000000 -0.089990 
#    y 0.000000 3.829670 0.000000 
#    z -0.089990 0.000000 4.035900 
# 
# 
# High freq. dielectric constant tensor:
#      x y z
#    x 1.838320 0.000000 0.001140 
#    y 0.000000 1.839050 0.000000 
#    z 0.001140 0.000000 1.864040 
# 
# From -- ./inp_files/2672.got.cif
#   From: 2010.03.12/outbox.cif.g09.slc.cpg/sg8_2_cif.got.tgz:2672.got - 2010.03.31 10:45:26.
