data_PCOD8054769
_publ_section_title
;
Structure prediction by ZEFSAII (Michael W. Deem and Ramdas Pophale) SiO2 
 PCOD8054769
Probable space group: C C
;
_chemical_formula_sum "Si O2"
_cell_formula_units_Z 28
_cell_length_a 18.241867
_cell_length_b 16.716013
_cell_length_c 5.226753
_cell_angle_alpha 90.000000
_cell_angle_beta 53.939830
_cell_angle_gamma 90.000000
_cell_volume 1288.427183
_symmetry_space_group_name_H-M "C C"
_symmetry_group_IT_number 9
_symmetry_cell_setting 'monoclinic'
loop_
_space_group_symop_operation_xyz
x,y,z
x,-y,1/2+z
1/2+x,1/2+y,z
1/2+x,1/2-y,1/2+z
loop_
_atom_site_type_symbol
_atom_site_label
_atom_site_fract_x
_atom_site_fract_y
_atom_site_fract_z
Si Si1 0.311540 0.806992 0.035440
Si Si2 0.168029 0.944960 0.312425
Si Si3 0.268950 0.465918 0.098861
Si Si4 0.524518 0.306993 0.589417
Si Si5 0.814006 0.208850 0.538471
Si Si6 0.067108 0.534082 0.025996
Si Si7 0.022052 0.708850 0.086387
O O1 0.258274 0.890355 0.127842
O O2 0.292794 0.768016 0.348997
O O3 0.279107 0.749518 0.871586
O O4 0.418289 0.820565 0.781667
O O5 0.077784 0.890355 0.497014
O O6 0.168030 0.000001 0.562421
O O7 0.321278 0.498150 0.243987
O O8 0.168029 0.504122 0.312428
O O9 0.257999 0.371089 0.109870
O O10 0.417769 0.320565 0.843191
O O11 0.543264 0.268017 0.275860
O O12 0.556952 0.249518 0.753269
O O13 0.014781 0.501850 0.880869
O O14 0.078059 0.628912 0.014988
#
# Coordination Sequence:
#
# PCOD8054769 Si02
#       7
#     4   4   4   4   4   4   4
#     4  10  23  39  61  88 115 156 207 245 293 357
#     4  12  26  42  62  94 126 162 204 256 316 368
#     4  10  21  34  53  85 115 145 184 230 288 342
#     4  10  23  39  61  88 115 156 207 245 293 357
#     4  10  21  40  61  86 117 159 203 243 293 355
#     4  10  21  34  53  85 115 145 184 230 288 342
#     4  10  21  40  61  86 117 159 203 243 293 355
#
# _framework density 21.731921
#
# number of rings (size 3 to 8) (size 9 to 14) (size 15 to 20)
#    0.000    1.714    0.000    3.429    4.000    2.286 
#    0.000    0.000    0.000    0.000    0.000    0.000 
#    0.000    0.000    0.000    0.000    0.000    0.000 
#
# Total GULP energy -173578.877391 kJ/mol
# GULP energy per Si atom -12398.491242 kJ/mol
# Density = 2.168246 g / cm^3
# Si number density = 21.731921 Si / 1000 Ang^3
#
#
#
# Elastic Constant Matrix: (Units=GPa)
#
#
# Indices 1 2 3 4 5 6 
#
# 1 80.8650 52.4560 58.3360 0.0000 19.8753 0.0000
# 2 52.4560 141.8046 48.2624 0.0000 12.7242 0.0000
# 3 58.3360 48.2624 93.9129 0.0000 36.2379 0.0000
# 4 0.0000 0.0000 0.0000 39.6761 0.0000 9.8463
# 5 19.8753 12.7242 36.2379 0.0000 41.9106 0.0000
# 6 0.0000 0.0000 0.0000 9.8463 0.0000 37.1459
#
#
#
# Elastic Compliance Matrix: (Units=1/GPa)
#
#
# Indices 1 2 3 4 5 6 
#
# 1 0.024858 -0.004707 -0.013543 0.000000 0.001351 0.000000
# 2 -0.004707 0.009530 -0.002579 0.000000 0.001569 0.000000
# 3 -0.013543 -0.002579 0.026421 0.000000 -0.015639 0.000000
# 4 0.000000 0.000000 0.000000 0.026979 0.000000 -0.007151
# 5 0.001351 0.001569 -0.015639 0.000000 0.036266 0.000000
# 6 0.000000 0.000000 0.000000 -0.007151 0.000000 0.028817
#
#
# Mechanical properties :
#
#
# Convention : Reuss Voigt Hill
#
# Bulk Modulus (GPa) = 52.21923 70.52128 61.37025
# Shear Modulus (GPa) = 24.88653 34.24838 29.56745
#
# Velocity S-wave (km/s) = 3.38769 3.97413 3.69257
# Velocity P-wave (km/s) = 6.27558 7.31978 6.81770
#
# Compressibility (1/GPa) = 0.01915003
#
# Stress axis : x y z
#
# Youngs Moduli (GPa) = 40.22880 104.92934 37.84902
#
# Poissons Ratio (x) = 0.49393 0.51259
# Poissons Ratio (y) = 0.18937 0.09761
# Poissons Ratio (z) = 0.54482 0.27061
#
# Static dielectric constant tensor:
#      x y z
#    x 4.085990 0.000000 0.423630 
#    y 0.000000 3.704640 0.000000 
#    z 0.423630 0.000000 4.367110 
# 
# 
# High freq. dielectric constant tensor:
#      x y z
#    x 1.853350 0.000000 0.024440 
#    y 0.000000 1.852060 0.000000 
#    z 0.024440 0.000000 1.863770 
# 
# From -- ./inp_files/2382.got.cif
#   From: 2010.06.25/outbox.cif.g09.slc.cpg/sg9_2_cif.got.tgz:2382.got - 2010.06.27 21:40:51.
