data_PCOD8054926
_publ_section_title
;
Structure prediction by ZEFSAII (Michael W. Deem and Ramdas Pophale) SiO2 
 PCOD8054926
Probable space group: C C
;
_chemical_formula_sum "Si O2"
_cell_formula_units_Z 32
_cell_length_a 10.992103
_cell_length_b 8.975308
_cell_length_c 29.372966
_cell_angle_alpha 90.000000
_cell_angle_beta 153.809279
_cell_angle_gamma 90.000000
_cell_volume 1279.002672
_symmetry_space_group_name_H-M "C C"
_symmetry_group_IT_number 9
_symmetry_cell_setting 'monoclinic'
loop_
_space_group_symop_operation_xyz
x,y,z
x,-y,1/2+z
1/2+x,1/2+y,z
1/2+x,1/2-y,1/2+z
loop_
_atom_site_type_symbol
_atom_site_label
_atom_site_fract_x
_atom_site_fract_y
_atom_site_fract_z
Si Si1 0.377740 0.670006 0.328080
Si Si2 0.150649 0.826910 0.654483
Si Si3 0.068781 0.921934 0.066406
Si Si4 0.821474 0.268112 0.910368
Si Si5 0.346215 0.376349 0.689594
Si Si6 0.354351 0.650604 0.636735
Si Si7 0.227256 0.429998 0.871117
Si Si8 0.051271 0.460243 0.167434
O O1 0.679222 0.720455 0.412890
O O2 0.370673 0.673853 0.380517
O O3 0.304272 0.501019 0.286627
O O4 0.152631 0.776189 0.226452
O O5 0.255552 0.718631 0.650756
O O6 0.401622 0.917553 0.760727
O O7 0.017837 0.718928 0.648046
O O8 0.965204 0.960932 0.570615
O O9 0.242878 0.788693 0.145212
O O10 0.271315 0.013199 0.099093
O O11 0.813143 0.868760 0.949930
O O12 0.640759 0.368110 0.814840
O O13 0.823752 0.098406 0.894960
O O14 0.135754 0.327109 0.021812
O O15 0.390547 0.472709 0.658243
O O16 0.103909 0.452378 0.638151
#
# Coordination Sequence:
#
# PCOD8054926 Si02
#       8
#     4   4   4   4   4   4   4   4
#     4  10  22  40  67  99 131 176 227 265 341 405
#     4  10  21  40  63  94 129 165 217 274 320 392
#     4  12  22  42  65  95 129 172 216 274 333 395
#     4  11  21  40  71  92 132 184 214 278 346 387
#     4  10  24  39  66  97 133 167 228 276 328 401
#     4  10  21  42  64  95 139 166 224 286 319 400
#     4  11  22  39  67  92 135 171 217 276 334 399
#     4  10  21  42  67  88 130 173 207 275 329 383
#
# _framework density 25.019494999999999
#
# number of rings (size 3 to 8) (size 9 to 14) (size 15 to 20)
#    0.000    1.500    5.000    0.000    3.500    5.000 
#    0.000    0.000   13.750    0.000    0.000    0.000 
#    0.000    0.000    0.000    0.000    0.000    0.000 
#
# Total GULP energy -198286.575999 kJ/mol
# GULP energy per Si atom -12392.911000 kJ/mol
# Density = 2.496255 g / cm^3
# Si number density = 25.019495 Si / 1000 Ang^3
#
#
#
# Elastic Constant Matrix: (Units=GPa)
#
#
# Indices 1 2 3 4 5 6 
#
# 1 31.1169 14.6029 9.5593 0.0000 -2.5079 0.0000
# 2 14.6029 106.4075 28.9364 0.0000 -9.4077 0.0000
# 3 9.5593 28.9364 114.4368 0.0004 -23.5887 -0.0001
# 4 0.0000 0.0000 0.0004 30.5041 -0.0001 -9.1115
# 5 -2.5079 -9.4077 -23.5887 -0.0001 29.1935 0.0000
# 6 0.0000 0.0000 -0.0001 -9.1115 0.0000 33.5131
#
#
#
# Elastic Compliance Matrix: (Units=1/GPa)
#
#
# Indices 1 2 3 4 5 6 
#
# 1 0.034699 -0.004261 -0.001787 0.000000 0.000163 0.000000
# 2 -0.004261 0.010665 -0.002049 0.000000 0.001415 0.000000
# 3 -0.001787 -0.002049 0.011084 0.000000 0.008142 0.000000
# 4 0.000000 0.000000 0.000000 0.035680 0.000000 0.009701
# 5 0.000163 0.001415 0.008142 0.000000 0.041303 0.000000
# 6 0.000000 0.000000 0.000000 0.009701 0.000000 0.032477
#
#
# Mechanical properties :
#
#
# Convention : Reuss Voigt Hill
#
# Bulk Modulus (GPa) = 24.84311 39.79536 32.31923
# Shear Modulus (GPa) = 25.57263 31.89962 28.73613
#
# Velocity S-wave (km/s) = 3.20051 3.57457 3.39270
# Velocity P-wave (km/s) = 4.85888 5.74256 5.31911
#
# Compressibility (1/GPa) = 0.04025260
#
# Stress axis : x y z
#
# Youngs Moduli (GPa) = 28.81924 93.76465 90.21823
#
# Poissons Ratio (x) = 0.39958 0.16125
# Poissons Ratio (y) = 0.12281 0.18486
# Poissons Ratio (z) = 0.05151 0.19213
#
# Static dielectric constant tensor:
#      x y z
#    x 4.374970 0.000000 -0.204370 
#    y 0.000000 4.634920 0.000000 
#    z -0.204370 0.000000 4.534380 
# 
# 
# High freq. dielectric constant tensor:
#      x y z
#    x 1.979120 0.000000 -0.016280 
#    y 0.000000 1.998940 0.000000 
#    z -0.016280 0.000000 1.988840 
# 
# From -- ./inp_files/36689.got.cif
#   From: 2010.06.25/outbox.cif.g09.slc.cpg/sg9_19_cif.got.tgz:36689.got - 2010.06.27 21:40:51.
