data_PCOD8054310
_publ_section_title
;
Structure prediction by ZEFSAII (Michael W. Deem and Ramdas Pophale) SiO2 
 PCOD8054310
Probable space group: C C
;
_chemical_formula_sum "Si O2"
_cell_formula_units_Z 28
_cell_length_a 13.992840
_cell_length_b 19.333405
_cell_length_c 11.985125
_cell_angle_alpha 90.000000
_cell_angle_beta 31.096924
_cell_angle_gamma 90.000000
_cell_volume 1674.620799
_symmetry_space_group_name_H-M "C C"
_symmetry_group_IT_number 9
_symmetry_cell_setting 'monoclinic'
loop_
_space_group_symop_operation_xyz
x,y,z
x,-y,1/2+z
1/2+x,1/2+y,z
1/2+x,1/2-y,1/2+z
loop_
_atom_site_type_symbol
_atom_site_label
_atom_site_fract_x
_atom_site_fract_y
_atom_site_fract_z
Si Si1 0.798730 0.051013 0.346520
Si Si2 0.016685 0.561495 0.198175
Si Si3 0.799106 0.107901 0.574987
Si Si4 0.299081 0.553510 0.100493
Si Si5 0.008461 0.328718 0.519377
Si Si6 0.089692 0.171489 0.438133
Si Si7 0.080846 0.938332 0.133985
O O1 0.798976 0.111040 0.440184
O O2 0.798912 0.086430 0.224384
O O3 0.612935 0.005446 0.547224
O O4 0.984127 0.005222 0.176129
O O5 0.058017 0.626835 0.078649
O O6 0.798740 0.547748 0.433011
O O7 0.113846 0.576847 0.220104
O O8 0.977144 0.147630 0.442812
O O9 0.799723 0.029082 0.615885
O O10 0.620493 0.147212 0.799477
O O11 0.483898 0.577167 0.850007
O O12 0.799006 0.339758 0.693124
O O13 0.049517 0.250132 0.510726
O O14 0.039849 0.127021 0.596717
#
# Coordination Sequence:
#
# PCOD8054310 Si02
#       7
#     4   4   4   4   4   4   4
#     4  10  20  34  54  72 116 144 172 217 259 337
#     4   9  19  32  50  81 107 135 179 216 273 313
#     4  10  19  34  49  82 104 139 178 207 278 301
#     4  10  19  34  55  72 116 139 172 226 257 330
#     4  11  20  32  55  80 108 136 174 225 263 319
#     4  11  20  32  55  80 108 136 174 225 263 319
#     4   9  19  32  50  81 107 135 179 216 273 313
#
# _framework density 16.720203000000001
#
# number of rings (size 3 to 8) (size 9 to 14) (size 15 to 20)
#    0.000    2.286    4.286    0.857    0.000    5.714 
#    0.000    0.000    0.000    1.714    0.000    0.000 
#    0.000    0.000    0.000    0.000    0.000    0.000 
#
# Total GULP energy -173564.658535 kJ/mol
# GULP energy per Si atom -12397.475610 kJ/mol
# Density = 1.668215 g / cm^3
# Si number density = 16.720203 Si / 1000 Ang^3
#
#
#
# Elastic Constant Matrix: (Units=GPa)
#
#
# Indices 1 2 3 4 5 6 
#
# 1 130.4457 38.8854 93.1253 0.0088 15.6190 -0.0733
# 2 38.8854 70.8272 37.2901 0.0279 2.7914 -0.0450
# 3 93.1253 37.2901 123.1307 0.0461 -4.5335 -0.0275
# 4 0.0088 0.0279 0.0461 17.5558 -0.0388 0.1917
# 5 15.6190 2.7914 -4.5335 -0.0388 36.9372 0.0599
# 6 -0.0733 -0.0450 -0.0275 0.1917 0.0599 17.3109
#
#
#
# Elastic Compliance Matrix: (Units=1/GPa)
#
#
# Indices 1 2 3 4 5 6 
#
# 1 0.020443 -0.002951 -0.014945 0.000010 -0.010256 0.000091
# 2 -0.002951 0.017357 -0.003041 -0.000019 -0.000437 0.000030
# 3 -0.014945 -0.003041 0.020680 -0.000021 0.009088 -0.000070
# 4 0.000010 -0.000019 -0.000021 0.056968 0.000056 -0.000631
# 5 -0.010256 -0.000437 0.009088 0.000056 0.032559 -0.000143
# 6 0.000091 0.000030 -0.000070 -0.000631 -0.000143 0.057775
#
#
# Mechanical properties :
#
#
# Convention : Reuss Voigt Hill
#
# Bulk Modulus (GPa) = 60.21752 73.66726 66.94239
# Shear Modulus (GPa) = 19.74778 24.70095 22.22437
#
# Velocity S-wave (km/s) = 3.44040 3.84775 3.64976
# Velocity P-wave (km/s) = 7.20242 7.99342 7.60820
#
# Compressibility (1/GPa) = 0.01660646
#
# Stress axis : x y z
#
# Youngs Moduli (GPa) = 48.91586 57.61290 48.35480
#
# Poissons Ratio (x) = 0.17000 0.72268
# Poissons Ratio (y) = 0.14434 0.14705
# Poissons Ratio (z) = 0.73107 0.17520
#
# Static dielectric constant tensor:
#      x y z
#    x 3.272820 -0.000020 -0.043120 
#    y -0.000020 2.986880 0.000020 
#    z -0.043120 0.000020 3.311480 
# 
# 
# High freq. dielectric constant tensor:
#      x y z
#    x 1.646920 0.000000 -0.008920 
#    y 0.000000 1.612870 0.000000 
#    z -0.008920 0.000000 1.654390 
# 
# From -- ./inp_files/18498.got.cif
#   From: 2010.06.25/outbox.cif.g09.slc.cpg/sg9_10_cif.got.tgz:18498.got - 2010.06.27 21:40:51.
