data_PCOD8054155
_publ_section_title
;
Structure prediction by ZEFSAII (Michael W. Deem and Ramdas Pophale) SiO2 
 PCOD8054155
Probable space group: C M
;
_chemical_formula_sum "Si O2"
_cell_formula_units_Z 16
_cell_length_a 27.000000
_cell_length_b 9.000000
_cell_length_c 21.000000
_cell_angle_alpha 90.000000
_cell_angle_beta 20.000000
_cell_angle_gamma 90.000000
_cell_volume 1745.328791
_symmetry_space_group_name_H-M "C M"
_symmetry_group_IT_number 8
_symmetry_cell_setting 'monoclinic'
loop_
_space_group_symop_operation_xyz
x,y,z
x,-y,z
1/2+x,1/2+y,z
1/2+x,1/2-y,z
loop_
_atom_site_type_symbol
_atom_site_label
_atom_site_fract_x
_atom_site_fract_y
_atom_site_fract_z
Si Si1 0.279210 0.176885 0.798280
Si Si2 0.268713 0.172548 0.055819
Si Si3 0.376229 0.169148 0.100808
Si Si4 0.018285 0.327670 0.063041
Si Si5 0.846490 0.671479 0.389921
Si Si6 0.646397 0.826977 0.082311
Si Si7 0.528981 0.676466 0.804544
Si Si8 0.077869 0.170701 0.408346
O O1 0.442456 0.221278 0.582584
O O2 0.271772 0.000000 0.816313
O O3 0.166356 0.231237 0.880070
O O4 0.228654 0.264127 0.921739
O O5 0.200788 0.231161 0.074156
O O6 0.150184 0.204646 0.253042
O O7 0.304437 0.000000 0.006841
O O8 0.420305 0.256253 0.883788
O O9 0.428320 0.190641 0.108525
O O10 0.204786 0.207497 0.306104
O O11 0.396125 0.000000 0.051583
O O12 0.475000 0.275674 0.939136
O O13 0.058932 0.500000 0.028265
O O14 0.911566 0.261340 0.246035
O O15 0.814975 0.500000 0.416073
O O16 0.691973 0.742345 0.596629
O O17 0.972001 0.695115 0.290943
O O18 0.686071 0.000000 0.041996
O O19 0.525860 0.500000 0.803575
O O20 0.025502 0.000000 0.476860
#
# Coordination Sequence:
#
# PCOD8054155 Si02
#       8
#     4   4   4   4   4   4   4   4
#     4  11  22  35  53  80 110 138 176 222 263 310
#     4  10  21  37  55  79 109 139 177 220 261 311
#     4   9  19  35  55  78 104 136 175 218 262 311
#     4   9  18  36  57  75 101 138 177 215 261 313
#     4   8  17  33  53  77 102 133 175 215 252 307
#     4  10  20  37  58  78 105 141 178 216 264 316
#     4  10  19  33  54  79 107 138 172 213 263 314
#     4   9  19  36  55  76 106 143 178 215 262 314
#
# _framework density 9.1673270000000002
#
# number of rings (size 3 to 8) (size 9 to 14) (size 15 to 20)
#    0.000    2.500    0.000    3.750    0.000    5.000 
#    0.000   11.250    0.000    0.000    0.000    0.000 
#    0.000    0.000    0.000    0.000    0.000    0.000 
#
# Total GULP energy -198329.050132 kJ/mol
# GULP energy per Si atom -12395.565633 kJ/mol
# Density = 0.914646 g / cm^3
# Si number density = 9.167327 Si / 1000 Ang^3
#
#
#
# Elastic Constant Matrix: (Units=GPa)
#
#
# Indices 1 2 3 4 5 6 
#
# 1 91.6299 21.7075 47.6234 0.0022 -17.8771 -0.0011
# 2 21.7075 54.0989 49.7153 0.0124 -5.9692 -0.0029
# 3 47.6234 49.7153 155.3965 0.0070 -26.7101 -0.0018
# 4 0.0022 0.0124 0.0070 29.1606 -0.0010 -0.0438
# 5 -17.8771 -5.9692 -26.7101 -0.0010 17.1533 0.0002
# 6 -0.0011 -0.0029 -0.0018 -0.0438 0.0002 27.6876
#
#
#
# Elastic Compliance Matrix: (Units=1/GPa)
#
#
# Indices 1 2 3 4 5 6 
#
# 1 0.014780 -0.003319 -0.001391 0.000001 0.012083 0.000000
# 2 -0.003319 0.027295 -0.009117 -0.000009 -0.008158 0.000002
# 3 -0.001391 -0.009117 0.012267 0.000002 0.014479 0.000000
# 4 0.000001 -0.000009 0.000002 0.034293 0.000002 0.000054
# 5 0.012083 -0.008158 0.014479 0.000002 0.090598 0.000000
# 6 0.000000 0.000002 0.000000 0.000054 0.000000 0.036117
#
#
# Mechanical properties :
#
#
# Convention : Reuss Voigt Hill
#
# Bulk Modulus (GPa) = 37.47103 59.91309 48.69206
# Shear Modulus (GPa) = 19.84909 26.93890 23.39399
#
# Velocity S-wave (km/s) = 3.29386 3.83729 3.57591
# Velocity P-wave (km/s) = 5.91165 7.23751 6.60792
#
# Compressibility (1/GPa) = 0.02668728
#
# Stress axis : x y z
#
# Youngs Moduli (GPa) = 67.65871 36.63684 81.51974
#
# Poissons Ratio (x) = 0.12161 0.11337
# Poissons Ratio (y) = 0.22458 0.74324
# Poissons Ratio (z) = 0.09410 0.33403
#
# Static dielectric constant tensor:
#      x y z
#    x 3.340000 0.000000 -0.193560 
#    y 0.000000 3.374390 0.000000 
#    z -0.193560 0.000000 3.580990 
# 
# 
# High freq. dielectric constant tensor:
#      x y z
#    x 1.706680 0.000000 -0.013760 
#    y 0.000000 1.704730 0.000000 
#    z -0.013760 0.000000 1.719780 
# 
# From -- ./inp_files/17349.got.cif
#   From: 2010.03.12/outbox.ucp.g09.slc.cvg/sg8_9_cif.got.tgz:17349.got - 2010.06.21 13:25:46.
