data_PCOD8054505
_publ_section_title
;
Structure prediction by ZEFSAII (Michael W. Deem and Ramdas Pophale) SiO2 
 PCOD8054505
Probable space group: C C
;
_chemical_formula_sum "Si O2"
_cell_formula_units_Z 32
_cell_length_a 9.052106
_cell_length_b 18.795884
_cell_length_c 8.813741
_cell_angle_alpha 90.000000
_cell_angle_beta 76.896919
_cell_angle_gamma 90.000000
_cell_volume 1460.546798
_symmetry_space_group_name_H-M "C C"
_symmetry_group_IT_number 9
_symmetry_cell_setting 'monoclinic'
loop_
_space_group_symop_operation_xyz
x,y,z
x,-y,1/2+z
1/2+x,1/2+y,z
1/2+x,1/2-y,1/2+z
loop_
_atom_site_type_symbol
_atom_site_label
_atom_site_fract_x
_atom_site_fract_y
_atom_site_fract_z
Si Si1 0.262050 0.277220 0.475340
Si Si2 0.895976 0.906746 0.001738
Si Si3 0.346862 0.181880 0.713260
Si Si4 0.624972 0.922307 0.484121
Si Si5 0.557183 0.060719 0.659975
Si Si6 0.454523 0.536024 0.816631
Si Si7 0.065178 0.793964 0.792007
Si Si8 0.079336 0.151816 0.970359
O O1 0.245687 0.217988 0.607343
O O2 0.135642 0.339774 0.535996
O O3 0.221009 0.236750 0.327502
O O4 0.434276 0.306227 0.433092
O O5 0.713364 0.905973 0.057000
O O6 0.966715 0.939745 0.139454
O O7 0.959094 0.827971 0.949742
O O8 0.960137 0.951330 0.841818
O O9 0.412694 0.106237 0.634466
O O10 0.491806 0.227085 0.726251
O O11 0.239515 0.183436 0.883928
O O12 0.541930 0.930866 0.343825
O O13 0.796869 0.944535 0.430026
O O14 0.543731 0.976614 0.621371
O O15 0.580317 0.573751 0.892498
O O16 0.088092 0.851106 0.650941
#
# Coordination Sequence:
#
# PCOD8054505 Si02
#       8
#     4   4   4   4   4   4   4   4
#     4  10  22  42  63  97 127 174 221 268 337 398
#     4  10  20  35  69  93 129 167 223 272 330 392
#     4  11  24  40  64  94 136 170 217 274 335 395
#     4   9  19  39  64  90 126 167 220 265 322 395
#     4  10  21  41  65  97 129 174 218 277 325 401
#     4   9  18  36  61  93 124 165 215 271 320 392
#     4  11  23  39  66  95 126 176 216 274 334 392
#     4  10  23  40  62  91 133 167 218 269 329 401
#
# _framework density 21.909600999999999
#
# number of rings (size 3 to 8) (size 9 to 14) (size 15 to 20)
#    0.000    2.000    1.250    1.500    3.500    7.000 
#    0.000    3.750    0.000    0.000    0.000    0.000 
#    0.000    0.000    0.000    0.000    0.000    0.000 
#
# Total GULP energy -198213.500539 kJ/mol
# GULP energy per Si atom -12388.343784 kJ/mol
# Density = 2.185973 g / cm^3
# Si number density = 21.909601 Si / 1000 Ang^3
#
#
#
# Elastic Constant Matrix: (Units=GPa)
#
#
# Indices 1 2 3 4 5 6 
#
# 1 61.1993 44.1354 48.0666 0.0000 10.4504 0.0000
# 2 44.1354 104.3885 50.5446 0.0000 13.0453 0.0000
# 3 48.0666 50.5446 103.1533 0.0000 12.9646 0.0000
# 4 0.0000 0.0000 0.0000 39.5090 0.0000 4.8502
# 5 10.4504 13.0453 12.9646 0.0000 29.1083 0.0000
# 6 0.0000 0.0000 0.0000 4.8502 0.0000 25.1335
#
#
#
# Elastic Compliance Matrix: (Units=1/GPa)
#
#
# Indices 1 2 3 4 5 6 
#
# 1 0.030108 -0.007531 -0.009963 0.000000 -0.002997 0.000000
# 2 -0.007531 0.014706 -0.003398 0.000000 -0.002373 0.000000
# 3 -0.009963 -0.003398 0.016272 0.000000 -0.002148 0.000000
# 4 0.000000 0.000000 0.000000 0.025925 0.000000 -0.005003
# 5 -0.002997 -0.002373 -0.002148 0.000000 0.037451 0.000000
# 6 0.000000 0.000000 0.000000 -0.005003 0.000000 0.040753
#
#
# Mechanical properties :
#
#
# Convention : Reuss Voigt Hill
#
# Bulk Modulus (GPa) = 51.80981 61.58159 56.69570
# Shear Modulus (GPa) = 23.42679 27.14980 25.28829
#
# Velocity S-wave (km/s) = 3.27348 3.52401 3.40105
# Velocity P-wave (km/s) = 6.16328 6.68777 6.43088
#
# Compressibility (1/GPa) = 0.01930136
#
# Stress axis : x y z
#
# Youngs Moduli (GPa) = 33.21401 68.00069 61.45701
#
# Poissons Ratio (x) = 0.51213 0.61227
# Poissons Ratio (y) = 0.25014 0.20884
# Poissons Ratio (z) = 0.33089 0.23107
#
# Static dielectric constant tensor:
#      x y z
#    x 3.694730 0.000000 0.240080 
#    y 0.000000 4.423340 0.000000 
#    z 0.240080 0.000000 3.927390 
# 
# 
# High freq. dielectric constant tensor:
#      x y z
#    x 1.837090 0.000000 0.016810 
#    y 0.000000 1.866670 0.000000 
#    z 0.016810 0.000000 1.849530 
# 
# From -- ./inp_files/5753.got.cif
#   From: 2010.06.25/outbox.cif.g09.slc.cpg/sg9_3_cif.got.tgz:5753.got - 2010.06.27 21:40:51.
