data_PCOD8054036
_publ_section_title
;
Structure prediction by ZEFSAII (Michael W. Deem and Ramdas Pophale) SiO2 
 PCOD8054036
Probable space group: C M
;
_chemical_formula_sum "Si O2"
_cell_formula_units_Z 20
_cell_length_a 9.556157
_cell_length_b 18.362768
_cell_length_c 5.206883
_cell_angle_alpha 90.000000
_cell_angle_beta 99.305000
_cell_angle_gamma 90.000000
_cell_volume 901.668081
_symmetry_space_group_name_H-M "C M"
_symmetry_group_IT_number 8
_symmetry_cell_setting 'monoclinic'
loop_
_space_group_symop_operation_xyz
x,y,z
x,-y,z
1/2+x,1/2+y,z
1/2+x,1/2-y,z
loop_
_atom_site_type_symbol
_atom_site_label
_atom_site_fract_x
_atom_site_fract_y
_atom_site_fract_z
Si Si1 0.667800 0.420941 0.517820
Si Si2 0.739154 0.915730 0.940200
Si Si3 0.545821 0.357795 0.978455
Si Si4 0.969757 0.370924 0.610053
Si Si5 0.548276 0.194747 0.124156
O O1 0.618196 0.500000 0.600335
O O2 0.600694 0.410133 0.218385
O O3 0.837317 0.423519 0.530138
O O4 0.621304 0.364787 0.724505
O O5 0.618399 0.915238 0.679931
O O6 0.761767 0.000000 0.037185
O O7 0.682560 0.861713 0.150259
O O8 0.881788 0.877904 0.880059
O O9 0.587022 0.278474 0.096990
O O10 0.974601 0.314226 0.376520
O O11 0.939876 0.325136 0.861599
#
# Coordination Sequence:
#
# PCOD8054036 Si02
#       5
#     4   4   4   4   4
#     4  12  26  45  70 103 141 181 225 285 351 414
#     4  10  25  45  71 101 137 183 232 286 342 411
#     4  12  27  44  72 100 144 179 233 283 351 406
#     4  10  24  43  72  95 137 177 236 272 346 402
#     4  10  25  43  71  99 136 178 234 282 339 405
#
# _framework density 22.181111000000001
#
# number of rings (size 3 to 8) (size 9 to 14) (size 15 to 20)
#    1.200    0.000    0.000    4.800    8.400    1.600 
#    0.000    0.000    0.000    0.000    0.000    0.000 
#    0.000    0.000    0.000    0.000    0.000    0.000 
#
# Total GULP energy -123896.603148 kJ/mol
# GULP energy per Si atom -12389.660315 kJ/mol
# Density = 2.213063 g / cm^3
# Si number density = 22.181111 Si / 1000 Ang^3
#
#
#
# Elastic Constant Matrix: (Units=GPa)
#
#
# Indices 1 2 3 4 5 6 
#
# 1 122.2981 26.1749 31.5137 0.0000 16.5704 0.0000
# 2 26.1749 124.1478 -0.9354 0.0000 5.7018 0.0000
# 3 31.5137 -0.9354 117.4069 0.0000 3.6194 0.0000
# 4 0.0000 0.0000 0.0000 26.0644 0.0000 -8.7857
# 5 16.5704 5.7018 3.6194 0.0000 16.4632 0.0000
# 6 0.0000 0.0000 0.0000 -8.7857 0.0000 25.8480
#
#
#
# Elastic Compliance Matrix: (Units=1/GPa)
#
#
# Indices 1 2 3 4 5 6 
#
# 1 0.010486 -0.001800 -0.002540 0.000000 -0.009373 0.000000
# 2 -0.001800 0.008497 0.000590 0.000000 -0.001261 0.000000
# 3 -0.002540 0.000590 0.009194 0.000000 0.000331 0.000000
# 4 0.000000 0.000000 0.000000 0.043331 0.000000 0.014728
# 5 -0.009373 -0.001261 0.000331 0.000000 0.070540 0.000000
# 6 0.000000 0.000000 0.000000 0.014728 0.000000 0.043694
#
#
# Mechanical properties :
#
#
# Convention : Reuss Voigt Hill
#
# Bulk Modulus (GPa) = 48.36379 53.03992 50.70185
# Shear Modulus (GPa) = 24.98334 34.14842 29.56588
#
# Velocity S-wave (km/s) = 3.35973 3.92794 3.65489
# Velocity P-wave (km/s) = 6.07468 6.67351 6.38112
#
# Compressibility (1/GPa) = 0.02067663
#
# Stress axis : x y z
#
# Youngs Moduli (GPa) = 95.36167 117.69291 108.77051
#
# Poissons Ratio (x) = 0.21180 0.27629
# Poissons Ratio (y) = 0.17161 -0.06413
# Poissons Ratio (z) = 0.24223 -0.06939
#
# Static dielectric constant tensor:
#      x y z
#    x 3.855510 0.000000 0.059400 
#    y 0.000000 3.800020 0.000000 
#    z 0.059400 0.000000 3.828180 
# 
# 
# High freq. dielectric constant tensor:
#      x y z
#    x 1.868160 0.000000 0.003910 
#    y 0.000000 1.871970 0.000000 
#    z 0.003910 0.000000 1.870620 
# 
# From -- ./inp_files/1202.got.cif
#   From: 2010.03.12/outbox.cif.g09.slc.cpg/sg8_1_cif.got.tgz:1202.got - 2010.03.31 10:45:26.
