data_PCOD8054902
_publ_section_title
;
Structure prediction by ZEFSAII (Michael W. Deem and Ramdas Pophale) SiO2 
 PCOD8054902
Probable space group: C C
;
_chemical_formula_sum "Si O2"
_cell_formula_units_Z 28
_cell_length_a 16.965431
_cell_length_b 8.066059
_cell_length_c 22.542588
_cell_angle_alpha 90.000000
_cell_angle_beta 20.170408
_cell_angle_gamma 90.000000
_cell_volume 1063.687984
_symmetry_space_group_name_H-M "C C"
_symmetry_group_IT_number 9
_symmetry_cell_setting 'monoclinic'
loop_
_space_group_symop_operation_xyz
x,y,z
x,-y,1/2+z
1/2+x,1/2+y,z
1/2+x,1/2-y,1/2+z
loop_
_atom_site_type_symbol
_atom_site_label
_atom_site_fract_x
_atom_site_fract_y
_atom_site_fract_z
Si Si1 0.972100 0.741217 0.546580
Si Si2 0.312066 0.406737 0.205197
Si Si3 0.121290 0.445539 0.592006
Si Si4 0.940149 0.756822 0.770545
Si Si5 0.988080 0.208504 0.900892
Si Si6 0.733118 0.180728 0.889636
Si Si7 0.386420 0.063262 0.931691
O O1 0.975361 0.717395 0.474571
O O2 0.744846 0.633770 0.719684
O O3 0.194778 0.670122 0.422692
O O4 0.928657 0.930224 0.596428
O O5 0.262970 0.433817 0.310163
O O6 0.073343 0.358556 0.343391
O O7 0.480845 0.256646 0.071719
O O8 0.313302 0.437554 0.508452
O O9 0.258287 0.420596 0.433418
O O10 0.022836 0.630962 0.660316
O O11 0.923277 0.320524 0.749317
O O12 0.917757 0.649606 0.845931
O O13 0.129536 0.903584 0.638605
O O14 0.929193 0.363718 0.897425
#
# Coordination Sequence:
#
# PCOD8054902 Si02
#       7
#     4   4   4   4   4   4   4
#     4  11  24  47  69 105 144 190 239 298 355 428
#     4  10  21  43  68 104 143 190 237 297 356 427
#     4  11  22  43  73 109 140 191 241 295 353 430
#     4  12  25  48  73 107 144 187 243 302 355 421
#     4  11  25  47  73 103 145 191 238 290 362 431
#     4  10  21  39  72 104 149 187 239 292 365 423
#     4  11  26  45  72 100 147 186 239 294 362 422
#
# _framework density 26.323509000000001
#
# number of rings (size 3 to 8) (size 9 to 14) (size 15 to 20)
#    0.000    1.143    1.429    5.143    2.000    2.286 
#   10.286    0.000    0.000    0.000    0.000    0.000 
#    0.000    0.000    0.000    0.000    0.000    0.000 
#
# Total GULP energy -173534.459892 kJ/mol
# GULP energy per Si atom -12395.318564 kJ/mol
# Density = 2.626360 g / cm^3
# Si number density = 26.323509 Si / 1000 Ang^3
#
#
#
# Elastic Constant Matrix: (Units=GPa)
#
#
# Indices 1 2 3 4 5 6 
#
# 1 120.4640 6.0258 61.6992 0.2250 -18.2610 -0.0301
# 2 6.0258 58.8242 5.0459 -0.0987 -0.7664 -0.0081
# 3 61.6992 5.0459 178.3381 0.3389 -31.9890 -0.0890
# 4 0.2250 -0.0987 0.3389 27.6207 0.1128 14.0581
# 5 -18.2610 -0.7664 -31.9890 0.1128 65.0630 -0.0321
# 6 -0.0301 -0.0081 -0.0890 14.0581 -0.0321 32.0181
#
#
#
# Elastic Compliance Matrix: (Units=1/GPa)
#
#
# Indices 1 2 3 4 5 6 
#
# 1 0.010211 -0.000748 -0.003289 -0.000066 0.001240 0.000031
# 2 -0.000748 0.017096 -0.000249 0.000089 -0.000131 -0.000036
# 3 -0.003289 -0.000249 0.007223 -0.000107 0.002626 0.000067
# 4 -0.000066 0.000089 -0.000107 0.046628 -0.000161 -0.020473
# 5 0.001240 -0.000131 0.002626 -0.000161 0.017008 0.000096
# 6 0.000031 -0.000036 0.000067 -0.020473 0.000096 0.040222
#
#
# Mechanical properties :
#
#
# Convention : Reuss Voigt Hill
#
# Bulk Modulus (GPa) = 38.52093 55.90757 47.21425
# Shear Modulus (GPa) = 32.13113 43.93073 38.03093
#
# Velocity S-wave (km/s) = 3.49753 4.08962 3.80511
# Velocity P-wave (km/s) = 5.56559 6.60188 6.10576
#
# Compressibility (1/GPa) = 0.02595992
#
# Stress axis : x y z
#
# Youngs Moduli (GPa) = 97.93021 58.49261 138.43750
#
# Poissons Ratio (x) = 0.04374 0.45533
# Poissons Ratio (y) = 0.07324 0.03442
# Poissons Ratio (z) = 0.32210 0.01455
#
# Static dielectric constant tensor:
#      x y z
#    x 4.981410 -0.000210 -0.103130 
#    y -0.000210 4.567660 0.000440 
#    z -0.103130 0.000440 5.215560 
# 
# 
# High freq. dielectric constant tensor:
#      x y z
#    x 2.066020 0.000000 0.001930 
#    y 0.000000 2.045150 0.000040 
#    z 0.001930 0.000040 2.083340 
# 
# From -- ./inp_files/35804.got.cif
#   From: 2010.06.25/outbox.cif.g09.slc.cpg/sg9_18_cif.got.tgz:35804.got - 2010.06.27 21:40:51.
