data_PCOD8054512
_publ_section_title
;
Structure prediction by ZEFSAII (Michael W. Deem and Ramdas Pophale) SiO2 
 PCOD8054512
Probable space group: C C
;
_chemical_formula_sum "Si O2"
_cell_formula_units_Z 32
_cell_length_a 6.722203
_cell_length_b 22.501416
_cell_length_c 10.667180
_cell_angle_alpha 90.000000
_cell_angle_beta 112.102428
_cell_angle_gamma 90.000000
_cell_volume 1494.935538
_symmetry_space_group_name_H-M "C C"
_symmetry_group_IT_number 9
_symmetry_cell_setting 'monoclinic'
loop_
_space_group_symop_operation_xyz
x,y,z
x,-y,1/2+z
1/2+x,1/2+y,z
1/2+x,1/2-y,1/2+z
loop_
_atom_site_type_symbol
_atom_site_label
_atom_site_fract_x
_atom_site_fract_y
_atom_site_fract_z
Si Si1 0.202990 0.024506 0.288960
Si Si2 0.495917 0.289493 0.334566
Si Si3 0.182912 0.110999 0.731405
Si Si4 0.939675 0.932037 0.943669
Si Si5 0.787841 0.953576 0.538856
Si Si6 0.406403 0.206146 0.082961
Si Si7 0.542565 0.084702 0.209079
Si Si8 0.620287 0.164962 0.890148
O O1 0.426587 0.048935 0.291600
O O2 0.147448 0.044293 0.416951
O O3 0.019612 0.049715 0.156387
O O4 0.228792 0.954016 0.293999
O O5 0.547588 0.356557 0.306216
O O6 0.501213 0.248441 0.212695
O O7 0.674484 0.270168 0.480143
O O8 0.260037 0.289772 0.339716
O O9 0.405308 0.146676 0.763425
O O10 0.037694 0.110198 0.572732
O O11 0.774077 0.893716 0.819864
O O12 0.791947 0.986832 0.957167
O O13 0.597598 0.956064 0.599476
O O14 0.756644 0.894477 0.449603
O O15 0.392772 0.139928 0.136741
O O16 0.568390 0.201911 0.003795
#
# Coordination Sequence:
#
# PCOD8054512 Si02
#       8
#     4   4   4   4   4   4   4   4
#     4  10  20  36  58  93 127 162 208 254 316 377
#     4  11  24  44  66  92 123 165 213 266 316 370
#     4  10  23  37  58  93 126 163 211 256 308 383
#     4  10  21  35  58  95 129 162 203 259 305 378
#     4   9  19  36  59  87 124 165 206 251 308 380
#     4  10  25  44  66  94 120 164 219 263 309 382
#     4  10  21  38  61  89 125 170 207 256 317 372
#     4  10  21  42  66  87 124 169 207 257 321 366
#
# _framework density 21.405605000000001
#
# number of rings (size 3 to 8) (size 9 to 14) (size 15 to 20)
#    0.000    2.000    0.000    2.250    1.750   12.000 
#    2.250    0.000    0.000    0.000    0.000    0.000 
#    0.000    0.000    0.000    0.000    0.000    0.000 
#
# Total GULP energy -198342.508447 kJ/mol
# GULP energy per Si atom -12396.406778 kJ/mol
# Density = 2.135688 g / cm^3
# Si number density = 21.405605 Si / 1000 Ang^3
#
#
#
# Elastic Constant Matrix: (Units=GPa)
#
#
# Indices 1 2 3 4 5 6 
#
# 1 121.7269 44.7260 39.3561 0.0000 -6.7426 0.0000
# 2 44.7260 64.9063 33.3214 0.0000 -4.5645 0.0000
# 3 39.3561 33.3214 97.6238 0.0000 3.0391 0.0000
# 4 0.0000 0.0000 0.0000 33.8797 0.0000 -0.3704
# 5 -6.7426 -4.5645 3.0391 0.0000 27.2495 0.0000
# 6 0.0000 0.0000 0.0000 -0.3704 0.0000 22.4038
#
#
#
# Elastic Compliance Matrix: (Units=1/GPa)
#
#
# Indices 1 2 3 4 5 6 
#
# 1 0.011529 -0.006526 -0.002484 0.000000 0.002037 0.000000
# 2 -0.006526 0.022786 -0.005233 0.000000 0.002786 0.000000
# 3 -0.002484 -0.005233 0.013123 0.000000 -0.002955 0.000000
# 4 0.000000 0.000000 0.000000 0.029522 0.000000 0.000488
# 5 0.002037 0.002786 -0.002955 0.000000 0.037998 0.000000
# 6 0.000000 0.000000 0.000000 0.000488 0.000000 0.044643
#
#
# Mechanical properties :
#
#
# Convention : Reuss Voigt Hill
#
# Bulk Modulus (GPa) = 52.76481 57.67379 55.21930
# Shear Modulus (GPa) = 25.71958 27.83017 26.77488
#
# Velocity S-wave (km/s) = 3.47008 3.60965 3.54055
# Velocity P-wave (km/s) = 6.38426 6.66142 6.52431
#
# Compressibility (1/GPa) = 0.01895203
#
# Stress axis : x y z
#
# Youngs Moduli (GPa) = 86.73946 43.88578 76.20267
#
# Poissons Ratio (x) = 0.28640 0.18926
# Poissons Ratio (y) = 0.56607 0.39880
# Poissons Ratio (z) = 0.21543 0.22967
#
# Static dielectric constant tensor:
#      x y z
#    x 3.951360 0.000000 0.007890 
#    y 0.000000 3.559930 0.000000 
#    z 0.007890 0.000000 3.984160 
# 
# 
# High freq. dielectric constant tensor:
#      x y z
#    x 1.845270 0.000000 0.004520 
#    y 0.000000 1.812440 0.000000 
#    z 0.004520 0.000000 1.851110 
# 
# From -- ./inp_files/13473.got.cif
#   From: 2010.06.25/outbox.cif.g09.slc.cpg/sg9_7_cif.got.tgz:13473.got - 2010.06.27 21:40:51.
