data_PCOD8054194
_publ_section_title
;
Structure prediction by ZEFSAII (Michael W. Deem and Ramdas Pophale) SiO2 
 PCOD8054194
Probable space group: C C
;
_chemical_formula_sum "Si O2"
_cell_formula_units_Z 28
_cell_length_a 13.150405
_cell_length_b 14.626915
_cell_length_c 9.172797
_cell_angle_alpha 90.000000
_cell_angle_beta 37.140285
_cell_angle_gamma 90.000000
_cell_volume 1065.281019
_symmetry_space_group_name_H-M "C C"
_symmetry_group_IT_number 9
_symmetry_cell_setting 'monoclinic'
loop_
_space_group_symop_operation_xyz
x,y,z
x,-y,1/2+z
1/2+x,1/2+y,z
1/2+x,1/2-y,1/2+z
loop_
_atom_site_type_symbol
_atom_site_label
_atom_site_fract_x
_atom_site_fract_y
_atom_site_fract_z
Si Si1 0.901810 0.503119 0.802720
Si Si2 0.208957 0.310300 0.689424
Si Si3 0.574998 0.605317 0.451098
Si Si4 0.604345 0.082550 0.820777
Si Si5 0.433000 0.527092 0.899361
Si Si6 0.836878 0.376147 0.128168
Si Si7 0.766940 0.233177 0.792498
O O1 0.778894 0.556366 0.827205
O O2 0.966675 0.574447 0.850725
O O3 0.054275 0.463244 0.532151
O O4 0.809656 0.421085 0.998569
O O5 0.369076 0.376352 0.542049
O O6 0.233230 0.217746 0.754846
O O7 0.196255 0.285201 0.534150
O O8 0.036061 0.359830 0.929521
O O9 0.578599 0.529377 0.319918
O O10 0.757050 0.655782 0.270986
O O11 0.451907 0.691556 0.564669
O O12 0.514844 0.545402 0.652813
O O13 0.644914 0.187211 0.811457
O O14 0.771146 0.035717 0.566829
#
# Coordination Sequence:
#
# PCOD8054194 Si02
#       7
#     4   4   4   4   4   4   4
#     4  10  19  37  61  91 116 163 200 250 285 378
#     4  11  20  38  63  93 116 164 200 251 287 379
#     4  10  22  39  65  87 120 156 205 246 298 352
#     4  10  17  34  62  89 113 155 209 241 283 358
#     4  10  19  34  62  88 117 158 201 240 294 363
#     4  11  23  39  68  88 124 154 214 242 309 343
#     4  10  20  37  63  90 116 158 205 246 294 359
#
# _framework density 26.284144999999999
#
# number of rings (size 3 to 8) (size 9 to 14) (size 15 to 20)
#    0.000    1.714    4.286    3.429    0.000    0.000 
#    2.571    2.857    0.000    0.000    0.000    0.000 
#    0.000    0.000    0.000    0.000    0.000    0.000 
#
# Total GULP energy -173492.883328 kJ/mol
# GULP energy per Si atom -12392.348809 kJ/mol
# Density = 2.622432 g / cm^3
# Si number density = 26.284145 Si / 1000 Ang^3
#
#
#
# Elastic Constant Matrix: (Units=GPa)
#
#
# Indices 1 2 3 4 5 6 
#
# 1 86.9160 42.8978 9.1156 -0.0013 22.9294 0.0018
# 2 42.8978 153.4976 46.7671 -0.0009 16.9568 0.0013
# 3 9.1156 46.7671 47.6514 -0.0004 21.0169 0.0009
# 4 -0.0013 -0.0009 -0.0004 32.0350 0.0015 -2.3314
# 5 22.9294 16.9568 21.0169 0.0015 29.5953 -0.0019
# 6 0.0018 0.0013 0.0009 -2.3314 -0.0019 71.3700
#
#
#
# Elastic Compliance Matrix: (Units=1/GPa)
#
#
# Indices 1 2 3 4 5 6 
#
# 1 0.018340 -0.006408 0.010817 0.000001 -0.018219 -0.000001
# 2 -0.006408 0.011591 -0.013702 0.000000 0.008055 0.000000
# 3 0.010817 -0.013702 0.047464 0.000002 -0.034236 -0.000001
# 4 0.000001 0.000000 0.000002 0.031290 -0.000004 0.001022
# 5 -0.018219 0.008055 -0.034236 -0.000004 0.067602 0.000002
# 6 -0.000001 0.000000 -0.000001 0.001022 0.000002 0.014045
#
#
# Mechanical properties :
#
#
# Convention : Reuss Voigt Hill
#
# Bulk Modulus (GPa) = 17.00468 53.95845 35.48157
# Shear Modulus (GPa) = 21.87965 39.21903 30.54934
#
# Velocity S-wave (km/s) = 2.88831 3.86698 3.41291
# Velocity P-wave (km/s) = 4.19604 6.36487 5.39065
#
# Compressibility (1/GPa) = 0.05880733
#
# Stress axis : x y z
#
# Youngs Moduli (GPa) = 54.52497 86.27634 21.06841
#
# Poissons Ratio (x) = 0.55290 -0.22789
# Poissons Ratio (y) = 0.34942 0.28868
# Poissons Ratio (z) = -0.58978 1.18217
#
# Static dielectric constant tensor:
#      x y z
#    x 4.855370 0.000000 -0.092730 
#    y 0.000000 5.221530 0.000000 
#    z -0.092730 0.000000 4.554730 
# 
# 
# High freq. dielectric constant tensor:
#      x y z
#    x 2.050050 0.000000 -0.011770 
#    y 0.000000 2.074160 0.000000 
#    z -0.011770 0.000000 2.040010 
# 
# From -- ./inp_files/7632.got.cif
#   From: 2010.06.25/outbox.cif.g09.slc.cpg/sg9_4_cif.got.tgz:7632.got - 2010.06.27 21:40:51.
