data_PCOD8054732
_publ_section_title
;
Structure prediction by ZEFSAII (Michael W. Deem and Ramdas Pophale) SiO2 
 PCOD8054732
Probable space group: C C
;
_chemical_formula_sum "Si O2"
_cell_formula_units_Z 32
_cell_length_a 25.533042
_cell_length_b 4.899540
_cell_length_c 13.258141
_cell_angle_alpha 90.000000
_cell_angle_beta 70.855006
_cell_angle_gamma 90.000000
_cell_volume 1566.861399
_symmetry_space_group_name_H-M "C C"
_symmetry_group_IT_number 9
_symmetry_cell_setting 'monoclinic'
loop_
_space_group_symop_operation_xyz
x,y,z
x,-y,1/2+z
1/2+x,1/2+y,z
1/2+x,1/2-y,1/2+z
loop_
_atom_site_type_symbol
_atom_site_label
_atom_site_fract_x
_atom_site_fract_y
_atom_site_fract_z
Si Si1 0.144790 0.219067 0.234700
Si Si2 0.633727 0.029907 0.937532
Si Si3 0.473842 0.243259 0.143860
Si Si4 0.839744 0.711235 0.641840
Si Si5 0.419889 0.250735 0.768416
Si Si6 0.711841 0.188045 0.240607
Si Si7 0.393865 0.722489 0.517333
Si Si8 0.093106 0.011130 0.069864
O O1 0.107360 0.324115 0.353440
O O2 0.184597 0.474296 0.176682
O O3 0.103117 0.123432 0.175157
O O4 0.186474 0.983571 0.241566
O O5 0.694632 0.919368 0.864827
O O6 0.638399 0.273852 0.016730
O O7 0.595859 0.773330 0.994551
O O8 0.437419 0.440729 0.236408
O O9 0.449337 0.217027 0.046713
O O10 0.535739 0.352292 0.096285
O O11 0.470199 0.949067 0.201348
O O12 0.864751 0.686387 0.738565
O O13 0.777140 0.808873 0.689371
O O14 0.843936 0.418335 0.585486
O O15 0.874642 0.914474 0.548821
O O16 0.406830 0.218250 0.893504
#
# Coordination Sequence:
#
# PCOD8054732 Si02
#       8
#     4   4   4   4   4   4   4   4
#     4  10  22  40  58  86 129 160 209 256 299 364
#     4  10  22  40  60  87 128 156 215 250 300 370
#     4  10  23  39  62  89 122 152 204 255 303 363
#     4  10  21  39  63  86 125 153 203 249 311 363
#     4  10  21  42  59  91 120 153 200 256 307 372
#     4  10  20  43  58  88 129 164 193 274 296 360
#     4  10  21  40  63  91 117 157 199 256 304 382
#     4  12  22  41  63  90 120 175 199 256 314 366
#
# _framework density 20.422993000000002
#
# number of rings (size 3 to 8) (size 9 to 14) (size 15 to 20)
#    0.750    1.000    1.250    3.000    0.000    1.000 
#    9.000    0.000    0.000    0.000    0.000    0.000 
#    0.000    0.000    0.000    0.000    0.000    0.000 
#
# Total GULP energy -198267.501512 kJ/mol
# GULP energy per Si atom -12391.718845 kJ/mol
# Density = 2.037651 g / cm^3
# Si number density = 20.422993 Si / 1000 Ang^3
#
#
#
# Elastic Constant Matrix: (Units=GPa)
#
#
# Indices 1 2 3 4 5 6 
#
# 1 59.3301 23.1593 34.0180 0.0000 1.8857 0.0000
# 2 23.1593 112.9563 36.3370 0.0000 5.6816 0.0000
# 3 34.0180 36.3370 118.0699 0.0000 10.2493 0.0000
# 4 0.0000 0.0000 0.0000 28.5229 0.0000 -3.2746
# 5 1.8857 5.6816 10.2493 0.0000 16.8259 0.0000
# 6 0.0000 0.0000 0.0000 -3.2746 0.0000 27.2365
#
#
#
# Elastic Compliance Matrix: (Units=1/GPa)
#
#
# Indices 1 2 3 4 5 6 
#
# 1 0.020909 -0.002652 -0.005366 0.000000 0.001821 0.000000
# 2 -0.002652 0.010201 -0.002219 0.000000 -0.001795 0.000000
# 3 -0.005366 -0.002219 0.011172 0.000000 -0.005455 0.000000
# 4 0.000000 0.000000 0.000000 0.035550 0.000000 0.004274
# 5 0.001821 -0.001795 -0.005455 0.000000 0.063157 0.000000
# 6 0.000000 0.000000 0.000000 0.004274 0.000000 0.037229
#
#
# Mechanical properties :
#
#
# Convention : Reuss Voigt Hill
#
# Bulk Modulus (GPa) = 45.85762 53.04275 49.45019
# Shear Modulus (GPa) = 24.27616 27.63985 25.95801
#
# Velocity S-wave (km/s) = 3.45145 3.68281 3.56900
# Velocity P-wave (km/s) = 6.19564 6.64173 6.42256
#
# Compressibility (1/GPa) = 0.02180662
#
# Stress axis : x y z
#
# Youngs Moduli (GPa) = 47.82618 98.02906 89.50815
#
# Poissons Ratio (x) = 0.26001 0.48031
# Poissons Ratio (y) = 0.12685 0.19866
# Poissons Ratio (z) = 0.25664 0.21757
#
# Static dielectric constant tensor:
#      x y z
#    x 3.295170 0.000000 0.004870 
#    y 0.000000 4.122530 0.000000 
#    z 0.004870 0.000000 3.610980 
# 
# 
# High freq. dielectric constant tensor:
#      x y z
#    x 1.762870 0.000000 -0.003870 
#    y 0.000000 1.831430 0.000000 
#    z -0.003870 0.000000 1.792090 
# 
# From -- ./inp_files/20461.got.cif
#   From: 2010.06.25/outbox.cif.g09.slc.cpg/sg9_11_cif.got.tgz:20461.got - 2010.06.27 21:40:51.
