data_PCOD8054660
_publ_section_title
;
Structure prediction by ZEFSAII (Michael W. Deem and Ramdas Pophale) SiO2 
 PCOD8054660
Probable space group: C C
;
_chemical_formula_sum "Si O2"
_cell_formula_units_Z 32
_cell_length_a 8.708497
_cell_length_b 15.656731
_cell_length_c 10.406897
_cell_angle_alpha 90.000000
_cell_angle_beta 100.220348
_cell_angle_gamma 90.000000
_cell_volume 1396.430082
_symmetry_space_group_name_H-M "C C"
_symmetry_group_IT_number 9
_symmetry_cell_setting 'monoclinic'
loop_
_space_group_symop_operation_xyz
x,y,z
x,-y,1/2+z
1/2+x,1/2+y,z
1/2+x,1/2-y,1/2+z
loop_
_atom_site_type_symbol
_atom_site_label
_atom_site_fract_x
_atom_site_fract_y
_atom_site_fract_z
Si Si1 0.601260 0.836141 0.914730
Si Si2 0.864799 0.413498 0.515636
Si Si3 0.431795 0.606730 0.516662
Si Si4 0.823628 0.232151 0.960257
Si Si5 0.587704 0.763441 0.644775
Si Si6 0.397624 0.021448 0.288406
Si Si7 0.613076 0.358569 0.795843
Si Si8 0.015790 0.913754 0.518999
O O1 0.472279 0.796482 0.991215
O O2 0.630771 0.771675 0.800416
O O3 0.547595 0.922793 0.840270
O O4 0.756465 0.860632 0.015140
O O5 0.924507 0.437190 0.380890
O O6 0.891644 0.487744 0.630803
O O7 0.679016 0.406168 0.469895
O O8 0.946411 0.326152 0.575791
O O9 0.539841 0.664455 0.622999
O O10 0.477881 0.620412 0.375988
O O11 0.458664 0.507355 0.552868
O O12 0.699225 0.269017 0.839369
O O13 0.743550 0.221362 0.086719
O O14 0.881690 0.138005 0.920573
O O15 0.238826 0.065110 0.314308
O O16 0.531471 0.353555 0.646947
#
# Coordination Sequence:
#
# PCOD8054660 Si02
#       8
#     4   4   4   4   4   4   4   4
#     4  10  22  41  64  92 135 171 223 281 335 402
#     4  10  20  40  65  95 133 178 225 274 344 399
#     4  11  22  40  64  97 126 172 226 274 335 400
#     4  10  22  41  65  92 130 176 215 269 336 406
#     4  10  23  43  65  91 134 181 219 275 344 405
#     4   9  19  38  62  91 132 174 219 284 328 403
#     4   9  20  41  61  90 133 165 218 273 336 398
#     4  11  22  38  68  96 129 171 223 284 326 399
#
# _framework density 22.915575
#
# number of rings (size 3 to 8) (size 9 to 14) (size 15 to 20)
#    0.000    2.000    1.250    2.250    1.750    1.000 
#    4.500    6.250    0.000    0.000    0.000    0.000 
#    0.000    0.000    0.000    0.000    0.000    0.000 
#
# Total GULP energy -198262.901573 kJ/mol
# GULP energy per Si atom -12391.431348 kJ/mol
# Density = 2.286342 g / cm^3
# Si number density = 22.915575 Si / 1000 Ang^3
#
#
#
# Elastic Constant Matrix: (Units=GPa)
#
#
# Indices 1 2 3 4 5 6 
#
# 1 105.5308 24.3572 13.6035 0.0000 -0.3631 0.0000
# 2 24.3572 113.8013 21.1270 0.0000 10.3305 0.0000
# 3 13.6035 21.1270 60.5152 0.0000 -8.4737 0.0000
# 4 0.0000 0.0000 0.0000 31.8265 0.0000 -0.8631
# 5 -0.3631 10.3305 -8.4737 0.0000 23.6806 0.0000
# 6 0.0000 0.0000 0.0000 -0.8631 0.0000 24.6550
#
#
#
# Elastic Compliance Matrix: (Units=1/GPa)
#
#
# Indices 1 2 3 4 5 6 
#
# 1 0.010119 -0.001919 -0.001543 0.000000 0.000440 0.000000
# 2 -0.001919 0.010509 -0.004088 0.000000 -0.006077 0.000000
# 3 -0.001543 -0.004088 0.019524 0.000000 0.008746 0.000000
# 4 0.000000 0.000000 0.000000 0.031450 0.000000 0.001101
# 5 0.000440 -0.006077 0.008746 0.000000 0.048016 0.000000
# 6 0.000000 0.000000 0.000000 0.001101 0.000000 0.040598
#
#
# Mechanical properties :
#
#
# Convention : Reuss Voigt Hill
#
# Bulk Modulus (GPa) = 39.91961 44.22475 42.07218
# Shear Modulus (GPa) = 27.22314 30.74971 28.98642
#
# Velocity S-wave (km/s) = 3.45044 3.66713 3.56043
# Velocity P-wave (km/s) = 5.77340 6.10502 5.94153
#
# Compressibility (1/GPa) = 0.02505035
#
# Stress axis : x y z
#
# Youngs Moduli (GPa) = 98.82072 95.15978 51.22018
#
# Poissons Ratio (x) = 0.18265 0.07903
# Poissons Ratio (y) = 0.18967 0.20940
# Poissons Ratio (z) = 0.15248 0.38903
#
# Static dielectric constant tensor:
#      x y z
#    x 4.198890 0.000000 -0.039120 
#    y 0.000000 4.099100 0.000000 
#    z -0.039120 0.000000 4.004640 
# 
# 
# High freq. dielectric constant tensor:
#      x y z
#    x 1.912220 0.000000 -0.000470 
#    y 0.000000 1.891270 0.000000 
#    z -0.000470 0.000000 1.886140 
# 
# From -- ./inp_files/14788.got.cif
#   From: 2010.06.25/outbox.cif.g09.slc.cpg/sg9_8_cif.got.tgz:14788.got - 2010.06.27 21:40:51.
