data_PCOD8054113
_publ_section_title
;
Structure prediction by ZEFSAII (Michael W. Deem and Ramdas Pophale) SiO2 
 PCOD8054113
Probable space group: C M
;
_chemical_formula_sum "Si O2"
_cell_formula_units_Z 24
_cell_length_a 8.916098
_cell_length_b 19.677593
_cell_length_c 9.138781
_cell_angle_alpha 90.000000
_cell_angle_beta 131.951289
_cell_angle_gamma 90.000000
_cell_volume 1192.451436
_symmetry_space_group_name_H-M "C M"
_symmetry_group_IT_number 8
_symmetry_cell_setting 'monoclinic'
loop_
_space_group_symop_operation_xyz
x,y,z
x,-y,z
1/2+x,1/2+y,z
1/2+x,1/2-y,z
loop_
_atom_site_type_symbol
_atom_site_label
_atom_site_fract_x
_atom_site_fract_y
_atom_site_fract_z
Si Si1 0.553260 0.345721 0.532390
Si Si2 0.301399 0.579032 0.125167
Si Si3 0.350761 0.923004 0.919517
Si Si4 0.354487 0.810903 0.155288
Si Si5 0.927115 0.812643 0.990865
Si Si6 0.258969 0.281203 0.566735
O O1 0.396859 0.382464 0.325001
O O2 0.672476 0.404304 0.693041
O O3 0.435559 0.295168 0.565594
O O4 0.713237 0.299537 0.547179
O O5 0.364398 0.500000 0.165312
O O6 0.376245 0.613854 0.024979
O O7 0.062298 0.588915 0.977290
O O8 0.323094 0.000000 0.950889
O O9 0.331484 0.880312 0.053449
O O10 0.554521 0.817623 0.382117
O O11 0.344071 0.747305 0.038526
O O12 0.167186 0.802514 0.142125
O O13 0.826292 0.810602 0.766362
#
# Coordination Sequence:
#
# PCOD8054113 Si02
#       6
#     4   4   4   4   4   4
#     4  12  24  42  68  99 132 169 223 271 329 391
#     4  11  26  46  66  94 135 179 220 269 330 393
#     4  11  24  43  66  92 131 180 220 265 329 391
#     4  12  23  41  67  98 131 171 216 277 326 386
#     4  12  24  41  67  99 135 167 220 276 327 384
#     4  12  24  39  68 102 127 166 217 276 324 385
#
# _framework density 20.126604
#
# number of rings (size 3 to 8) (size 9 to 14) (size 15 to 20)
#    0.000    0.333    6.667    2.500    2.333    0.667 
#    0.000    0.833    0.000    0.000    0.000    0.000 
#    0.000    0.000    0.000    0.000    0.000    0.000 
#
# Total GULP energy -148867.043503 kJ/mol
# GULP energy per Si atom -12405.586959 kJ/mol
# Density = 2.008080 g / cm^3
# Si number density = 20.126604 Si / 1000 Ang^3
#
#
#
# Elastic Constant Matrix: (Units=GPa)
#
#
# Indices 1 2 3 4 5 6 
#
# 1 89.3189 53.6051 14.4042 0.0000 1.4431 0.0000
# 2 53.6051 130.3493 28.7718 0.0000 -4.1032 0.0000
# 3 14.4042 28.7718 115.7395 0.0000 6.2491 0.0000
# 4 0.0000 0.0000 0.0000 29.7112 0.0000 -1.9687
# 5 1.4431 -4.1032 6.2491 0.0000 25.0236 0.0000
# 6 0.0000 0.0000 0.0000 -1.9687 0.0000 34.3710
#
#
#
# Elastic Compliance Matrix: (Units=1/GPa)
#
#
# Indices 1 2 3 4 5 6 
#
# 1 0.014958 -0.006157 -0.000233 0.000000 -0.001814 0.000000
# 2 -0.006157 0.010738 -0.002045 0.000000 0.002626 0.000000
# 3 -0.000233 -0.002045 0.009320 0.000000 -0.002649 0.000000
# 4 0.000000 0.000000 0.000000 0.033786 0.000000 0.001935
# 5 -0.001814 0.002626 -0.002649 0.000000 0.041159 0.000000
# 6 0.000000 0.000000 0.000000 0.001935 0.000000 0.029205
#
#
# Mechanical properties :
#
#
# Convention : Reuss Voigt Hill
#
# Bulk Modulus (GPa) = 55.10756 58.77444 56.94100
# Shear Modulus (GPa) = 30.84812 33.72960 32.28886
#
# Velocity S-wave (km/s) = 3.91922 4.09818 4.00970
# Velocity P-wave (km/s) = 6.92245 7.18743 7.05619
#
# Compressibility (1/GPa) = 0.01814633
#
# Stress axis : x y z
#
# Youngs Moduli (GPa) = 66.85450 93.12955 107.29058
#
# Poissons Ratio (x) = 0.57339 0.02500
# Poissons Ratio (y) = 0.41162 0.21939
# Poissons Ratio (z) = 0.01558 0.19044
#
# Static dielectric constant tensor:
#      x y z
#    x 3.751540 0.000000 0.085030 
#    y 0.000000 3.742060 0.000000 
#    z 0.085030 0.000000 3.893310 
# 
# 
# High freq. dielectric constant tensor:
#      x y z
#    x 1.790720 0.000000 0.007490 
#    y 0.000000 1.780430 0.000000 
#    z 0.007490 0.000000 1.805900 
# 
# From -- ./inp_files/8635.got.cif
#   From: 2010.03.12/outbox.cif.g09.slc.cpg/sg8_5_cif.got.tgz:8635.got - 2010.03.31 10:45:26.
