data_PCOD8054657
_publ_section_title
;
Structure prediction by ZEFSAII (Michael W. Deem and Ramdas Pophale) SiO2 
 PCOD8054657
Probable space group: C C
;
_chemical_formula_sum "Si O2"
_cell_formula_units_Z 32
_cell_length_a 25.671547
_cell_length_b 12.088601
_cell_length_c 13.930097
_cell_angle_alpha 90.000000
_cell_angle_beta 160.550149
_cell_angle_gamma 90.000000
_cell_volume 1439.469780
_symmetry_space_group_name_H-M "C C"
_symmetry_group_IT_number 9
_symmetry_cell_setting 'monoclinic'
loop_
_space_group_symop_operation_xyz
x,y,z
x,-y,1/2+z
1/2+x,1/2+y,z
1/2+x,1/2-y,1/2+z
loop_
_atom_site_type_symbol
_atom_site_label
_atom_site_fract_x
_atom_site_fract_y
_atom_site_fract_z
Si Si1 0.341540 0.158428 0.623020
Si Si2 0.558608 0.487250 0.406064
Si Si3 0.880417 0.987897 0.272388
Si Si4 0.764467 0.719443 0.280606
Si Si5 0.594470 0.871739 0.851984
Si Si6 0.541390 0.654856 0.204041
Si Si7 0.061385 0.208859 0.622670
Si Si8 0.308910 0.928883 0.479017
O O1 0.267334 0.215827 0.400355
O O2 0.224199 0.182345 0.508200
O O3 0.362186 0.027404 0.641711
O O4 0.507728 0.209835 0.942413
O O5 0.398460 0.463607 0.188199
O O6 0.668261 0.383048 0.567349
O O7 0.518541 0.561595 0.245700
O O8 0.646526 0.552141 0.642654
O O9 0.983153 0.893634 0.502140
O O10 0.697180 0.968077 0.980206
O O11 0.937533 0.107245 0.410649
O O12 0.946104 0.731832 0.562237
O O13 0.681313 0.830537 0.099501
O O14 0.554843 0.771673 0.712168
O O15 0.432078 0.918309 0.608021
O O16 0.247893 0.176562 0.934663
#
# Coordination Sequence:
#
# PCOD8054657 Si02
#       8
#     4   4   4   4   4   4   4   4
#     4  11  23  44  65  97 131 178 222 271 335 397
#     4  10  20  40  65  86 130 179 202 280 332 376
#     4  10  22  43  62  95 140 161 231 276 319 407
#     4  10  22  37  65  95 127 173 219 261 332 395
#     4  11  25  40  66 103 128 176 226 271 340 395
#     4  11  20  40  65  95 130 172 217 269 333 387
#     4  11  23  43  68  95 132 179 215 278 336 390
#     4  10  23  43  60  94 138 162 228 276 321 407
#
# _framework density 22.230408000000001
#
# number of rings (size 3 to 8) (size 9 to 14) (size 15 to 20)
#    0.000    1.500    3.750    3.000    1.750    3.000 
#    6.750    0.000    0.000    0.000    0.000    0.000 
#    0.000    0.000    0.000    0.000    0.000    0.000 
#
# Total GULP energy -198247.856798 kJ/mol
# GULP energy per Si atom -12390.491050 kJ/mol
# Density = 2.217981 g / cm^3
# Si number density = 22.230408 Si / 1000 Ang^3
#
#
#
# Elastic Constant Matrix: (Units=GPa)
#
#
# Indices 1 2 3 4 5 6 
#
# 1 117.2843 54.9871 38.7160 0.0000 23.8592 0.0000
# 2 54.9871 98.4467 50.3321 0.0000 19.3195 0.0000
# 3 38.7160 50.3321 66.4363 0.0000 17.3312 0.0000
# 4 0.0000 0.0000 0.0000 30.8066 0.0000 -0.3777
# 5 23.8592 19.3195 17.3312 0.0000 47.1249 0.0000
# 6 0.0000 0.0000 0.0000 -0.3777 0.0000 38.7458
#
#
#
# Elastic Compliance Matrix: (Units=1/GPa)
#
#
# Indices 1 2 3 4 5 6 
#
# 1 0.012367 -0.004924 -0.002621 0.000000 -0.003279 0.000000
# 2 -0.004924 0.018791 -0.011069 0.000000 -0.001140 0.000000
# 3 -0.002621 -0.011069 0.025923 0.000000 -0.003668 0.000000
# 4 0.000000 0.000000 0.000000 0.032464 0.000000 0.000316
# 5 -0.003279 -0.001140 -0.003668 0.000000 0.024697 0.000000
# 6 0.000000 0.000000 0.000000 0.000316 0.000000 0.025812
#
#
# Mechanical properties :
#
#
# Convention : Reuss Voigt Hill
#
# Bulk Modulus (GPa) = 50.37350 63.35974 56.86662
# Shear Modulus (GPa) = 27.18861 32.54426 29.86644
#
# Velocity S-wave (km/s) = 3.50099 3.83031 3.66935
# Velocity P-wave (km/s) = 6.24912 6.93722 6.60214
#
# Compressibility (1/GPa) = 0.01985171
#
# Stress axis : x y z
#
# Youngs Moduli (GPa) = 80.85935 53.21681 38.57642
#
# Poissons Ratio (x) = 0.26204 0.10112
# Poissons Ratio (y) = 0.39816 0.42701
# Poissons Ratio (z) = 0.21195 0.58907
#
# Static dielectric constant tensor:
#      x y z
#    x 4.118300 0.000000 0.222020 
#    y 0.000000 3.992070 0.000000 
#    z 0.222020 0.000000 4.014090 
# 
# 
# High freq. dielectric constant tensor:
#      x y z
#    x 1.884610 0.000000 0.007070 
#    y 0.000000 1.863080 0.000000 
#    z 0.007070 0.000000 1.864490 
# 
# From -- ./inp_files/28099.got.cif
#   From: 2010.06.25/outbox.cif.g09.slc.cpg/sg9_15_cif.got.tgz:28099.got - 2010.06.27 21:40:51.
