data_PCOD8054887
_publ_section_title
;
Structure prediction by ZEFSAII (Michael W. Deem and Ramdas Pophale) SiO2 
 PCOD8054887
Probable space group: C C
;
_chemical_formula_sum "Si O2"
_cell_formula_units_Z 24
_cell_length_a 5.323320
_cell_length_b 9.106504
_cell_length_c 21.691560
_cell_angle_alpha 90.000000
_cell_angle_beta 54.548107
_cell_angle_gamma 90.000000
_cell_volume 856.585944
_symmetry_space_group_name_H-M "C C"
_symmetry_group_IT_number 9
_symmetry_cell_setting 'monoclinic'
loop_
_space_group_symop_operation_xyz
x,y,z
x,-y,1/2+z
1/2+x,1/2+y,z
1/2+x,1/2-y,1/2+z
loop_
_atom_site_type_symbol
_atom_site_label
_atom_site_fract_x
_atom_site_fract_y
_atom_site_fract_z
Si Si1 0.156840 0.507946 0.679730
Si Si2 0.357944 0.113123 0.012621
Si Si3 0.982378 0.051694 0.462596
Si Si4 0.584731 0.420401 0.329053
Si Si5 0.814145 0.312678 0.651541
Si Si6 0.245937 0.616484 0.299696
O O1 0.395009 0.640029 0.629710
O O2 0.204391 0.424238 0.735502
O O3 0.822882 0.587923 0.737932
O O4 0.129668 0.400828 0.623774
O O5 0.147552 0.011983 0.999358
O O6 0.392455 0.278518 0.981526
O O7 0.693756 0.045484 0.978924
O O8 0.182019 0.121716 0.104753
O O9 0.210217 0.020632 0.370100
O O10 0.259472 0.486461 0.349094
O O11 0.531111 0.249249 0.356288
O O12 0.602434 0.324520 0.743119
#
# Coordination Sequence:
#
# PCOD8054887 Si02
#       6
#     4   4   4   4   4   4
#     4  10  21  39  66  96 126 175 219 299 347 406
#     4  12  28  47  73 103 145 195 241 291 355 426
#     4  12  28  49  73 107 143 199 237 295 351 430
#     4  10  23  39  65  97 133 170 237 279 354 412
#     4  10  23  39  61  97 129 174 233 283 350 416
#     4  10  21  39  66  96 126 175 219 299 347 406
#
# _framework density 28.018207
#
# number of rings (size 3 to 8) (size 9 to 14) (size 15 to 20)
#    0.000    1.333    0.000    4.000    9.333    0.000 
#    0.000    0.000    0.000    0.000    0.000    0.000 
#    0.000    0.000    0.000    0.000    0.000    0.000 
#
# Total GULP energy -148685.020311 kJ/mol
# GULP energy per Si atom -12390.418359 kJ/mol
# Density = 2.795444 g / cm^3
# Si number density = 28.018207 Si / 1000 Ang^3
#
#
#
# Elastic Constant Matrix: (Units=GPa)
#
#
# Indices 1 2 3 4 5 6 
#
# 1 118.7087 64.7664 10.3182 -0.0004 46.7216 0.0008
# 2 64.7664 179.5130 -20.5840 -0.0004 17.8262 0.0004
# 3 10.3182 -20.5840 81.9787 -0.0002 11.6042 0.0004
# 4 -0.0004 -0.0004 -0.0002 28.1497 0.0001 18.0103
# 5 46.7216 17.8262 11.6042 0.0001 49.7899 -0.0003
# 6 0.0008 0.0004 0.0004 18.0103 -0.0003 59.7971
#
#
#
# Elastic Compliance Matrix: (Units=1/GPa)
#
#
# Indices 1 2 3 4 5 6 
#
# 1 0.016390 -0.004742 -0.001362 0.000000 -0.013364 0.000000
# 2 -0.004742 0.007418 0.002281 0.000000 0.001263 0.000000
# 3 -0.001362 0.002281 0.013316 0.000000 -0.002642 0.000000
# 4 0.000000 0.000000 0.000000 0.044004 -0.000001 -0.013254
# 5 -0.013364 0.001263 -0.002642 -0.000001 0.032789 0.000001
# 6 0.000000 0.000000 0.000000 -0.013254 0.000001 0.020715
#
#
# Mechanical properties :
#
#
# Convention : Reuss Voigt Hill
#
# Bulk Modulus (GPa) = 33.92497 54.35574 44.14036
# Shear Modulus (GPa) = 32.87218 49.26065 41.06641
#
# Velocity S-wave (km/s) = 3.42898 4.19760 3.83261
# Velocity P-wave (km/s) = 5.27368 6.55251 5.94756
#
# Compressibility (1/GPa) = 0.02947681
#
# Stress axis : x y z
#
# Youngs Moduli (GPa) = 61.01401 134.81262 75.09561
#
# Poissons Ratio (x) = 0.63932 0.10227
# Poissons Ratio (y) = 0.28934 -0.17127
# Poissons Ratio (z) = 0.08309 -0.30746
#
# Static dielectric constant tensor:
#      x y z
#    x 5.473850 0.000000 -0.822500 
#    y 0.000000 5.887460 0.000000 
#    z -0.822500 0.000000 6.854280 
# 
# 
# High freq. dielectric constant tensor:
#      x y z
#    x 2.137680 0.000000 -0.002360 
#    y 0.000000 2.148580 0.000000 
#    z -0.002360 0.000000 2.149310 
# 
# From -- ./inp_files/31905.got.cif
#   From: 2010.06.25/outbox.cif.g09.slc.cpg/sg9_16_cif.got.tgz:31905.got - 2010.06.27 21:40:51.
