data_PCOD8054504
_publ_section_title
;
Structure prediction by ZEFSAII (Michael W. Deem and Ramdas Pophale) SiO2 
 PCOD8054504
Probable space group: C C
;
_chemical_formula_sum "Si O2"
_cell_formula_units_Z 32
_cell_length_a 14.096967
_cell_length_b 11.480941
_cell_length_c 18.147646
_cell_angle_alpha 90.000000
_cell_angle_beta 150.201685
_cell_angle_gamma 90.000000
_cell_volume 1459.603176
_symmetry_space_group_name_H-M "C C"
_symmetry_group_IT_number 9
_symmetry_cell_setting 'monoclinic'
loop_
_space_group_symop_operation_xyz
x,y,z
x,-y,1/2+z
1/2+x,1/2+y,z
1/2+x,1/2-y,1/2+z
loop_
_atom_site_type_symbol
_atom_site_label
_atom_site_fract_x
_atom_site_fract_y
_atom_site_fract_z
Si Si1 0.119220 0.250057 0.768230
Si Si2 0.419815 0.303303 0.855900
Si Si3 0.585897 0.492896 0.763948
Si Si4 0.337180 0.056269 0.070372
Si Si5 0.815654 0.605540 0.679445
Si Si6 0.857943 0.570480 0.329307
Si Si7 0.008026 0.207320 0.853311
Si Si8 0.762320 0.006010 0.148263
O O1 0.324987 0.259083 0.868046
O O2 0.045432 0.119727 0.700293
O O3 0.112617 0.266662 0.852562
O O4 0.995247 0.353177 0.648670
O O5 0.435520 0.203566 0.803318
O O6 0.302039 0.412869 0.745152
O O7 0.630709 0.336468 0.020049
O O8 0.687753 0.409489 0.773508
O O9 0.384246 0.444384 0.659644
O O10 0.737139 0.500377 0.932439
O O11 0.424010 0.956345 0.183044
O O12 0.172168 0.129570 0.003592
O O13 0.763706 0.500694 0.699449
O O14 0.931262 0.696920 0.356757
O O15 0.036942 0.495107 0.480735
O O16 0.832504 0.125804 0.710303
#
# Coordination Sequence:
#
# PCOD8054504 Si02
#       8
#     4   4   4   4   4   4   4   4
#     4  10  20  35  66  98 123 169 225 283 328 398
#     4  12  24  41  67  98 138 174 228 283 347 403
#     4  10  22  41  65  99 135 175 229 281 329 411
#     4  10  20  43  64  95 132 177 229 281 339 395
#     4  12  25  42  68  99 134 179 224 286 342 408
#     4  12  23  40  72 102 134 179 228 284 349 398
#     4  10  21  39  70  94 134 173 222 285 333 401
#     4  10  23  43  66  95 136 184 221 281 345 404
#
# _framework density 21.923767000000002
#
# number of rings (size 3 to 8) (size 9 to 14) (size 15 to 20)
#    0.000    1.500    5.000    3.000    3.500    1.000 
#    0.000    2.500    0.000    0.000    0.000    0.000 
#    0.000    0.000    0.000    0.000    0.000    0.000 
#
# Total GULP energy -198262.611384 kJ/mol
# GULP energy per Si atom -12391.413212 kJ/mol
# Density = 2.187387 g / cm^3
# Si number density = 21.923767 Si / 1000 Ang^3
#
#
#
# Elastic Constant Matrix: (Units=GPa)
#
#
# Indices 1 2 3 4 5 6 
#
# 1 95.1663 30.6357 9.7767 0.0035 2.2670 0.0012
# 2 30.6357 78.1673 23.2872 0.0042 -11.7017 0.0008
# 3 9.7767 23.2872 69.1198 0.0033 -3.2494 -0.0022
# 4 0.0035 0.0042 0.0033 36.2115 -0.0012 -1.0344
# 5 2.2670 -11.7017 -3.2494 -0.0012 24.1017 -0.0009
# 6 0.0012 0.0008 -0.0022 -1.0344 -0.0009 37.3084
#
#
#
# Elastic Compliance Matrix: (Units=1/GPa)
#
#
# Indices 1 2 3 4 5 6 
#
# 1 0.012338 -0.005367 -0.000115 -0.000001 -0.003782 0.000000
# 2 -0.005367 0.017573 -0.004767 -0.000001 0.008394 0.000000
# 3 -0.000115 -0.004767 0.016083 -0.000001 -0.000135 0.000001
# 4 -0.000001 -0.000001 -0.000001 0.027637 0.000001 0.000766
# 5 -0.003782 0.008394 -0.000135 0.000001 0.045904 0.000001
# 6 0.000000 0.000000 0.000001 0.000766 0.000001 0.026825
#
#
# Mechanical properties :
#
#
# Convention : Reuss Voigt Hill
#
# Bulk Modulus (GPa) = 39.22045 41.09473 40.15759
# Shear Modulus (GPa) = 28.51317 31.44123 29.97720
#
# Velocity S-wave (km/s) = 3.61024 3.79108 3.70176
# Velocity P-wave (km/s) = 5.94195 6.16021 6.05206
#
# Compressibility (1/GPa) = 0.02549690
#
# Stress axis : x y z
#
# Youngs Moduli (GPa) = 81.05260 56.90390 62.17555
#
# Poissons Ratio (x) = 0.30543 0.00712
# Poissons Ratio (y) = 0.43505 0.29638
# Poissons Ratio (z) = 0.00928 0.27125
#
# Static dielectric constant tensor:
#      x y z
#    x 3.996840 0.000000 -0.103910 
#    y 0.000000 4.068020 0.000000 
#    z -0.103910 0.000000 3.867720 
# 
# 
# High freq. dielectric constant tensor:
#      x y z
#    x 1.850030 0.000000 -0.008040 
#    y 0.000000 1.858000 0.000000 
#    z -0.008040 0.000000 1.850330 
# 
# From -- ./inp_files/30693.got.cif
#   From: 2010.06.25/outbox.cif.g09.slc.cpg/sg9_16_cif.got.tgz:30693.got - 2010.06.27 21:40:51.
