data_PCOD8054320
_publ_section_title
;
Structure prediction by ZEFSAII (Michael W. Deem and Ramdas Pophale) SiO2 
 PCOD8054320
Probable space group: C C
;
_chemical_formula_sum "Si O2"
_cell_formula_units_Z 32
_cell_length_a 16.350351
_cell_length_b 18.125793
_cell_length_c 12.312620
_cell_angle_alpha 90.000000
_cell_angle_beta 153.064530
_cell_angle_gamma 90.000000
_cell_volume 1652.951190
_symmetry_space_group_name_H-M "C C"
_symmetry_group_IT_number 9
_symmetry_cell_setting 'monoclinic'
loop_
_space_group_symop_operation_xyz
x,y,z
x,-y,1/2+z
1/2+x,1/2+y,z
1/2+x,1/2-y,1/2+z
loop_
_atom_site_type_symbol
_atom_site_label
_atom_site_fract_x
_atom_site_fract_y
_atom_site_fract_z
Si Si1 0.650260 0.400128 0.837270
Si Si2 0.310110 0.583093 0.435961
Si Si3 0.309631 0.353293 0.701651
Si Si4 0.425778 0.100348 0.026806
Si Si5 0.694379 0.430984 0.454073
Si Si6 0.705630 0.309755 0.103540
Si Si7 0.871339 0.432541 0.892257
Si Si8 0.757279 0.913689 0.410713
O O1 0.670788 0.481909 0.909963
O O2 0.747078 0.394858 0.836548
O O3 0.438053 0.374773 0.576451
O O4 0.747760 0.343368 0.034604
O O5 0.295539 0.594456 0.289354
O O6 0.501914 0.611123 0.710316
O O7 0.299202 0.498272 0.448804
O O8 0.138322 0.619545 0.292458
O O9 0.200724 0.278249 0.592677
O O10 0.223369 0.395472 0.497341
O O11 0.517457 0.338851 0.924870
O O12 0.333842 0.104379 0.034707
O O13 0.356222 0.164186 0.865839
O O14 0.390718 0.020254 0.931794
O O15 0.771401 0.414200 0.663067
O O16 0.070394 0.394473 0.127379
#
# Coordination Sequence:
#
# PCOD8054320 Si02
#       8
#     4   4   4   4   4   4   4   4
#     4   9  20  34  55  84 117 154 192 249 300 341
#     4  10  21  35  57  85 120 152 196 250 297 350
#     4  11  23  38  61  93 121 155 198 252 304 347
#     4  10  20  34  55  88 115 156 195 247 300 341
#     4  10  19  35  54  85 120 150 200 240 296 353
#     4  11  21  38  60  90 124 151 199 253 298 359
#     4  10  20  33  58  83 119 158 197 240 295 352
#     4   9  22  35  54  88 118 150 197 251 296 351
#
# _framework density 19.359311999999999
#
# number of rings (size 3 to 8) (size 9 to 14) (size 15 to 20)
#    0.000    2.000    2.500    0.750    3.500    4.000 
#    0.000    0.000    0.000    1.500    3.250    0.000 
#    0.000    0.000    0.000    0.000    0.000    0.000 
#
# Total GULP energy -198343.464534 kJ/mol
# GULP energy per Si atom -12396.466533 kJ/mol
# Density = 1.931525 g / cm^3
# Si number density = 19.359312 Si / 1000 Ang^3
#
#
#
# Elastic Constant Matrix: (Units=GPa)
#
#
# Indices 1 2 3 4 5 6 
#
# 1 136.7865 31.3171 76.4891 0.0000 -2.4545 0.0000
# 2 31.3171 60.2859 11.2585 0.0000 -11.5399 0.0000
# 3 76.4891 11.2585 135.0382 0.0000 -0.8099 0.0000
# 4 0.0000 0.0000 0.0000 6.1718 0.0000 -14.7287
# 5 -2.4545 -11.5399 -0.8099 0.0000 34.0065 0.0000
# 6 0.0000 0.0000 0.0000 -14.7287 0.0000 8.0629
#
#
#
# Elastic Compliance Matrix: (Units=1/GPa)
#
#
# Indices 1 2 3 4 5 6 
#
# 1 0.012088 -0.005287 -0.006412 0.000000 -0.001075 0.000000
# 2 -0.005287 0.020339 0.001339 0.000000 0.006552 0.000000
# 3 -0.006412 0.001339 0.010927 0.000000 0.000252 0.000000
# 4 0.000000 0.000000 0.000000 -0.048231 0.000000 -0.088105
# 5 -0.001075 0.006552 0.000252 0.000000 0.031558 0.000000
# 6 0.000000 0.000000 0.000000 -0.088105 0.000000 -0.036919
#
#
# Mechanical properties :
#
#
# Convention : Reuss Voigt Hill
#
# Bulk Modulus (GPa) = 44.18712 63.36001 53.77356
# Shear Modulus (GPa) = 277.34559 23.85130 150.59845
#
# Velocity S-wave (km/s) = 11.98220 3.51384 8.82950
# Velocity P-wave (km/s) = 14.63916 7.01871 11.47971
#
# Compressibility (1/GPa) = 0.02263103
#
# Stress axis : x y z
#
# Youngs Moduli (GPa) = 82.72924 49.16781 91.51354
#
# Poissons Ratio (x) = 0.25997 0.58682
# Poissons Ratio (y) = 0.43742 -0.12249
# Poissons Ratio (z) = 0.53049 -0.06581
#
# Static dielectric constant tensor:
#      x y z
#    x 3.720480 0.000000 0.356850 
#    y 0.000000 3.242320 0.000000 
#    z 0.356850 0.000000 4.105440 
# 
# 
# High freq. dielectric constant tensor:
#      x y z
#    x 1.757910 0.000000 0.017690 
#    y 0.000000 1.710790 0.000000 
#    z 0.017690 0.000000 1.768670 
# 
# From -- ./inp_files/7888.got.cif
#   From: 2010.06.25/outbox.cif.g09.slc.cpg/sg9_4_cif.got.tgz:7888.got - 2010.06.27 21:40:51.
