data_PCOD8054347
_publ_section_title
;
Structure prediction by ZEFSAII (Michael W. Deem and Ramdas Pophale) SiO2 
 PCOD8054347
Probable space group: C C
;
_chemical_formula_sum "Si O2"
_cell_formula_units_Z 28
_cell_length_a 11.272561
_cell_length_b 25.631925
_cell_length_c 5.078668
_cell_angle_alpha 90.000000
_cell_angle_beta 63.788067
_cell_angle_gamma 90.000000
_cell_volume 1316.517512
_symmetry_space_group_name_H-M "C C"
_symmetry_group_IT_number 9
_symmetry_cell_setting 'monoclinic'
loop_
_space_group_symop_operation_xyz
x,y,z
x,-y,1/2+z
1/2+x,1/2+y,z
1/2+x,1/2-y,1/2+z
loop_
_atom_site_type_symbol
_atom_site_label
_atom_site_fract_x
_atom_site_fract_y
_atom_site_fract_z
Si Si1 0.694460 0.803662 0.509100
Si Si2 0.944431 0.144001 0.861448
Si Si3 0.137919 0.967596 0.591803
Si Si4 0.379889 0.586670 0.425518
Si Si5 0.117282 0.632335 0.585944
Si Si6 0.321953 0.133033 0.939440
Si Si7 0.222315 0.814846 0.034565
O O1 0.854321 0.806279 0.378573
O O2 0.648520 0.822802 0.268330
O O3 0.662917 0.743173 0.578202
O O4 0.626338 0.840741 0.792093
O O5 0.892819 0.096996 0.724697
O O6 0.095467 0.148630 0.637782
O O7 0.931387 0.133473 0.185765
O O8 0.214918 0.913184 0.549450
O O9 0.976989 0.961369 0.759431
O O10 0.181759 0.992316 0.273869
O O11 0.221991 0.583511 0.512091
O O12 0.969830 0.609479 0.768429
O O13 0.297968 0.174341 0.730496
O O14 0.317626 0.168642 0.204024
#
# Coordination Sequence:
#
# PCOD8054347 Si02
#       7
#     4   4   4   4   4   4   4
#     4  10  23  37  59  90 124 172 209 246 276 349
#     4  10  19  36  60  83 121 158 205 246 283 343
#     4  12  24  42  66  93 116 149 204 255 313 378
#     4  10  20  42  61  87 114 159 196 248 303 348
#     4  10  23  42  62  87 131 163 205 241 303 359
#     4  12  25  41  62  92 125 164 191 259 318 357
#     4  12  22  38  60  90 129 163 210 241 296 354
#
# _framework density 21.268232000000001
#
# number of rings (size 3 to 8) (size 9 to 14) (size 15 to 20)
#    0.000    1.143    2.857    3.429    4.000    0.000 
#    0.000    1.429    0.000    0.000    0.000    0.000 
#    0.000    0.000    0.000    0.000    0.000    0.000 
#
# Total GULP energy -173507.686016 kJ/mol
# GULP energy per Si atom -12393.406144 kJ/mol
# Density = 2.121982 g / cm^3
# Si number density = 21.268232 Si / 1000 Ang^3
#
#
#
# Elastic Constant Matrix: (Units=GPa)
#
#
# Indices 1 2 3 4 5 6 
#
# 1 78.8482 9.7494 35.1908 0.0000 -17.6534 0.0000
# 2 9.7494 48.3648 7.7865 0.0000 6.2509 0.0000
# 3 35.1908 7.7865 105.2499 0.0000 4.3629 0.0000
# 4 0.0000 0.0000 0.0000 19.7660 0.0000 3.5484
# 5 -17.6534 6.2509 4.3629 0.0000 46.4998 0.0000
# 6 0.0000 0.0000 0.0000 3.5484 0.0000 19.5155
#
#
#
# Elastic Compliance Matrix: (Units=1/GPa)
#
#
# Indices 1 2 3 4 5 6 
#
# 1 0.017470 -0.003563 -0.005895 0.000000 0.007665 0.000000
# 2 -0.003563 0.021990 -0.000258 0.000000 -0.004285 0.000000
# 3 -0.005895 -0.000258 0.011628 0.000000 -0.003295 0.000000
# 4 0.000000 0.000000 0.000000 0.052299 0.000000 -0.009509
# 5 0.007665 -0.004285 -0.003295 0.000000 0.025300 0.000000
# 6 0.000000 0.000000 0.000000 -0.009509 0.000000 0.052970
#
#
# Mechanical properties :
#
#
# Convention : Reuss Voigt Hill
#
# Bulk Modulus (GPa) = 31.59035 37.54627 34.56831
# Shear Modulus (GPa) = 23.62474 29.13868 26.38171
#
# Velocity S-wave (km/s) = 3.33648 3.70544 3.52579
# Velocity P-wave (km/s) = 5.45237 5.99992 5.73269
#
# Compressibility (1/GPa) = 0.03165524
#
# Stress axis : x y z
#
# Youngs Moduli (GPa) = 57.23966 45.47575 85.99926
#
# Poissons Ratio (x) = 0.16204 0.50700
# Poissons Ratio (y) = 0.20395 0.02218
# Poissons Ratio (z) = 0.33745 0.01173
#
# Static dielectric constant tensor:
#      x y z
#    x 4.084860 0.000000 -0.046650 
#    y 0.000000 3.419490 0.000000 
#    z -0.046650 0.000000 4.073960 
# 
# 
# High freq. dielectric constant tensor:
#      x y z
#    x 1.844640 0.000000 0.006610 
#    y 0.000000 1.788680 0.000000 
#    z 0.006610 0.000000 1.855760 
# 
# From -- ./inp_files/1813.got.cif
#   From: 2010.06.25/outbox.cif.g09.slc.cpg/sg9_1_cif.got.tgz:1813.got - 2010.06.27 21:40:51.
