data_PCOD8054984
_publ_section_title
;
Structure prediction by ZEFSAII (Michael W. Deem and Ramdas Pophale) SiO2 
 PCOD8054984
Probable space group: C C
;
_chemical_formula_sum "Si O2"
_cell_formula_units_Z 32
_cell_length_a 16.242910
_cell_length_b 11.570520
_cell_length_c 8.818343
_cell_angle_alpha 90.000000
_cell_angle_beta 113.698354
_cell_angle_gamma 90.000000
_cell_volume 1517.555740
_symmetry_space_group_name_H-M "C C"
_symmetry_group_IT_number 9
_symmetry_cell_setting 'monoclinic'
loop_
_space_group_symop_operation_xyz
x,y,z
x,-y,1/2+z
1/2+x,1/2+y,z
1/2+x,1/2-y,1/2+z
loop_
_atom_site_type_symbol
_atom_site_label
_atom_site_fract_x
_atom_site_fract_y
_atom_site_fract_z
Si Si1 0.502920 0.094784 0.915300
Si Si2 0.786460 0.882077 0.023249
Si Si3 0.586903 0.898334 0.783017
Si Si4 0.880465 0.059985 0.896242
Si Si5 0.249494 0.125968 0.047646
Si Si6 0.339033 0.035100 0.406760
Si Si7 0.440768 0.237181 0.620729
Si Si8 0.051033 0.182671 0.944850
O O1 0.483805 0.219413 0.819724
O O2 0.524216 0.998430 0.804456
O O3 0.413601 0.062299 0.939525
O O4 0.582977 0.103502 0.097087
O O5 0.687459 0.928416 0.910819
O O6 0.785274 0.744737 0.001637
O O7 0.858926 0.936374 0.957674
O O8 0.805986 0.911397 0.214211
O O9 0.551610 0.770323 0.803490
O O10 0.977500 0.077115 0.881575
O O11 0.881317 0.147441 0.043640
O O12 0.148761 0.128148 0.037256
O O13 0.253929 0.027985 0.921426
O O14 0.314987 0.096593 0.233255
O O15 0.374604 0.130137 0.549091
O O16 0.526073 0.235970 0.569402
#
# Coordination Sequence:
#
# PCOD8054984 Si02
#       8
#     4   4   4   4   4   4   4   4
#     4  12  20  36  68 101 137 172 237 274 343 397
#     4  11  24  43  67  97 136 177 220 285 338 400
#     4  11  21  37  65 101 135 177 228 291 333 393
#     4  10  23  44  65  93 136 179 221 263 352 406
#     4  11  24  42  68  98 136 171 225 282 337 392
#     4  12  21  39  68 100 127 176 221 281 330 399
#     4  10  21  41  66  97 128 183 219 275 338 401
#     4   9  22  44  63  93 133 185 215 275 343 402
#
# _framework density 21.086542000000001
#
# number of rings (size 3 to 8) (size 9 to 14) (size 15 to 20)
#    0.750    0.500    5.000    0.750    1.750    3.000 
#    0.000    2.500    0.000    0.000    0.000    0.000 
#    0.000    0.000    0.000    0.000    0.000    0.000 
#
# Total GULP energy -198270.762615 kJ/mol
# GULP energy per Si atom -12391.922663 kJ/mol
# Density = 2.103855 g / cm^3
# Si number density = 21.086542 Si / 1000 Ang^3
#
#
#
# Elastic Constant Matrix: (Units=GPa)
#
#
# Indices 1 2 3 4 5 6 
#
# 1 77.1924 60.3104 28.5625 0.0000 10.8503 0.0000
# 2 60.3104 81.6882 30.3753 0.0000 1.9593 0.0000
# 3 28.5625 30.3753 131.6682 0.0000 11.0018 0.0000
# 4 0.0000 0.0000 0.0000 31.1544 0.0000 -7.8042
# 5 10.8503 1.9593 11.0018 0.0000 26.1420 0.0000
# 6 0.0000 0.0000 0.0000 -7.8042 0.0000 43.2627
#
#
#
# Elastic Compliance Matrix: (Units=1/GPa)
#
#
# Indices 1 2 3 4 5 6 
#
# 1 0.034217 -0.024707 -0.000716 0.000000 -0.012049 0.000000
# 2 -0.024707 0.031233 -0.002598 0.000000 0.009007 0.000000
# 3 -0.000716 -0.002598 0.008611 0.000000 -0.003132 0.000000
# 4 0.000000 0.000000 0.000000 0.033617 0.000000 0.006064
# 5 -0.012049 0.009007 -0.003132 0.000000 0.043896 0.000000
# 6 0.000000 0.000000 0.000000 0.006064 0.000000 0.024209
#
#
# Mechanical properties :
#
#
# Convention : Reuss Voigt Hill
#
# Bulk Modulus (GPa) = 55.49887 58.78280 57.14084
# Shear Modulus (GPa) = 21.02324 31.53187 26.27756
#
# Velocity S-wave (km/s) = 3.16095 3.87118 3.53395
# Velocity P-wave (km/s) = 6.30070 6.92234 6.61882
#
# Compressibility (1/GPa) = 0.01801838
#
# Stress axis : x y z
#
# Youngs Moduli (GPa) = 29.22547 32.01745 116.12640
#
# Poissons Ratio (x) = 0.79105 0.08315
# Poissons Ratio (y) = 0.72207 0.30173
# Poissons Ratio (z) = 0.02093 0.08319
#
# Static dielectric constant tensor:
#      x y z
#    x 3.702180 0.000000 0.069530 
#    y 0.000000 3.639840 0.000000 
#    z 0.069530 0.000000 3.828970 
# 
# 
# High freq. dielectric constant tensor:
#      x y z
#    x 1.812400 0.000000 0.003350 
#    y 0.000000 1.814140 0.000000 
#    z 0.003350 0.000000 1.830510 
# 
# From -- ./inp_files/10732.got.cif
#   From: 2010.06.25/outbox.cif.g09.slc.cpg/sg9_6_cif.got.tgz:10732.got - 2010.06.27 21:40:51.
