data_PCOD8054460
_publ_section_title
;
Structure prediction by ZEFSAII (Michael W. Deem and Ramdas Pophale) SiO2 
 PCOD8054460
Probable space group: C C
;
_chemical_formula_sum "Si O2"
_cell_formula_units_Z 28
_cell_length_a 12.968346
_cell_length_b 6.489263
_cell_length_c 14.446018
_cell_angle_alpha 90.000000
_cell_angle_beta 96.797318
_cell_angle_gamma 90.000000
_cell_volume 1207.159630
_symmetry_space_group_name_H-M "C C"
_symmetry_group_IT_number 9
_symmetry_cell_setting 'monoclinic'
loop_
_space_group_symop_operation_xyz
x,y,z
x,-y,1/2+z
1/2+x,1/2+y,z
1/2+x,1/2-y,1/2+z
loop_
_atom_site_type_symbol
_atom_site_label
_atom_site_fract_x
_atom_site_fract_y
_atom_site_fract_z
Si Si1 0.137350 0.704514 0.872210
Si Si2 0.399258 0.775738 0.603430
Si Si3 0.418040 0.714616 0.329167
Si Si4 0.801492 0.517366 0.443801
Si Si5 0.589497 0.963385 0.055618
Si Si6 0.445175 0.607292 0.994943
Si Si7 0.271630 0.564045 0.720724
O O1 0.183097 0.931839 0.902166
O O2 0.220437 0.593655 0.815247
O O3 0.031189 0.722124 0.801648
O O4 0.115167 0.581690 0.963916
O O5 0.498361 0.923539 0.604655
O O6 0.428693 0.542164 0.580228
O O7 0.349051 0.755044 0.701179
O O8 0.304717 0.859416 0.529601
O O9 0.447489 0.533261 0.404060
O O10 0.342835 0.639596 0.239360
O O11 0.367087 0.915723 0.368590
O O12 0.849794 0.736468 0.477146
O O13 0.690495 0.966280 0.129892
O O14 0.551979 0.734253 0.023779
#
# Coordination Sequence:
#
# PCOD8054460 Si02
#       7
#     4   4   4   4   4   4   4
#     4  12  25  48  75 108 140 206 243 294 379 431
#     4  10  24  47  70 108 142 195 241 304 365 428
#     4  11  25  47  69 105 148 188 239 305 368 430
#     4  10  22  46  74 100 142 190 242 298 363 435
#     4  11  26  47  77 106 147 195 247 299 372 441
#     4  10  19  47  77  93 143 192 237 298 360 440
#     4  12  29  44  74 114 148 186 251 304 359 441
#
# _framework density 23.194942999999999
#
# number of rings (size 3 to 8) (size 9 to 14) (size 15 to 20)
#    0.000    1.143    5.714    0.857    6.000    3.429 
#    5.143    0.000    0.000    0.000    0.000    0.000 
#    0.000    0.000    0.000    0.000    0.000    0.000 
#
# Total GULP energy -173512.984855 kJ/mol
# GULP energy per Si atom -12393.784633 kJ/mol
# Density = 2.314215 g / cm^3
# Si number density = 23.194943 Si / 1000 Ang^3
#
#
#
# Elastic Constant Matrix: (Units=GPa)
#
#
# Indices 1 2 3 4 5 6 
#
# 1 119.4037 40.9158 47.2651 0.0000 7.3688 0.0000
# 2 40.9158 107.8976 16.3563 0.0000 8.7836 0.0000
# 3 47.2651 16.3563 65.2353 0.0000 10.5370 0.0000
# 4 0.0000 0.0000 0.0000 22.0047 0.0000 10.1708
# 5 7.3688 8.7836 10.5370 0.0000 42.7328 0.0000
# 6 0.0000 0.0000 0.0000 10.1708 0.0000 40.0158
#
#
#
# Elastic Compliance Matrix: (Units=1/GPa)
#
#
# Indices 1 2 3 4 5 6 
#
# 1 0.013000 -0.003678 -0.008599 0.000000 0.000635 0.000000
# 2 -0.003678 0.010761 0.000231 0.000000 -0.001635 0.000000
# 3 -0.008599 0.000231 0.022152 0.000000 -0.004027 0.000000
# 4 0.000000 0.000000 0.000000 0.051494 0.000000 -0.013088
# 5 0.000635 -0.001635 -0.004027 0.000000 0.024621 0.000000
# 6 0.000000 0.000000 0.000000 -0.013088 0.000000 0.028317
#
#
# Mechanical properties :
#
#
# Convention : Reuss Voigt Hill
#
# Bulk Modulus (GPa) = 45.82930 55.73456 50.78193
# Shear Modulus (GPa) = 27.51620 33.48395 30.50008
#
# Velocity S-wave (km/s) = 3.44801 3.80358 3.63015
# Velocity P-wave (km/s) = 5.97101 6.58563 6.28584
#
# Compressibility (1/GPa) = 0.02182010
#
# Stress axis : x y z
#
# Youngs Moduli (GPa) = 76.92285 92.92987 45.14219
#
# Poissons Ratio (x) = 0.34178 0.38819
# Poissons Ratio (y) = 0.28291 -0.01041
# Poissons Ratio (z) = 0.66149 -0.02144
#
# Static dielectric constant tensor:
#      x y z
#    x 4.520850 0.000000 0.107010 
#    y 0.000000 4.277420 0.000000 
#    z 0.107010 0.000000 4.035220 
# 
# 
# High freq. dielectric constant tensor:
#      x y z
#    x 1.932970 0.000000 0.001760 
#    y 0.000000 1.916630 0.000000 
#    z 0.001760 0.000000 1.904370 
# 
# From -- ./inp_files/25289.got.cif
#   From: 2010.06.25/outbox.cif.g09.slc.cpg/sg9_13_cif.got.tgz:25289.got - 2010.06.27 21:40:51.
