data_PCOD8054795
_publ_section_title
;
Structure prediction by ZEFSAII (Michael W. Deem and Ramdas Pophale) SiO2 
 PCOD8054795
Probable space group: C C
;
_chemical_formula_sum "Si O2"
_cell_formula_units_Z 28
_cell_length_a 12.528972
_cell_length_b 24.105151
_cell_length_c 5.115631
_cell_angle_alpha 90.000000
_cell_angle_beta 123.849208
_cell_angle_gamma 90.000000
_cell_volume 1283.120623
_symmetry_space_group_name_H-M "C C"
_symmetry_group_IT_number 9
_symmetry_cell_setting 'monoclinic'
loop_
_space_group_symop_operation_xyz
x,y,z
x,-y,1/2+z
1/2+x,1/2+y,z
1/2+x,1/2-y,1/2+z
loop_
_atom_site_type_symbol
_atom_site_label
_atom_site_fract_x
_atom_site_fract_y
_atom_site_fract_z
Si Si1 0.475690 0.709472 0.731190
Si Si2 0.346038 0.146317 0.620144
Si Si3 0.631934 0.726450 0.453988
Si Si4 0.625696 0.965129 0.496946
Si Si5 0.318782 0.031239 0.564580
Si Si6 0.709888 0.843122 0.758301
Si Si7 0.985065 0.331867 0.792939
O O1 0.589422 0.699559 0.673299
O O2 0.360355 0.666476 0.524383
O O3 0.426496 0.772271 0.627312
O O4 0.526445 0.708304 0.096908
O O5 0.264850 0.201728 0.532324
O O6 0.258499 0.092614 0.435788
O O7 0.455489 0.153053 0.549120
O O8 0.415049 0.128461 0.986924
O O9 0.650946 0.793267 0.495408
O O10 0.472267 0.961010 0.271829
O O11 0.689029 0.903503 0.599742
O O12 0.673493 0.996565 0.301783
O O13 0.267159 0.992732 0.264385
O O14 0.637465 0.838179 0.941841
#
# Coordination Sequence:
#
# PCOD8054795 Si02
#       7
#     4   4   4   4   4   4   4
#     4  11  25  41  61  92 129 169 215 245 318 387
#     4  12  22  41  63  90 131 161 201 265 311 380
#     4  11  26  42  63  96 129 166 214 258 315 387
#     4  10  23  38  59  92 127 162 214 262 315 378
#     4  10  21  37  59  92 124 160 206 257 320 378
#     4  11  24  44  67  92 137 171 206 272 326 383
#     4  11  23  37  60  96 121 165 200 253 323 373
#
# _framework density 21.821798999999999
#
# number of rings (size 3 to 8) (size 9 to 14) (size 15 to 20)
#    0.000    1.143    2.857    3.429    6.000    3.429 
#    0.000    0.000    0.000    5.143    0.000    0.000 
#    0.000    0.000    0.000    0.000    0.000    0.000 
#
# Total GULP energy -173484.535850 kJ/mol
# GULP energy per Si atom -12391.752561 kJ/mol
# Density = 2.177213 g / cm^3
# Si number density = 21.821799 Si / 1000 Ang^3
#
#
#
# Elastic Constant Matrix: (Units=GPa)
#
#
# Indices 1 2 3 4 5 6 
#
# 1 89.9218 40.1970 36.8117 0.0000 -23.8182 0.0000
# 2 40.1970 121.5340 22.2907 0.0000 -18.8734 0.0000
# 3 36.8117 22.2907 84.3253 0.0000 -22.0455 0.0000
# 4 0.0000 0.0000 0.0000 28.7256 0.0000 -1.7503
# 5 -23.8182 -18.8734 -22.0455 0.0000 28.4701 0.0000
# 6 0.0000 0.0000 0.0000 -1.7503 0.0000 21.6761
#
#
#
# Elastic Compliance Matrix: (Units=1/GPa)
#
#
# Indices 1 2 3 4 5 6 
#
# 1 0.016563 -0.003417 -0.004134 0.000000 0.008391 0.000000
# 2 -0.003417 0.009952 -0.000203 0.000000 0.003582 0.000000
# 3 -0.004134 -0.000203 0.016021 0.000000 0.008813 0.000000
# 4 0.000000 0.000000 0.000000 0.034984 0.000000 0.002825
# 5 0.008391 0.003582 0.008813 0.000000 0.051343 0.000000
# 6 0.000000 0.000000 0.000000 0.002825 0.000000 0.046362
#
#
# Mechanical properties :
#
#
# Convention : Reuss Voigt Hill
#
# Bulk Modulus (GPa) = 36.99711 54.93109 45.96410
# Shear Modulus (GPa) = 25.03244 28.87312 26.95278
#
# Velocity S-wave (km/s) = 3.39061 3.64143 3.51826
# Velocity P-wave (km/s) = 5.68500 6.55037 6.13297
#
# Compressibility (1/GPa) = 0.02702914
#
# Stress axis : x y z
#
# Youngs Moduli (GPa) = 60.37586 100.48572 62.41821
#
# Poissons Ratio (x) = 0.34336 0.25801
# Poissons Ratio (y) = 0.20630 0.01265
# Poissons Ratio (z) = 0.24957 0.02036
#
# Static dielectric constant tensor:
#      x y z
#    x 3.772880 0.000000 -0.352980 
#    y 0.000000 4.127740 0.000000 
#    z -0.352980 0.000000 3.848050 
# 
# 
# High freq. dielectric constant tensor:
#      x y z
#    x 1.830170 0.000000 -0.034220 
#    y 0.000000 1.858280 0.000000 
#    z -0.034220 0.000000 1.853710 
# 
# From -- ./inp_files/1756.got.cif
#   From: 2010.06.25/outbox.cif.g09.slc.cpg/sg9_1_cif.got.tgz:1756.got - 2010.06.27 21:40:51.
