data_PCOD8054866
_publ_section_title
;
Structure prediction by ZEFSAII (Michael W. Deem and Ramdas Pophale) SiO2 
 PCOD8054866
Probable space group: C C
;
_chemical_formula_sum "Si O2"
_cell_formula_units_Z 32
_cell_length_a 6.693678
_cell_length_b 21.226640
_cell_length_c 10.988967
_cell_angle_alpha 90.000000
_cell_angle_beta 109.797401
_cell_angle_gamma 90.000000
_cell_volume 1469.077219
_symmetry_space_group_name_H-M "C C"
_symmetry_group_IT_number 9
_symmetry_cell_setting 'monoclinic'
loop_
_space_group_symop_operation_xyz
x,y,z
x,-y,1/2+z
1/2+x,1/2+y,z
1/2+x,1/2-y,1/2+z
loop_
_atom_site_type_symbol
_atom_site_label
_atom_site_fract_x
_atom_site_fract_y
_atom_site_fract_z
Si Si1 0.238100 0.712913 0.899890
Si Si2 0.058958 0.414312 0.980349
Si Si3 0.617989 0.082227 0.212052
Si Si4 0.257616 0.008578 0.570148
Si Si5 0.900010 0.984513 0.169945
Si Si6 0.894573 0.684018 0.006600
Si Si7 0.626900 0.780777 0.097345
Si Si8 0.504166 0.600059 0.896389
O O1 0.181419 0.731778 0.750049
O O2 0.337770 0.643051 0.935354
O O3 0.394229 0.760832 0.001783
O O4 0.014504 0.715815 0.920249
O O5 0.068148 0.397543 0.839861
O O6 0.225496 0.471786 0.029394
O O7 0.142837 0.354290 0.071786
O O8 0.825923 0.437066 0.985804
O O9 0.558637 0.142412 0.119311
O O10 0.474759 0.022275 0.154644
O O11 0.853166 0.053607 0.224761
O O12 0.138886 0.028800 0.669445
O O13 0.081979 0.960200 0.485995
O O14 0.874297 0.926560 0.256965
O O15 0.806499 0.741116 0.067085
O O16 0.708377 0.642752 0.907739
#
# Coordination Sequence:
#
# PCOD8054866 Si02
#       8
#     4   4   4   4   4   4   4   4
#     4  11  24  44  71  93 133 177 224 284 340 399
#     4  11  23  39  61  95 135 168 220 280 329 398
#     4  10  22  40  61  93 132 171 214 273 332 398
#     4  10  22  37  60  94 128 175 210 268 332 404
#     4  11  21  36  63  94 130 168 215 265 332 404
#     4  10  24  43  68  88 131 178 219 277 339 395
#     4  11  25  44  65 101 129 173 235 281 330 411
#     4  10  21  39  61  94 130 168 223 262 334 407
#
# _framework density 21.78238
#
# number of rings (size 3 to 8) (size 9 to 14) (size 15 to 20)
#    0.000    1.500    1.250    3.000    1.750    6.000 
#    0.000    1.250    0.000    0.000    0.000    0.000 
#    0.000    0.000    0.000    0.000    0.000    0.000 
#
# Total GULP energy -198233.885716 kJ/mol
# GULP energy per Si atom -12389.617857 kJ/mol
# Density = 2.173280 g / cm^3
# Si number density = 21.782380 Si / 1000 Ang^3
#
#
#
# Elastic Constant Matrix: (Units=GPa)
#
#
# Indices 1 2 3 4 5 6 
#
# 1 110.8332 33.5171 30.4741 0.0000 -24.1855 0.0000
# 2 33.5171 88.2267 25.0785 0.0000 -4.9815 0.0000
# 3 30.4741 25.0785 97.2838 0.0000 2.8502 0.0000
# 4 0.0000 0.0000 0.0000 29.5710 0.0000 2.7931
# 5 -24.1855 -4.9815 2.8502 0.0000 25.3362 0.0000
# 6 0.0000 0.0000 0.0000 2.7931 0.0000 18.8047
#
#
#
# Elastic Compliance Matrix: (Units=1/GPa)
#
#
# Indices 1 2 3 4 5 6 
#
# 1 0.014002 -0.003477 -0.003874 0.000000 0.013118 0.000000
# 2 -0.003477 0.013291 -0.002324 0.000000 -0.000445 0.000000
# 3 -0.003874 -0.002324 0.012254 0.000000 -0.005533 0.000000
# 4 0.000000 0.000000 0.000000 0.034298 0.000000 -0.005094
# 5 0.013118 -0.000445 -0.005533 0.000000 0.052527 0.000000
# 6 0.000000 0.000000 0.000000 -0.005094 0.000000 0.053935
#
#
# Mechanical properties :
#
#
# Convention : Reuss Voigt Hill
#
# Bulk Modulus (GPa) = 49.51439 52.72034 51.11736
# Shear Modulus (GPa) = 24.22611 28.56065 26.39338
#
# Velocity S-wave (km/s) = 3.33857 3.62495 3.48470
# Velocity P-wave (km/s) = 6.13532 6.46344 6.30152
#
# Compressibility (1/GPa) = 0.02019615
#
# Stress axis : x y z
#
# Youngs Moduli (GPa) = 71.41882 75.23916 81.60655
#
# Poissons Ratio (x) = 0.26164 0.31614
# Poissons Ratio (y) = 0.24835 0.18965
# Poissons Ratio (z) = 0.27668 0.17485
#
# Static dielectric constant tensor:
#      x y z
#    x 3.974840 0.000000 -0.076080 
#    y 0.000000 3.843870 0.000000 
#    z -0.076080 0.000000 3.919990 
# 
# 
# High freq. dielectric constant tensor:
#      x y z
#    x 1.859750 0.000000 -0.001790 
#    y 0.000000 1.851560 0.000000 
#    z -0.001790 0.000000 1.858150 
# 
# From -- ./inp_files/13458.got.cif
#   From: 2010.06.25/outbox.cif.g09.slc.cpg/sg9_7_cif.got.tgz:13458.got - 2010.06.27 21:40:51.
