data_PCOD8054501
_publ_section_title
;
Structure prediction by ZEFSAII (Michael W. Deem and Ramdas Pophale) SiO2 
 PCOD8054501
Probable space group: C C
;
_chemical_formula_sum "Si O2"
_cell_formula_units_Z 32
_cell_length_a 13.351996
_cell_length_b 13.129094
_cell_length_c 13.675190
_cell_angle_alpha 90.000000
_cell_angle_beta 140.672985
_cell_angle_gamma 90.000000
_cell_volume 1519.250277
_symmetry_space_group_name_H-M "C C"
_symmetry_group_IT_number 9
_symmetry_cell_setting 'monoclinic'
loop_
_space_group_symop_operation_xyz
x,y,z
x,-y,1/2+z
1/2+x,1/2+y,z
1/2+x,1/2-y,1/2+z
loop_
_atom_site_type_symbol
_atom_site_label
_atom_site_fract_x
_atom_site_fract_y
_atom_site_fract_z
Si Si1 0.859800 0.761465 0.904470
Si Si2 0.050719 0.052077 0.462259
Si Si3 0.998056 0.355141 0.893292
Si Si4 0.529546 0.742787 0.721446
Si Si5 0.686709 0.768428 0.205973
Si Si6 0.418037 0.611185 0.995120
Si Si7 0.334079 0.051755 0.812264
Si Si8 0.065498 0.985695 0.261094
O O1 0.670505 0.763833 0.750366
O O2 0.922873 0.657048 0.903882
O O3 0.933992 0.859166 0.909383
O O4 0.878732 0.754224 0.036650
O O5 0.222660 0.071789 0.635587
O O6 0.071010 0.055222 0.361170
O O7 0.986307 0.941755 0.448358
O O8 0.838178 0.300667 0.804201
O O9 0.972925 0.475230 0.886847
O O10 0.030157 0.328418 0.804973
O O11 0.145612 0.325546 0.073491
O O12 0.536666 0.630039 0.773144
O O13 0.535476 0.701101 0.121990
O O14 0.741971 0.846780 0.334747
O O15 0.419845 0.526546 0.082881
O O16 0.229407 0.007838 0.823906
#
# Coordination Sequence:
#
# PCOD8054501 Si02
#       8
#     4   4   4   4   4   4   4   4
#     4  11  22  44  62  93 133 168 215 264 326 391
#     4  11  21  42  69  88 132 176 213 268 330 389
#     4  11  21  39  66 102 130 162 218 272 327 379
#     4  11  23  38  71  98 122 168 221 271 313 390
#     4  10  20  35  63  94 135 162 203 274 322 370
#     4  10  20  40  62  95 129 169 216 267 316 393
#     4  10  23  41  64  98 128 169 217 270 324 389
#     4  10  20  41  67  94 123 180 213 250 342 387
#
# _framework density 21.063022
#
# number of rings (size 3 to 8) (size 9 to 14) (size 15 to 20)
#    0.000    1.500    6.250    2.250    3.500    1.000 
#    2.250    0.000    2.750    0.000    0.000    0.000 
#    0.000    0.000    0.000    0.000    0.000    0.000 
#
# Total GULP energy -198334.913186 kJ/mol
# GULP energy per Si atom -12395.932074 kJ/mol
# Density = 2.101508 g / cm^3
# Si number density = 21.063022 Si / 1000 Ang^3
#
#
#
# Elastic Constant Matrix: (Units=GPa)
#
#
# Indices 1 2 3 4 5 6 
#
# 1 49.7407 32.3423 31.8297 0.0001 -26.3464 0.0001
# 2 32.3423 113.6534 33.1203 0.0000 -5.2697 0.0000
# 3 31.8297 33.1203 97.3767 0.0002 -14.7775 0.0001
# 4 0.0001 0.0000 0.0002 38.4031 0.0002 1.3175
# 5 -26.3464 -5.2697 -14.7775 0.0002 31.2194 0.0001
# 6 0.0001 0.0000 0.0001 1.3175 0.0001 30.3796
#
#
#
# Elastic Compliance Matrix: (Units=1/GPa)
#
#
# Indices 1 2 3 4 5 6 
#
# 1 0.052870 -0.011017 -0.007591 0.000000 0.039165 0.000000
# 2 -0.011017 0.012063 -0.001728 0.000000 -0.008079 0.000000
# 3 -0.007591 -0.001728 0.013276 0.000000 -0.000414 0.000000
# 4 0.000000 0.000000 0.000000 0.026078 0.000000 -0.001131
# 5 0.039165 -0.008079 -0.000414 0.000000 0.063523 0.000000
# 6 0.000000 0.000000 0.000000 -0.001131 0.000000 0.032966
#
#
# Mechanical properties :
#
#
# Convention : Reuss Voigt Hill
#
# Bulk Modulus (GPa) = 26.64078 50.59504 38.61791
# Shear Modulus (GPa) = 19.68821 30.89898 25.29360
#
# Velocity S-wave (km/s) = 3.06065 3.83427 3.46909
# Velocity P-wave (km/s) = 5.01654 6.60871 5.86689
#
# Compressibility (1/GPa) = 0.03753643
#
# Stress axis : x y z
#
# Youngs Moduli (GPa) = 18.91438 82.90030 75.32669
#
# Poissons Ratio (x) = 0.91332 0.57181
# Poissons Ratio (y) = 0.20838 0.13014
# Poissons Ratio (z) = 0.14358 0.14323
#
# Static dielectric constant tensor:
#      x y z
#    x 3.341390 0.000000 -0.049740 
#    y 0.000000 4.068850 0.000000 
#    z -0.049740 0.000000 3.994610 
# 
# 
# High freq. dielectric constant tensor:
#      x y z
#    x 1.783530 0.000000 -0.008420 
#    y 0.000000 1.830690 0.000000 
#    z -0.008420 0.000000 1.835640 
# 
# From -- ./inp_files/9180.got.cif
#   From: 2010.06.25/outbox.cif.g09.slc.cpg/sg9_5_cif.got.tgz:9180.got - 2010.06.27 21:40:51.
