data_PCOD8054344
_publ_section_title
;
Structure prediction by ZEFSAII (Michael W. Deem and Ramdas Pophale) SiO2 
 PCOD8054344
Probable space group: C C
;
_chemical_formula_sum "Si O2"
_cell_formula_units_Z 32
_cell_length_a 11.801511
_cell_length_b 19.541717
_cell_length_c 9.096790
_cell_angle_alpha 90.000000
_cell_angle_beta 49.186139
_cell_angle_gamma 90.000000
_cell_volume 1587.781859
_symmetry_space_group_name_H-M "C C"
_symmetry_group_IT_number 9
_symmetry_cell_setting 'monoclinic'
loop_
_space_group_symop_operation_xyz
x,y,z
x,-y,1/2+z
1/2+x,1/2+y,z
1/2+x,1/2-y,1/2+z
loop_
_atom_site_type_symbol
_atom_site_label
_atom_site_fract_x
_atom_site_fract_y
_atom_site_fract_z
Si Si1 0.869610 0.143610 0.964180
Si Si2 0.928297 0.920289 0.814531
Si Si3 0.652307 0.620388 0.906792
Si Si4 0.879475 0.299501 0.046322
Si Si5 0.647054 0.117058 0.391397
Si Si6 0.463221 0.435123 0.129029
Si Si7 0.390749 0.015193 0.604466
Si Si8 0.304654 0.919692 0.896999
O O1 0.877584 0.224626 0.982482
O O2 0.862200 0.121940 0.799206
O O3 0.017717 0.108330 0.905461
O O4 0.722109 0.114348 0.166862
O O5 0.776747 0.878117 0.904717
O O6 0.073973 0.876147 0.635186
O O7 0.926823 0.990606 0.724291
O O8 0.928342 0.933562 0.986605
O O9 0.745510 0.688371 0.778887
O O10 0.761994 0.555760 0.804539
O O11 0.864862 0.350663 0.919829
O O12 0.036730 0.316946 0.993877
O O13 0.553514 0.047584 0.492257
O O14 0.631639 0.411992 0.011969
O O15 0.342808 0.016923 0.474943
O O16 0.389549 0.938181 0.671674
#
# Coordination Sequence:
#
# PCOD8054344 Si02
#       8
#     4   4   4   4   4   4   4   4
#     4  11  20  39  66  89 121 166 213 246 293 382
#     4  11  22  36  62  97 125 157 205 261 323 356
#     4   9  18  36  60  88 113 158 204 248 298 361
#     4  10  21  39  67  88 120 164 211 240 309 375
#     4   9  22  37  58  89 123 156 199 259 307 365
#     4  12  22  36  65  93 126 162 210 259 304 375
#     4  10  19  36  58  88 120 146 200 248 316 356
#     4  10  20  35  60  90 116 159 198 255 298 370
#
# _framework density 20.153903
#
# number of rings (size 3 to 8) (size 9 to 14) (size 15 to 20)
#    0.000    2.000    3.750    3.000    0.000    4.000 
#    0.000    0.000   11.000    1.500    0.000    0.000 
#    0.000    0.000    0.000    0.000    0.000    0.000 
#
# Total GULP energy -198248.575230 kJ/mol
# GULP energy per Si atom -12390.535952 kJ/mol
# Density = 2.010803 g / cm^3
# Si number density = 20.153903 Si / 1000 Ang^3
#
#
#
# Elastic Constant Matrix: (Units=GPa)
#
#
# Indices 1 2 3 4 5 6 
#
# 1 87.6503 25.5975 53.4481 0.0000 -0.6990 0.0000
# 2 25.5975 99.2907 52.5708 0.0000 6.4743 0.0000
# 3 53.4481 52.5708 138.4789 0.0000 3.8754 0.0000
# 4 0.0000 0.0000 0.0000 26.9318 0.0000 4.9148
# 5 -0.6990 6.4743 3.8754 0.0000 45.0909 0.0000
# 6 0.0000 0.0000 0.0000 4.9148 0.0000 14.6810
#
#
#
# Elastic Compliance Matrix: (Units=1/GPa)
#
#
# Indices 1 2 3 4 5 6 
#
# 1 0.015032 -0.001059 -0.005424 0.000000 0.000851 0.000000
# 2 -0.001059 0.012769 -0.004397 0.000000 -0.001472 0.000000
# 3 -0.005424 -0.004397 0.010995 0.000000 -0.000398 0.000000
# 4 0.000000 0.000000 0.000000 0.039547 0.000000 -0.013239
# 5 0.000851 -0.001472 -0.000398 0.000000 0.022436 0.000000
# 6 0.000000 0.000000 0.000000 -0.013239 0.000000 0.072547
#
#
# Mechanical properties :
#
#
# Convention : Reuss Voigt Hill
#
# Bulk Modulus (GPa) = 58.70036 65.40586 62.05311
# Shear Modulus (GPa) = 24.90462 30.26097 27.58279
#
# Velocity S-wave (km/s) = 3.51910 3.87912 3.70348
# Velocity P-wave (km/s) = 6.76028 7.25169 7.01029
#
# Compressibility (1/GPa) = 0.01703567
#
# Stress axis : x y z
#
# Youngs Moduli (GPa) = 66.52290 78.31625 90.94895
#
# Poissons Ratio (x) = 0.08296 0.49328
# Poissons Ratio (y) = 0.07047 0.39994
# Poissons Ratio (z) = 0.36080 0.34439
#
# Static dielectric constant tensor:
#      x y z
#    x 3.652250 0.000000 -0.134820 
#    y 0.000000 3.395110 0.000000 
#    z -0.134820 0.000000 4.079990 
# 
# 
# High freq. dielectric constant tensor:
#      x y z
#    x 1.779510 0.000000 -0.018680 
#    y 0.000000 1.756980 0.000000 
#    z -0.018680 0.000000 1.794980 
# 
# From -- ./inp_files/8286.got.cif
#   From: 2010.06.25/outbox.cif.g09.slc.cpg/sg9_5_cif.got.tgz:8286.got - 2010.06.27 21:40:51.
