data_PCOD8054520
_publ_section_title
;
Structure prediction by ZEFSAII (Michael W. Deem and Ramdas Pophale) SiO2 
 PCOD8054520
Probable space group: C C
;
_chemical_formula_sum "Si O2"
_cell_formula_units_Z 28
_cell_length_a 18.025336
_cell_length_b 8.359557
_cell_length_c 11.295221
_cell_angle_alpha 90.000000
_cell_angle_beta 131.032690
_cell_angle_gamma 90.000000
_cell_volume 1283.883764
_symmetry_space_group_name_H-M "C C"
_symmetry_group_IT_number 9
_symmetry_cell_setting 'monoclinic'
loop_
_space_group_symop_operation_xyz
x,y,z
x,-y,1/2+z
1/2+x,1/2+y,z
1/2+x,1/2-y,1/2+z
loop_
_atom_site_type_symbol
_atom_site_label
_atom_site_fract_x
_atom_site_fract_y
_atom_site_fract_z
Si Si1 0.264840 0.263267 0.534950
Si Si2 0.395866 0.346885 0.456394
Si Si3 0.551771 0.201181 0.768349
Si Si4 0.270701 0.377193 0.104475
Si Si5 0.552176 0.867412 0.856391
Si Si6 0.909957 0.804620 0.051033
Si Si7 0.924417 0.387075 0.336124
O O1 0.314180 0.287470 0.460777
O O2 0.154033 0.206450 0.392847
O O3 0.269698 0.429719 0.613225
O O4 0.315152 0.120338 0.663664
O O5 0.497754 0.254452 0.590773
O O6 0.350255 0.309329 0.280822
O O7 0.424011 0.532453 0.495581
O O8 0.486140 0.239128 0.818031
O O9 0.571339 0.009739 0.780433
O O10 0.306413 0.311639 0.013764
O O11 0.159823 0.314165 0.016890
O O12 0.499836 0.718314 0.737628
O O13 0.477895 0.939245 0.880240
O O14 0.914032 0.658545 0.962526
#
# Coordination Sequence:
#
# PCOD8054520 Si02
#       7
#     4   4   4   4   4   4   4
#     4   9  17  37  59  85 114 171 203 246 312 379
#     4  10  20  36  63  87 123 158 213 260 309 365
#     4   8  19  38  62  84 124 168 206 249 323 373
#     4  10  21  37  62  91 120 169 208 252 312 388
#     4   9  22  40  58  90 124 167 211 247 317 378
#     4  11  22  37  64  93 127 159 214 264 310 370
#     4   9  19  37  62  86 122 164 209 254 301 379
#
# _framework density 21.808827000000001
#
# number of rings (size 3 to 8) (size 9 to 14) (size 15 to 20)
#    0.857    1.714    1.429    0.000    0.000    6.857 
#    2.571    0.000    0.000    0.000    0.000    0.000 
#    0.000    0.000    0.000    0.000    0.000    0.000 
#
# Total GULP energy -173448.767337 kJ/mol
# GULP energy per Si atom -12389.197667 kJ/mol
# Density = 2.175919 g / cm^3
# Si number density = 21.808827 Si / 1000 Ang^3
#
#
#
# Elastic Constant Matrix: (Units=GPa)
#
#
# Indices 1 2 3 4 5 6 
#
# 1 75.3034 20.5298 58.0148 0.0000 18.1139 0.0000
# 2 20.5298 24.9947 29.4712 0.0000 0.9124 0.0000
# 3 58.0148 29.4712 153.3052 0.0000 24.8266 0.0000
# 4 0.0000 0.0000 0.0000 35.1126 0.0000 1.2968
# 5 18.1139 0.9124 24.8266 0.0000 43.0347 0.0000
# 6 0.0000 0.0000 0.0000 1.2968 0.0000 25.5262
#
#
#
# Elastic Compliance Matrix: (Units=1/GPa)
#
#
# Indices 1 2 3 4 5 6 
#
# 1 0.021802 -0.011783 -0.005008 0.000000 -0.006038 0.000000
# 2 -0.011783 0.059146 -0.008285 0.000000 0.008485 0.000000
# 3 -0.005008 -0.008285 0.010634 0.000000 -0.003852 0.000000
# 4 0.000000 0.000000 0.000000 0.028533 0.000000 -0.001450
# 5 -0.006038 0.008485 -0.003852 0.000000 0.027821 0.000000
# 6 0.000000 0.000000 0.000000 -0.001450 0.000000 0.039249
#
#
# Mechanical properties :
#
#
# Convention : Reuss Voigt Hill
#
# Bulk Modulus (GPa) = 24.13638 52.18166 38.15902
# Shear Modulus (GPa) = 19.90856 30.44053 25.17454
#
# Velocity S-wave (km/s) = 3.02465 3.74008 3.40123
# Velocity P-wave (km/s) = 4.82589 6.52914 5.74104
#
# Compressibility (1/GPa) = 0.04143123
#
# Stress axis : x y z
#
# Youngs Moduli (GPa) = 45.86655 16.90726 94.03390
#
# Poissons Ratio (x) = 0.19922 0.47089
# Poissons Ratio (y) = 0.54044 0.77911
# Poissons Ratio (z) = 0.22968 0.14008
#
# Static dielectric constant tensor:
#      x y z
#    x 3.791430 0.000000 0.192960 
#    y 0.000000 3.555300 0.000000 
#    z 0.192960 0.000000 3.880590 
# 
# 
# High freq. dielectric constant tensor:
#      x y z
#    x 1.847580 0.000000 0.009130 
#    y 0.000000 1.819720 0.000000 
#    z 0.009130 0.000000 1.859210 
# 
# From -- ./inp_files/19094.got.cif
#   From: 2010.06.25/outbox.cif.g09.slc.cpg/sg9_10_cif.got.tgz:19094.got - 2010.06.27 21:40:51.
