data_PCOD8054664
_publ_section_title
;
Structure prediction by ZEFSAII (Michael W. Deem and Ramdas Pophale) SiO2 
 PCOD8054664
Probable space group: C C
;
_chemical_formula_sum "Si O2"
_cell_formula_units_Z 32
_cell_length_a 17.465400
_cell_length_b 11.664152
_cell_length_c 13.986714
_cell_angle_alpha 90.000000
_cell_angle_beta 148.259938
_cell_angle_gamma 90.000000
_cell_volume 1498.952889
_symmetry_space_group_name_H-M "C C"
_symmetry_group_IT_number 9
_symmetry_cell_setting 'monoclinic'
loop_
_space_group_symop_operation_xyz
x,y,z
x,-y,1/2+z
1/2+x,1/2+y,z
1/2+x,1/2-y,1/2+z
loop_
_atom_site_type_symbol
_atom_site_label
_atom_site_fract_x
_atom_site_fract_y
_atom_site_fract_z
Si Si1 0.051560 0.052839 0.694800
Si Si2 0.046506 0.485894 0.809455
Si Si3 0.325335 0.294443 0.882642
Si Si4 0.248955 0.323135 0.597836
Si Si5 0.676229 0.750584 0.926642
Si Si6 0.792901 0.444469 0.668594
Si Si7 0.368483 0.039951 0.941213
Si Si8 0.560692 0.385137 0.861704
O O1 0.050372 0.159312 0.768249
O O2 0.214697 0.039548 0.831348
O O3 0.936017 0.095840 0.493353
O O4 0.007709 0.935710 0.702607
O O5 0.101378 0.359069 0.895687
O O6 0.904639 0.514784 0.720872
O O7 0.000489 0.498873 0.649625
O O8 0.179297 0.567017 0.974955
O O9 0.216057 0.315902 0.677264
O O10 0.251162 0.292783 0.907692
O O11 0.401693 0.170878 0.943633
O O12 0.422985 0.330309 0.768956
O O13 0.180844 0.213150 0.473121
O O14 0.780781 0.686021 0.115116
O O15 0.858634 0.448166 0.845004
O O16 0.638370 0.512033 0.503680
#
# Coordination Sequence:
#
# PCOD8054664 Si02
#       8
#     4   4   4   4   4   4   4   4
#     4  10  20  40  66  94 129 176 221 272 330 387
#     4  12  24  42  64 103 133 178 222 277 336 395
#     4  11  21  39  67 102 125 171 229 273 323 395
#     4  12  27  38  68  99 136 170 225 282 333 398
#     4  10  21  39  66  97 134 170 216 274 326 398
#     4  11  22  43  70  96 136 173 224 280 337 397
#     4  11  22  38  70  96 129 176 221 274 332 395
#     4  11  23  43  61  97 136 172 218 282 339 387
#
# _framework density 21.348236
#
# number of rings (size 3 to 8) (size 9 to 14) (size 15 to 20)
#    0.000    1.000    6.250    2.250    3.500    1.000 
#    0.000    2.500    0.000    0.000    0.000    0.000 
#    0.000    0.000    0.000    0.000    0.000    0.000 
#
# Total GULP energy -198293.196322 kJ/mol
# GULP energy per Si atom -12393.324770 kJ/mol
# Density = 2.129965 g / cm^3
# Si number density = 21.348236 Si / 1000 Ang^3
#
#
#
# Elastic Constant Matrix: (Units=GPa)
#
#
# Indices 1 2 3 4 5 6 
#
# 1 67.4980 49.3397 43.9751 0.0000 -6.3660 0.0000
# 2 49.3397 105.7510 55.7674 0.0000 -13.1373 0.0000
# 3 43.9751 55.7674 110.7357 0.0000 -11.3700 0.0000
# 4 0.0000 0.0000 0.0000 47.7262 0.0000 -2.7626
# 5 -6.3660 -13.1373 -11.3700 0.0000 34.3867 0.0000
# 6 0.0000 0.0000 0.0000 -2.7626 0.0000 26.5646
#
#
#
# Elastic Compliance Matrix: (Units=1/GPa)
#
#
# Indices 1 2 3 4 5 6 
#
# 1 0.024694 -0.008700 -0.005483 0.000000 -0.000565 0.000000
# 2 -0.008700 0.016221 -0.004392 0.000000 0.003134 0.000000
# 3 -0.005483 -0.004392 0.013605 0.000000 0.001805 0.000000
# 4 0.000000 0.000000 0.000000 0.021080 0.000000 0.002192
# 5 -0.000565 0.003134 0.001805 0.000000 0.030771 0.000000
# 6 0.000000 0.000000 0.000000 0.002192 0.000000 0.037872
#
#
# Mechanical properties :
#
#
# Convention : Reuss Voigt Hill
#
# Bulk Modulus (GPa) = 57.57244 64.68320 61.12782
# Shear Modulus (GPa) = 26.71193 30.72901 28.72047
#
# Velocity S-wave (km/s) = 3.54114 3.79808 3.67186
# Velocity P-wave (km/s) = 6.61410 7.04264 6.83173
#
# Compressibility (1/GPa) = 0.01736942
#
# Stress axis : x y z
#
# Youngs Moduli (GPa) = 40.49633 61.64895 73.50120
#
# Poissons Ratio (x) = 0.53635 0.40300
# Poissons Ratio (y) = 0.35232 0.32283
# Poissons Ratio (z) = 0.22204 0.27078
#
# Static dielectric constant tensor:
#      x y z
#    x 3.704510 0.000000 -0.095540 
#    y 0.000000 3.944610 0.000000 
#    z -0.095540 0.000000 3.958220 
# 
# 
# High freq. dielectric constant tensor:
#      x y z
#    x 1.818160 0.000000 0.001830 
#    y 0.000000 1.824050 0.000000 
#    z 0.001830 0.000000 1.843190 
# 
# From -- ./inp_files/12736.got.cif
#   From: 2010.06.25/outbox.cif.g09.slc.cpg/sg9_7_cif.got.tgz:12736.got - 2010.06.27 21:40:51.
