data_PCOD8054029
_publ_section_title
;
Structure prediction by ZEFSAII (Michael W. Deem and Ramdas Pophale) SiO2 
 PCOD8054029
Probable space group: C M
;
_chemical_formula_sum "Si O2"
_cell_formula_units_Z 20
_cell_length_a 15.073483
_cell_length_b 9.540589
_cell_length_c 14.487492
_cell_angle_alpha 90.000000
_cell_angle_beta 24.346294
_cell_angle_gamma 90.000000
_cell_volume 858.901442
_symmetry_space_group_name_H-M "C M"
_symmetry_group_IT_number 8
_symmetry_cell_setting 'monoclinic'
loop_
_space_group_symop_operation_xyz
x,y,z
x,-y,z
1/2+x,1/2+y,z
1/2+x,1/2-y,z
loop_
_atom_site_type_symbol
_atom_site_label
_atom_site_fract_x
_atom_site_fract_y
_atom_site_fract_z
Si Si1 0.840058 0.000000 0.785118
Si Si2 0.994237 0.000000 0.430254
Si Si3 0.729535 0.762213 0.257634
Si Si4 0.975916 0.500000 0.586791
Si Si5 0.992913 0.291276 0.177307
Si Si6 0.050536 0.000000 0.904614
Si Si7 0.353114 0.500000 0.368048
Si Si8 0.256909 0.000000 0.512959
O O1 0.869685 0.000000 0.646054
O O2 0.719949 0.857514 0.930950
O O3 0.061377 0.000000 0.628122
O O4 0.138892 0.860323 0.278130
O O5 0.825934 0.000000 0.504490
O O6 0.828319 0.678674 0.250246
O O7 0.535544 0.860415 0.474251
O O8 0.908125 0.859398 0.039132
O O9 0.109849 0.500000 0.556442
O O10 0.714087 0.500000 0.838351
O O11 0.999495 0.126675 0.191151
O O12 0.905088 0.364857 0.353199
O O13 0.193054 0.000000 0.678824
#
# Coordination Sequence:
#
# PCOD8054029 Si02
#       8
#     2   2   4   2   4   2   2   2
#     4  11  24  42  75  92 141 199 222 274 363 423
#     4  12  24  44  73 108 146 178 229 308 351 407
#     4  10  23  45  68 102 140 184 230 291 346 418
#     4   9  23  48  70  93 144 194 229 282 349 426
#     4  10  23  46  66  99 146 177 234 280 344 426
#     4  11  26  41  79  97 133 195 247 271 350 420
#     4  10  25  43  72 105 148 177 226 308 349 395
#     4  11  24  42  67 105 130 187 239 281 332 429
#
# _framework density 23.285558000000002
#
# number of rings (size 3 to 8) (size 9 to 14) (size 15 to 20)
#    0.000    1.600    2.000    1.200    8.400    1.600 
#    0.000    2.000   17.600    0.000    0.000    0.000 
#    0.000    0.000    0.000    0.000    0.000    0.000 
#
# Total GULP energy -123954.167399 kJ/mol
# GULP energy per Si atom -12395.416740 kJ/mol
# Density = 2.323256 g / cm^3
# Si number density = 23.285558 Si / 1000 Ang^3
#
#
#
# Elastic Constant Matrix: (Units=GPa)
#
#
# Indices 1 2 3 4 5 6 
#
# 1 129.8465 45.2658 45.8555 0.0038 6.0261 -0.0010
# 2 45.2658 166.5516 61.5067 0.0041 -8.0695 -0.0005
# 3 45.8555 61.5067 119.2795 0.0078 6.9438 -0.0042
# 4 0.0038 0.0041 0.0078 13.4656 0.0000 -1.1981
# 5 6.0261 -8.0695 6.9438 0.0000 29.6083 0.0006
# 6 -0.0010 -0.0005 -0.0042 -1.1981 0.0006 26.4564
#
#
#
# Elastic Compliance Matrix: (Units=1/GPa)
#
#
# Indices 1 2 3 4 5 6 
#
# 1 0.009278 -0.001636 -0.002623 -0.000001 -0.001719 0.000000
# 2 -0.001636 0.007970 -0.003677 0.000000 0.003367 -0.000001
# 3 -0.002623 -0.003677 0.011472 -0.000005 -0.003159 0.000002
# 4 -0.000001 0.000000 -0.000005 0.074564 0.000001 0.003377
# 5 -0.001719 0.003367 -0.003159 0.000001 0.035783 -0.000001
# 6 0.000000 -0.000001 0.000002 0.003377 -0.000001 0.037951
#
#
# Mechanical properties :
#
#
# Convention : Reuss Voigt Hill
#
# Bulk Modulus (GPa) = 77.83437 80.10373 78.96905
# Shear Modulus (GPa) = 25.35868 31.44270 28.40069
#
# Velocity S-wave (km/s) = 3.30363 3.67864 3.49617
# Velocity P-wave (km/s) = 6.93185 7.24696 7.09116
#
# Compressibility (1/GPa) = 0.01284779
#
# Stress axis : x y z
#
# Youngs Moduli (GPa) = 107.78310 125.47450 87.17044
#
# Poissons Ratio (x) = 0.20530 0.22865
# Poissons Ratio (y) = 0.17635 0.32049
# Poissons Ratio (z) = 0.28271 0.46132
#
# Static dielectric constant tensor:
#      x y z
#    x 4.148690 -0.000010 -0.071820 
#    y -0.000010 4.478880 0.000030 
#    z -0.071820 0.000030 3.973890 
# 
# 
# High freq. dielectric constant tensor:
#      x y z
#    x 1.916570 0.000000 -0.005650 
#    y 0.000000 1.940520 0.000000 
#    z -0.005650 0.000000 1.905950 
# 
# From -- ./inp_files/27384.got.cif
#   From: 2010.03.12/outbox.cif.g09.slc.cpg/sg8_14_cif.got.tgz:27384.got - 2010.03.31 10:45:26.
