data_PCOD8054222
_publ_section_title
;
Structure prediction by ZEFSAII (Michael W. Deem and Ramdas Pophale) SiO2 
 PCOD8054222
Probable space group: C C
;
_chemical_formula_sum "Si O2"
_cell_formula_units_Z 32
_cell_length_a 13.742595
_cell_length_b 23.632544
_cell_length_c 5.309321
_cell_angle_alpha 90.000000
_cell_angle_beta 112.720787
_cell_angle_gamma 90.000000
_cell_volume 1590.510605
_symmetry_space_group_name_H-M "C C"
_symmetry_group_IT_number 9
_symmetry_cell_setting 'monoclinic'
loop_
_space_group_symop_operation_xyz
x,y,z
x,-y,1/2+z
1/2+x,1/2+y,z
1/2+x,1/2-y,1/2+z
loop_
_atom_site_type_symbol
_atom_site_label
_atom_site_fract_x
_atom_site_fract_y
_atom_site_fract_z
Si Si1 0.542730 0.293203 0.858330
Si Si2 0.266097 0.465854 0.081787
Si Si3 0.998638 0.339408 0.314198
Si Si4 0.286110 0.208891 0.601647
Si Si5 0.610882 0.137074 0.426418
Si Si6 0.559772 0.340274 0.375369
Si Si7 0.739083 0.250531 0.554629
Si Si8 0.013015 0.965903 0.328557
O O1 0.534816 0.225897 0.850356
O O2 0.493092 0.321033 0.557111
O O3 0.666259 0.312164 0.981850
O O4 0.493088 0.321019 0.060325
O O5 0.233926 0.499938 0.299792
O O6 0.389325 0.451396 0.204894
O O7 0.205235 0.407051 0.020660
O O8 0.870858 0.342235 0.186385
O O9 0.040718 0.370968 0.605397
O O10 0.040753 0.370978 0.107229
O O11 0.309608 0.248389 0.378865
O O12 0.309615 0.248386 0.871425
O O13 0.658528 0.199348 0.474064
O O14 0.672431 0.309004 0.488017
O O15 0.577259 0.407454 0.392812
O O16 0.045167 0.000007 0.610682
#
# Coordination Sequence:
#
# PCOD8054222 Si02
#       8
#     4   4   4   4   4   4   4   4
#     4  10  19  35  49  81 116 148 191 221 293 357
#     4  10  23  41  59  82 115 157 199 244 289 338
#     4  12  21  35  53  87 112 151 199 238 286 364
#     4  10  20  33  52  74 122 153 177 235 283 349
#     4  12  21  38  58  83 120 146 203 240 283 362
#     4  10  18  34  55  76 116 153 179 236 278 338
#     4  10  19  37  52  84 115 157 184 229 299 357
#     4  10  21  37  56  87 118 153 204 235 281 353
#
# _framework density 20.119325
#
# number of rings (size 3 to 8) (size 9 to 14) (size 15 to 20)
#    0.000    1.500    5.000    2.250    0.000    2.000 
#    0.000    0.000    0.000    0.000    0.000   70.000 
#    0.000    0.000    0.000    0.000    0.000    0.000 
#
# Total GULP energy -198301.664811 kJ/mol
# GULP energy per Si atom -12393.854051 kJ/mol
# Density = 2.007353 g / cm^3
# Si number density = 20.119325 Si / 1000 Ang^3
#
#
#
# Elastic Constant Matrix: (Units=GPa)
#
#
# Indices 1 2 3 4 5 6 
#
# 1 46.2615 27.6096 29.5145 0.0000 -1.5643 0.0000
# 2 27.6096 95.8877 29.9506 0.0000 -1.0402 0.0000
# 3 29.5145 29.9506 164.9342 0.0000 -54.6052 0.0000
# 4 0.0000 0.0000 0.0000 41.2655 0.0000 -3.9824
# 5 -1.5643 -1.0402 -54.6052 0.0000 35.2057 0.0000
# 6 0.0000 0.0000 0.0000 -3.9824 0.0000 32.8414
#
#
#
# Elastic Compliance Matrix: (Units=1/GPa)
#
#
# Indices 1 2 3 4 5 6 
#
# 1 0.030053 -0.006300 -0.007921 0.000000 -0.011136 0.000000
# 2 -0.006300 0.012969 -0.002453 0.000000 -0.003702 0.000000
# 3 -0.007921 -0.002453 0.016003 0.000000 0.024397 0.000000
# 4 0.000000 0.000000 0.000000 0.024520 0.000000 0.002973
# 5 -0.011136 -0.003702 0.024397 0.000000 0.065640 0.000000
# 6 0.000000 0.000000 0.000000 0.002973 0.000000 0.030810
#
#
# Mechanical properties :
#
#
# Convention : Reuss Voigt Hill
#
# Bulk Modulus (GPa) = 38.94554 53.47033 46.20794
# Shear Modulus (GPa) = 22.53237 36.52978 29.53108
#
# Velocity S-wave (km/s) = 3.35018 4.26567 3.83534
# Velocity P-wave (km/s) = 5.86210 7.13412 6.52916
#
# Compressibility (1/GPa) = 0.02567688
#
# Stress axis : x y z
#
# Youngs Moduli (GPa) = 33.27445 77.10686 62.48826
#
# Poissons Ratio (x) = 0.48579 0.49495
# Poissons Ratio (y) = 0.20963 0.15330
# Poissons Ratio (z) = 0.26356 0.18916
#
# Static dielectric constant tensor:
#      x y z
#    x 3.661340 0.000000 -0.654660 
#    y 0.000000 3.264800 0.000000 
#    z -0.654660 0.000000 5.040990 
# 
# 
# High freq. dielectric constant tensor:
#      x y z
#    x 1.767950 0.000000 -0.025470 
#    y 0.000000 1.743980 0.000000 
#    z -0.025470 0.000000 1.821670 
# 
# From -- ./inp_files/2554.got.cif
#   From: 2010.06.25/outbox.cif.g09.slc.cpg/sg9_2_cif.got.tgz:2554.got - 2010.06.27 21:40:51.
