data_PCOD8054144
_publ_section_title
;
Structure prediction by ZEFSAII (Michael W. Deem and Ramdas Pophale) SiO2 
 PCOD8054144
Probable space group: C M
;
_chemical_formula_sum "Si O2"
_cell_formula_units_Z 20
_cell_length_a 8.629957
_cell_length_b 22.913349
_cell_length_c 7.682259
_cell_angle_alpha 90.000000
_cell_angle_beta 146.408017
_cell_angle_gamma 90.000000
_cell_volume 840.479631
_symmetry_space_group_name_H-M "C M"
_symmetry_group_IT_number 8
_symmetry_cell_setting 'monoclinic'
loop_
_space_group_symop_operation_xyz
x,y,z
x,-y,z
1/2+x,1/2+y,z
1/2+x,1/2-y,z
loop_
_atom_site_type_symbol
_atom_site_label
_atom_site_fract_x
_atom_site_fract_y
_atom_site_fract_z
Si Si1 0.014750 0.786864 0.942940
Si Si2 0.249064 0.399927 0.855665
Si Si3 0.801520 0.500000 0.901125
Si Si4 0.182993 0.900318 0.521108
Si Si5 0.513761 0.714079 0.542190
Si Si6 0.761397 0.000000 0.601969
O O1 0.933455 0.844855 0.969528
O O2 0.834552 0.733488 0.845547
O O3 0.937023 0.798230 0.669674
O O4 0.331074 0.765831 0.281264
O O5 0.175678 0.442624 0.628813
O O6 0.959553 0.380271 0.674673
O O7 0.458300 0.433049 0.186021
O O8 0.773260 0.442184 0.760857
O O9 0.589207 0.500000 0.864683
O O10 0.107486 0.500000 0.272358
O O11 0.004203 0.845510 0.424924
#
# Coordination Sequence:
#
# PCOD8054144 Si02
#       6
#     4   4   2   4   4   2
#     4  12  25  43  67  98 135 179 229 282 339 404
#     4  12  25  45  70 101 140 185 230 285 346 412
#     4  12  26  46  72 106 140 182 232 286 346 414
#     4  12  25  45  70 101 140 185 230 285 346 412
#     4  12  25  43  67  98 135 179 229 282 339 404
#     4  12  26  46  72 106 140 182 232 286 346 414
#
# _framework density 23.795936000000001
#
# number of rings (size 3 to 8) (size 9 to 14) (size 15 to 20)
#    0.000    0.000    0.000   12.000    0.000    3.200 
#    0.000    0.000    0.000    0.000    0.000    0.000 
#    0.000    0.000    0.000    0.000    0.000    0.000 
#
# Total GULP energy -124042.160771 kJ/mol
# GULP energy per Si atom -12404.216077 kJ/mol
# Density = 2.374178 g / cm^3
# Si number density = 23.795936 Si / 1000 Ang^3
#
#
#
# Elastic Constant Matrix: (Units=GPa)
#
#
# Indices 1 2 3 4 5 6 
#
# 1 129.4321 51.9671 35.6406 0.0000 -3.0439 0.0000
# 2 51.9671 113.9430 20.1088 0.0000 -4.7179 0.0000
# 3 35.6406 20.1088 122.9230 0.0000 -14.7075 0.0000
# 4 0.0000 0.0000 0.0000 35.8284 0.0000 -1.1666
# 5 -3.0439 -4.7179 -14.7075 0.0000 46.2514 0.0000
# 6 0.0000 0.0000 0.0000 -1.1666 0.0000 29.8620
#
#
#
# Elastic Compliance Matrix: (Units=1/GPa)
#
#
# Indices 1 2 3 4 5 6 
#
# 1 0.010025 -0.004190 -0.002280 0.000000 -0.000493 0.000000
# 2 -0.004190 0.010798 -0.000471 0.000000 0.000676 0.000000
# 3 -0.002280 -0.000471 0.009200 0.000000 0.002727 0.000000
# 4 0.000000 0.000000 0.000000 0.027946 0.000000 0.001092
# 5 -0.000493 0.000676 0.002727 0.000000 0.022525 0.000000
# 6 0.000000 0.000000 0.000000 0.001092 0.000000 0.033530
#
#
# Mechanical properties :
#
#
# Convention : Reuss Voigt Hill
#
# Bulk Modulus (GPa) = 61.95442 64.63680 63.29561
# Shear Modulus (GPa) = 37.51340 39.62714 38.57027
#
# Velocity S-wave (km/s) = 3.97478 4.08522 4.03038
# Velocity P-wave (km/s) = 6.86712 7.03378 6.95095
#
# Compressibility (1/GPa) = 0.01614090
#
# Stress axis : x y z
#
# Youngs Moduli (GPa) = 99.75442 92.60655 108.70050
#
# Poissons Ratio (x) = 0.38802 0.24785
# Poissons Ratio (y) = 0.41797 0.05117
# Poissons Ratio (z) = 0.22745 0.04359
#
# Static dielectric constant tensor:
#      x y z
#    x 4.479200 0.000000 -0.052380 
#    y 0.000000 4.065130 0.000000 
#    z -0.052380 0.000000 4.307880 
# 
# 
# High freq. dielectric constant tensor:
#      x y z
#    x 1.961520 0.000000 -0.003790 
#    y 0.000000 1.936220 0.000000 
#    z -0.003790 0.000000 1.960340 
# 
# From -- ./inp_files/9056.got.cif
#   From: 2010.03.12/outbox.cif.g09.slc.cpg/sg8_5_cif.got.tgz:9056.got - 2010.03.31 10:45:26.
