data_PCOD8054097
_publ_section_title
;
Structure prediction by ZEFSAII (Michael W. Deem and Ramdas Pophale) SiO2 
 PCOD8054097
Probable space group: C M
;
_chemical_formula_sum "Si O2"
_cell_formula_units_Z 20
_cell_length_a 8.166242
_cell_length_b 19.972947
_cell_length_c 5.284558
_cell_angle_alpha 90.000000
_cell_angle_beta 116.818286
_cell_angle_gamma 90.000000
_cell_volume 769.224316
_symmetry_space_group_name_H-M "C M"
_symmetry_group_IT_number 8
_symmetry_cell_setting 'monoclinic'
loop_
_space_group_symop_operation_xyz
x,y,z
x,-y,z
1/2+x,1/2+y,z
1/2+x,1/2-y,z
loop_
_atom_site_type_symbol
_atom_site_label
_atom_site_fract_x
_atom_site_fract_y
_atom_site_fract_z
Si Si1 0.483530 0.228281 0.142100
Si Si2 0.208684 0.139063 0.288939
Si Si3 0.639232 0.187377 0.761205
Si Si4 0.898710 0.926568 0.826370
Si Si5 0.258108 0.077102 0.822278
O O1 0.639062 0.285445 0.253961
O O2 0.477891 0.205302 0.439461
O O3 0.554471 0.174480 0.981158
O O4 0.289537 0.254008 0.897959
O O5 0.325815 0.112042 0.609981
O O6 0.029016 0.090965 0.156415
O O7 0.326339 0.124820 0.106801
O O8 0.728626 0.122879 0.695152
O O9 0.814418 0.000000 0.798549
O O10 0.033787 0.921279 0.675322
O O11 0.329436 0.000000 0.897508
#
# Coordination Sequence:
#
# PCOD8054097 Si02
#       5
#     4   4   4   4   4
#     4  11  23  38  58  86 121 158 199 238 294 354
#     4   9  17  29  48  74 114 143 177 228 291 336
#     4  11  23  38  60  88 121 156 196 242 297 353
#     4   8  18  31  53  83 112 141 192 251 289 323
#     4   9  15  26  47  77 108 138 176 241 295 318
#
# _framework density 26.000216999999999
#
# number of rings (size 3 to 8) (size 9 to 14) (size 15 to 20)
#    1.200    1.200    0.000    3.600    5.600    0.000 
#    0.000    0.000    0.000    0.000    0.000   61.600 
#    0.000    0.000    0.000    0.000    0.000    0.000 
#
# Total GULP energy -123885.457558 kJ/mol
# GULP energy per Si atom -12388.545756 kJ/mol
# Density = 2.594104 g / cm^3
# Si number density = 26.000217 Si / 1000 Ang^3
#
#
#
# Elastic Constant Matrix: (Units=GPa)
#
#
# Indices 1 2 3 4 5 6 
#
# 1 66.1584 2.6925 49.9672 0.0000 -8.8170 0.0000
# 2 2.6925 72.1401 59.6453 0.0000 -25.0635 0.0000
# 3 49.9672 59.6453 197.9599 0.0000 -22.8651 0.0000
# 4 0.0000 0.0000 0.0000 28.8233 0.0000 -5.6739
# 5 -8.8170 -25.0635 -22.8651 0.0000 58.5688 0.0000
# 6 0.0000 0.0000 0.0000 -5.6739 0.0000 30.6807
#
#
#
# Elastic Compliance Matrix: (Units=1/GPa)
#
#
# Indices 1 2 3 4 5 6 
#
# 1 0.020126 0.005568 -0.006422 0.000000 0.002905 0.000000
# 2 0.005568 0.022260 -0.007242 0.000000 0.007537 0.000000
# 3 -0.006422 -0.007242 0.008781 0.000000 -0.000638 0.000000
# 4 0.000000 0.000000 0.000000 0.036005 0.000000 0.006659
# 5 0.002905 0.007537 -0.000638 0.000000 0.020488 0.000000
# 6 0.000000 0.000000 0.000000 0.006659 0.000000 0.033825
#
#
# Mechanical properties :
#
#
# Convention : Reuss Voigt Hill
#
# Bulk Modulus (GPa) = 28.59154 62.31872 45.45513
# Shear Modulus (GPa) = 29.52718 38.54478 34.03598
#
# Velocity S-wave (km/s) = 3.37360 3.85447 3.62203
# Velocity P-wave (km/s) = 5.11815 6.62041 5.91715
#
# Compressibility (1/GPa) = 0.03497538
#
# Stress axis : x y z
#
# Youngs Moduli (GPa) = 49.68629 44.92315 113.88402
#
# Poissons Ratio (x) = -0.25014 0.73138
# Poissons Ratio (y) = -0.27666 0.82474
# Poissons Ratio (z) = 0.31909 0.32533
#
# Static dielectric constant tensor:
#      x y z
#    x 4.790380 0.000000 -0.215940 
#    y 0.000000 4.723870 0.000000 
#    z -0.215940 0.000000 4.539940 
# 
# 
# High freq. dielectric constant tensor:
#      x y z
#    x 2.049040 0.000000 -0.006590 
#    y 0.000000 2.045280 0.000000 
#    z -0.006590 0.000000 2.040590 
# 
# From -- ./inp_files/1261.got.cif
#   From: 2010.03.12/outbox.cif.g09.slc.cpg/sg8_1_cif.got.tgz:1261.got - 2010.03.31 10:45:26.
