data_PCOD8054373
_publ_section_title
;
Structure prediction by ZEFSAII (Michael W. Deem and Ramdas Pophale) SiO2 
 PCOD8054373
Probable space group: C C
;
_chemical_formula_sum "Si O2"
_cell_formula_units_Z 28
_cell_length_a 7.531401
_cell_length_b 15.654844
_cell_length_c 13.160461
_cell_angle_alpha 90.000000
_cell_angle_beta 119.245037
_cell_angle_gamma 90.000000
_cell_volume 1353.879873
_symmetry_space_group_name_H-M "C C"
_symmetry_group_IT_number 9
_symmetry_cell_setting 'monoclinic'
loop_
_space_group_symop_operation_xyz
x,y,z
x,-y,1/2+z
1/2+x,1/2+y,z
1/2+x,1/2-y,1/2+z
loop_
_atom_site_type_symbol
_atom_site_label
_atom_site_fract_x
_atom_site_fract_y
_atom_site_fract_z
Si Si1 0.148270 0.787139 0.382520
Si Si2 0.249347 0.536295 0.033983
Si Si3 0.744220 0.865915 0.327190
Si Si4 0.390645 0.457892 0.786508
Si Si5 0.902965 0.133339 0.491164
Si Si6 0.788884 0.340015 0.214307
Si Si7 0.798995 0.539262 0.888103
O O1 0.249240 0.710621 0.475735
O O2 0.200518 0.775022 0.276173
O O3 0.248123 0.877698 0.444295
O O4 0.907020 0.793617 0.338909
O O5 0.323242 0.579926 0.159166
O O6 0.376484 0.449882 0.053478
O O7 0.018002 0.504084 0.979635
O O8 0.273723 0.607909 0.953773
O O9 0.522939 0.822172 0.246563
O O10 0.775729 0.951378 0.269080
O O11 0.341554 0.389628 0.859062
O O12 0.634084 0.466657 0.861064
O O13 0.137101 0.162827 0.574857
O O14 0.793972 0.434567 0.267144
#
# Coordination Sequence:
#
# PCOD8054373 Si02
#       7
#     4   4   4   4   4   4   4
#     4   9  20  40  58  86 116 160 203 243 298 368
#     4  10  19  37  61  91 122 152 204 256 293 369
#     4   9  19  39  63  80 118 174 190 238 326 351
#     4  10  20  35  60  94 118 156 204 251 300 358
#     4  11  21  36  64  90 120 155 208 253 300 346
#     4   9  19  39  60  84 122 158 195 248 303 365
#     4   8  18  38  56  77 128 155 186 245 306 351
#
# _framework density 20.681304000000001
#
# number of rings (size 3 to 8) (size 9 to 14) (size 15 to 20)
#    0.857    1.714    1.429    0.000    2.000    1.143 
#    2.571    1.429    0.000    0.000    0.000    0.000 
#    0.000    0.000    0.000    0.000    0.000    0.000 
#
# Total GULP energy -173454.322016 kJ/mol
# GULP energy per Si atom -12389.594430 kJ/mol
# Density = 2.063423 g / cm^3
# Si number density = 20.681304 Si / 1000 Ang^3
#
#
#
# Elastic Constant Matrix: (Units=GPa)
#
#
# Indices 1 2 3 4 5 6 
#
# 1 155.5922 26.5855 42.5715 0.0000 27.5647 0.0000
# 2 26.5855 37.4216 26.9914 0.0000 17.8952 0.0000
# 3 42.5715 26.9914 111.8120 0.0000 11.9997 0.0000
# 4 0.0000 0.0000 0.0000 12.4366 0.0000 8.6678
# 5 27.5647 17.8952 11.9997 0.0000 31.9297 0.0000
# 6 0.0000 0.0000 0.0000 8.6678 0.0000 19.8389
#
#
#
# Elastic Compliance Matrix: (Units=1/GPa)
#
#
# Indices 1 2 3 4 5 6 
#
# 1 0.008262 -0.001771 -0.002146 0.000000 -0.005333 0.000000
# 2 -0.001771 0.042817 -0.007555 0.000000 -0.019628 0.000000
# 3 -0.002146 -0.007555 0.011390 0.000000 0.001806 0.000000
# 4 0.000000 0.000000 0.000000 0.115613 0.000000 -0.050513
# 5 -0.005333 -0.019628 0.001806 0.000000 0.046245 0.000000
# 6 0.000000 0.000000 0.000000 -0.050513 0.000000 0.072476
#
#
# Mechanical properties :
#
#
# Convention : Reuss Voigt Hill
#
# Bulk Modulus (GPa) = 25.30062 55.23583 40.26822
# Shear Modulus (GPa) = 15.01857 26.75287 20.88572
#
# Velocity S-wave (km/s) = 2.69772 3.60054 3.18131
# Velocity P-wave (km/s) = 4.68654 6.63711 5.74521
#
# Compressibility (1/GPa) = 0.03952472
#
# Stress axis : x y z
#
# Youngs Moduli (GPa) = 121.04225 23.35542 87.79282
#
# Poissons Ratio (x) = 0.04137 0.18836
# Poissons Ratio (y) = 0.21442 0.66327
# Poissons Ratio (z) = 0.25970 0.17645
#
# Static dielectric constant tensor:
#      x y z
#    x 3.853190 0.000000 -0.025690 
#    y 0.000000 3.265270 0.000000 
#    z -0.025690 0.000000 3.438270 
# 
# 
# High freq. dielectric constant tensor:
#      x y z
#    x 1.814030 0.000000 0.009310 
#    y 0.000000 1.770040 0.000000 
#    z 0.009310 0.000000 1.790580 
# 
# From -- ./inp_files/14685.got.cif
#   From: 2010.06.25/outbox.cif.g09.slc.cpg/sg9_8_cif.got.tgz:14685.got - 2010.06.27 21:40:51.
