data_PCOD8054679
_publ_section_title
;
Structure prediction by ZEFSAII (Michael W. Deem and Ramdas Pophale) SiO2 
 PCOD8054679
Probable space group: C C
;
_chemical_formula_sum "Si O2"
_cell_formula_units_Z 24
_cell_length_a 8.867809
_cell_length_b 11.372706
_cell_length_c 22.659446
_cell_angle_alpha 90.000000
_cell_angle_beta 30.739338
_cell_angle_gamma 90.000000
_cell_volume 1168.055506
_symmetry_space_group_name_H-M "C C"
_symmetry_group_IT_number 9
_symmetry_cell_setting 'monoclinic'
loop_
_space_group_symop_operation_xyz
x,y,z
x,-y,1/2+z
1/2+x,1/2+y,z
1/2+x,1/2-y,1/2+z
loop_
_atom_site_type_symbol
_atom_site_label
_atom_site_fract_x
_atom_site_fract_y
_atom_site_fract_z
Si Si1 0.251790 0.714430 0.816640
Si Si2 0.318889 0.648389 0.106506
Si Si3 0.106890 0.438903 0.100479
Si Si4 0.535718 0.480515 0.739937
Si Si5 0.734623 0.683912 0.072915
Si Si6 0.243240 0.336975 0.930526
O O1 0.501114 0.814633 0.739401
O O2 0.400102 0.589930 0.749976
O O3 0.028681 0.751784 0.839712
O O4 0.074348 0.698682 0.937944
O O5 0.298295 0.533422 0.072362
O O6 0.540732 0.624936 0.085998
O O7 0.449133 0.757553 0.024448
O O8 0.112916 0.312957 0.131274
O O9 0.766255 0.478213 0.212333
O O10 0.233270 0.421022 0.991626
O O11 0.719861 0.398647 0.634124
O O12 0.269822 0.412446 0.862083
#
# Coordination Sequence:
#
# PCOD8054679 Si02
#       6
#     4   4   4   4   4   4
#     4  10  20  41  62  85 130 158 197 266 301 363
#     4  10  20  44  62  90 126 160 208 262 304 367
#     4  10  21  42  65  86 126 162 209 258 303 368
#     4  12  21  41  66  89 127 166 203 260 316 367
#     4  10  25  41  60  97 123 164 211 251 319 369
#     4  10  23  39  61  97 122 164 212 251 317 368
#
# _framework density 20.546969000000001
#
# number of rings (size 3 to 8) (size 9 to 14) (size 15 to 20)
#    0.000    2.000    5.000    1.000    0.000    2.667 
#   15.000    0.000    0.000    0.000    0.000    0.000 
#    0.000    0.000    0.000    0.000    0.000    0.000 
#
# Total GULP energy -148771.049405 kJ/mol
# GULP energy per Si atom -12397.587450 kJ/mol
# Density = 2.050020 g / cm^3
# Si number density = 20.546969 Si / 1000 Ang^3
#
#
#
# Elastic Constant Matrix: (Units=GPa)
#
#
# Indices 1 2 3 4 5 6 
#
# 1 51.2210 50.0510 21.5038 0.0373 -8.8226 0.0052
# 2 50.0510 133.6754 35.8029 0.0311 3.7698 0.0031
# 3 21.5038 35.8029 81.3544 0.0252 -10.1377 -0.0147
# 4 0.0373 0.0311 0.0252 35.2207 -0.0245 -0.3160
# 5 -8.8226 3.7698 -10.1377 -0.0245 28.7006 0.0274
# 6 0.0052 0.0031 -0.0147 -0.3160 0.0274 37.3755
#
#
#
# Elastic Compliance Matrix: (Units=1/GPa)
#
#
# Indices 1 2 3 4 5 6 
#
# 1 0.035005 -0.012865 -0.002133 -0.000016 0.011697 -0.000013
# 2 -0.012865 0.013390 -0.003352 -0.000001 -0.006897 0.000004
# 3 -0.002133 -0.003352 0.014963 -0.000002 0.005070 0.000003
# 4 -0.000016 -0.000001 -0.000002 0.028395 0.000018 0.000240
# 5 0.011697 -0.006897 0.005070 0.000018 0.041135 -0.000029
# 6 -0.000013 0.000004 0.000003 0.000240 -0.000029 0.026758
#
#
# Mechanical properties :
#
#
# Convention : Reuss Voigt Hill
#
# Bulk Modulus (GPa) = 37.51327 53.44069 45.47698
# Shear Modulus (GPa) = 24.36290 30.85222 27.60756
#
# Velocity S-wave (km/s) = 3.44716 3.87918 3.66953
# Velocity P-wave (km/s) = 5.84302 6.79188 6.33524
#
# Compressibility (1/GPa) = 0.02665723
#
# Stress axis : x y z
#
# Youngs Moduli (GPa) = 28.56752 74.68270 66.83354
#
# Poissons Ratio (x) = 0.96080 0.14258
# Poissons Ratio (y) = 0.36752 0.22401
# Poissons Ratio (z) = 0.06094 0.25031
#
# Static dielectric constant tensor:
#      x y z
#    x 3.312700 0.000010 -0.168490 
#    y 0.000010 3.904640 -0.000030 
#    z -0.168490 -0.000030 3.821730 
# 
# 
# High freq. dielectric constant tensor:
#      x y z
#    x 1.765870 0.000000 -0.014510 
#    y 0.000000 1.813220 0.000000 
#    z -0.014510 0.000000 1.811020 
# 
# From -- ./inp_files/14094.got.cif
#   From: 2010.06.25/outbox.cif.g09.slc.cpg/sg9_8_cif.got.tgz:14094.got - 2010.06.27 21:40:51.
