data_PCOD8054904
_publ_section_title
;
Structure prediction by ZEFSAII (Michael W. Deem and Ramdas Pophale) SiO2 
 PCOD8054904
Probable space group: C C
;
_chemical_formula_sum "Si O2"
_cell_formula_units_Z 28
_cell_length_a 8.876240
_cell_length_b 12.419215
_cell_length_c 19.722723
_cell_angle_alpha 90.000000
_cell_angle_beta 43.391456
_cell_angle_gamma 90.000000
_cell_volume 1493.597634
_symmetry_space_group_name_H-M "C C"
_symmetry_group_IT_number 9
_symmetry_cell_setting 'monoclinic'
loop_
_space_group_symop_operation_xyz
x,y,z
x,-y,1/2+z
1/2+x,1/2+y,z
1/2+x,1/2-y,1/2+z
loop_
_atom_site_type_symbol
_atom_site_label
_atom_site_fract_x
_atom_site_fract_y
_atom_site_fract_z
Si Si1 0.669650 0.733830 0.799130
Si Si2 0.945474 0.458073 0.194688
Si Si3 0.286167 0.262418 0.521562
Si Si4 0.641044 0.474226 0.098456
Si Si5 0.589694 0.962309 0.511651
Si Si6 0.780172 0.101976 0.156081
Si Si7 0.993612 0.961529 0.292641
O O1 0.893239 0.663321 0.738432
O O2 0.733052 0.846364 0.744721
O O3 0.513325 0.667398 0.798493
O O4 0.534269 0.751277 0.912584
O O5 0.711280 0.517219 0.255030
O O6 0.077529 0.456334 0.079861
O O7 0.078916 0.521351 0.207822
O O8 0.173815 0.146402 0.560948
O O9 0.139991 0.341940 0.522726
O O10 0.304508 0.307211 0.591366
O O11 0.509408 0.537264 0.083125
O O12 0.483437 0.478723 0.215803
O O13 0.867518 0.535308 0.040689
O O14 0.779652 0.007198 0.400172
#
# Coordination Sequence:
#
# PCOD8054904 Si02
#       7
#     4   4   4   4   4   4   4
#     4   9  19  38  60  77 120 156 185 239 292 330
#     4   8  18  36  59  83 113 152 196 230 283 352
#     4  10  21  40  58  81 121 154 190 241 287 338
#     4  11  22  35  60  89 116 147 198 238 285 347
#     4   9  18  37  62  79 117 158 185 234 295 335
#     4  11  21  36  62  87 114 151 194 242 286 339
#     4   8  17  38  57  78 117 154 186 234 286 339
#
# _framework density 18.746682
#
# number of rings (size 3 to 8) (size 9 to 14) (size 15 to 20)
#    0.857    1.714    1.429    0.000    2.000    2.286 
#    0.000    0.000    3.143    0.000    0.000    0.000 
#    0.000    0.000    0.000    0.000    0.000    0.000 
#
# Total GULP energy -173473.479335 kJ/mol
# GULP energy per Si atom -12390.962810 kJ/mol
# Density = 1.870401 g / cm^3
# Si number density = 18.746682 Si / 1000 Ang^3
#
#
#
# Elastic Constant Matrix: (Units=GPa)
#
#
# Indices 1 2 3 4 5 6 
#
# 1 54.2221 46.8174 24.4933 0.0001 -14.1667 -0.0003
# 2 46.8174 84.1119 43.7764 0.0001 -9.9857 -0.0001
# 3 24.4933 43.7764 139.7252 0.0001 -6.7404 -0.0001
# 4 0.0001 0.0001 0.0001 26.5102 -0.0001 -5.9105
# 5 -14.1667 -9.9857 -6.7404 -0.0001 17.5706 0.0001
# 6 -0.0003 -0.0001 -0.0001 -5.9105 0.0001 28.4399
#
#
#
# Elastic Compliance Matrix: (Units=1/GPa)
#
#
# Indices 1 2 3 4 5 6 
#
# 1 0.042308 -0.021036 0.000248 0.000000 0.022251 0.000000
# 2 -0.021036 0.025429 -0.004484 0.000000 -0.004229 0.000000
# 3 0.000248 -0.004484 0.008563 0.000000 0.000937 0.000000
# 4 0.000000 0.000000 0.000000 0.039554 0.000000 0.008220
# 5 0.022251 -0.004229 0.000937 0.000000 0.072810 0.000000
# 6 0.000000 0.000000 0.000000 0.008220 0.000000 0.036870
#
#
# Mechanical properties :
#
#
# Convention : Reuss Voigt Hill
#
# Bulk Modulus (GPa) = 38.82510 56.47038 47.64774
# Shear Modulus (GPa) = 17.56454 25.36894 21.46674
#
# Velocity S-wave (km/s) = 3.06427 3.68264 3.38760
# Velocity P-wave (km/s) = 5.76845 6.94772 6.38537
#
# Compressibility (1/GPa) = 0.02575653
#
# Stress axis : x y z
#
# Youngs Moduli (GPa) = 23.63626 39.32472 116.77637
#
# Poissons Ratio (x) = 0.82724 -0.02893
# Poissons Ratio (y) = 0.49722 0.52357
# Poissons Ratio (z) = -0.00586 0.17631
#
# Static dielectric constant tensor:
#      x y z
#    x 3.176840 0.000000 -0.018030 
#    y 0.000000 3.199080 0.000000 
#    z -0.018030 0.000000 3.551470 
# 
# 
# High freq. dielectric constant tensor:
#      x y z
#    x 1.706200 0.000000 0.002340 
#    y 0.000000 1.709450 0.000000 
#    z 0.002340 0.000000 1.737370 
# 
# From -- ./inp_files/22628.got.cif
#   From: 2010.06.25/outbox.cif.g09.slc.cpg/sg9_12_cif.got.tgz:22628.got - 2010.06.27 21:40:51.
