data_PCOD8054153
_publ_section_title
;
Structure prediction by ZEFSAII (Michael W. Deem and Ramdas Pophale) SiO2 
 PCOD8054153
Probable space group: C M
;
_chemical_formula_sum "Si O2"
_cell_formula_units_Z 16
_cell_length_a 18.000000
_cell_length_b 9.000000
_cell_length_c 30.000000
_cell_angle_alpha 90.000000
_cell_angle_beta 160.000000
_cell_angle_gamma 90.000000
_cell_volume 1662.217897
_symmetry_space_group_name_H-M "C M"
_symmetry_group_IT_number 8
_symmetry_cell_setting 'monoclinic'
loop_
_space_group_symop_operation_xyz
x,y,z
x,-y,z
1/2+x,1/2+y,z
1/2+x,1/2-y,z
loop_
_atom_site_type_symbol
_atom_site_label
_atom_site_fract_x
_atom_site_fract_y
_atom_site_fract_z
Si Si1 0.215020 0.675320 0.250000
Si Si2 0.207184 0.824643 0.510977
Si Si3 0.081168 0.175207 0.766705
Si Si4 0.156742 0.824623 0.311182
Si Si5 0.444130 0.327028 0.021471
Si Si6 0.735213 0.331785 0.098833
Si Si7 0.926942 0.328805 0.544706
Si Si8 0.308965 0.669954 0.816154
O O1 0.177598 0.500000 0.226463
O O2 0.456864 0.721065 0.372092
O O3 0.176837 0.730110 0.278234
O O4 0.044667 0.754601 0.121970
O O5 0.338220 0.742772 0.624827
O O6 0.296039 0.764826 0.513492
O O7 0.241840 0.000000 0.536237
O O8 0.209680 0.212090 0.794075
O O9 0.066590 0.000000 0.766323
O O10 0.211228 0.249642 0.881104
O O11 0.342819 0.762971 0.450331
O O12 0.924101 0.788987 0.202144
O O13 0.174657 0.000000 0.311311
O O14 0.404703 0.500000 0.008097
O O15 0.604144 0.300477 0.070133
O O16 0.828483 0.500000 0.151010
O O17 0.569775 0.310343 0.963079
O O18 0.865131 0.500000 0.506734
O O19 0.187805 0.303832 0.699993
O O20 0.254825 0.500000 0.801877
#
# Coordination Sequence:
#
# PCOD8054153 Si02
#       8
#     4   4   4   4   4   4   4   4
#     4  11  23  38  55  76 106 144 185 227 269 317
#     4   9  18  35  57  78 104 139 177 220 269 318
#     4  10  18  29  51  83 112 136 170 217 265 319
#     4  11  22  35  52  75 107 144 179 219 267 319
#     4  10  20  36  58  82 109 140 176 222 273 321
#     4   9  18  33  55  80 105 135 171 215 266 319
#     4   8  15  31  55  78  98 129 173 213 257 313
#     4   8  15  31  53  76 103 135 173 219 268 312
#
# _framework density 9.6256939999999993
#
# number of rings (size 3 to 8) (size 9 to 14) (size 15 to 20)
#    0.000    2.500    0.000    4.500    0.000    4.500 
#    0.000    7.500    0.000    4.500    0.000    0.000 
#    0.000    0.000    0.000    0.000    0.000    0.000 
#
# Total GULP energy -198297.397276 kJ/mol
# GULP energy per Si atom -12393.587330 kJ/mol
# Density = 0.960378 g / cm^3
# Si number density = 9.625694 Si / 1000 Ang^3
#
#
#
# Elastic Constant Matrix: (Units=GPa)
#
#
# Indices 1 2 3 4 5 6 
#
# 1 58.1860 21.6389 38.6614 -0.0003 -27.9678 0.0010
# 2 21.6389 90.1616 42.2311 0.0031 -16.0545 0.0015
# 3 38.6614 42.2311 132.6353 0.0360 -48.8415 -0.0030
# 4 -0.0003 0.0031 0.0360 30.3723 -0.0025 0.2874
# 5 -27.9678 -16.0545 -48.8415 -0.0025 28.9583 -0.0005
# 6 0.0010 0.0015 -0.0030 0.2874 -0.0005 22.2671
#
#
#
# Elastic Compliance Matrix: (Units=1/GPa)
#
#
# Indices 1 2 3 4 5 6 
#
# 1 0.034786 -0.003946 0.007079 -0.000004 0.043349 0.000001
# 2 -0.003946 0.013487 -0.004734 0.000004 -0.004319 -0.000002
# 3 0.007079 -0.004734 0.022523 -0.000023 0.042201 0.000004
# 4 -0.000004 0.000004 -0.000023 0.032929 -0.000037 -0.000425
# 5 0.043349 -0.004319 0.042201 -0.000037 0.145180 0.000008
# 6 0.000001 -0.000002 0.000004 -0.000425 0.000008 0.044915
#
#
# Mechanical properties :
#
#
# Convention : Reuss Voigt Hill
#
# Bulk Modulus (GPa) = 14.79414 54.00508 34.39961
# Shear Modulus (GPa) = 15.64685 28.21631 21.93158
#
# Velocity S-wave (km/s) = 2.85400 3.83257 3.37890
# Velocity P-wave (km/s) = 4.30834 6.90639 5.75587
#
# Compressibility (1/GPa) = 0.06759432
#
# Stress axis : x y z
#
# Youngs Moduli (GPa) = 28.74732 74.14696 44.39832
#
# Poissons Ratio (x) = 0.29257 -0.31432
# Poissons Ratio (y) = 0.11343 0.21020
# Poissons Ratio (z) = -0.20352 0.35105
#
# Static dielectric constant tensor:
#      x y z
#    x 3.190660 0.000000 -0.260150 
#    y 0.000000 3.381190 -0.000010 
#    z -0.260150 -0.000010 4.035070 
# 
# 
# High freq. dielectric constant tensor:
#      x y z
#    x 1.707570 0.000000 -0.021110 
#    y 0.000000 1.741100 0.000000 
#    z -0.021110 0.000000 1.774520 
# 
# From -- ./inp_files/27749.got.cif
#   From: 2010.03.12/outbox.ucp.g09.slc.cvg/sg8_14_cif.got.tgz:27749.got - 2010.06.21 13:25:46.
