data_PCOD8054283
_publ_section_title
;
Structure prediction by ZEFSAII (Michael W. Deem and Ramdas Pophale) SiO2 
 PCOD8054283
Probable space group: C C
;
_chemical_formula_sum "Si O2"
_cell_formula_units_Z 32
_cell_length_a 12.086569
_cell_length_b 15.411647
_cell_length_c 8.646471
_cell_angle_alpha 90.000000
_cell_angle_beta 72.623330
_cell_angle_gamma 90.000000
_cell_volume 1537.107081
_symmetry_space_group_name_H-M "C C"
_symmetry_group_IT_number 9
_symmetry_cell_setting 'monoclinic'
loop_
_space_group_symop_operation_xyz
x,y,z
x,-y,1/2+z
1/2+x,1/2+y,z
1/2+x,1/2-y,1/2+z
loop_
_atom_site_type_symbol
_atom_site_label
_atom_site_fract_x
_atom_site_fract_y
_atom_site_fract_z
Si Si1 0.549840 0.962103 0.581000
Si Si2 0.867347 0.083888 0.548376
Si Si3 0.402154 0.822649 0.529521
Si Si4 0.198623 0.266466 0.018716
Si Si5 0.815463 0.278888 0.892815
Si Si6 0.529923 0.125562 0.416182
Si Si7 0.298871 0.586050 0.913322
Si Si8 0.080066 0.194290 0.363199
O O1 0.430434 0.922473 0.556688
O O2 0.564346 0.932223 0.752872
O O3 0.663455 0.933577 0.438376
O O4 0.533474 0.065557 0.568658
O O5 0.757246 0.143565 0.550631
O O6 0.877011 0.080104 0.728083
O O7 0.986043 0.117491 0.418395
O O8 0.848527 0.984106 0.510702
O O9 0.304332 0.802559 0.438256
O O10 0.360602 0.768660 0.697841
O O11 0.526448 0.785377 0.435403
O O12 0.119527 0.212331 0.171351
O O13 0.119909 0.293837 0.903683
O O14 0.809741 0.184088 0.974794
O O15 0.688908 0.324018 0.932076
O O16 0.900115 0.338676 0.957176
#
# Coordination Sequence:
#
# PCOD8054283 Si02
#       8
#     4   4   4   4   4   4   4   4
#     4  11  22  39  63  90 132 166 212 272 317 376
#     4  11  23  36  65  98 124 165 215 263 325 366
#     4   9  18  36  65  83 117 169 209 250 325 371
#     4  10  20  38  61  93 123 159 219 256 312 387
#     4  10  21  40  61  87 125 169 211 255 321 390
#     4  11  25  39  61  99 125 164 219 268 325 380
#     4  12  21  39  62  96 125 163 215 264 317 380
#     4  10  18  39  64  84 125 173 202 258 324 382
#
# _framework density 20.818327
#
# number of rings (size 3 to 8) (size 9 to 14) (size 15 to 20)
#    0.000    1.500    6.250    0.750    1.750    1.000 
#    2.250    5.000    0.000    0.000    0.000    0.000 
#    0.000    0.000    0.000    0.000    0.000    0.000 
#
# Total GULP energy -198212.154118 kJ/mol
# GULP energy per Si atom -12388.259632 kJ/mol
# Density = 2.077094 g / cm^3
# Si number density = 20.818327 Si / 1000 Ang^3
#
#
#
# Elastic Constant Matrix: (Units=GPa)
#
#
# Indices 1 2 3 4 5 6 
#
# 1 147.4499 51.5519 38.4026 0.0000 -2.8350 0.0000
# 2 51.5519 99.0771 22.7774 0.0000 -0.7077 0.0000
# 3 38.4026 22.7774 51.9811 0.0000 -4.6595 0.0000
# 4 0.0000 0.0000 0.0000 29.9685 0.0000 0.8800
# 5 -2.8350 -0.7077 -4.6595 0.0000 26.8640 0.0000
# 6 0.0000 0.0000 0.0000 0.8800 0.0000 42.0497
#
#
#
# Elastic Compliance Matrix: (Units=1/GPa)
#
#
# Indices 1 2 3 4 5 6 
#
# 1 0.009475 -0.003692 -0.005385 0.000000 -0.000031 0.000000
# 2 -0.003692 0.012671 -0.002874 0.000000 -0.000554 0.000000
# 3 -0.005385 -0.002874 0.024803 0.000000 0.003658 0.000000
# 4 0.000000 0.000000 0.000000 0.033389 0.000000 -0.000699
# 5 -0.000031 -0.000554 0.003658 0.000000 0.037841 0.000000
# 6 0.000000 0.000000 0.000000 -0.000699 0.000000 0.023796
#
#
# Mechanical properties :
#
#
# Convention : Reuss Voigt Hill
#
# Bulk Modulus (GPa) = 43.39001 58.21909 50.80455
# Shear Modulus (GPa) = 28.80857 32.16151 30.48504
#
# Velocity S-wave (km/s) = 3.72399 3.93474 3.83082
# Velocity P-wave (km/s) = 6.27521 6.97631 6.63503
#
# Compressibility (1/GPa) = 0.02304678
#
# Stress axis : x y z
#
# Youngs Moduli (GPa) = 105.54499 78.91979 40.31732
#
# Poissons Ratio (x) = 0.29139 0.21709
# Poissons Ratio (y) = 0.38969 0.11588
# Poissons Ratio (z) = 0.56832 0.22684
#
# Static dielectric constant tensor:
#      x y z
#    x 3.945070 0.000000 -0.151100 
#    y 0.000000 3.705460 0.000000 
#    z -0.151100 0.000000 3.534430 
# 
# 
# High freq. dielectric constant tensor:
#      x y z
#    x 1.816290 0.000000 -0.014860 
#    y 0.000000 1.806820 0.000000 
#    z -0.014860 0.000000 1.790150 
# 
# From -- ./inp_files/7877.got.cif
#   From: 2010.06.25/outbox.cif.g09.slc.cpg/sg9_4_cif.got.tgz:7877.got - 2010.06.27 21:40:51.
