data_PCOD8054126
_publ_section_title
;
Structure prediction by ZEFSAII (Michael W. Deem and Ramdas Pophale) SiO2 
 PCOD8054126
Probable space group: C M
;
_chemical_formula_sum "Si O2"
_cell_formula_units_Z 28
_cell_length_a 10.205743
_cell_length_b 14.489457
_cell_length_c 8.683818
_cell_angle_alpha 90.000000
_cell_angle_beta 71.401119
_cell_angle_gamma 90.000000
_cell_volume 1217.061528
_symmetry_space_group_name_H-M "C M"
_symmetry_group_IT_number 8
_symmetry_cell_setting 'monoclinic'
loop_
_space_group_symop_operation_xyz
x,y,z
x,-y,z
1/2+x,1/2+y,z
1/2+x,1/2-y,z
loop_
_atom_site_type_symbol
_atom_site_label
_atom_site_fract_x
_atom_site_fract_y
_atom_site_fract_z
Si Si1 0.432870 0.642790 0.569560
Si Si2 0.648890 0.101131 0.782789
Si Si3 0.653663 0.397008 0.248961
Si Si4 0.095279 0.252410 0.040851
Si Si5 0.592729 0.602213 0.814097
Si Si6 0.932032 0.399674 0.297588
Si Si7 0.407299 0.147563 0.641232
O O1 0.286255 0.590653 0.628616
O O2 0.503654 0.620108 0.380080
O O3 0.535787 0.610590 0.664058
O O4 0.394323 0.748342 0.594826
O O5 0.517565 0.134942 0.735333
O O6 0.614019 0.000000 0.864135
O O7 0.682485 0.173833 0.907647
O O8 0.656578 0.500000 0.172518
O O9 0.687272 0.317003 0.110904
O O10 0.767681 0.389023 0.338938
O O11 0.996422 0.312780 0.185214
O O12 0.020777 0.180416 0.949886
O O13 0.555637 0.500000 0.890472
O O14 0.758769 0.612853 0.753823
O O15 0.981358 0.500000 0.212432
O O16 0.962320 0.403900 0.468154
#
# Coordination Sequence:
#
# PCOD8054126 Si02
#       7
#     4   4   4   4   4   4   4
#     4  12  23  47  71 101 141 180 234 296 334 401
#     4  12  27  45  70 104 142 182 227 285 354 408
#     4  11  25  46  72 101 135 183 235 285 340 407
#     4  12  26  42  68 100 145 172 222 282 354 409
#     4  12  25  45  72 100 136 186 240 284 336 409
#     4  11  25  46  72 101 135 183 235 284 340 410
#     4  12  23  47  73 101 138 184 239 286 332 412
#
# _framework density 23.006231
#
# number of rings (size 3 to 8) (size 9 to 14) (size 15 to 20)
#    0.000    0.286    5.714    3.429    4.000    0.000 
#    0.000    0.000    0.000    0.000    0.000    0.000 
#    0.000    0.000    0.000    0.000    0.000    0.000 
#
# Total GULP energy -173506.636681 kJ/mol
# GULP energy per Si atom -12393.331191 kJ/mol
# Density = 2.295387 g / cm^3
# Si number density = 23.006231 Si / 1000 Ang^3
#
#
#
# Elastic Constant Matrix: (Units=GPa)
#
#
# Indices 1 2 3 4 5 6 
#
# 1 87.7831 1.9385 20.0357 0.0000 4.9904 0.0000
# 2 1.9385 183.8266 46.0450 0.0000 6.4221 0.0000
# 3 20.0357 46.0450 93.3071 0.0000 4.8399 0.0000
# 4 0.0000 0.0000 0.0000 -17.2055 0.0000 -25.4952
# 5 4.9904 6.4221 4.8399 0.0000 27.6254 0.0000
# 6 0.0000 0.0000 0.0000 -25.4952 0.0000 6.9335
#
#
#
# Elastic Compliance Matrix: (Units=1/GPa)
#
#
# Indices 1 2 3 4 5 6 
#
# 1 0.012128 0.000645 -0.002826 0.000000 -0.001845 0.000000
# 2 0.000645 0.006264 -0.003177 0.000000 -0.001016 0.000000
# 3 -0.002826 -0.003177 0.012945 0.000000 -0.001019 0.000000
# 4 0.000000 0.000000 0.000000 -0.009013 0.000000 -0.033141
# 5 -0.001845 -0.001016 -0.001019 0.000000 0.036947 0.000000
# 6 0.000000 0.000000 0.000000 -0.033141 0.000000 0.022365
#
#
# Mechanical properties :
#
#
# Convention : Reuss Voigt Hill
#
# Bulk Modulus (GPa) = 48.49931 55.66172 52.08052
# Shear Modulus (GPa) = 50.38966 23.26385 36.82676
#
# Velocity S-wave (km/s) = 4.68510 3.18338 4.00525
# Velocity P-wave (km/s) = 7.09884 6.14480 6.63898
#
# Compressibility (1/GPa) = 0.02061885
#
# Stress axis : x y z
#
# Youngs Moduli (GPa) = 82.45719 159.63225 77.25069
#
# Poissons Ratio (x) = -0.10289 0.21835
# Poissons Ratio (y) = -0.05315 0.24543
# Poissons Ratio (z) = 0.23306 0.50716
#
# Static dielectric constant tensor:
#      x y z
#    x 3.832120 0.000000 0.076300 
#    y 0.000000 4.642820 0.000000 
#    z 0.076300 0.000000 4.123920 
# 
# 
# High freq. dielectric constant tensor:
#      x y z
#    x 1.882620 0.000000 0.005380 
#    y 0.000000 1.944320 0.000000 
#    z 0.005380 0.000000 1.903090 
# 
# From -- ./inp_files/10607.got.cif
#   From: 2010.03.12/outbox.cif.g09.slc.cpg/sg8_6_cif.got.tgz:10607.got - 2010.03.31 10:45:26.
