data_PCOD8054110
_publ_section_title
;
Structure prediction by ZEFSAII (Michael W. Deem and Ramdas Pophale) SiO2 
 PCOD8054110
Probable space group: C M
;
_chemical_formula_sum "Si O2"
_cell_formula_units_Z 32
_cell_length_a 11.452501
_cell_length_b 29.934694
_cell_length_c 7.853890
_cell_angle_alpha 90.000000
_cell_angle_beta 35.031249
_cell_angle_gamma 90.000000
_cell_volume 1545.572411
_symmetry_space_group_name_H-M "C M"
_symmetry_group_IT_number 8
_symmetry_cell_setting 'monoclinic'
loop_
_space_group_symop_operation_xyz
x,y,z
x,-y,z
1/2+x,1/2+y,z
1/2+x,1/2-y,z
loop_
_atom_site_type_symbol
_atom_site_label
_atom_site_fract_x
_atom_site_fract_y
_atom_site_fract_z
Si Si1 0.230270 0.794809 0.647880
Si Si2 0.493322 0.158195 0.597087
Si Si3 0.364846 0.296456 0.322102
Si Si4 0.039195 0.449401 0.083762
Si Si5 0.251596 0.582699 0.155406
Si Si6 0.096875 0.873145 0.228381
Si Si7 0.662995 0.383752 0.536106
Si Si8 0.823643 0.050757 0.432051
O O1 0.379005 0.803782 0.628091
O O2 0.315910 0.751040 0.459101
O O3 0.237059 0.835064 0.505434
O O4 0.000676 0.788814 0.991197
O O5 0.652997 0.180373 0.532451
O O6 0.605157 0.125528 0.332100
O O7 0.334089 0.130467 0.900603
O O8 0.479318 0.327795 0.320520
O O9 0.959432 0.500000 0.165197
O O10 0.190234 0.446475 0.065344
O O11 0.846953 0.417877 0.333275
O O12 0.156687 0.435734 0.771845
O O13 0.225409 0.555117 0.361882
O O14 0.484971 0.598582 0.870425
O O15 0.070229 0.881174 0.459269
O O16 0.012144 0.915529 0.225461
O O17 0.899539 0.000000 0.370185
#
# Coordination Sequence:
#
# PCOD8054110 Si02
#       8
#     4   4   4   4   4   4   4   4
#     4  11  26  42  65 102 129 178 228 274 342 402
#     4  11  23  45  69  93 138 175 222 279 336 404
#     4  11  26  44  67  97 137 174 226 281 333 408
#     4  11  26  45  68 103 137 180 229 280 343 405
#     4  12  22  46  72  95 136 180 227 277 338 400
#     4  11  25  44  68 103 134 181 222 275 346 402
#     4  12  25  43  70 101 136 178 226 280 337 407
#     4  11  24  45  70 100 139 178 227 284 340 402
#
# _framework density 20.704302999999999
#
# number of rings (size 3 to 8) (size 9 to 14) (size 15 to 20)
#    0.000    0.750    5.000    1.875    3.500    3.500 
#    0.000    0.625    0.000    0.000    0.000    0.000 
#    0.000    0.000    0.000    0.000    0.000    0.000 
#
# Total GULP energy -198494.658790 kJ/mol
# GULP energy per Si atom -12405.916174 kJ/mol
# Density = 2.065718 g / cm^3
# Si number density = 20.704303 Si / 1000 Ang^3
#
#
#
# Elastic Constant Matrix: (Units=GPa)
#
#
# Indices 1 2 3 4 5 6 
#
# 1 113.4077 32.9526 43.7676 0.0000 8.9166 0.0000
# 2 32.9526 132.1191 64.2712 0.0000 -4.2885 0.0000
# 3 43.7676 64.2712 134.9811 0.0000 -4.2839 0.0000
# 4 0.0000 0.0000 0.0000 31.7399 0.0000 5.4217
# 5 8.9166 -4.2885 -4.2839 0.0000 35.8910 0.0000
# 6 0.0000 0.0000 0.0000 5.4217 0.0000 22.3447
#
#
#
# Elastic Compliance Matrix: (Units=1/GPa)
#
#
# Indices 1 2 3 4 5 6 
#
# 1 0.010566 -0.001330 -0.002892 0.000000 -0.003129 0.000000
# 2 -0.001330 0.010032 -0.004313 0.000000 0.001014 0.000000
# 3 -0.002892 -0.004313 0.010446 0.000000 0.001450 0.000000
# 4 0.000000 0.000000 0.000000 0.032868 0.000000 -0.007975
# 5 -0.003129 0.001014 0.001450 0.000000 0.028934 0.000000
# 6 0.000000 0.000000 0.000000 -0.007975 0.000000 0.046688
#
#
# Mechanical properties :
#
#
# Convention : Reuss Voigt Hill
#
# Bulk Modulus (GPa) = 71.56468 73.61008 72.58738
# Shear Modulus (GPa) = 31.00515 33.96287 32.48401
#
# Velocity S-wave (km/s) = 3.87398 4.05455 3.96529
# Velocity P-wave (km/s) = 7.39260 7.58613 7.48999
#
# Compressibility (1/GPa) = 0.01397337
#
# Stress axis : x y z
#
# Youngs Moduli (GPa) = 94.63942 99.68300 95.73082
#
# Poissons Ratio (x) = 0.13259 0.27687
# Poissons Ratio (y) = 0.12588 0.41290
# Poissons Ratio (z) = 0.27371 0.42995
#
# Static dielectric constant tensor:
#      x y z
#    x 3.775520 0.000000 0.063790 
#    y 0.000000 3.850600 0.000000 
#    z 0.063790 0.000000 3.867800 
# 
# 
# High freq. dielectric constant tensor:
#      x y z
#    x 1.818430 0.000000 0.002330 
#    y 0.000000 1.814860 0.000000 
#    z 0.002330 0.000000 1.819390 
# 
# From -- ./inp_files/11707.got.cif
#   From: 2010.03.12/outbox.cif.g09.slc.cpg/sg8_6_cif.got.tgz:11707.got - 2010.03.31 10:45:26.
