data_PCOD8054135
_publ_section_title
;
Structure prediction by ZEFSAII (Michael W. Deem and Ramdas Pophale) SiO2 
 PCOD8054135
Probable space group: C M
;
_chemical_formula_sum "Si O2"
_cell_formula_units_Z 24
_cell_length_a 16.072872
_cell_length_b 14.202768
_cell_length_c 9.165725
_cell_angle_alpha 90.000000
_cell_angle_beta 148.959078
_cell_angle_gamma 90.000000
_cell_volume 1078.918035
_symmetry_space_group_name_H-M "C M"
_symmetry_group_IT_number 8
_symmetry_cell_setting 'monoclinic'
loop_
_space_group_symop_operation_xyz
x,y,z
x,-y,z
1/2+x,1/2+y,z
1/2+x,1/2-y,z
loop_
_atom_site_type_symbol
_atom_site_label
_atom_site_fract_x
_atom_site_fract_y
_atom_site_fract_z
Si Si1 0.060530 0.000000 0.403800
Si Si2 0.922349 0.815374 0.695755
Si Si3 0.426521 0.000000 0.031139
Si Si4 0.162586 0.500000 0.623683
Si Si5 0.046996 0.301036 0.116195
Si Si6 0.968247 0.000000 0.927928
Si Si7 0.467881 0.682677 0.422447
Si Si8 0.773209 0.798878 0.884207
O O1 0.964843 0.086727 0.326676
O O2 0.236183 0.000000 0.737377
O O3 0.055252 0.000000 0.218354
O O4 0.024350 0.726717 0.911378
O O5 0.007895 0.907071 0.894764
O O6 0.942361 0.825581 0.554010
O O7 0.732879 0.797630 0.448730
O O8 0.489157 0.907354 0.045121
O O9 0.480837 0.000000 0.284500
O O10 0.274696 0.500000 0.648938
O O11 0.208043 0.406387 0.781001
O O12 0.933862 0.223159 0.028901
O O13 0.629836 0.733735 0.616213
O O14 0.314778 0.732557 0.113893
#
# Coordination Sequence:
#
# PCOD8054135 Si02
#       8
#     2   4   2   2   4   2   4   4
#     4  12  25  42  72 101 128 174 233 273 321 401
#     4  12  26  43  68 100 141 174 215 279 339 390
#     4  12  24  40  68 104 124 166 236 280 312 379
#     4  12  22  44  69  99 126 172 231 269 325 386
#     4  12  23  43  69  98 132 181 226 271 323 398
#     4  12  23  44  69  96 130 182 224 266 326 404
#     4  12  25  44  66 104 138 173 217 278 340 385
#     4  12  24  43  73  98 133 179 226 272 320 407
#
# _framework density 22.244508
#
# number of rings (size 3 to 8) (size 9 to 14) (size 15 to 20)
#    0.000    0.000    6.667    3.500    2.333    0.000 
#    0.000    2.500    0.000    0.000    0.000    0.000 
#    0.000    0.000    0.000    0.000    0.000    0.000 
#
# Total GULP energy -148684.676800 kJ/mol
# GULP energy per Si atom -12390.389733 kJ/mol
# Density = 2.219388 g / cm^3
# Si number density = 22.244508 Si / 1000 Ang^3
#
#
#
# Elastic Constant Matrix: (Units=GPa)
#
#
# Indices 1 2 3 4 5 6 
#
# 1 69.1974 28.0355 33.0528 0.0000 -22.0377 0.0000
# 2 28.0355 116.1251 58.1431 0.0000 -11.0795 0.0000
# 3 33.0528 58.1431 170.3856 0.0000 -19.5378 0.0000
# 4 0.0000 0.0000 0.0000 34.5257 0.0000 -11.7839
# 5 -22.0377 -11.0795 -19.5378 0.0000 44.6920 0.0000
# 6 0.0000 0.0000 0.0000 -11.7839 0.0000 19.1583
#
#
#
# Elastic Compliance Matrix: (Units=1/GPa)
#
#
# Indices 1 2 3 4 5 6 
#
# 1 0.018998 -0.002946 -0.001779 0.000000 0.007860 0.000000
# 2 -0.002946 0.010892 -0.003161 0.000000 -0.000134 0.000000
# 3 -0.001779 -0.003161 0.007477 0.000000 0.001608 0.000000
# 4 0.000000 0.000000 0.000000 0.036660 0.000000 0.022549
# 5 0.007860 -0.000134 0.001608 0.000000 0.026921 0.000000
# 6 0.000000 0.000000 0.000000 0.022549 0.000000 0.066066
#
#
# Mechanical properties :
#
#
# Convention : Reuss Voigt Hill
#
# Bulk Modulus (GPa) = 46.30473 66.01899 56.16186
# Shear Modulus (GPa) = 26.31798 35.44033 30.87915
#
# Velocity S-wave (km/s) = 3.44339 3.99584 3.72986
# Velocity P-wave (km/s) = 6.05563 7.14368 6.62204
#
# Compressibility (1/GPa) = 0.02159606
#
# Stress axis : x y z
#
# Youngs Moduli (GPa) = 52.63764 91.80645 133.74134
#
# Poissons Ratio (x) = 0.27046 0.23789
# Poissons Ratio (y) = 0.15507 0.42274
# Poissons Ratio (z) = 0.09363 0.29019
#
# Static dielectric constant tensor:
#      x y z
#    x 3.608290 0.000000 -0.041290 
#    y 0.000000 4.533700 0.000000 
#    z -0.041290 0.000000 4.545830 
# 
# 
# High freq. dielectric constant tensor:
#      x y z
#    x 1.836200 0.000000 -0.011350 
#    y 0.000000 1.887470 0.000000 
#    z -0.011350 0.000000 1.914750 
# 
# From -- ./inp_files/15152.got.cif
#   From: 2010.03.12/outbox.cif.g09.slc.cpg/sg8_8_cif.got.tgz:15152.got - 2010.03.31 10:45:26.
