data_PCOD8054146
_publ_section_title
;
Structure prediction by ZEFSAII (Michael W. Deem and Ramdas Pophale) SiO2 
 PCOD8054146
Probable space group: C M
;
_chemical_formula_sum "Si O2"
_cell_formula_units_Z 20
_cell_length_a 7.519571
_cell_length_b 21.540441
_cell_length_c 4.977990
_cell_angle_alpha 90.000000
_cell_angle_beta 90.139116
_cell_angle_gamma 90.000000
_cell_volume 806.306934
_symmetry_space_group_name_H-M "C M"
_symmetry_group_IT_number 8
_symmetry_cell_setting 'monoclinic'
loop_
_space_group_symop_operation_xyz
x,y,z
x,-y,z
1/2+x,1/2+y,z
1/2+x,1/2-y,z
loop_
_atom_site_type_symbol
_atom_site_label
_atom_site_fract_x
_atom_site_fract_y
_atom_site_fract_z
Si Si1 0.295020 0.000000 0.501350
Si Si2 0.416573 0.713733 0.298456
Si Si3 0.917244 0.299269 0.797589
Si Si4 0.731860 0.875097 0.945604
Si Si5 0.603916 0.624547 0.644940
Si Si6 0.037544 0.500000 0.001996
O O1 0.170120 0.059068 0.538303
O O2 0.370284 0.000000 0.200745
O O3 0.462550 0.000000 0.700614
O O4 0.362023 0.755557 0.550863
O O5 0.580812 0.669691 0.386797
O O6 0.469613 0.756657 0.049125
O O7 0.255181 0.668642 0.208061
O O8 0.748583 0.344474 0.846833
O O9 0.089184 0.342627 0.744646
O O10 0.917974 0.883879 0.795836
O O11 0.660843 0.940514 0.052059
#
# Coordination Sequence:
#
# PCOD8054146 Si02
#       6
#     2   4   4   4   4   2
#     4  12  31  55  82 109 156 210 262 330 393 452
#     4  12  28  47  80 121 158 208 250 322 386 472
#     4  12  28  49  78 117 170 198 252 316 400 458
#     4  12  29  51  84 116 157 207 266 319 386 468
#     4  12  29  51  84 116 157 207 266 319 386 468
#     4  12  31  55  82 109 156 210 262 330 393 452
#
# _framework density 24.804452000000001
#
# number of rings (size 3 to 8) (size 9 to 14) (size 15 to 20)
#    0.000    0.000    4.000    3.000   14.000    0.800 
#    0.000    0.000    0.000    0.000    0.000    0.000 
#    0.000    0.000    0.000    0.000    0.000    0.000 
#
# Total GULP energy -124011.156483 kJ/mol
# GULP energy per Si atom -12401.115648 kJ/mol
# Density = 2.474800 g / cm^3
# Si number density = 24.804452 Si / 1000 Ang^3
#
#
#
# Elastic Constant Matrix: (Units=GPa)
#
#
# Indices 1 2 3 4 5 6 
#
# 1 172.9757 92.1222 42.1912 0.0000 6.0018 0.0000
# 2 92.1222 208.1641 55.2556 0.0000 -0.9328 0.0000
# 3 42.1912 55.2556 113.5406 0.0000 -7.0263 0.0000
# 4 0.0000 0.0000 0.0000 -355.2666 0.0000 213.3874
# 5 6.0018 -0.9328 -7.0263 0.0000 40.5533 0.0000
# 6 0.0000 0.0000 0.0000 213.3874 0.0000 -34.0365
#
#
#
# Elastic Compliance Matrix: (Units=1/GPa)
#
#
# Indices 1 2 3 4 5 6 
#
# 1 0.007839 -0.003075 -0.001509 0.000000 -0.001492 0.000000
# 2 -0.003075 0.006728 -0.002116 0.000000 0.000243 0.000000
# 3 -0.001509 -0.002116 0.010522 0.000000 0.001998 0.000000
# 4 0.000000 0.000000 0.000000 0.001018 0.000000 0.006381
# 5 -0.001492 0.000243 0.001998 0.000000 0.025231 0.000000
# 6 0.000000 0.000000 0.000000 0.006381 0.000000 0.010623
#
#
# Mechanical properties :
#
#
# Convention : Reuss Voigt Hill
#
# Bulk Modulus (GPa) = 85.56007 97.09093 91.32550
# Shear Modulus (GPa) = 63.08631 -49.40920 6.83856
#
# Velocity S-wave (km/s) = 5.04863 -4.46797 1.66222
# Velocity P-wave (km/s) = 8.27971 3.55113 6.37041
#
# Compressibility (1/GPa) = 0.01168770
#
# Stress axis : x y z
#
# Youngs Moduli (GPa) = 127.57246 148.63977 95.04323
#
# Poissons Ratio (x) = 0.45710 0.14338
# Poissons Ratio (y) = 0.39231 0.20114
# Poissons Ratio (z) = 0.19245 0.31457
#
# Static dielectric constant tensor:
#      x y z
#    x 4.342310 0.000000 0.323550 
#    y 0.000000 4.902040 0.000000 
#    z 0.323550 0.000000 5.126380 
# 
# 
# High freq. dielectric constant tensor:
#      x y z
#    x 1.994940 0.000000 0.017710 
#    y 0.000000 2.008340 0.000000 
#    z 0.017710 0.000000 1.985590 
# 
# From -- ./inp_files/1326.got.cif
#   From: 2010.03.12/outbox.cif.g09.slc.cpg/sg8_1_cif.got.tgz:1326.got - 2010.03.31 10:45:26.
