data_PCOD8054012
_publ_section_title
;
Structure prediction by ZEFSAII (Michael W. Deem and Ramdas Pophale) SiO2 
 PCOD8054012
Probable space group: C M
;
_chemical_formula_sum "Si O2"
_cell_formula_units_Z 32
_cell_length_a 24.760690
_cell_length_b 8.402039
_cell_length_c 16.353357
_cell_angle_alpha 90.000000
_cell_angle_beta 26.478377
_cell_angle_gamma 90.000000
_cell_volume 1516.885864
_symmetry_space_group_name_H-M "C M"
_symmetry_group_IT_number 8
_symmetry_cell_setting 'monoclinic'
loop_
_space_group_symop_operation_xyz
x,y,z
x,-y,z
1/2+x,1/2+y,z
1/2+x,1/2-y,z
loop_
_atom_site_type_symbol
_atom_site_label
_atom_site_fract_x
_atom_site_fract_y
_atom_site_fract_z
Si Si1 0.817230 0.812897 0.178590
Si Si2 0.725335 0.681421 0.835730
Si Si3 0.006021 0.685065 0.044596
Si Si4 0.416311 0.182623 0.448851
Si Si5 0.137526 0.814467 0.554233
Si Si6 0.823889 0.816529 0.415667
Si Si7 0.376712 0.182859 0.925821
Si Si8 0.189156 0.316323 0.058210
O O1 0.700568 0.758942 0.388502
O O2 0.942319 0.764217 0.052728
O O3 0.813004 0.000000 0.172001
O O4 0.811854 0.731551 0.097660
O O5 0.701559 0.500000 0.895398
O O6 0.859583 0.701997 0.616026
O O7 0.632854 0.728728 0.889017
O O8 0.710944 0.796358 0.932193
O O9 0.027611 0.500000 0.997727
O O10 0.922856 0.707236 0.236944
O O11 0.336886 0.288565 0.494375
O O12 0.554453 0.242151 0.264071
O O13 0.410592 0.000000 0.427214
O O14 0.191017 0.733251 0.563843
O O15 0.994507 0.787705 0.746870
O O16 0.167167 0.000000 0.515462
O O17 0.847380 0.000000 0.361607
O O18 0.416126 0.000000 0.875382
O O19 0.282397 0.207781 0.980678
O O20 0.208216 0.500000 0.056183
#
# Coordination Sequence:
#
# PCOD8054012 Si02
#       8
#     4   4   4   4   4   4   4   4
#     4  11  23  42  66  96 131 170 215 267 327 387
#     4  11  23  40  63  94 127 168 216 264 322 383
#     4  11  21  37  61  92 132 171 210 262 324 383
#     4  10  23  41  63  91 128 168 211 261 322 383
#     4  11  23  42  66  95 131 170 215 267 326 386
#     4  11  21  36  62  94 131 168 211 262 322 385
#     4  12  26  45  68  95 129 173 222 269 322 387
#     4  11  24  45  67  91 127 172 218 268 325 382
#
# _framework density 21.095851
#
# number of rings (size 3 to 8) (size 9 to 14) (size 15 to 20)
#    0.000    1.000    1.250    7.875    1.750    2.500 
#    0.000    3.750    0.000    0.000    0.000    0.000 
#    0.000    0.000    0.000    0.000    0.000    0.000 
#
# Total GULP energy -198504.726158 kJ/mol
# GULP energy per Si atom -12406.545385 kJ/mol
# Density = 2.104784 g / cm^3
# Si number density = 21.095851 Si / 1000 Ang^3
#
#
#
# Elastic Constant Matrix: (Units=GPa)
#
#
# Indices 1 2 3 4 5 6 
#
# 1 88.8845 16.9033 43.9116 0.0002 -13.8010 0.0000
# 2 16.9033 88.8297 14.0747 -0.0016 -0.2618 0.0007
# 3 43.9116 14.0747 107.6776 -0.0004 -10.0752 0.0003
# 4 0.0002 -0.0016 -0.0004 28.8001 0.0007 1.2659
# 5 -13.8010 -0.2618 -10.0752 0.0007 24.2509 -0.0003
# 6 0.0000 0.0007 0.0003 1.2659 -0.0003 36.0638
#
#
#
# Elastic Compliance Matrix: (Units=1/GPa)
#
#
# Indices 1 2 3 4 5 6 
#
# 1 0.015291 -0.002041 -0.005365 0.000000 0.006451 0.000000
# 2 -0.002041 0.011774 -0.000836 0.000001 -0.001382 0.000000
# 3 -0.005365 -0.000836 0.011755 0.000000 0.001821 0.000000
# 4 0.000000 0.000001 0.000000 0.034776 -0.000001 -0.001221
# 5 0.006451 -0.001382 0.001821 -0.000001 0.045648 0.000000
# 6 0.000000 0.000000 0.000000 -0.001221 0.000000 0.027771
#
#
# Mechanical properties :
#
#
# Convention : Reuss Voigt Hill
#
# Bulk Modulus (GPa) = 44.77154 48.35233 46.56194
# Shear Modulus (GPa) = 29.24921 31.85645 30.55283
#
# Velocity S-wave (km/s) = 3.72760 3.89019 3.80976
# Velocity P-wave (km/s) = 6.30838 6.56873 6.43987
#
# Compressibility (1/GPa) = 0.02233562
#
# Stress axis : x y z
#
# Youngs Moduli (GPa) = 65.39846 84.93148 85.07217
#
# Poissons Ratio (x) = 0.17331 0.45645
# Poissons Ratio (y) = 0.13345 0.07113
# Poissons Ratio (z) = 0.35089 0.07101
#
# Static dielectric constant tensor:
#      x y z
#    x 3.734650 0.000000 -0.066220 
#    y 0.000000 3.783980 0.000000 
#    z -0.066220 0.000000 3.778760 
# 
# 
# High freq. dielectric constant tensor:
#      x y z
#    x 1.819480 0.000000 -0.000460 
#    y 0.000000 1.837770 0.000000 
#    z -0.000460 0.000000 1.828630 
# 
# From -- ./inp_files/28180.got.cif
#   From: 2010.03.12/outbox.cif.g09.slc.cpg/sg8_15_cif.got.tgz:28180.got - 2010.03.31 10:45:26.
