data_PCOD8054779
_publ_section_title
;
Structure prediction by ZEFSAII (Michael W. Deem and Ramdas Pophale) SiO2 
 PCOD8054779
Probable space group: C C
;
_chemical_formula_sum "Si O2"
_cell_formula_units_Z 32
_cell_length_a 22.204358
_cell_length_b 8.217040
_cell_length_c 9.373293
_cell_angle_alpha 90.000000
_cell_angle_beta 120.483815
_cell_angle_gamma 90.000000
_cell_volume 1473.799633
_symmetry_space_group_name_H-M "C C"
_symmetry_group_IT_number 9
_symmetry_cell_setting 'monoclinic'
loop_
_space_group_symop_operation_xyz
x,y,z
x,-y,1/2+z
1/2+x,1/2+y,z
1/2+x,1/2-y,1/2+z
loop_
_atom_site_type_symbol
_atom_site_label
_atom_site_fract_x
_atom_site_fract_y
_atom_site_fract_z
Si Si1 0.387590 0.539310 0.164230
Si Si2 0.797731 0.563215 0.341773
Si Si3 0.978957 0.979444 0.528079
Si Si4 0.178340 0.686819 0.374994
Si Si5 0.236041 0.346761 0.443325
Si Si6 0.172978 0.138328 0.590370
Si Si7 0.567443 0.369387 0.382685
Si Si8 0.331723 0.191712 0.107271
O O1 0.433614 0.582189 0.358520
O O2 0.424231 0.616780 0.066483
O O3 0.311789 0.612802 0.099622
O O4 0.380952 0.343724 0.127788
O O5 0.747109 0.705131 0.341767
O O6 0.747829 0.446394 0.191510
O O7 0.852464 0.635778 0.292677
O O8 0.841329 0.459495 0.510150
O O9 0.026668 0.858165 0.487017
O O10 0.018724 0.100935 0.685264
O O11 0.195623 0.506384 0.336083
O O12 0.147241 0.798126 0.211693
O O13 0.116590 0.708325 0.420266
O O14 0.250196 0.760774 0.519057
O O15 0.184321 0.293448 0.504995
O O16 0.115285 0.028425 0.448023
#
# Coordination Sequence:
#
# PCOD8054779 Si02
#       8
#     4   4   4   4   4   4   4   4
#     4  10  23  41  61  99 126 167 224 262 312 389
#     4  11  20  37  58  98 126 173 194 257 353 390
#     4  10  23  39  66  87 125 185 223 255 301 391
#     4  10  22  35  60  96 129 160 206 277 326 384
#     4  11  24  36  66  98 134 158 205 280 352 378
#     4  11  21  37  62  98 128 163 207 268 335 395
#     4  11  20  42  65  91 123 172 229 256 315 400
#     4  10  21  35  62  91 133 158 212 263 326 387
#
# _framework density 21.712585000000001
#
# number of rings (size 3 to 8) (size 9 to 14) (size 15 to 20)
#    0.000    1.500    3.750    1.500    8.750    0.000 
#    0.000    0.000    0.000   15.000    0.000    0.000 
#    0.000    0.000    0.000    0.000    0.000    0.000 
#
# Total GULP energy -198228.637714 kJ/mol
# GULP energy per Si atom -12389.289857 kJ/mol
# Density = 2.166317 g / cm^3
# Si number density = 21.712585 Si / 1000 Ang^3
#
#
#
# Elastic Constant Matrix: (Units=GPa)
#
#
# Indices 1 2 3 4 5 6 
#
# 1 96.5978 18.7170 35.9882 0.0000 -12.7031 0.0000
# 2 18.7170 88.3656 24.3663 0.0000 -5.1628 0.0000
# 3 35.9882 24.3663 104.7833 0.0000 -14.2120 0.0000
# 4 0.0000 0.0000 0.0000 17.5534 0.0000 -1.4037
# 5 -12.7031 -5.1628 -14.2120 0.0000 33.7637 0.0000
# 6 0.0000 0.0000 0.0000 -1.4037 0.0000 21.4122
#
#
#
# Elastic Compliance Matrix: (Units=1/GPa)
#
#
# Indices 1 2 3 4 5 6 
#
# 1 0.012326 -0.001476 -0.003491 0.000000 0.002942 0.000000
# 2 -0.001476 0.012285 -0.002302 0.000000 0.000354 0.000000
# 3 -0.003491 -0.002302 0.011721 0.000000 0.003268 0.000000
# 4 0.000000 0.000000 0.000000 0.057269 0.000000 0.003754
# 5 0.002942 0.000354 0.003268 0.000000 0.032154 0.000000
# 6 0.000000 0.000000 0.000000 0.003754 0.000000 0.046949
#
#
# Mechanical properties :
#
#
# Convention : Reuss Voigt Hill
#
# Bulk Modulus (GPa) = 45.88471 49.76552 47.82512
# Shear Modulus (GPa) = 25.70616 28.59087 27.14851
#
# Velocity S-wave (km/s) = 3.44456 3.63269 3.53988
# Velocity P-wave (km/s) = 6.08265 6.36908 6.22751
#
# Compressibility (1/GPa) = 0.02179375
#
# Stress axis : x y z
#
# Youngs Moduli (GPa) = 81.13094 81.40234 85.31699
#
# Poissons Ratio (x) = 0.12017 0.29784
# Poissons Ratio (y) = 0.11977 0.19637
# Poissons Ratio (z) = 0.28323 0.18736
#
# Static dielectric constant tensor:
#      x y z
#    x 4.025450 0.000000 -0.150530 
#    y 0.000000 3.812590 0.000000 
#    z -0.150530 0.000000 3.941630 
# 
# 
# High freq. dielectric constant tensor:
#      x y z
#    x 1.850410 0.000000 -0.017040 
#    y 0.000000 1.822230 0.000000 
#    z -0.017040 0.000000 1.857000 
# 
# From -- ./inp_files/12002.got.cif
#   From: 2010.06.25/outbox.cif.g09.slc.cpg/sg9_7_cif.got.tgz:12002.got - 2010.06.27 21:40:51.
