data_PCOD8054911
_publ_section_title
;
Structure prediction by ZEFSAII (Michael W. Deem and Ramdas Pophale) SiO2 
 PCOD8054911
Probable space group: C C
;
_chemical_formula_sum "Si O2"
_cell_formula_units_Z 24
_cell_length_a 13.677854
_cell_length_b 12.653125
_cell_length_c 11.622897
_cell_angle_alpha 90.000000
_cell_angle_beta 31.344169
_cell_angle_gamma 90.000000
_cell_volume 1046.361722
_symmetry_space_group_name_H-M "C C"
_symmetry_group_IT_number 9
_symmetry_cell_setting 'monoclinic'
loop_
_space_group_symop_operation_xyz
x,y,z
x,-y,1/2+z
1/2+x,1/2+y,z
1/2+x,1/2-y,1/2+z
loop_
_atom_site_type_symbol
_atom_site_label
_atom_site_fract_x
_atom_site_fract_y
_atom_site_fract_z
Si Si1 0.070590 0.371146 0.953010
Si Si2 0.552986 0.303513 0.665001
Si Si3 0.759272 0.495834 0.379356
Si Si4 0.342542 0.551569 0.738113
Si Si5 0.568351 0.914481 0.709939
Si Si6 0.212701 0.368254 0.137961
O O1 0.262061 0.434121 0.792443
O O2 0.072323 0.335112 0.815961
O O3 0.045203 0.266598 0.055932
O O4 0.900092 0.455477 0.138404
O O5 0.717176 0.389894 0.494479
O O6 0.583936 0.234571 0.749331
O O7 0.359551 0.365482 0.882803
O O8 0.567171 0.545283 0.525212
O O9 0.868198 0.585510 0.344482
O O10 0.307759 0.630819 0.666959
O O11 0.244022 0.606187 0.947989
O O12 0.584729 0.030421 0.748264
#
# Coordination Sequence:
#
# PCOD8054911 Si02
#       6
#     4   4   4   4   4   4
#     4  10  22  36  60  93 127 154 203 263 303 360
#     4  12  19  38  62  96 118 156 207 261 304 352
#     4  11  21  36  64  94 117 159 214 248 306 365
#     4  10  22  39  61  91 126 166 200 252 313 370
#     4  10  21  40  60  91 124 162 203 255 304 373
#     4  11  21  37  63  93 126 159 207 259 304 370
#
# _framework density 22.936620999999999
#
# number of rings (size 3 to 8) (size 9 to 14) (size 15 to 20)
#    0.000    1.333    6.667    0.000    2.333    0.000 
#    3.000    0.000    3.667    0.000    0.000    0.000 
#    0.000    0.000    0.000    0.000    0.000    0.000 
#
# Total GULP energy -148714.396321 kJ/mol
# GULP energy per Si atom -12392.866360 kJ/mol
# Density = 2.288442 g / cm^3
# Si number density = 22.936621 Si / 1000 Ang^3
#
#
#
# Elastic Constant Matrix: (Units=GPa)
#
#
# Indices 1 2 3 4 5 6 
#
# 1 144.7684 23.7728 57.0376 0.0000 4.1758 0.0000
# 2 23.7728 39.1688 9.0496 -0.0007 9.6206 0.0003
# 3 57.0376 9.0496 94.8133 -0.0003 -0.5420 0.0002
# 4 0.0000 -0.0007 -0.0003 25.7971 0.0006 9.5319
# 5 4.1758 9.6206 -0.5420 0.0006 51.9968 -0.0005
# 6 0.0000 0.0003 0.0002 9.5319 -0.0005 14.2199
#
#
#
# Elastic Compliance Matrix: (Units=1/GPa)
#
#
# Indices 1 2 3 4 5 6 
#
# 1 0.009834 -0.004712 -0.005466 0.000000 0.000025 0.000000
# 2 -0.004712 0.029651 -0.000025 0.000002 -0.005108 -0.000002
# 3 -0.005466 -0.000025 0.013841 0.000000 0.000588 0.000000
# 4 0.000000 0.000002 0.000000 0.051526 -0.000001 -0.034539
# 5 0.000025 -0.005108 0.000588 -0.000001 0.020181 0.000002
# 6 0.000000 -0.000002 0.000000 -0.034539 0.000002 0.093476
#
#
# Mechanical properties :
#
#
# Convention : Reuss Voigt Hill
#
# Bulk Modulus (GPa) = 30.37630 50.94118 40.65874
# Shear Modulus (GPa) = 20.00894 30.99545 25.50219
#
# Velocity S-wave (km/s) = 2.95677 3.68006 3.33807
# Velocity P-wave (km/s) = 4.99290 6.34940 5.71156
#
# Compressibility (1/GPa) = 0.03292040
#
# Stress axis : x y z
#
# Youngs Moduli (GPa) = 101.68531 33.72607 72.24859
#
# Poissons Ratio (x) = 0.15892 0.39492
# Poissons Ratio (y) = 0.47914 0.00178
# Poissons Ratio (z) = 0.55583 0.00083
#
# Static dielectric constant tensor:
#      x y z
#    x 4.347520 0.000000 0.086300 
#    y 0.000000 3.713790 0.000000 
#    z 0.086300 0.000000 4.326450 
# 
# 
# High freq. dielectric constant tensor:
#      x y z
#    x 1.911700 0.000000 -0.005260 
#    y 0.000000 1.861040 0.000000 
#    z -0.005260 0.000000 1.913410 
# 
# From -- ./inp_files/18363.got.cif
#   From: 2010.06.25/outbox.cif.g09.slc.cpg/sg9_10_cif.got.tgz:18363.got - 2010.06.27 21:40:51.
