data_PCOD8054599
_publ_section_title
;
Structure prediction by ZEFSAII (Michael W. Deem and Ramdas Pophale) SiO2 
 PCOD8054599
Probable space group: C C
;
_chemical_formula_sum "Si O2"
_cell_formula_units_Z 32
_cell_length_a 10.623919
_cell_length_b 13.462825
_cell_length_c 9.187299
_cell_angle_alpha 90.000000
_cell_angle_beta 80.205250
_cell_angle_gamma 90.000000
_cell_volume 1294.886529
_symmetry_space_group_name_H-M "C C"
_symmetry_group_IT_number 9
_symmetry_cell_setting 'monoclinic'
loop_
_space_group_symop_operation_xyz
x,y,z
x,-y,1/2+z
1/2+x,1/2+y,z
1/2+x,1/2-y,1/2+z
loop_
_atom_site_type_symbol
_atom_site_label
_atom_site_fract_x
_atom_site_fract_y
_atom_site_fract_z
Si Si1 0.617600 0.314386 0.693170
Si Si2 0.241549 0.686503 0.908610
Si Si3 0.516358 0.991574 0.788071
Si Si4 0.340558 0.951755 0.570437
Si Si5 0.685154 0.959427 0.997846
Si Si6 0.514420 0.661666 0.924302
Si Si7 0.970576 0.933330 0.960056
Si Si8 0.671121 0.355582 0.129797
O O1 0.665744 0.223409 0.780963
O O2 0.733520 0.368969 0.588956
O O3 0.533746 0.276073 0.571938
O O4 0.540770 0.395300 0.801703
O O5 0.393508 0.700528 0.855983
O O6 0.200266 0.575253 0.952681
O O7 0.210543 0.751553 0.055137
O O8 0.612829 0.054610 0.665862
O O9 0.422463 0.930904 0.700692
O O10 0.430284 0.061838 0.910588
O O11 0.598540 0.918056 0.879420
O O12 0.280798 0.062551 0.582364
O O13 0.820435 0.903440 0.982529
O O14 0.644287 0.662952 0.804957
O O15 0.483509 0.549756 0.976971
O O16 0.034828 0.886948 0.089010
#
# Coordination Sequence:
#
# PCOD8054599 Si02
#       8
#     4   4   4   4   4   4   4   4
#     4  11  22  42  71 101 129 178 223 293 335 402
#     4  10  26  40  60  97 148 165 218 288 350 390
#     4  10  23  38  64  90 135 181 218 274 334 420
#     4  11  20  39  66  98 123 172 242 273 331 410
#     4  10  24  42  63  98 133 182 222 276 343 410
#     4  11  21  39  67  97 128 174 220 281 334 402
#     4  10  20  38  69 100 126 161 242 278 327 400
#     4  11  22  40  68  99 128 179 223 291 334 402
#
# _framework density 24.712592000000001
#
# number of rings (size 3 to 8) (size 9 to 14) (size 15 to 20)
#    0.000    1.500    2.500    2.250    7.000    4.000 
#    0.000    3.750    0.000    0.000    0.000    0.000 
#    0.000    0.000    0.000    0.000    0.000    0.000 
#
# Total GULP energy -198346.376520 kJ/mol
# GULP energy per Si atom -12396.648533 kJ/mol
# Density = 2.465634 g / cm^3
# Si number density = 24.712592 Si / 1000 Ang^3
#
#
#
# Elastic Constant Matrix: (Units=GPa)
#
#
# Indices 1 2 3 4 5 6 
#
# 1 141.9188 19.2134 59.7625 0.0000 -7.0510 0.0000
# 2 19.2134 50.1016 16.1627 0.0000 5.2553 0.0000
# 3 59.7625 16.1627 170.7962 0.0000 1.9390 0.0000
# 4 0.0000 0.0000 0.0000 16.6561 0.0000 1.7415
# 5 -7.0510 5.2553 1.9390 0.0000 37.2506 0.0000
# 6 0.0000 0.0000 0.0000 1.7415 0.0000 19.7123
#
#
#
# Elastic Compliance Matrix: (Units=1/GPa)
#
#
# Indices 1 2 3 4 5 6 
#
# 1 0.008700 -0.002655 -0.002818 0.000000 0.002168 0.000000
# 2 -0.002655 0.021695 -0.001084 0.000000 -0.003507 0.000000
# 3 -0.002818 -0.001084 0.006952 0.000000 -0.000742 0.000000
# 4 0.000000 0.000000 0.000000 0.060598 0.000000 -0.005354
# 5 0.002168 -0.003507 -0.000742 0.000000 0.027789 0.000000
# 6 0.000000 0.000000 0.000000 -0.005354 0.000000 0.051203
#
#
# Mechanical properties :
#
#
# Convention : Reuss Voigt Hill
#
# Bulk Modulus (GPa) = 41.26496 61.45488 51.35992
# Shear Modulus (GPa) = 25.23629 32.56901 28.90265
#
# Velocity S-wave (km/s) = 3.19908 3.63424 3.42358
# Velocity P-wave (km/s) = 5.51177 6.52167 6.03787
#
# Compressibility (1/GPa) = 0.02423363
#
# Stress axis : x y z
#
# Youngs Moduli (GPa) = 114.94416 46.09325 143.84699
#
# Poissons Ratio (x) = 0.12237 0.40529
# Poissons Ratio (y) = 0.30515 0.15598
# Poissons Ratio (z) = 0.32386 0.04998
#
# Static dielectric constant tensor:
#      x y z
#    x 5.205670 0.000000 0.133110 
#    y 0.000000 3.954430 0.000000 
#    z 0.133110 0.000000 4.564790 
# 
# 
# High freq. dielectric constant tensor:
#      x y z
#    x 2.003430 0.000000 0.005660 
#    y 0.000000 1.946110 0.000000 
#    z 0.005660 0.000000 1.998460 
# 
# From -- ./inp_files/7411.got.cif
#   From: 2010.06.25/outbox.cif.g09.slc.cpg/sg9_4_cif.got.tgz:7411.got - 2010.06.27 21:40:51.
