data_PCOD8054996
_publ_section_title
;
Structure prediction by ZEFSAII (Michael W. Deem and Ramdas Pophale) SiO2 
 PCOD8054996
Probable space group: C C
;
_chemical_formula_sum "Si O2"
_cell_formula_units_Z 32
_cell_length_a 6.694330
_cell_length_b 27.040715
_cell_length_c 9.762518
_cell_angle_alpha 90.000000
_cell_angle_beta 51.300752
_cell_angle_gamma 90.000000
_cell_volume 1379.195668
_symmetry_space_group_name_H-M "C C"
_symmetry_group_IT_number 9
_symmetry_cell_setting 'monoclinic'
loop_
_space_group_symop_operation_xyz
x,y,z
x,-y,1/2+z
1/2+x,1/2+y,z
1/2+x,1/2-y,1/2+z
loop_
_atom_site_type_symbol
_atom_site_label
_atom_site_fract_x
_atom_site_fract_y
_atom_site_fract_z
Si Si1 0.849020 0.582853 0.794600
Si Si2 0.084832 0.492007 0.811859
Si Si3 0.834746 0.814031 0.426976
Si Si4 0.324908 0.760894 0.144708
Si Si5 0.863972 0.103902 0.130338
Si Si6 0.316986 0.315635 0.862488
Si Si7 0.322115 0.644691 0.637855
Si Si8 0.575369 0.447531 0.154662
O O1 0.643425 0.582432 0.761273
O O2 0.000865 0.531230 0.733461
O O3 0.047083 0.627642 0.697613
O O4 0.666668 0.590174 0.005313
O O5 0.184866 0.443711 0.693279
O O6 0.328229 0.516804 0.788481
O O7 0.829072 0.478700 0.006935
O O8 0.690829 0.770578 0.576461
O O9 0.792142 0.864001 0.528624
O O10 0.760197 0.822914 0.300216
O O11 0.129234 0.796852 0.305221
O O12 0.459057 0.723433 0.199537
O O13 0.528864 0.796613 0.990033
O O14 0.808590 0.130339 0.297905
O O15 0.437545 0.321261 0.964506
O O16 0.503120 0.596821 0.580856
#
# Coordination Sequence:
#
# PCOD8054996 Si02
#       8
#     4   4   4   4   4   4   4   4
#     4  11  24  43  66  98 147 179 234 291 341 408
#     4  11  25  42  68 103 138 195 235 286 345 413
#     4  10  21  41  68 100 135 178 231 286 355 418
#     4   9  21  43  70  97 137 178 223 301 353 415
#     4  11  22  43  68  99 136 189 225 283 349 409
#     4  10  22  41  69  99 134 178 230 284 358 415
#     4  11  24  41  69 105 132 189 230 284 344 426
#     4  11  25  44  68 101 147 184 238 291 345 408
#
# _framework density 23.201929
#
# number of rings (size 3 to 8) (size 9 to 14) (size 15 to 20)
#    0.000    1.500    2.500    1.500    3.500    2.000 
#    2.250    0.000    0.000    0.000    0.000    0.000 
#    0.000    0.000    0.000    0.000    0.000    0.000 
#
# Total GULP energy -198211.021119 kJ/mol
# GULP energy per Si atom -12388.188820 kJ/mol
# Density = 2.314912 g / cm^3
# Si number density = 23.201929 Si / 1000 Ang^3
#
#
#
# Elastic Constant Matrix: (Units=GPa)
#
#
# Indices 1 2 3 4 5 6 
#
# 1 111.8449 45.4804 47.8528 0.0000 8.8013 0.0000
# 2 45.4804 100.0052 43.8400 0.0000 10.3436 0.0000
# 3 47.8528 43.8400 109.9760 0.0000 15.1247 0.0000
# 4 0.0000 0.0000 0.0000 45.5583 0.0000 -0.1711
# 5 8.8013 10.3436 15.1247 0.0000 49.9873 0.0000
# 6 0.0000 0.0000 0.0000 -0.1711 0.0000 26.4426
#
#
#
# Elastic Compliance Matrix: (Units=1/GPa)
#
#
# Indices 1 2 3 4 5 6 
#
# 1 0.012112 -0.003864 -0.003701 0.000000 -0.000213 0.000000
# 2 -0.003864 0.013407 -0.003522 0.000000 -0.001028 0.000000
# 3 -0.003701 -0.003522 0.012435 0.000000 -0.002382 0.000000
# 4 0.000000 0.000000 0.000000 0.021950 0.000000 0.000142
# 5 -0.000213 -0.001028 -0.002382 0.000000 0.020976 0.000000
# 6 0.000000 0.000000 0.000000 0.000142 0.000000 0.037819
#
#
# Mechanical properties :
#
#
# Convention : Reuss Voigt Hill
#
# Bulk Modulus (GPa) = 63.36713 66.24136 64.80425
# Shear Modulus (GPa) = 34.21554 36.70783 35.46168
#
# Velocity S-wave (km/s) = 3.84433 3.98188 3.91371
# Velocity P-wave (km/s) = 6.86117 7.05354 6.95802
#
# Compressibility (1/GPa) = 0.01578105
#
# Stress axis : x y z
#
# Youngs Moduli (GPa) = 82.56037 74.58794 80.42103
#
# Poissons Ratio (x) = 0.28822 0.29761
# Poissons Ratio (y) = 0.31902 0.28322
# Poissons Ratio (z) = 0.30552 0.26267
#
# Static dielectric constant tensor:
#      x y z
#    x 3.854460 0.000000 0.031220 
#    y 0.000000 4.428690 0.000000 
#    z 0.031220 0.000000 4.410460 
# 
# 
# High freq. dielectric constant tensor:
#      x y z
#    x 1.881960 0.000000 0.000840 
#    y 0.000000 1.938400 0.000000 
#    z 0.000840 0.000000 1.923540 
# 
# From -- ./inp_files/4455.got.cif
#   From: 2010.06.25/outbox.cif.g09.slc.cpg/sg9_3_cif.got.tgz:4455.got - 2010.06.27 21:40:51.
