data_PCOD8054241
_publ_section_title
;
Structure prediction by ZEFSAII (Michael W. Deem and Ramdas Pophale) SiO2 
 PCOD8054241
Probable space group: C C
;
_chemical_formula_sum "Si O2"
_cell_formula_units_Z 32
_cell_length_a 18.239421
_cell_length_b 8.640188
_cell_length_c 22.141114
_cell_angle_alpha 90.000000
_cell_angle_beta 25.993473
_cell_angle_gamma 90.000000
_cell_volume 1529.234963
_symmetry_space_group_name_H-M "C C"
_symmetry_group_IT_number 9
_symmetry_cell_setting 'monoclinic'
loop_
_space_group_symop_operation_xyz
x,y,z
x,-y,1/2+z
1/2+x,1/2+y,z
1/2+x,1/2-y,1/2+z
loop_
_atom_site_type_symbol
_atom_site_label
_atom_site_fract_x
_atom_site_fract_y
_atom_site_fract_z
Si Si1 0.297840 0.097372 0.832760
Si Si2 0.256847 0.091491 0.077028
Si Si3 0.040076 0.898268 0.161984
Si Si4 0.531434 0.809760 0.449595
Si Si5 0.507915 0.851327 0.292240
Si Si6 0.777213 0.064764 0.675501
Si Si7 0.215835 0.760927 0.921678
Si Si8 0.452163 0.662032 0.135614
O O1 0.438733 0.085555 0.780416
O O2 0.371666 0.176292 0.717729
O O3 0.238580 0.920681 0.866764
O O4 0.135951 0.197282 0.972901
O O5 0.099413 0.188869 0.215838
O O6 0.184577 0.931831 0.104030
O O7 0.390749 0.064548 0.032222
O O8 0.353227 0.180986 0.951728
O O9 0.891399 0.816133 0.307799
O O10 0.115086 0.781608 0.057513
O O11 0.972328 0.052049 0.179176
O O12 0.685748 0.810315 0.287822
O O13 0.437808 0.643386 0.524575
O O14 0.607521 0.852381 0.458653
O O15 0.639860 0.974675 0.224790
O O16 0.833307 0.914755 0.672289
#
# Coordination Sequence:
#
# PCOD8054241 Si02
#       8
#     4   4   4   4   4   4   4   4
#     4  11  21  37  61  88 121 155 201 247 303 350
#     4  10  20  35  60  88 120 151 203 246 294 360
#     4  11  21  38  58  90 122 153 200 251 300 356
#     4  10  18  35  61  87 114 157 197 243 299 358
#     4  10  18  35  61  85 116 154 194 244 300 348
#     4  10  20  35  60  85 121 152 200 248 300 356
#     4  11  21  37  61  90 121 156 199 252 300 357
#     4  11  21  38  58  89 121 156 200 251 296 353
#
# _framework density 20.925495999999999
#
# number of rings (size 3 to 8) (size 9 to 14) (size 15 to 20)
#    0.000    1.500    7.500    0.000    0.000    1.000 
#    4.500    0.000    5.500    0.000    0.000    0.000 
#    0.000    0.000    0.000    0.000    0.000    0.000 
#
# Total GULP energy -198265.918894 kJ/mol
# GULP energy per Si atom -12391.619931 kJ/mol
# Density = 2.087787 g / cm^3
# Si number density = 20.925496 Si / 1000 Ang^3
#
#
#
# Elastic Constant Matrix: (Units=GPa)
#
#
# Indices 1 2 3 4 5 6 
#
# 1 156.7512 31.3772 34.1276 -0.0009 -17.8512 -0.0003
# 2 31.3772 14.9050 11.0140 -0.0047 -5.0451 0.0011
# 3 34.1276 11.0140 80.8164 -0.0104 -21.1412 0.0029
# 4 -0.0009 -0.0047 -0.0104 26.9460 0.0036 -6.2663
# 5 -17.8512 -5.0451 -21.1412 0.0036 22.7227 -0.0003
# 6 -0.0003 0.0011 0.0029 -6.2663 -0.0003 34.0638
#
#
#
# Elastic Compliance Matrix: (Units=1/GPa)
#
#
# Indices 1 2 3 4 5 6 
#
# 1 0.011391 -0.022209 -0.000968 -0.000004 0.003117 0.000000
# 2 -0.022209 0.119453 -0.005984 0.000017 0.003508 0.000000
# 3 -0.000968 -0.005984 0.017250 0.000004 0.013960 -0.000001
# 4 -0.000004 0.000017 0.000004 0.038770 -0.000002 0.007132
# 5 0.003117 0.003508 0.013960 -0.000002 0.060225 -0.000001
# 6 0.000000 0.000000 -0.000001 0.007132 -0.000001 0.030669
#
#
# Mechanical properties :
#
#
# Convention : Reuss Voigt Hill
#
# Bulk Modulus (GPa) = 11.13922 45.05668 28.09795
# Shear Modulus (GPa) = 13.66109 28.47677 21.06893
#
# Velocity S-wave (km/s) = 2.55785 3.69299 3.17654
# Velocity P-wave (km/s) = 3.74944 6.30579 5.18755
#
# Compressibility (1/GPa) = 0.08977288
#
# Stress axis : x y z
#
# Youngs Moduli (GPa) = 87.78951 8.37148 57.97132
#
# Poissons Ratio (x) = 0.18592 0.05612
# Poissons Ratio (y) = 1.94972 0.34687
# Poissons Ratio (z) = 0.08499 0.05009
#
# Static dielectric constant tensor:
#      x y z
#    x 4.165090 0.000000 -0.253010 
#    y 0.000000 3.277950 0.000010 
#    z -0.253010 0.000010 3.972500 
# 
# 
# High freq. dielectric constant tensor:
#      x y z
#    x 1.829260 0.000000 -0.019120 
#    y 0.000000 1.756750 0.000000 
#    z -0.019120 0.000000 1.834850 
# 
# From -- ./inp_files/21173.got.cif
#   From: 2010.06.25/outbox.cif.g09.slc.cpg/sg9_11_cif.got.tgz:21173.got - 2010.06.27 21:40:51.
