data_PCOD8054630
_publ_section_title
;
Structure prediction by ZEFSAII (Michael W. Deem and Ramdas Pophale) SiO2 
 PCOD8054630
Probable space group: C C
;
_chemical_formula_sum "Si O2"
_cell_formula_units_Z 28
_cell_length_a 7.129609
_cell_length_b 18.145553
_cell_length_c 13.714403
_cell_angle_alpha 90.000000
_cell_angle_beta 41.171379
_cell_angle_gamma 90.000000
_cell_volume 1168.007429
_symmetry_space_group_name_H-M "C C"
_symmetry_group_IT_number 9
_symmetry_cell_setting 'monoclinic'
loop_
_space_group_symop_operation_xyz
x,y,z
x,-y,1/2+z
1/2+x,1/2+y,z
1/2+x,1/2-y,1/2+z
loop_
_atom_site_type_symbol
_atom_site_label
_atom_site_fract_x
_atom_site_fract_y
_atom_site_fract_z
Si Si1 0.813770 0.601045 0.168680
Si Si2 0.216622 0.938297 0.195624
Si Si3 0.225854 0.661114 0.446178
Si Si4 0.923310 0.812118 0.200244
Si Si5 0.425868 0.387150 0.487429
Si Si6 0.937610 0.268538 0.886228
Si Si7 0.302165 0.817331 0.481382
O O1 0.743617 0.522131 0.147696
O O2 0.548187 0.633328 0.332475
O O3 0.895752 0.660339 0.053435
O O4 0.090711 0.593826 0.130527
O O5 0.999260 0.892405 0.213634
O O6 0.089189 0.946132 0.355160
O O7 0.525573 0.900449 0.071826
O O8 0.165402 0.735796 0.531038
O O9 0.152159 0.675090 0.359056
O O10 0.990710 0.743307 0.249605
O O11 0.590761 0.814039 0.302822
O O12 0.112363 0.796400 0.030807
O O13 0.490567 0.310304 0.411061
O O14 0.580071 0.380046 0.531820
#
# Coordination Sequence:
#
# PCOD8054630 Si02
#       7
#     4   4   4   4   4   4   4
#     4  12  23  44  68  93 136 180 219 271 349 400
#     4  10  22  44  67  91 137 179 212 277 343 415
#     4  10  24  36  68 101 127 172 228 273 339 396
#     4  10  20  39  66  99 134 174 221 286 344 395
#     4  10  22  42  64  92 131 170 220 273 337 397
#     4   9  19  36  64  95 131 167 224 278 335 399
#     4  11  24  39  71  95 132 170 232 280 327 396
#
# _framework density 23.972449999999998
#
# number of rings (size 3 to 8) (size 9 to 14) (size 15 to 20)
#    0.000    1.714    2.857    1.714   10.000    0.000 
#    2.571    0.000    3.143    0.000    0.000    0.000 
#    0.000    0.000    0.000    0.000    0.000    0.000 
#
# Total GULP energy -173559.794384 kJ/mol
# GULP energy per Si atom -12397.128170 kJ/mol
# Density = 2.391789 g / cm^3
# Si number density = 23.972450 Si / 1000 Ang^3
#
#
#
# Elastic Constant Matrix: (Units=GPa)
#
#
# Indices 1 2 3 4 5 6 
#
# 1 78.2581 16.6811 27.9836 -0.0001 -27.1138 0.0000
# 2 16.6811 112.2824 22.3545 -0.0001 -1.6805 0.0001
# 3 27.9836 22.3545 101.1279 -0.0011 -28.7040 0.0009
# 4 -0.0001 -0.0001 -0.0011 27.3985 0.0005 -3.5429
# 5 -27.1138 -1.6805 -28.7040 0.0005 35.9418 -0.0002
# 6 0.0000 0.0001 0.0009 -3.5429 -0.0002 22.0318
#
#
#
# Elastic Compliance Matrix: (Units=1/GPa)
#
#
# Indices 1 2 3 4 5 6 
#
# 1 0.018009 -0.002318 -0.000835 0.000000 0.012811 0.000000
# 2 -0.002318 0.009683 -0.002414 0.000000 -0.003224 0.000000
# 3 -0.000835 -0.002414 0.013503 0.000000 0.010041 0.000000
# 4 0.000000 0.000000 0.000000 0.037273 0.000000 0.005994
# 5 0.012811 -0.003224 0.010041 0.000000 0.045355 0.000000
# 6 0.000000 0.000000 0.000000 0.005994 0.000000 0.046353
#
#
# Mechanical properties :
#
#
# Convention : Reuss Voigt Hill
#
# Bulk Modulus (GPa) = 33.26441 47.30074 40.28257
# Shear Modulus (GPa) = 26.13273 32.05102 29.09187
#
# Velocity S-wave (km/s) = 3.30527 3.66046 3.48739
# Velocity P-wave (km/s) = 5.33598 6.13510 5.74944
#
# Compressibility (1/GPa) = 0.03006216
#
# Stress axis : x y z
#
# Youngs Moduli (GPa) = 55.52691 103.27592 74.05624
#
# Poissons Ratio (x) = 0.23935 0.06183
# Poissons Ratio (y) = 0.12869 0.17878
# Poissons Ratio (z) = 0.04636 0.24931
#
# Static dielectric constant tensor:
#      x y z
#    x 4.397180 0.000000 -0.136280 
#    y 0.000000 4.132340 0.000000 
#    z -0.136280 0.000000 4.335520 
# 
# 
# High freq. dielectric constant tensor:
#      x y z
#    x 1.930290 0.000000 -0.025360 
#    y 0.000000 1.931310 0.000000 
#    z -0.025360 0.000000 1.957290 
# 
# From -- ./inp_files/29565.got.cif
#   From: 2010.06.25/outbox.cif.g09.slc.cpg/sg9_15_cif.got.tgz:29565.got - 2010.06.27 21:40:51.
