data_PCOD8054221
_publ_section_title
;
Structure prediction by ZEFSAII (Michael W. Deem and Ramdas Pophale) SiO2 
 PCOD8054221
Probable space group: C C
;
_chemical_formula_sum "Si O2"
_cell_formula_units_Z 32
_cell_length_a 12.009949
_cell_length_b 18.153476
_cell_length_c 11.611754
_cell_angle_alpha 90.000000
_cell_angle_beta 136.771230
_cell_angle_gamma 90.000000
_cell_volume 1733.940661
_symmetry_space_group_name_H-M "C C"
_symmetry_group_IT_number 9
_symmetry_cell_setting 'monoclinic'
loop_
_space_group_symop_operation_xyz
x,y,z
x,-y,1/2+z
1/2+x,1/2+y,z
1/2+x,1/2-y,1/2+z
loop_
_atom_site_type_symbol
_atom_site_label
_atom_site_fract_x
_atom_site_fract_y
_atom_site_fract_z
Si Si1 0.336380 0.349607 0.358650
Si Si2 0.243077 0.035600 0.702562
Si Si3 0.474800 0.088506 0.310743
Si Si4 0.264945 0.478757 0.150168
Si Si5 0.000421 0.705093 0.528870
Si Si6 0.488430 0.042019 0.080029
Si Si7 0.992281 0.952436 0.647296
Si Si8 0.292519 0.100389 0.501369
O O1 0.345752 0.403179 0.256323
O O2 0.480681 0.289861 0.476335
O O3 0.354974 0.402831 0.482967
O O4 0.169970 0.304334 0.223250
O O5 0.234190 0.093506 0.590104
O O6 0.309838 0.956014 0.712234
O O7 0.365432 0.071078 0.888980
O O8 0.062441 0.018754 0.618162
O O9 0.628953 0.037116 0.452422
O O10 0.483670 0.160692 0.396034
O O11 0.483589 0.102534 0.179379
O O12 0.174663 0.529239 0.178624
O O13 0.415514 0.518900 0.206934
O O14 0.870772 0.679252 0.528264
O O15 0.427837 0.961735 0.076812
O O16 0.144176 0.904604 0.801864
#
# Coordination Sequence:
#
# PCOD8054221 Si02
#       8
#     4   4   4   4   4   4   4   4
#     4  11  23  36  55  85 113 149 191 230 287 337
#     4   9  18  31  53  82 112 144 186 234 280 328
#     4   9  17  32  53  77 113 144 187 228 282 334
#     4  10  19  32  54  85 113 145 186 242 283 328
#     4  11  21  37  55  81 115 151 187 231 282 349
#     4   9  16  31  54  82 108 146 187 231 283 326
#     4  11  20  33  54  87 113 147 186 243 283 327
#     4  10  18  34  52  79 113 144 188 231 282 331
#
# _framework density 18.455074
#
# number of rings (size 3 to 8) (size 9 to 14) (size 15 to 20)
#    0.000    2.000    5.000    2.250    3.500    0.000 
#    0.000    0.000    0.000    1.500    3.250    0.000 
#    0.000    0.000    0.000    0.000    0.000    0.000 
#
# Total GULP energy -198257.967783 kJ/mol
# GULP energy per Si atom -12391.122986 kJ/mol
# Density = 1.841307 g / cm^3
# Si number density = 18.455074 Si / 1000 Ang^3
#
#
#
# Elastic Constant Matrix: (Units=GPa)
#
#
# Indices 1 2 3 4 5 6 
#
# 1 113.5947 29.4510 43.7667 0.0000 -6.8836 0.0000
# 2 29.4510 56.2272 34.4804 0.0000 -1.6885 0.0000
# 3 43.7667 34.4804 88.5505 0.0000 -10.8267 0.0000
# 4 0.0000 0.0000 0.0000 26.6675 0.0000 1.9555
# 5 -6.8836 -1.6885 -10.8267 0.0000 34.8074 0.0000
# 6 0.0000 0.0000 0.0000 1.9555 0.0000 15.4571
#
#
#
# Elastic Compliance Matrix: (Units=1/GPa)
#
#
# Indices 1 2 3 4 5 6 
#
# 1 0.011336 -0.003332 -0.004211 0.000000 0.000770 0.000000
# 2 -0.003332 0.024448 -0.008117 0.000000 -0.001998 0.000000
# 3 -0.004211 -0.008117 0.017033 0.000000 0.004071 0.000000
# 4 0.000000 0.000000 0.000000 0.037850 0.000000 -0.004788
# 5 0.000770 -0.001998 0.004071 0.000000 0.030051 0.000000
# 6 0.000000 0.000000 0.000000 -0.004788 0.000000 0.065301
#
#
# Mechanical properties :
#
#
# Convention : Reuss Voigt Hill
#
# Bulk Modulus (GPa) = 46.51994 52.64096 49.58045
# Shear Modulus (GPa) = 22.27108 25.43135 23.85121
#
# Velocity S-wave (km/s) = 3.47763 3.71619 3.59889
# Velocity P-wave (km/s) = 6.43328 6.85559 6.64779
#
# Compressibility (1/GPa) = 0.02149616
#
# Stress axis : x y z
#
# Youngs Moduli (GPa) = 88.21121 40.90319 58.70965
#
# Poissons Ratio (x) = 0.13630 0.24725
# Poissons Ratio (y) = 0.29393 0.47655
# Poissons Ratio (z) = 0.37149 0.33201
#
# Static dielectric constant tensor:
#      x y z
#    x 3.481130 0.000000 -0.078770 
#    y 0.000000 2.958290 0.000000 
#    z -0.078770 0.000000 3.636840 
# 
# 
# High freq. dielectric constant tensor:
#      x y z
#    x 1.708900 0.000000 -0.001980 
#    y 0.000000 1.659140 0.000000 
#    z -0.001980 0.000000 1.736830 
# 
# From -- ./inp_files/7882.got.cif
#   From: 2010.06.25/outbox.cif.g09.slc.cpg/sg9_4_cif.got.tgz:7882.got - 2010.06.27 21:40:51.
