data_PCOD8054328
_publ_section_title
;
Structure prediction by ZEFSAII (Michael W. Deem and Ramdas Pophale) SiO2 
 PCOD8054328
Probable space group: C C
;
_chemical_formula_sum "Si O2"
_cell_formula_units_Z 32
_cell_length_a 12.670878
_cell_length_b 12.744207
_cell_length_c 14.086841
_cell_angle_alpha 90.000000
_cell_angle_beta 139.373943
_cell_angle_gamma 90.000000
_cell_volume 1481.132149
_symmetry_space_group_name_H-M "C C"
_symmetry_group_IT_number 9
_symmetry_cell_setting 'monoclinic'
loop_
_space_group_symop_operation_xyz
x,y,z
x,-y,1/2+z
1/2+x,1/2+y,z
1/2+x,1/2-y,1/2+z
loop_
_atom_site_type_symbol
_atom_site_label
_atom_site_fract_x
_atom_site_fract_y
_atom_site_fract_z
Si Si1 0.768230 0.471642 0.571440
Si Si2 0.770087 0.668518 0.232780
Si Si3 0.360535 0.665168 0.645185
Si Si4 0.739433 0.704417 0.908194
Si Si5 0.885329 0.020289 0.821386
Si Si6 0.900850 0.195432 0.976483
Si Si7 0.415985 0.713283 0.355982
Si Si8 0.782018 0.293491 0.079418
O O1 0.826995 0.439570 0.719180
O O2 0.822038 0.389722 0.525823
O O3 0.576194 0.466779 0.446521
O O4 0.831082 0.586838 0.586139
O O5 0.774979 0.750774 0.152158
O O6 0.888585 0.700627 0.400140
O O7 0.581446 0.668704 0.136430
O O8 0.551108 0.685973 0.762811
O O9 0.274244 0.682482 0.484081
O O10 0.324258 0.554250 0.673321
O O11 0.827406 0.707263 0.866664
O O12 0.832718 0.901864 0.807500
O O13 0.824029 0.098184 0.863926
O O14 0.792626 0.218854 0.994835
O O15 0.606088 0.708354 0.508406
O O16 0.406773 0.752755 0.242348
#
# Coordination Sequence:
#
# PCOD8054328 Si02
#       8
#     4   4   4   4   4   4   4   4
#     4   8  18  36  58  80 107 143 182 217 269 333
#     4   9  17  34  58  83 106 137 183 229 265 315
#     4   9  17  34  58  83 106 137 183 229 265 315
#     4  10  19  35  58  81 107 146 184 221 267 322
#     4   8  18  36  58  80 107 143 182 217 269 333
#     4  10  19  35  58  81 107 146 184 221 267 322
#     4  11  23  39  55  80 114 146 180 223 269 322
#     4  11  23  39  55  80 114 146 180 223 269 322
#
# _framework density 21.605094000000001
#
# number of rings (size 3 to 8) (size 9 to 14) (size 15 to 20)
#    0.000    2.500    0.000    3.750    0.000    2.000 
#    0.000   23.750    0.000    1.500    0.000    0.000 
#    0.000    0.000    0.000    0.000    0.000    0.000 
#
# Total GULP energy -198240.843153 kJ/mol
# GULP energy per Si atom -12390.052697 kJ/mol
# Density = 2.155592 g / cm^3
# Si number density = 21.605094 Si / 1000 Ang^3
#
#
#
# Elastic Constant Matrix: (Units=GPa)
#
#
# Indices 1 2 3 4 5 6 
#
# 1 91.7334 42.5986 14.9716 0.0000 -18.4000 0.0000
# 2 42.5986 100.2287 11.5424 0.0000 -13.1622 0.0000
# 3 14.9716 11.5424 41.6485 0.0000 -18.1275 0.0000
# 4 0.0000 0.0000 0.0000 22.6693 0.0000 -5.2905
# 5 -18.4000 -13.1622 -18.1275 0.0000 33.5922 0.0000
# 6 0.0000 0.0000 0.0000 -5.2905 0.0000 26.7330
#
#
#
# Elastic Compliance Matrix: (Units=1/GPa)
#
#
# Indices 1 2 3 4 5 6 
#
# 1 0.014680 -0.005391 -0.001572 0.000000 0.005080 0.000000
# 2 -0.005391 0.012567 -0.000898 0.000000 0.001487 0.000000
# 3 -0.001572 -0.000898 0.031755 0.000000 0.015923 0.000000
# 4 0.000000 0.000000 0.000000 0.046249 0.000000 0.009153
# 5 0.005080 0.001487 0.015923 0.000000 0.041727 0.000000
# 6 0.000000 0.000000 0.000000 0.009153 0.000000 0.039218
#
#
# Mechanical properties :
#
#
# Convention : Reuss Voigt Hill
#
# Bulk Modulus (GPa) = 23.10493 41.31509 32.21001
# Shear Modulus (GPa) = 23.11130 27.56543 25.33836
#
# Velocity S-wave (km/s) = 3.27420 3.57582 3.42833
# Velocity P-wave (km/s) = 5.00113 6.01772 5.53282
#
# Compressibility (1/GPa) = 0.04328080
#
# Stress axis : x y z
#
# Youngs Moduli (GPa) = 68.11881 79.57292 31.49121
#
# Poissons Ratio (x) = 0.42899 0.04950
# Poissons Ratio (y) = 0.36724 0.02827
# Poissons Ratio (z) = 0.10707 0.07144
#
# Static dielectric constant tensor:
#      x y z
#    x 3.668070 0.000000 -0.255910 
#    y 0.000000 4.116640 0.000000 
#    z -0.255910 0.000000 3.876620 
# 
# 
# High freq. dielectric constant tensor:
#      x y z
#    x 1.837020 0.000000 -0.014260 
#    y 0.000000 1.831880 0.000000 
#    z -0.014260 0.000000 1.834730 
# 
# From -- ./inp_files/9545.got.cif
#   From: 2010.06.25/outbox.cif.g09.slc.cpg/sg9_5_cif.got.tgz:9545.got - 2010.06.27 21:40:51.
