data_PCOD8054638
_publ_section_title
;
Structure prediction by ZEFSAII (Michael W. Deem and Ramdas Pophale) SiO2 
 PCOD8054638
Probable space group: C C
;
_chemical_formula_sum "Si O2"
_cell_formula_units_Z 32
_cell_length_a 9.480527
_cell_length_b 10.550544
_cell_length_c 30.862395
_cell_angle_alpha 90.000000
_cell_angle_beta 151.198773
_cell_angle_gamma 90.000000
_cell_volume 1487.232647
_symmetry_space_group_name_H-M "C C"
_symmetry_group_IT_number 9
_symmetry_cell_setting 'monoclinic'
loop_
_space_group_symop_operation_xyz
x,y,z
x,-y,1/2+z
1/2+x,1/2+y,z
1/2+x,1/2-y,1/2+z
loop_
_atom_site_type_symbol
_atom_site_label
_atom_site_fract_x
_atom_site_fract_y
_atom_site_fract_z
Si Si1 0.803150 0.187054 0.031490
Si Si2 0.777493 0.731894 0.092373
Si Si3 0.800444 0.857520 0.870261
Si Si4 0.106638 0.539106 0.233128
Si Si5 0.616332 0.619620 0.961686
Si Si6 0.819687 0.229375 0.797616
Si Si7 0.019539 0.929266 0.100330
Si Si8 0.218246 0.702663 0.106168
O O1 0.854756 0.216227 0.095724
O O2 0.070182 0.251877 0.077707
O O3 0.787052 0.034892 0.022692
O O4 0.499487 0.236358 0.932319
O O5 0.940170 0.864380 0.125248
O O6 0.011741 0.619402 0.165384
O O7 0.588617 0.693868 0.999518
O O8 0.772192 0.867073 0.810660
O O9 0.507812 0.824597 0.818437
O O10 0.954622 0.987111 0.927092
O O11 0.284663 0.412529 0.266860
O O12 0.833823 0.495278 0.189676
O O13 0.458299 0.705327 0.882326
O O14 0.965620 0.594379 0.043919
O O15 0.496504 0.297283 0.714167
O O16 0.022575 0.827409 0.062648
#
# Coordination Sequence:
#
# PCOD8054638 Si02
#       8
#     4   4   4   4   4   4   4   4
#     4  11  23  37  66  94 129 173 218 269 334 396
#     4  10  22  42  67  96 130 172 220 280 331 398
#     4  11  23  40  66  98 137 174 225 280 331 401
#     4   9  21  41  60  94 132 172 221 280 327 391
#     4  10  23  41  69 101 132 179 223 279 339 397
#     4  10  20  39  70  95 135 180 223 277 333 403
#     4   9  21  41  65  92 127 168 220 273 327 397
#     4  10  21  43  69  92 130 180 222 272 338 391
#
# _framework density 21.516472
#
# number of rings (size 3 to 8) (size 9 to 14) (size 15 to 20)
#    0.000    2.000    1.250    1.500    7.000    0.000 
#    9.000    0.000   11.000    0.000    0.000    0.000 
#    0.000    0.000    0.000    0.000    0.000    0.000 
#
# Total GULP energy -198230.945664 kJ/mol
# GULP energy per Si atom -12389.434104 kJ/mol
# Density = 2.146750 g / cm^3
# Si number density = 21.516472 Si / 1000 Ang^3
#
#
#
# Elastic Constant Matrix: (Units=GPa)
#
#
# Indices 1 2 3 4 5 6 
#
# 1 109.9322 35.5651 24.3170 0.0004 10.2819 0.0001
# 2 35.5651 92.4800 41.7368 0.0003 13.2920 0.0000
# 3 24.3170 41.7368 118.8535 0.0019 4.1444 0.0002
# 4 0.0004 0.0003 0.0019 27.7417 0.0003 6.8031
# 5 10.2819 13.2920 4.1444 0.0003 29.8722 0.0000
# 6 0.0001 0.0000 0.0002 6.8031 0.0000 42.9927
#
#
#
# Elastic Compliance Matrix: (Units=1/GPa)
#
#
# Indices 1 2 3 4 5 6 
#
# 1 0.010576 -0.003366 -0.000911 0.000000 -0.002016 0.000000
# 2 -0.003366 0.014749 -0.004323 0.000000 -0.004805 0.000000
# 3 -0.000911 -0.004323 0.010089 -0.000001 0.000838 0.000000
# 4 0.000000 0.000000 -0.000001 0.037502 0.000000 -0.005934
# 5 -0.002016 -0.004805 0.000838 0.000000 0.036191 0.000000
# 6 0.000000 0.000000 0.000000 -0.005934 0.000000 0.024199
#
#
# Mechanical properties :
#
#
# Convention : Reuss Voigt Hill
#
# Bulk Modulus (GPa) = 54.90644 58.27816 56.59230
# Shear Modulus (GPa) = 31.93287 34.76442 33.34865
#
# Velocity S-wave (km/s) = 3.85660 4.02395 3.94116
# Velocity P-wave (km/s) = 6.73831 6.98096 6.86071
#
# Compressibility (1/GPa) = 0.01821280
#
# Stress axis : x y z
#
# Youngs Moduli (GPa) = 94.55691 67.80013 99.11676
#
# Poissons Ratio (x) = 0.22822 0.09034
# Poissons Ratio (y) = 0.31828 0.42850
# Poissons Ratio (z) = 0.08618 0.29311
#
# Static dielectric constant tensor:
#      x y z
#    x 3.810860 0.000000 0.150170 
#    y 0.000000 4.029230 0.000000 
#    z 0.150170 0.000000 4.047910 
# 
# 
# High freq. dielectric constant tensor:
#      x y z
#    x 1.834950 0.000000 0.003960 
#    y 0.000000 1.839200 0.000000 
#    z 0.003960 0.000000 1.844940 
# 
# From -- ./inp_files/35017.got.cif
#   From: 2010.06.25/outbox.cif.g09.slc.cpg/sg9_18_cif.got.tgz:35017.got - 2010.06.27 21:40:51.
