data_PCOD8054715
_publ_section_title
;
Structure prediction by ZEFSAII (Michael W. Deem and Ramdas Pophale) SiO2 
 PCOD8054715
Probable space group: C C
;
_chemical_formula_sum "Si O2"
_cell_formula_units_Z 28
_cell_length_a 7.645014
_cell_length_b 12.050314
_cell_length_c 15.355651
_cell_angle_alpha 90.000000
_cell_angle_beta 59.993920
_cell_angle_gamma 90.000000
_cell_volume 1225.036144
_symmetry_space_group_name_H-M "C C"
_symmetry_group_IT_number 9
_symmetry_cell_setting 'monoclinic'
loop_
_space_group_symop_operation_xyz
x,y,z
x,-y,1/2+z
1/2+x,1/2+y,z
1/2+x,1/2-y,1/2+z
loop_
_atom_site_type_symbol
_atom_site_label
_atom_site_fract_x
_atom_site_fract_y
_atom_site_fract_z
Si Si1 0.713660 0.435421 0.534030
Si Si2 0.638063 0.751007 0.190129
Si Si3 0.211741 0.185689 0.858559
Si Si4 0.872722 0.939482 0.037407
Si Si5 0.318165 0.417208 0.398707
Si Si6 0.222927 0.814010 0.860777
Si Si7 0.539442 0.084156 0.398567
O O1 0.692889 0.353166 0.618248
O O2 0.784527 0.376511 0.426666
O O3 0.499558 0.495093 0.577875
O O4 0.887656 0.527277 0.506526
O O5 0.399466 0.774568 0.253930
O O6 0.726249 0.861589 0.126931
O O7 0.739782 0.721992 0.256729
O O8 0.100670 0.296469 0.921123
O O9 0.061999 0.106601 0.837912
O O10 0.015374 0.876109 0.932399
O O11 0.752324 0.027308 0.007231
O O12 0.210494 0.298402 0.420700
O O13 0.236299 0.501151 0.342191
O O14 0.416898 0.891760 0.838290
#
# Coordination Sequence:
#
# PCOD8054715 Si02
#       7
#     4   4   4   4   4   4   4
#     4  10  23  43  66  95 129 168 216 272 334 398
#     4  12  22  40  68 100 134 170 224 284 334 402
#     4  10  23  41  64  95 133 173 216 274 338 399
#     4  10  23  43  66  95 129 168 216 272 334 398
#     4  10  20  42  67  88 127 176 217 266 331 399
#     4  10  23  41  64  95 133 173 216 274 338 399
#     4  10  20  42  67  88 127 176 217 266 331 399
#
# _framework density 22.856469000000001
#
# number of rings (size 3 to 8) (size 9 to 14) (size 15 to 20)
#    0.000    1.714    0.000    4.286    0.000    3.429 
#    0.000   44.286    0.000    0.000    0.000    0.000 
#    0.000    0.000    0.000    0.000    0.000    0.000 
#
# Total GULP energy -173502.803448 kJ/mol
# GULP energy per Si atom -12393.057389 kJ/mol
# Density = 2.280445 g / cm^3
# Si number density = 22.856469 Si / 1000 Ang^3
#
#
#
# Elastic Constant Matrix: (Units=GPa)
#
#
# Indices 1 2 3 4 5 6 
#
# 1 130.1038 54.0670 41.4432 0.0000 9.1867 -0.0001
# 2 54.0670 124.2513 41.6244 0.0001 15.8777 -0.0001
# 3 41.4432 41.6244 77.9620 0.0001 14.2570 0.0000
# 4 0.0000 0.0001 0.0001 12.0613 0.0000 1.8955
# 5 9.1867 15.8777 14.2570 0.0000 13.0692 0.0000
# 6 -0.0001 -0.0001 0.0000 1.8955 0.0000 50.2962
#
#
#
# Elastic Compliance Matrix: (Units=1/GPa)
#
#
# Indices 1 2 3 4 5 6 
#
# 1 0.010207 -0.003278 -0.003862 0.000000 0.001021 0.000000
# 2 -0.003278 0.011524 -0.002837 0.000000 -0.008601 0.000000
# 3 -0.003862 -0.002837 0.019073 0.000000 -0.014644 0.000000
# 4 0.000000 0.000000 0.000000 0.083404 0.000001 -0.003143
# 5 0.001021 -0.008601 -0.014644 0.000001 0.102223 0.000000
# 6 0.000000 0.000000 0.000000 -0.003143 0.000000 0.020001
#
#
# Mechanical properties :
#
#
# Convention : Reuss Voigt Hill
#
# Bulk Modulus (GPa) = 47.96554 67.39847 57.68200
# Shear Modulus (GPa) = 18.29254 28.09750 23.19502
#
# Velocity S-wave (km/s) = 2.83207 3.50994 3.18907
# Velocity P-wave (km/s) = 5.63252 6.78071 6.23311
#
# Compressibility (1/GPa) = 0.02084830
#
# Stress axis : x y z
#
# Youngs Moduli (GPa) = 97.97630 86.77348 52.43069
#
# Poissons Ratio (x) = 0.28444 0.20250
# Poissons Ratio (y) = 0.32116 0.14877
# Poissons Ratio (z) = 0.37841 0.24622
#
# Static dielectric constant tensor:
#      x y z
#    x 4.616020 0.000000 -0.008990 
#    y 0.000000 4.588850 0.000000 
#    z -0.008990 0.000000 3.554430 
# 
# 
# High freq. dielectric constant tensor:
#      x y z
#    x 1.923530 0.000000 0.004070 
#    y 0.000000 1.934470 0.000000 
#    z 0.004070 0.000000 1.845160 
# 
# From -- ./inp_files/15950.got.cif
#   From: 2010.06.25/outbox.cif.g09.slc.cpg/sg9_8_cif.got.tgz:15950.got - 2010.06.27 21:40:51.
