data_PCOD8054742
_publ_section_title
;
Structure prediction by ZEFSAII (Michael W. Deem and Ramdas Pophale) SiO2 
 PCOD8054742
Probable space group: C C
;
_chemical_formula_sum "Si O2"
_cell_formula_units_Z 28
_cell_length_a 12.152931
_cell_length_b 9.394958
_cell_length_c 13.378433
_cell_angle_alpha 90.000000
_cell_angle_beta 61.412010
_cell_angle_gamma 90.000000
_cell_volume 1341.271940
_symmetry_space_group_name_H-M "C C"
_symmetry_group_IT_number 9
_symmetry_cell_setting 'monoclinic'
loop_
_space_group_symop_operation_xyz
x,y,z
x,-y,1/2+z
1/2+x,1/2+y,z
1/2+x,1/2-y,1/2+z
loop_
_atom_site_type_symbol
_atom_site_label
_atom_site_fract_x
_atom_site_fract_y
_atom_site_fract_z
Si Si1 0.299970 0.977020 0.531730
Si Si2 0.451212 0.342335 0.840689
Si Si3 0.024157 0.350742 0.858952
Si Si4 0.410614 0.706390 0.578385
Si Si5 0.561841 0.390107 0.194767
Si Si6 0.645442 0.894997 0.204218
Si Si7 0.179948 0.721355 0.477909
O O1 0.390766 0.070606 0.423251
O O2 0.212736 0.087025 0.631956
O O3 0.385871 0.873954 0.563707
O O4 0.200510 0.882708 0.510045
O O5 0.502184 0.457507 0.742322
O O6 0.536313 0.202586 0.796421
O O7 0.309565 0.316142 0.866193
O O8 0.445902 0.379522 0.961573
O O9 0.008994 0.206974 0.805001
O O10 0.122455 0.446718 0.754800
O O11 0.068493 0.300388 0.948863
O O12 0.522840 0.680839 0.606475
O O13 0.282467 0.649929 0.684403
O O14 0.647181 0.885640 0.083074
#
# Coordination Sequence:
#
# PCOD8054742 Si02
#       7
#     4   4   4   4   4   4   4
#     4  10  24  48  62 100 140 176 216 280 342 382
#     4  10  20  43  68  91 131 180 217 264 342 385
#     4  12  26  40  68 104 128 173 227 275 332 397
#     4  10  23  42  70  91 135 180 219 269 328 406
#     4  12  26  40  68 104 128 173 227 275 332 397
#     4  10  20  43  68  91 131 180 217 264 342 385
#     4  10  23  42  70  91 135 180 219 269 328 406
#
# _framework density 20.875707999999999
#
# number of rings (size 3 to 8) (size 9 to 14) (size 15 to 20)
#    0.000    1.714    5.714    0.857    4.000    5.714 
#    0.000    0.000    0.000    0.000    0.000    0.000 
#    0.000    0.000    0.000    0.000    0.000    0.000 
#
# Total GULP energy -173514.574325 kJ/mol
# GULP energy per Si atom -12393.898166 kJ/mol
# Density = 2.082819 g / cm^3
# Si number density = 20.875708 Si / 1000 Ang^3
#
#
#
# Elastic Constant Matrix: (Units=GPa)
#
#
# Indices 1 2 3 4 5 6 
#
# 1 75.1453 26.3007 35.3302 0.0000 11.7988 0.0000
# 2 26.3007 71.9958 22.4032 0.0000 1.6833 0.0000
# 3 35.3302 22.4032 91.8164 0.0000 -13.0878 0.0000
# 4 0.0000 0.0000 0.0000 40.4954 0.0000 -0.4510
# 5 11.7988 1.6833 -13.0878 0.0000 40.6700 0.0000
# 6 0.0000 0.0000 0.0000 -0.4510 0.0000 24.4163
#
#
#
# Elastic Compliance Matrix: (Units=1/GPa)
#
#
# Indices 1 2 3 4 5 6 
#
# 1 0.019774 -0.004669 -0.007609 0.000000 -0.007992 0.000000
# 2 -0.004669 0.016273 -0.002177 0.000000 -0.000020 0.000000
# 3 -0.007609 -0.002177 0.015383 0.000000 0.007248 0.000000
# 4 0.000000 0.000000 0.000000 0.024699 0.000000 0.000456
# 5 -0.007992 -0.000020 0.007248 0.000000 0.029240 0.000000
# 6 0.000000 0.000000 0.000000 0.000456 0.000000 0.040965
#
#
# Mechanical properties :
#
#
# Convention : Reuss Voigt Hill
#
# Bulk Modulus (GPa) = 44.40275 45.22509 44.81392
# Shear Modulus (GPa) = 27.35970 31.44458 29.40214
#
# Velocity S-wave (km/s) = 3.62415 3.88529 3.75699
# Velocity P-wave (km/s) = 6.23128 6.46825 6.35087
#
# Compressibility (1/GPa) = 0.02252113
#
# Stress axis : x y z
#
# Youngs Moduli (GPa) = 50.57176 61.45085 65.00520
#
# Poissons Ratio (x) = 0.28692 0.49461
# Poissons Ratio (y) = 0.23612 0.14150
# Poissons Ratio (z) = 0.38479 0.13377
#
# Static dielectric constant tensor:
#      x y z
#    x 3.612630 0.000000 -0.196640 
#    y 0.000000 3.747570 0.000000 
#    z -0.196640 0.000000 3.835830 
# 
# 
# High freq. dielectric constant tensor:
#      x y z
#    x 1.798820 0.000000 -0.017640 
#    y 0.000000 1.810760 0.000000 
#    z -0.017640 0.000000 1.831140 
# 
# From -- ./inp_files/17704.got.cif
#   From: 2010.06.25/outbox.cif.g09.slc.cpg/sg9_9_cif.got.tgz:17704.got - 2010.06.27 21:40:51.
