data_PCOD8054591
_publ_section_title
;
Structure prediction by ZEFSAII (Michael W. Deem and Ramdas Pophale) SiO2 
 PCOD8054591
Probable space group: C C
;
_chemical_formula_sum "Si O2"
_cell_formula_units_Z 28
_cell_length_a 8.897675
_cell_length_b 16.731144
_cell_length_c 8.077445
_cell_angle_alpha 90.000000
_cell_angle_beta 82.327170
_cell_angle_gamma 90.000000
_cell_volume 1191.709145
_symmetry_space_group_name_H-M "C C"
_symmetry_group_IT_number 9
_symmetry_cell_setting 'monoclinic'
loop_
_space_group_symop_operation_xyz
x,y,z
x,-y,1/2+z
1/2+x,1/2+y,z
1/2+x,1/2-y,1/2+z
loop_
_atom_site_type_symbol
_atom_site_label
_atom_site_fract_x
_atom_site_fract_y
_atom_site_fract_z
Si Si1 0.901720 0.421297 0.816210
Si Si2 0.414765 0.246018 0.817041
Si Si3 0.225740 0.607760 0.341924
Si Si4 0.539754 0.577375 0.915239
Si Si5 0.851847 0.958323 0.147962
Si Si6 0.204560 0.191613 0.127084
Si Si7 0.836769 0.575593 0.686961
O O1 0.793818 0.378765 0.701633
O O2 0.954792 0.507371 0.732662
O O3 0.050244 0.368775 0.840676
O O4 0.807879 0.431535 0.997565
O O5 0.330471 0.322651 0.747692
O O6 0.598376 0.260197 0.776406
O O7 0.385237 0.164674 0.725398
O O8 0.337030 0.242149 0.012597
O O9 0.246866 0.526490 0.239689
O O10 0.258334 0.596383 0.533324
O O11 0.414226 0.596753 0.790339
O O12 0.685605 0.546158 0.797762
O O13 0.488836 0.502886 0.034021
O O14 0.583908 0.656592 0.011702
#
# Coordination Sequence:
#
# PCOD8054591 Si02
#       7
#     4   4   4   4   4   4   4
#     4  12  25  45  72 103 143 191 238 290 353 437
#     4  11  25  48  71 107 147 186 236 301 359 422
#     4  11  24  43  69 104 142 184 238 295 355 424
#     4  10  20  38  66 103 131 182 235 294 334 423
#     4  10  21  39  70 102 138 182 243 286 350 420
#     4  11  25  46  74 103 145 188 238 291 363 424
#     4  11  24  41  72 100 146 183 240 287 362 420
#
# _framework density 23.495664999999999
#
# number of rings (size 3 to 8) (size 9 to 14) (size 15 to 20)
#    0.000    1.143    1.429    5.143    4.000    1.143 
#    5.143    1.429    0.000    0.000    0.000    0.000 
#    0.000    0.000    0.000    0.000    0.000    0.000 
#
# Total GULP energy -173472.283818 kJ/mol
# GULP energy per Si atom -12390.877416 kJ/mol
# Density = 2.344219 g / cm^3
# Si number density = 23.495665 Si / 1000 Ang^3
#
#
#
# Elastic Constant Matrix: (Units=GPa)
#
#
# Indices 1 2 3 4 5 6 
#
# 1 112.9567 38.9164 59.8673 0.0000 -4.1895 0.0000
# 2 38.9164 99.6597 40.2312 0.0000 17.4338 0.0000
# 3 59.8673 40.2312 118.4321 0.0000 -6.3415 0.0000
# 4 0.0000 0.0000 0.0000 25.5192 0.0000 -7.3359
# 5 -4.1895 17.4338 -6.3415 0.0000 40.6313 0.0000
# 6 0.0000 0.0000 0.0000 -7.3359 0.0000 18.7216
#
#
#
# Elastic Compliance Matrix: (Units=1/GPa)
#
#
# Indices 1 2 3 4 5 6 
#
# 1 0.012834 -0.003198 -0.005301 0.000000 0.001868 0.000000
# 2 -0.003198 0.013874 -0.003462 0.000000 -0.006823 0.000000
# 3 -0.005301 -0.003462 0.012453 0.000000 0.002882 0.000000
# 4 0.000000 0.000000 0.000000 0.044160 0.000000 0.017304
# 5 0.001868 -0.006823 0.002882 0.000000 0.028182 0.000000
# 6 0.000000 0.000000 0.000000 0.017304 0.000000 0.060194
#
#
# Mechanical properties :
#
#
# Convention : Reuss Voigt Hill
#
# Bulk Modulus (GPa) = 65.61880 67.67537 66.64708
# Shear Modulus (GPa) = 24.91292 29.77666 27.34479
#
# Velocity S-wave (km/s) = 3.25979 3.56381 3.41519
# Velocity P-wave (km/s) = 6.49284 6.76759 6.63164
#
# Compressibility (1/GPa) = 0.01523954
#
# Stress axis : x y z
#
# Youngs Moduli (GPa) = 77.92019 72.07696 80.29890
#
# Poissons Ratio (x) = 0.23053 0.42565
# Poissons Ratio (y) = 0.24922 0.27796
# Poissons Ratio (z) = 0.41305 0.24950
#
# Static dielectric constant tensor:
#      x y z
#    x 4.241680 0.000000 -0.225510 
#    y 0.000000 4.078450 0.000000 
#    z -0.225510 0.000000 4.483840 
# 
# 
# High freq. dielectric constant tensor:
#      x y z
#    x 1.929990 0.000000 -0.018540 
#    y 0.000000 1.919580 0.000000 
#    z -0.018540 0.000000 1.935470 
# 
# From -- ./inp_files/5366.got.cif
#   From: 2010.06.25/outbox.cif.g09.slc.cpg/sg9_3_cif.got.tgz:5366.got - 2010.06.27 21:40:51.
