data_PCOD8054785
_publ_section_title
;
Structure prediction by ZEFSAII (Michael W. Deem and Ramdas Pophale) SiO2 
 PCOD8054785
Probable space group: C C
;
_chemical_formula_sum "Si O2"
_cell_formula_units_Z 32
_cell_length_a 11.781606
_cell_length_b 13.433071
_cell_length_c 13.706512
_cell_angle_alpha 90.000000
_cell_angle_beta 137.494730
_cell_angle_gamma 90.000000
_cell_volume 1465.661538
_symmetry_space_group_name_H-M "C C"
_symmetry_group_IT_number 9
_symmetry_cell_setting 'monoclinic'
loop_
_space_group_symop_operation_xyz
x,y,z
x,-y,1/2+z
1/2+x,1/2+y,z
1/2+x,1/2-y,1/2+z
loop_
_atom_site_type_symbol
_atom_site_label
_atom_site_fract_x
_atom_site_fract_y
_atom_site_fract_z
Si Si1 0.159140 0.242189 0.306340
Si Si2 0.702864 0.167942 0.245579
Si Si3 0.864065 0.666311 0.265749
Si Si4 0.858046 0.343209 0.457320
Si Si5 0.287075 0.678746 0.074928
Si Si6 0.586390 0.348617 0.428471
Si Si7 0.245280 0.442412 0.257896
Si Si8 0.560870 0.992718 0.457291
O O1 0.299581 0.181325 0.336118
O O2 0.198504 0.240844 0.447245
O O3 0.162665 0.358264 0.274148
O O4 0.984207 0.185860 0.178218
O O5 0.806134 0.237084 0.381823
O O6 0.748649 0.198874 0.163487
O O7 0.739150 0.053556 0.297166
O O8 0.501920 0.181744 0.128479
O O9 0.703064 0.676266 0.094859
O O10 0.002581 0.749481 0.331423
O O11 0.958317 0.560065 0.315733
O O12 0.702398 0.393798 0.415671
O O13 0.925677 0.416268 0.417272
O O14 0.210855 0.569266 0.000098
O O15 0.443530 0.425945 0.367353
O O16 0.143358 0.437173 0.091828
#
# Coordination Sequence:
#
# PCOD8054785 Si02
#       8
#     4   4   4   4   4   4   4   4
#     4  11  20  38  63  88 116 156 197 241 298 352
#     4  10  22  42  59  87 124 154 196 250 291 350
#     4  11  23  40  60  89 124 152 197 250 292 350
#     4  10  22  40  61  85 118 159 197 238 298 353
#     4  10  21  36  61  88 117 156 195 239 297 348
#     4  11  22  40  64  89 115 159 199 244 299 349
#     4   9  21  40  60  88 121 151 198 251 291 345
#     4  10  23  40  56  86 125 155 195 247 290 351
#
# _framework density 21.833143
#
# number of rings (size 3 to 8) (size 9 to 14) (size 15 to 20)
#    0.000    2.000    0.000    6.000    0.000    6.000 
#    0.000   10.000    0.000    0.000    0.000    0.000 
#    0.000    0.000    0.000    0.000    0.000    0.000 
#
# Total GULP energy -198322.613352 kJ/mol
# GULP energy per Si atom -12395.163334 kJ/mol
# Density = 2.178345 g / cm^3
# Si number density = 21.833143 Si / 1000 Ang^3
#
#
#
# Elastic Constant Matrix: (Units=GPa)
#
#
# Indices 1 2 3 4 5 6 
#
# 1 92.2467 29.1094 21.3665 0.0000 27.4734 0.0000
# 2 29.1094 99.3117 59.1385 0.0000 17.5263 0.0000
# 3 21.3665 59.1385 101.8737 -0.0002 31.0105 -0.0001
# 4 0.0000 0.0000 -0.0002 43.1639 0.0000 8.9390
# 5 27.4734 17.5263 31.0105 0.0000 34.5151 0.0000
# 6 0.0000 0.0000 -0.0001 8.9390 0.0000 26.1049
#
#
#
# Elastic Compliance Matrix: (Units=1/GPa)
#
#
# Indices 1 2 3 4 5 6 
#
# 1 0.015214 -0.004005 0.003030 0.000000 -0.012799 0.000000
# 2 -0.004005 0.016446 -0.009821 0.000000 0.003661 0.000000
# 3 0.003030 -0.009821 0.019405 0.000000 -0.014860 0.000000
# 4 0.000000 0.000000 0.000000 0.024936 0.000000 -0.008539
# 5 -0.012799 0.003661 -0.014860 0.000000 0.050652 0.000000
# 6 0.000000 0.000000 0.000000 -0.008539 0.000000 0.041231
#
#
# Mechanical properties :
#
#
# Convention : Reuss Voigt Hill
#
# Bulk Modulus (GPa) = 33.92996 56.96232 45.44614
# Shear Modulus (GPa) = 25.08772 33.01128 29.04950
#
# Velocity S-wave (km/s) = 3.39346 3.89264 3.65159
# Velocity P-wave (km/s) = 5.56134 6.80808 6.21605
#
# Compressibility (1/GPa) = 0.02947248
#
# Stress axis : x y z
#
# Youngs Moduli (GPa) = 65.72723 60.80685 51.53277
#
# Poissons Ratio (x) = 0.24354 -0.15615
# Poissons Ratio (y) = 0.26325 0.50611
# Poissons Ratio (z) = -0.19916 0.59720
#
# Static dielectric constant tensor:
#      x y z
#    x 3.999850 0.000000 0.164640 
#    y 0.000000 3.779230 0.000000 
#    z 0.164640 0.000000 4.040560 
# 
# 
# High freq. dielectric constant tensor:
#      x y z
#    x 1.864490 0.000000 0.010130 
#    y 0.000000 1.841290 0.000000 
#    z 0.010130 0.000000 1.865880 
# 
# From -- ./inp_files/24851.got.cif
#   From: 2010.06.25/outbox.cif.g09.slc.cpg/sg9_13_cif.got.tgz:24851.got - 2010.06.27 21:40:51.
