data_PCOD8054650
_publ_section_title
;
Structure prediction by ZEFSAII (Michael W. Deem and Ramdas Pophale) SiO2 
 PCOD8054650
Probable space group: C C
;
_chemical_formula_sum "Si O2"
_cell_formula_units_Z 28
_cell_length_a 10.491012
_cell_length_b 9.753677
_cell_length_c 15.122722
_cell_angle_alpha 90.000000
_cell_angle_beta 124.529049
_cell_angle_gamma 90.000000
_cell_volume 1274.846876
_symmetry_space_group_name_H-M "C C"
_symmetry_group_IT_number 9
_symmetry_cell_setting 'monoclinic'
loop_
_space_group_symop_operation_xyz
x,y,z
x,-y,1/2+z
1/2+x,1/2+y,z
1/2+x,1/2-y,1/2+z
loop_
_atom_site_type_symbol
_atom_site_label
_atom_site_fract_x
_atom_site_fract_y
_atom_site_fract_z
Si Si1 0.574900 0.851123 0.731840
Si Si2 0.373928 0.909671 0.211526
Si Si3 0.475621 0.159138 0.943576
Si Si4 0.380475 0.612192 0.594668
Si Si5 0.670641 0.696305 0.934184
Si Si6 0.784329 0.116257 0.165983
Si Si7 0.552218 0.540615 0.504504
O O1 0.509438 0.732188 0.641905
O O2 0.570199 0.783484 0.825892
O O3 0.744337 0.880588 0.755798
O O4 0.481634 0.993001 0.694199
O O5 0.430988 0.917343 0.335132
O O6 0.379087 0.753101 0.177596
O O7 0.200324 0.963331 0.128277
O O8 0.326282 0.140308 0.948149
O O9 0.524243 0.316618 0.942210
O O10 0.626255 0.090817 0.047911
O O11 0.217503 0.693402 0.528056
O O12 0.390657 0.514993 0.684647
O O13 0.407050 0.521679 0.515325
O O14 0.566168 0.577304 0.936073
#
# Coordination Sequence:
#
# PCOD8054650 Si02
#       7
#     4   4   4   4   4   4   4
#     4  12  23  41  65  92 127 170 205 268 319 372
#     4  11  21  42  64  91 129 164 211 257 319 372
#     4  10  20  40  62  91 124 167 204 261 312 373
#     4  11  23  40  65  91 126 167 212 259 314 379
#     4  11  21  40  67  91 128 168 210 261 320 375
#     4  11  23  41  64  92 127 165 210 261 313 376
#     4  10  21  40  65  92 127 169 210 263 317 373
#
# _framework density 21.963421
#
# number of rings (size 3 to 8) (size 9 to 14) (size 15 to 20)
#    0.000    1.143    7.143    0.857    2.000    1.143 
#    0.000    2.857    0.000    0.000    0.000    0.000 
#    0.000    0.000    0.000    0.000    0.000    0.000 
#
# Total GULP energy -173468.852197 kJ/mol
# GULP energy per Si atom -12390.632300 kJ/mol
# Density = 2.191343 g / cm^3
# Si number density = 21.963421 Si / 1000 Ang^3
#
#
#
# Elastic Constant Matrix: (Units=GPa)
#
#
# Indices 1 2 3 4 5 6 
#
# 1 78.6504 65.2631 -2.2763 0.0000 -19.5198 0.0000
# 2 65.2631 121.6822 7.7625 0.0000 -30.5797 0.0000
# 3 -2.2763 7.7625 59.7694 0.0000 -11.4203 0.0000
# 4 0.0000 0.0000 0.0000 37.9954 0.0000 -9.4537
# 5 -19.5198 -30.5797 -11.4203 0.0000 30.3285 0.0000
# 6 0.0000 0.0000 0.0000 -9.4537 0.0000 40.4903
#
#
#
# Elastic Compliance Matrix: (Units=1/GPa)
#
#
# Indices 1 2 3 4 5 6 
#
# 1 0.023734 -0.011771 0.003323 0.000000 0.004658 0.000000
# 2 -0.011771 0.016876 -0.000901 0.000000 0.009100 0.000000
# 3 0.003323 -0.000901 0.018544 0.000000 0.008213 0.000000
# 4 0.000000 0.000000 0.000000 0.027942 0.000000 0.006524
# 5 0.004658 0.009100 0.008213 0.000000 0.048239 0.000000
# 6 0.000000 0.000000 0.000000 0.006524 0.000000 0.026221
#
#
# Mechanical properties :
#
#
# Convention : Reuss Voigt Hill
#
# Bulk Modulus (GPa) = 24.71882 44.62230 34.67056
# Shear Modulus (GPa) = 25.80797 34.38635 30.09716
#
# Velocity S-wave (km/s) = 3.43161 3.96108 3.70581
# Velocity P-wave (km/s) = 5.19425 6.42503 5.84214
#
# Compressibility (1/GPa) = 0.04045501
#
# Stress axis : x y z
#
# Youngs Moduli (GPa) = 42.13355 59.25645 53.92652
#
# Poissons Ratio (x) = 0.69750 -0.17918
# Poissons Ratio (y) = 0.49595 0.04860
# Poissons Ratio (z) = -0.14000 0.05340
#
# Static dielectric constant tensor:
#      x y z
#    x 3.688310 0.000000 0.164020 
#    y 0.000000 3.948870 0.000000 
#    z 0.164020 0.000000 4.161130 
# 
# 
# High freq. dielectric constant tensor:
#      x y z
#    x 1.837450 0.000000 0.005550 
#    y 0.000000 1.855030 0.000000 
#    z 0.005550 0.000000 1.875600 
# 
# From -- ./inp_files/24031.got.cif
#   From: 2010.06.25/outbox.cif.g09.slc.cpg/sg9_13_cif.got.tgz:24031.got - 2010.06.27 21:40:51.
