data_PCOD8054530
_publ_section_title
;
Structure prediction by ZEFSAII (Michael W. Deem and Ramdas Pophale) SiO2 
 PCOD8054530
Probable space group: C C
;
_chemical_formula_sum "Si O2"
_cell_formula_units_Z 32
_cell_length_a 9.023478
_cell_length_b 25.784175
_cell_length_c 7.531126
_cell_angle_alpha 90.000000
_cell_angle_beta 103.215464
_cell_angle_gamma 90.000000
_cell_volume 1705.810419
_symmetry_space_group_name_H-M "C C"
_symmetry_group_IT_number 9
_symmetry_cell_setting 'monoclinic'
loop_
_space_group_symop_operation_xyz
x,y,z
x,-y,1/2+z
1/2+x,1/2+y,z
1/2+x,1/2-y,1/2+z
loop_
_atom_site_type_symbol
_atom_site_label
_atom_site_fract_x
_atom_site_fract_y
_atom_site_fract_z
Si Si1 0.871480 0.753585 0.150690
Si Si2 0.892003 0.168860 0.333226
Si Si3 0.927695 0.650707 0.572674
Si Si4 0.334732 0.947991 0.218308
Si Si5 0.649652 0.596783 0.381780
Si Si6 0.513541 0.259062 0.573977
Si Si7 0.547197 0.848111 0.732026
Si Si8 0.335323 0.941535 0.615006
O O1 0.692371 0.744282 0.089620
O O2 0.927607 0.769161 0.363184
O O3 0.954373 0.699841 0.121723
O O4 0.912720 0.798506 0.020226
O O5 0.978613 0.194144 0.192436
O O6 0.721417 0.157865 0.223542
O O7 0.975861 0.113023 0.367602
O O8 0.950813 0.600816 0.709676
O O9 0.758430 0.647372 0.441268
O O10 0.950242 0.707663 0.662775
O O11 0.049801 0.650734 0.446782
O O12 0.270980 0.945130 0.399039
O O13 0.410171 0.004168 0.202861
O O14 0.191049 0.945399 0.044584
O O15 0.692117 0.574327 0.199163
O O16 0.474933 0.901641 0.646975
#
# Coordination Sequence:
#
# PCOD8054530 Si02
#       8
#     4   4   4   4   4   4   4   4
#     4  11  24  40  60  89 125 173 206 253 303 367
#     4  12  24  39  62  87 134 161 203 260 310 355
#     4   8  18  38  55  90 118 154 204 247 293 359
#     4  10  20  36  72  88 113 160 202 256 306 370
#     4   9  22  37  60  91 121 150 205 252 300 370
#     4  11  23  38  60  90 129 166 214 249 300 374
#     4  10  22  38  58  92 121 162 206 253 299 368
#     4  11  19  40  67  89 119 152 212 250 311 369
#
# _framework density 18.759412999999999
#
# number of rings (size 3 to 8) (size 9 to 14) (size 15 to 20)
#    0.750    1.000    3.750    2.250    5.250    2.000 
#    0.000    0.000    5.500    0.000    0.000    0.000 
#    0.000    0.000    0.000    0.000    0.000    0.000 
#
# Total GULP energy -198214.292530 kJ/mol
# GULP energy per Si atom -12388.393283 kJ/mol
# Density = 1.871672 g / cm^3
# Si number density = 18.759413 Si / 1000 Ang^3
#
#
#
# Elastic Constant Matrix: (Units=GPa)
#
#
# Indices 1 2 3 4 5 6 
#
# 1 81.5144 26.2496 35.7843 0.0000 0.6848 0.0000
# 2 26.2496 103.2917 32.1066 0.0000 -2.3284 0.0000
# 3 35.7843 32.1066 104.6153 0.0000 -15.8994 0.0000
# 4 0.0000 0.0000 0.0000 29.7064 0.0000 -5.7386
# 5 0.6848 -2.3284 -15.8994 0.0000 22.6173 0.0000
# 6 0.0000 0.0000 0.0000 -5.7386 0.0000 28.0329
#
#
#
# Elastic Compliance Matrix: (Units=1/GPa)
#
#
# Indices 1 2 3 4 5 6 
#
# 1 0.015346 -0.002389 -0.005177 0.000000 -0.004350 0.000000
# 2 -0.002389 0.011111 -0.002696 0.000000 -0.000679 0.000000
# 3 -0.005177 -0.002696 0.013591 0.000000 0.009433 0.000000
# 4 0.000000 0.000000 0.000000 0.035049 0.000000 0.007175
# 5 -0.004350 -0.000679 0.009433 0.000000 0.050907 0.000000
# 6 0.000000 0.000000 0.000000 0.007175 0.000000 0.037141
#
#
# Mechanical properties :
#
#
# Convention : Reuss Voigt Hill
#
# Bulk Modulus (GPa) = 51.21926 53.07806 52.14866
# Shear Modulus (GPa) = 26.29119 29.09005 27.69062
#
# Velocity S-wave (km/s) = 3.74771 3.94215 3.84616
# Velocity P-wave (km/s) = 6.78894 7.00545 6.89804
#
# Compressibility (1/GPa) = 0.01952391
#
# Stress axis : x y z
#
# Youngs Moduli (GPa) = 65.16206 89.99996 73.57864
#
# Poissons Ratio (x) = 0.21499 0.38094
# Poissons Ratio (y) = 0.15566 0.19838
# Poissons Ratio (z) = 0.33737 0.24265
#
# Static dielectric constant tensor:
#      x y z
#    x 3.181570 0.000000 -0.089180 
#    y 0.000000 3.615610 0.000000 
#    z -0.089180 0.000000 3.417210 
# 
# 
# High freq. dielectric constant tensor:
#      x y z
#    x 1.702200 0.000000 -0.014980 
#    y 0.000000 1.731140 0.000000 
#    z -0.014980 0.000000 1.727490 
# 
# From -- ./inp_files/6095.got.cif
#   From: 2010.06.25/outbox.cif.g09.slc.cpg/sg9_4_cif.got.tgz:6095.got - 2010.06.27 21:40:51.
