data_PCOD8054596
_publ_section_title
;
Structure prediction by ZEFSAII (Michael W. Deem and Ramdas Pophale) SiO2 
 PCOD8054596
Probable space group: C C
;
_chemical_formula_sum "Si O2"
_cell_formula_units_Z 32
_cell_length_a 10.745030
_cell_length_b 15.776474
_cell_length_c 9.515466
_cell_angle_alpha 90.000000
_cell_angle_beta 65.422881
_cell_angle_gamma 90.000000
_cell_volume 1466.910705
_symmetry_space_group_name_H-M "C C"
_symmetry_group_IT_number 9
_symmetry_cell_setting 'monoclinic'
loop_
_space_group_symop_operation_xyz
x,y,z
x,-y,1/2+z
1/2+x,1/2+y,z
1/2+x,1/2-y,1/2+z
loop_
_atom_site_type_symbol
_atom_site_label
_atom_site_fract_x
_atom_site_fract_y
_atom_site_fract_z
Si Si1 0.633020 0.615856 0.516060
Si Si2 0.996774 0.556082 0.035751
Si Si3 0.347538 0.783504 0.521747
Si Si4 0.424238 0.526429 0.176078
Si Si5 0.464050 0.267006 0.259667
Si Si6 0.294499 0.590836 0.964953
Si Si7 0.934772 0.581246 0.362780
Si Si8 0.062685 0.816481 0.753047
O O1 0.524006 0.540504 0.554279
O O2 0.601338 0.680905 0.659232
O O3 0.780213 0.581105 0.489961
O O4 0.641486 0.661391 0.360821
O O5 0.892563 0.618008 0.002993
O O6 0.935304 0.530710 0.215439
O O7 0.023108 0.470531 0.935168
O O8 0.136682 0.606792 0.001418
O O9 0.388667 0.737056 0.645645
O O10 0.180540 0.774378 0.596086
O O11 0.428096 0.740889 0.351648
O O12 0.346891 0.482851 0.339547
O O13 0.514114 0.602137 0.192591
O O14 0.313083 0.559435 0.115847
O O15 0.371389 0.320072 0.411040
O O16 0.495532 0.176125 0.314431
#
# Coordination Sequence:
#
# PCOD8054596 Si02
#       8
#     4   4   4   4   4   4   4   4
#     4  10  20  38  67  91 124 170 227 265 334 408
#     4  11  23  41  65  94 136 171 220 275 340 400
#     4  10  21  40  67  98 134 179 224 274 353 413
#     4  11  23  41  67  93 128 175 226 279 336 408
#     4   9  21  37  67  90 128 179 217 266 334 415
#     4  11  23  42  63  97 130 179 225 274 333 413
#     4  11  23  40  65  98 127 175 215 279 333 399
#     4  11  20  41  67  99 129 178 226 280 333 418
#
# _framework density 21.814551000000002
#
# number of rings (size 3 to 8) (size 9 to 14) (size 15 to 20)
#    0.000    1.500    3.750    2.250    3.500    0.000 
#    4.500    2.500    0.000    0.000    0.000    0.000 
#    0.000    0.000    0.000    0.000    0.000    0.000 
#
# Total GULP energy -198364.448014 kJ/mol
# GULP energy per Si atom -12397.778001 kJ/mol
# Density = 2.176490 g / cm^3
# Si number density = 21.814551 Si / 1000 Ang^3
#
#
#
# Elastic Constant Matrix: (Units=GPa)
#
#
# Indices 1 2 3 4 5 6 
#
# 1 54.4028 24.1278 37.2514 0.0000 -21.0167 0.0000
# 2 24.1278 106.9889 55.6271 0.0000 2.7354 0.0000
# 3 37.2514 55.6271 87.4617 0.0000 -17.2226 0.0000
# 4 0.0000 0.0000 0.0000 31.3663 0.0000 1.8286
# 5 -21.0167 2.7354 -17.2226 0.0000 36.2648 0.0000
# 6 0.0000 0.0000 0.0000 1.8286 0.0000 29.1788
#
#
#
# Elastic Compliance Matrix: (Units=1/GPa)
#
#
# Indices 1 2 3 4 5 6 
#
# 1 0.030986 -0.002883 -0.008588 0.000000 0.014097 0.000000
# 2 -0.002883 0.015441 -0.010095 0.000000 -0.007630 0.000000
# 3 -0.008588 -0.010095 0.022816 0.000000 0.006620 0.000000
# 4 0.000000 0.000000 0.000000 0.031998 0.000000 -0.002005
# 5 0.014097 -0.007630 0.006620 0.000000 0.039464 0.000000
# 6 0.000000 0.000000 0.000000 -0.002005 0.000000 0.034397
#
#
# Mechanical properties :
#
#
# Convention : Reuss Voigt Hill
#
# Bulk Modulus (GPa) = 38.29924 53.65178 45.97551
# Shear Modulus (GPa) = 22.03247 28.15178 25.09212
#
# Velocity S-wave (km/s) = 3.18148 3.59626 3.39521
# Velocity P-wave (km/s) = 5.57590 6.47240 6.04080
#
# Compressibility (1/GPa) = 0.02611018
#
# Stress axis : x y z
#
# Youngs Moduli (GPa) = 32.27231 64.76345 43.82970
#
# Poissons Ratio (x) = 0.18672 0.37641
# Poissons Ratio (y) = 0.09304 0.44246
# Poissons Ratio (z) = 0.27716 0.65379
#
# Static dielectric constant tensor:
#      x y z
#    x 3.722730 0.000000 -0.385030 
#    y 0.000000 3.958360 0.000000 
#    z -0.385030 0.000000 4.068090 
# 
# 
# High freq. dielectric constant tensor:
#      x y z
#    x 1.837740 0.000000 -0.028620 
#    y 0.000000 1.856690 0.000000 
#    z -0.028620 0.000000 1.858560 
# 
# From -- ./inp_files/7578.got.cif
#   From: 2010.06.25/outbox.cif.g09.slc.cpg/sg9_4_cif.got.tgz:7578.got - 2010.06.27 21:40:51.
