data_PCOD8054759
_publ_section_title
;
Structure prediction by ZEFSAII (Michael W. Deem and Ramdas Pophale) SiO2 
 PCOD8054759
Probable space group: C C
;
_chemical_formula_sum "Si O2"
_cell_formula_units_Z 28
_cell_length_a 9.671618
_cell_length_b 11.118535
_cell_length_c 13.471065
_cell_angle_alpha 90.000000
_cell_angle_beta 70.152094
_cell_angle_gamma 90.000000
_cell_volume 1362.549607
_symmetry_space_group_name_H-M "C C"
_symmetry_group_IT_number 9
_symmetry_cell_setting 'monoclinic'
loop_
_space_group_symop_operation_xyz
x,y,z
x,-y,1/2+z
1/2+x,1/2+y,z
1/2+x,1/2-y,1/2+z
loop_
_atom_site_type_symbol
_atom_site_label
_atom_site_fract_x
_atom_site_fract_y
_atom_site_fract_z
Si Si1 0.834200 0.788163 0.894030
Si Si2 0.993880 0.421746 0.266943
Si Si3 0.527294 0.170315 0.370621
Si Si4 0.516910 0.601091 0.193593
Si Si5 0.264116 0.271538 0.131908
Si Si6 0.524290 0.675289 0.696367
Si Si7 0.864498 0.692996 0.612562
O O1 0.896018 0.651883 0.871032
O O2 0.695564 0.808880 0.857024
O O3 0.960145 0.875203 0.819403
O O4 0.794292 0.823406 0.015012
O O5 0.009774 0.556613 0.301399
O O6 0.907756 0.410382 0.182143
O O7 0.156650 0.364403 0.215317
O O8 0.477742 0.287873 0.319668
O O9 0.428835 0.154946 0.491132
O O10 0.687554 0.640483 0.144776
O O11 0.498633 0.462596 0.175310
O O12 0.429173 0.679582 0.133420
O O13 0.419115 0.252166 0.147667
O O14 0.692206 0.711032 0.638139
#
# Coordination Sequence:
#
# PCOD8054759 Si02
#       7
#     4   4   4   4   4   4   4
#     4  10  20  45  67  93 135 182 216 279 340 386
#     4  10  23  42  70  98 133 175 224 276 330 399
#     4  12  23  41  73 100 131 184 229 264 344 403
#     4  10  23  45  65  95 135 173 222 277 333 396
#     4  10  23  43  67  96 135 176 220 281 334 391
#     4  12  26  41  68 102 131 173 230 280 322 414
#     4  10  24  45  66  98 138 179 215 281 343 383
#
# _framework density 20.549710000000001
#
# number of rings (size 3 to 8) (size 9 to 14) (size 15 to 20)
#    0.000    1.714    5.714    0.857    4.000    3.429 
#    0.000    0.000    0.000    0.000    0.000    0.000 
#    0.000    0.000    0.000    0.000    0.000    0.000 
#
# Total GULP energy -173541.880135 kJ/mol
# GULP energy per Si atom -12395.848581 kJ/mol
# Density = 2.050294 g / cm^3
# Si number density = 20.549710 Si / 1000 Ang^3
#
#
#
# Elastic Constant Matrix: (Units=GPa)
#
#
# Indices 1 2 3 4 5 6 
#
# 1 162.7931 39.9723 47.8532 0.0000 5.2050 0.0000
# 2 39.9723 81.4609 42.8330 0.0000 5.6807 0.0000
# 3 47.8532 42.8330 126.3928 0.0000 2.8043 0.0000
# 4 0.0000 0.0000 0.0000 18.4693 0.0000 1.7905
# 5 5.2050 5.6807 2.8043 0.0000 29.8684 0.0000
# 6 0.0000 0.0000 0.0000 1.7905 0.0000 18.4341
#
#
#
# Elastic Compliance Matrix: (Units=1/GPa)
#
#
# Indices 1 2 3 4 5 6 
#
# 1 0.007351 -0.002565 -0.001900 0.000000 -0.000615 0.000000
# 2 -0.002565 0.016002 -0.004403 0.000000 -0.002183 0.000000
# 3 -0.001900 -0.004403 0.010119 0.000000 0.000219 0.000000
# 4 0.000000 0.000000 0.000000 0.054659 0.000000 -0.005309
# 5 -0.000615 -0.002183 0.000219 0.000000 0.033982 0.000000
# 6 0.000000 0.000000 0.000000 -0.005309 0.000000 0.054763
#
#
# Mechanical properties :
#
#
# Convention : Reuss Voigt Hill
#
# Bulk Modulus (GPa) = 63.55476 70.21819 66.88647
# Shear Modulus (GPa) = 25.01792 29.35357 27.18575
#
# Velocity S-wave (km/s) = 3.49296 3.78354 3.64115
# Velocity P-wave (km/s) = 6.87475 7.30281 7.09201
#
# Compressibility (1/GPa) = 0.01573446
#
# Stress axis : x y z
#
# Youngs Moduli (GPa) = 136.03985 62.49219 98.82738
#
# Poissons Ratio (x) = 0.16029 0.18779
# Poissons Ratio (y) = 0.34894 0.43517
# Poissons Ratio (z) = 0.25850 0.27517
#
# Static dielectric constant tensor:
#      x y z
#    x 3.837920 0.000000 -0.110370 
#    y 0.000000 3.508320 0.000000 
#    z -0.110370 0.000000 3.798350 
# 
# 
# High freq. dielectric constant tensor:
#      x y z
#    x 1.812850 0.000000 -0.008290 
#    y 0.000000 1.786090 0.000000 
#    z -0.008290 0.000000 1.807370 
# 
# From -- ./inp_files/22641.got.cif
#   From: 2010.06.25/outbox.cif.g09.slc.cpg/sg9_12_cif.got.tgz:22641.got - 2010.06.27 21:40:51.
