data_PCOD8054546
_publ_section_title
;
Structure prediction by ZEFSAII (Michael W. Deem and Ramdas Pophale) SiO2 
 PCOD8054546
Probable space group: C C
;
_chemical_formula_sum "Si O2"
_cell_formula_units_Z 32
_cell_length_a 12.722032
_cell_length_b 17.178981
_cell_length_c 8.875712
_cell_angle_alpha 90.000000
_cell_angle_beta 53.398825
_cell_angle_gamma 90.000000
_cell_volume 1557.282085
_symmetry_space_group_name_H-M "C C"
_symmetry_group_IT_number 9
_symmetry_cell_setting 'monoclinic'
loop_
_space_group_symop_operation_xyz
x,y,z
x,-y,1/2+z
1/2+x,1/2+y,z
1/2+x,1/2-y,1/2+z
loop_
_atom_site_type_symbol
_atom_site_label
_atom_site_fract_x
_atom_site_fract_y
_atom_site_fract_z
Si Si1 0.919070 0.382504 0.570810
Si Si2 0.087556 0.003451 0.066754
Si Si3 0.266823 0.040014 0.671344
Si Si4 0.616487 0.812283 0.991646
Si Si5 0.926229 0.920502 0.954285
Si Si6 0.383606 0.746085 0.380753
Si Si7 0.136022 0.452186 0.190959
Si Si8 0.500793 0.114779 0.323958
O O1 0.814750 0.451694 0.654753
O O2 0.858951 0.315481 0.518513
O O3 0.060688 0.409187 0.390007
O O4 0.939887 0.350296 0.723030
O O5 0.172956 0.952522 0.107956
O O6 0.977490 0.052085 0.247057
O O7 0.024303 0.943564 0.002904
O O8 0.184412 0.062274 0.891803
O O9 0.387721 0.097650 0.544745
O O10 0.501972 0.762352 0.165844
O O11 0.623639 0.899988 0.051378
O O12 0.752536 0.767264 0.896018
O O13 0.592883 0.823094 0.831461
O O14 0.914354 0.827896 0.959212
O O15 0.787313 0.961167 0.107362
O O16 0.074772 0.536201 0.210323
#
# Coordination Sequence:
#
# PCOD8054546 Si02
#       8
#     4   4   4   4   4   4   4   4
#     4  10  21  38  65  86 122 163 203 250 293 370
#     4  10  22  36  61  93 120 156 195 253 308 352
#     4  10  20  37  61  97 117 153 205 254 304 345
#     4  10  23  40  64  91 117 168 202 250 305 361
#     4  10  23  40  61  88 123 161 196 248 308 364
#     4  10  24  43  61  84 125 172 202 235 309 378
#     4   9  20  38  62  92 121 155 205 252 304 354
#     4  11  21  36  65  93 119 150 212 264 291 340
#
# _framework density 20.548621000000001
#
# number of rings (size 3 to 8) (size 9 to 14) (size 15 to 20)
#    0.000    2.000    1.250    1.500   12.250    0.000 
#    0.000    7.500    0.000    0.000    0.000    0.000 
#    0.000    0.000    0.000    0.000    0.000    0.000 
#
# Total GULP energy -198421.647136 kJ/mol
# GULP energy per Si atom -12401.352946 kJ/mol
# Density = 2.050185 g / cm^3
# Si number density = 20.548621 Si / 1000 Ang^3
#
#
#
# Elastic Constant Matrix: (Units=GPa)
#
#
# Indices 1 2 3 4 5 6 
#
# 1 128.3848 36.4810 48.2129 0.0000 1.0175 0.0000
# 2 36.4810 50.2429 22.4390 0.0000 -0.5643 0.0000
# 3 48.2129 22.4390 89.4160 0.0000 -5.6793 0.0000
# 4 0.0000 0.0000 0.0000 14.6204 0.0000 -3.2735
# 5 1.0175 -0.5643 -5.6793 0.0000 43.2167 0.0000
# 6 0.0000 0.0000 0.0000 -3.2735 0.0000 27.1451
#
#
#
# Elastic Compliance Matrix: (Units=1/GPa)
#
#
# Indices 1 2 3 4 5 6 
#
# 1 0.011266 -0.006139 -0.004595 0.000000 -0.000949 0.000000
# 2 -0.006139 0.025770 -0.003152 0.000000 0.000067 0.000000
# 3 -0.004595 -0.003152 0.014578 0.000000 0.001983 0.000000
# 4 0.000000 0.000000 0.000000 0.070296 0.000000 0.008477
# 5 -0.000949 0.000067 0.001983 0.000000 0.023423 0.000000
# 6 0.000000 0.000000 0.000000 0.008477 0.000000 0.037861
#
#
# Mechanical properties :
#
#
# Convention : Reuss Voigt Hill
#
# Bulk Modulus (GPa) = 41.94301 53.58995 47.76648
# Shear Modulus (GPa) = 22.84006 27.72383 25.28194
#
# Velocity S-wave (km/s) = 3.33755 3.67711 3.51144
# Velocity P-wave (km/s) = 5.94207 6.64563 6.30367
#
# Compressibility (1/GPa) = 0.02384187
#
# Stress axis : x y z
#
# Youngs Moduli (GPa) = 88.75890 38.80542 68.59625
#
# Poissons Ratio (x) = 0.23823 0.31517
# Poissons Ratio (y) = 0.54491 0.21624
# Poissons Ratio (z) = 0.40780 0.12233
#
# Static dielectric constant tensor:
#      x y z
#    x 3.787730 0.000000 -0.140460 
#    y 0.000000 3.418430 0.000000 
#    z -0.140460 0.000000 3.877870 
# 
# 
# High freq. dielectric constant tensor:
#      x y z
#    x 1.817390 0.000000 -0.005270 
#    y 0.000000 1.771180 0.000000 
#    z -0.005270 0.000000 1.809800 
# 
# From -- ./inp_files/8040.got.cif
#   From: 2010.06.25/outbox.cif.g09.slc.cpg/sg9_5_cif.got.tgz:8040.got - 2010.06.27 21:40:51.
