data_PCOD8054744
_publ_section_title
;
Structure prediction by ZEFSAII (Michael W. Deem and Ramdas Pophale) SiO2 
 PCOD8054744
Probable space group: C C
;
_chemical_formula_sum "Si O2"
_cell_formula_units_Z 32
_cell_length_a 8.689357
_cell_length_b 20.008375
_cell_length_c 10.100486
_cell_angle_alpha 90.000000
_cell_angle_beta 49.210195
_cell_angle_gamma 90.000000
_cell_volume 1329.540173
_symmetry_space_group_name_H-M "C C"
_symmetry_group_IT_number 9
_symmetry_cell_setting 'monoclinic'
loop_
_space_group_symop_operation_xyz
x,y,z
x,-y,1/2+z
1/2+x,1/2+y,z
1/2+x,1/2-y,1/2+z
loop_
_atom_site_type_symbol
_atom_site_label
_atom_site_fract_x
_atom_site_fract_y
_atom_site_fract_z
Si Si1 0.834160 0.323926 0.934090
Si Si2 0.423983 0.013405 0.759539
Si Si3 0.085248 0.300411 0.541031
Si Si4 0.136308 0.377529 0.267617
Si Si5 0.062822 0.079337 0.450791
Si Si6 0.973416 0.853895 0.740526
Si Si7 0.589718 0.072948 0.397440
Si Si8 0.751570 0.242872 0.540828
O O1 0.974086 0.331791 0.726801
O O2 0.769760 0.246779 0.991387
O O3 0.637814 0.370697 0.023330
O O4 0.962393 0.356815 0.982848
O O5 0.433264 0.081068 0.842690
O O6 0.529987 0.025247 0.555464
O O7 0.539491 0.957787 0.782361
O O8 0.186733 0.990921 0.880103
O O9 0.162151 0.363355 0.409569
O O10 0.941078 0.255306 0.531353
O O11 0.320303 0.425896 0.112302
O O12 0.110869 0.307067 0.206680
O O13 0.101601 0.113276 0.286879
O O14 0.137652 0.811974 0.561849
O O15 0.832456 0.910796 0.753343
O O16 0.818915 0.796175 0.874074
#
# Coordination Sequence:
#
# PCOD8054744 Si02
#       8
#     4   4   4   4   4   4   4   4
#     4  11  22  39  69 104 145 183 234 294 356 434
#     4  11  26  47  70  97 141 199 241 297 348 412
#     4  12  19  38  71 112 139 188 225 291 368 441
#     4  11  21  41  72 101 140 185 237 287 355 422
#     4  10  20  43  68  96 134 194 244 289 335 429
#     4  11  21  42  68 102 138 178 233 289 356 430
#     4  11  27  47  69  98 147 184 242 306 349 416
#     4  11  18  35  71 102 136 179 222 283 365 428
#
# _framework density 24.068472
#
# number of rings (size 3 to 8) (size 9 to 14) (size 15 to 20)
#    0.000    1.000    8.750    0.000    3.500    1.000 
#    6.750    0.000    5.500    0.000    0.000    0.000 
#    0.000    0.000    0.000    0.000    0.000    0.000 
#
# Total GULP energy -198210.285389 kJ/mol
# GULP energy per Si atom -12388.142837 kJ/mol
# Density = 2.401369 g / cm^3
# Si number density = 24.068472 Si / 1000 Ang^3
#
#
#
# Elastic Constant Matrix: (Units=GPa)
#
#
# Indices 1 2 3 4 5 6 
#
# 1 84.8161 42.7846 9.1727 0.0000 -7.3481 0.0000
# 2 42.7846 104.7132 35.7776 0.0000 -15.8801 0.0000
# 3 9.1727 35.7776 62.0727 0.0000 4.4232 0.0000
# 4 0.0000 0.0000 0.0000 43.3625 0.0000 -17.3548
# 5 -7.3481 -15.8801 4.4232 0.0000 23.6549 0.0000
# 6 0.0000 0.0000 0.0000 -17.3548 0.0000 62.5145
#
#
#
# Elastic Compliance Matrix: (Units=1/GPa)
#
#
# Indices 1 2 3 4 5 6 
#
# 1 0.014984 -0.006718 0.001670 0.000000 -0.000168 0.000000
# 2 -0.006718 0.017393 -0.009847 0.000000 0.011430 0.000000
# 3 0.001670 -0.009847 0.022270 0.000000 -0.010256 0.000000
# 4 0.000000 0.000000 0.000000 0.025944 0.000000 0.007202
# 5 -0.000168 0.011430 -0.010256 0.000000 0.051814 0.000000
# 6 0.000000 0.000000 0.000000 0.007202 0.000000 0.017996
#
#
# Mechanical properties :
#
#
# Convention : Reuss Voigt Hill
#
# Bulk Modulus (GPa) = 40.23079 47.45241 43.84160
# Shear Modulus (GPa) = 26.52874 36.83084 31.67979
#
# Velocity S-wave (km/s) = 3.32357 3.91609 3.63193
# Velocity P-wave (km/s) = 5.61067 6.34082 5.98689
#
# Compressibility (1/GPa) = 0.02485659
#
# Stress axis : x y z
#
# Youngs Moduli (GPa) = 66.73744 57.49539 44.90441
#
# Poissons Ratio (x) = 0.38628 -0.07499
# Poissons Ratio (y) = 0.44837 0.44215
# Poissons Ratio (z) = -0.11146 0.56613
#
# Static dielectric constant tensor:
#      x y z
#    x 4.384530 0.000000 -0.195360 
#    y 0.000000 4.537410 0.000000 
#    z -0.195360 0.000000 4.137550 
# 
# 
# High freq. dielectric constant tensor:
#      x y z
#    x 1.940890 0.000000 -0.013710 
#    y 0.000000 1.959290 0.000000 
#    z -0.013710 0.000000 1.931760 
# 
# From -- ./inp_files/15479.got.cif
#   From: 2010.06.25/outbox.cif.g09.slc.cpg/sg9_8_cif.got.tgz:15479.got - 2010.06.27 21:40:51.
