data_PCOD8054615
_publ_section_title
;
Structure prediction by ZEFSAII (Michael W. Deem and Ramdas Pophale) SiO2 
 PCOD8054615
Probable space group: C C
;
_chemical_formula_sum "Si O2"
_cell_formula_units_Z 32
_cell_length_a 15.044529
_cell_length_b 16.667548
_cell_length_c 9.984210
_cell_angle_alpha 90.000000
_cell_angle_beta 141.045007
_cell_angle_gamma 90.000000
_cell_volume 1574.034333
_symmetry_space_group_name_H-M "C C"
_symmetry_group_IT_number 9
_symmetry_cell_setting 'monoclinic'
loop_
_space_group_symop_operation_xyz
x,y,z
x,-y,1/2+z
1/2+x,1/2+y,z
1/2+x,1/2-y,1/2+z
loop_
_atom_site_type_symbol
_atom_site_label
_atom_site_fract_x
_atom_site_fract_y
_atom_site_fract_z
Si Si1 0.835420 0.442048 0.457580
Si Si2 0.099817 0.622301 0.656019
Si Si3 0.832014 0.187818 0.554201
Si Si4 0.572514 0.170714 0.924938
Si Si5 0.801216 0.422168 0.717401
Si Si6 0.308432 0.783435 0.278165
Si Si7 0.655195 0.948181 0.750483
Si Si8 0.630536 0.268259 0.510656
O O1 0.774612 0.454020 0.535644
O O2 0.767525 0.509896 0.285362
O O3 0.773570 0.359445 0.329222
O O4 0.006605 0.444893 0.656839
O O5 0.057211 0.640951 0.757016
O O6 0.197145 0.541303 0.769951
O O7 0.168420 0.699438 0.664656
O O8 0.963076 0.604047 0.408085
O O9 0.871968 0.215892 0.451600
O O10 0.780020 0.094485 0.484485
O O11 0.696184 0.238400 0.447010
O O12 0.965345 0.207386 0.804948
O O13 0.417049 0.194465 0.789574
O O14 0.668449 0.250101 0.043112
O O15 0.636244 0.098949 0.088714
O O16 0.704318 0.348541 0.646500
#
# Coordination Sequence:
#
# PCOD8054615 Si02
#       8
#     4   4   4   4   4   4   4   4
#     4  10  21  39  64  94 126 170 218 268 323 392
#     4  11  24  39  64  93 133 167 218 265 328 387
#     4  11  21  41  69  92 128 163 223 260 324 394
#     4  10  23  37  62  93 123 165 210 266 317 391
#     4  11  24  39  65  93 128 171 221 269 322 392
#     4  10  20  39  62  91 122 163 209 261 324 384
#     4   9  22  38  65  93 122 168 213 267 316 393
#     4  12  23  40  65  97 128 171 216 272 326 391
#
# _framework density 20.329926
#
# number of rings (size 3 to 8) (size 9 to 14) (size 15 to 20)
#    0.000    1.500    2.500    3.000   14.000    0.000 
#    0.000    2.500    0.000    0.000    0.000    0.000 
#    0.000    0.000    0.000    0.000    0.000    0.000 
#
# Total GULP energy -198355.977444 kJ/mol
# GULP energy per Si atom -12397.248590 kJ/mol
# Density = 2.028365 g / cm^3
# Si number density = 20.329926 Si / 1000 Ang^3
#
#
#
# Elastic Constant Matrix: (Units=GPa)
#
#
# Indices 1 2 3 4 5 6 
#
# 1 83.5597 55.6607 35.7031 0.0000 -20.0001 0.0000
# 2 55.6607 162.2883 62.4414 0.0000 -5.9858 0.0000
# 3 35.7031 62.4414 68.4135 0.0000 -6.9980 0.0000
# 4 0.0000 0.0000 0.0000 37.7769 0.0000 -1.3199
# 5 -20.0001 -5.9858 -6.9980 0.0000 28.2792 0.0000
# 6 0.0000 0.0000 0.0000 -1.3199 0.0000 32.8077
#
#
#
# Elastic Compliance Matrix: (Units=1/GPa)
#
#
# Indices 1 2 3 4 5 6 
#
# 1 0.019972 -0.004422 -0.005169 0.000000 0.011910 0.000000
# 2 -0.004422 0.010476 -0.007538 0.000000 -0.002775 0.000000
# 3 -0.005169 -0.007538 0.024272 0.000000 0.000755 0.000000
# 4 0.000000 0.000000 0.000000 0.026508 0.000000 0.001066
# 5 0.011910 -0.002775 0.000755 0.000000 0.043384 0.000000
# 6 0.000000 0.000000 0.000000 0.001066 0.000000 0.030524
#
#
# Mechanical properties :
#
#
# Convention : Reuss Voigt Hill
#
# Bulk Modulus (GPa) = 48.86909 69.09689 58.98299
# Shear Modulus (GPa) = 25.48222 30.46985 27.97604
#
# Velocity S-wave (km/s) = 3.54423 3.87559 3.71361
# Velocity P-wave (km/s) = 6.39053 7.35449 6.88939
#
# Compressibility (1/GPa) = 0.02046283
#
# Stress axis : x y z
#
# Youngs Moduli (GPa) = 50.06964 95.45190 41.20022
#
# Poissons Ratio (x) = 0.42209 0.21295
# Poissons Ratio (y) = 0.22141 0.31057
# Poissons Ratio (z) = 0.25879 0.71953
#
# Static dielectric constant tensor:
#      x y z
#    x 3.517620 0.000000 -0.084770 
#    y 0.000000 4.021920 0.000000 
#    z -0.084770 0.000000 3.510530 
# 
# 
# High freq. dielectric constant tensor:
#      x y z
#    x 1.780640 0.000000 -0.018650 
#    y 0.000000 1.806830 0.000000 
#    z -0.018650 0.000000 1.774530 
# 
# From -- ./inp_files/9957.got.cif
#   From: 2010.06.25/outbox.cif.g09.slc.cpg/sg9_5_cif.got.tgz:9957.got - 2010.06.27 21:40:51.
