data_PCOD8054415
_publ_section_title
;
Structure prediction by ZEFSAII (Michael W. Deem and Ramdas Pophale) SiO2 
 PCOD8054415
Probable space group: C C
;
_chemical_formula_sum "Si O2"
_cell_formula_units_Z 32
_cell_length_a 27.483726
_cell_length_b 6.939535
_cell_length_c 16.532678
_cell_angle_alpha 90.000000
_cell_angle_beta 147.020135
_cell_angle_gamma 90.000000
_cell_volume 1716.417156
_symmetry_space_group_name_H-M "C C"
_symmetry_group_IT_number 9
_symmetry_cell_setting 'monoclinic'
loop_
_space_group_symop_operation_xyz
x,y,z
x,-y,1/2+z
1/2+x,1/2+y,z
1/2+x,1/2-y,1/2+z
loop_
_atom_site_type_symbol
_atom_site_label
_atom_site_fract_x
_atom_site_fract_y
_atom_site_fract_z
Si Si1 0.405760 0.951737 0.241840
Si Si2 0.544933 0.264212 0.423017
Si Si3 0.443742 0.430568 0.701051
Si Si4 0.793627 0.104925 0.378078
Si Si5 0.295732 0.096592 0.741672
Si Si6 0.628924 0.491986 0.412511
Si Si7 0.217147 0.797231 0.749405
Si Si8 0.740959 0.575142 0.920822
O O1 0.403500 0.756617 0.186942
O O2 0.381076 0.920263 0.301469
O O3 0.503366 0.051033 0.373506
O O4 0.331950 0.090954 0.099017
O O5 0.463478 0.417586 0.301502
O O6 0.608290 0.290253 0.431539
O O7 0.610292 0.323071 0.587748
O O8 0.380111 0.524883 0.544992
O O9 0.537586 0.381339 0.786004
O O10 0.817464 0.223988 0.330480
O O11 0.734115 0.240163 0.353281
O O12 0.733332 0.929038 0.265814
O O13 0.206198 0.122459 0.562375
O O14 0.281247 0.903815 0.774118
O O15 0.655351 0.428825 0.359571
O O16 0.240711 0.877193 0.870269
#
# Coordination Sequence:
#
# PCOD8054415 Si02
#       8
#     4   4   4   4   4   4   4   4
#     4  11  20  39  63  84 112 159 190 231 288 345
#     4   9  21  39  55  84 119 147 189 239 283 334
#     4  10  21  39  58  84 116 151 190 237 284 335
#     4  11  21  39  61  87 114 152 190 239 286 339
#     4   9  22  39  60  84 118 147 195 238 280 341
#     4   8  19  41  57  83 115 151 186 241 276 339
#     4  10  21  39  59  85 115 151 187 241 290 333
#     4  10  19  39  61  83 117 148 195 234 283 342
#
# _framework density 18.643487
#
# number of rings (size 3 to 8) (size 9 to 14) (size 15 to 20)
#    0.750    1.500    2.500    0.000    1.750    1.000 
#   11.250    0.000    0.000    0.000    0.000    0.000 
#    0.000    0.000    0.000    0.000    0.000    0.000 
#
# Total GULP energy -198252.282213 kJ/mol
# GULP energy per Si atom -12390.767638 kJ/mol
# Density = 1.860105 g / cm^3
# Si number density = 18.643487 Si / 1000 Ang^3
#
#
#
# Elastic Constant Matrix: (Units=GPa)
#
#
# Indices 1 2 3 4 5 6 
#
# 1 132.0159 47.1644 34.7577 0.0000 -0.3049 0.0000
# 2 47.1644 99.0912 26.0414 0.0000 0.7991 0.0000
# 3 34.7577 26.0414 79.5259 0.0000 2.0492 0.0000
# 4 0.0000 0.0000 0.0000 28.2169 0.0000 1.4863
# 5 -0.3049 0.7991 2.0492 0.0000 19.5233 0.0000
# 6 0.0000 0.0000 0.0000 1.4863 0.0000 15.7050
#
#
#
# Elastic Compliance Matrix: (Units=1/GPa)
#
#
# Indices 1 2 3 4 5 6 
#
# 1 0.009746 -0.003852 -0.003014 0.000000 0.000626 0.000000
# 2 -0.003852 0.012564 -0.002423 0.000000 -0.000320 0.000000
# 3 -0.003014 -0.002423 0.014724 0.000000 -0.001493 0.000000
# 4 0.000000 0.000000 0.000000 0.035617 0.000000 -0.003371
# 5 0.000626 -0.000320 -0.001493 0.000000 0.051400 0.000000
# 6 0.000000 0.000000 0.000000 -0.003371 0.000000 0.063993
#
#
# Mechanical properties :
#
#
# Convention : Reuss Voigt Hill
#
# Bulk Modulus (GPa) = 54.18122 58.50666 56.34394
# Shear Modulus (GPa) = 23.49908 26.20035 24.84972
#
# Velocity S-wave (km/s) = 3.55413 3.75285 3.65484
# Velocity P-wave (km/s) = 6.77991 7.08720 6.93526
#
# Compressibility (1/GPa) = 0.01845658
#
# Stress axis : x y z
#
# Youngs Moduli (GPa) = 102.60606 79.59111 67.91718
#
# Poissons Ratio (x) = 0.30656 0.20474
# Poissons Ratio (y) = 0.39520 0.16454
# Poissons Ratio (z) = 0.30931 0.19282
#
# Static dielectric constant tensor:
#      x y z
#    x 3.310020 0.000000 -0.067600 
#    y 0.000000 3.213680 0.000000 
#    z -0.067600 0.000000 3.406720 
# 
# 
# High freq. dielectric constant tensor:
#      x y z
#    x 1.711580 0.000000 -0.005800 
#    y 0.000000 1.708470 0.000000 
#    z -0.005800 0.000000 1.728350 
# 
# From -- ./inp_files/31120.got.cif
#   From: 2010.06.25/outbox.cif.g09.slc.cpg/sg9_16_cif.got.tgz:31120.got - 2010.06.27 21:40:51.
