data_PCOD8054242
_publ_section_title
;
Structure prediction by ZEFSAII (Michael W. Deem and Ramdas Pophale) SiO2 
 PCOD8054242
Probable space group: C C
;
_chemical_formula_sum "Si O2"
_cell_formula_units_Z 32
_cell_length_a 21.186872
_cell_length_b 16.665643
_cell_length_c 9.317598
_cell_angle_alpha 90.000000
_cell_angle_beta 28.479482
_cell_angle_gamma 90.000000
_cell_volume 1568.805946
_symmetry_space_group_name_H-M "C C"
_symmetry_group_IT_number 9
_symmetry_cell_setting 'monoclinic'
loop_
_space_group_symop_operation_xyz
x,y,z
x,-y,1/2+z
1/2+x,1/2+y,z
1/2+x,1/2-y,1/2+z
loop_
_atom_site_type_symbol
_atom_site_label
_atom_site_fract_x
_atom_site_fract_y
_atom_site_fract_z
Si Si1 0.543290 0.878633 0.949700
Si Si2 0.308580 0.144102 0.736870
Si Si3 0.946337 0.047457 0.851265
Si Si4 0.116222 0.976501 0.743010
Si Si5 0.106915 0.597931 0.765557
Si Si6 0.198924 0.543833 0.894944
Si Si7 0.381012 0.035729 0.345155
Si Si8 0.738735 0.188132 0.288383
O O1 0.652549 0.891790 0.605354
O O2 0.621585 0.826993 0.909118
O O3 0.415524 0.830239 0.144610
O O4 0.482341 0.960472 0.137623
O O5 0.380136 0.071055 0.507830
O O6 0.281745 0.219404 0.687507
O O7 0.171354 0.108300 0.072642
O O8 0.995479 0.041183 0.590302
O O9 0.867455 0.131353 0.017904
O O10 0.069834 0.039756 0.713753
O O11 0.856809 0.970180 0.071914
O O12 0.232893 0.020127 0.595235
O O13 0.162830 0.568163 0.805796
O O14 0.138651 0.541430 0.564543
O O15 0.173834 0.680775 0.579254
O O16 0.947554 0.601995 0.104709
#
# Coordination Sequence:
#
# PCOD8054242 Si02
#       8
#     4   4   4   4   4   4   4   4
#     4  10  22  41  70  93 120 170 223 259 306 385
#     4  11  24  43  63  94 134 165 207 269 320 377
#     4  11  21  38  61  93 128 163 210 264 309 377
#     4  11  23  38  64  92 126 170 216 254 318 372
#     4  10  19  35  62  93 120 158 215 262 304 365
#     4  10  18  35  64  94 117 159 219 263 294 366
#     4  10  20  38  68  90 121 166 217 260 299 376
#     4  11  25  40  64  95 132 165 207 267 330 370
#
# _framework density 20.397679
#
# number of rings (size 3 to 8) (size 9 to 14) (size 15 to 20)
#    0.000    1.500    2.500    5.250    3.500    2.000 
#    2.250    0.000    0.000    0.000    0.000    0.000 
#    0.000    0.000    0.000    0.000    0.000    0.000 
#
# Total GULP energy -198219.180215 kJ/mol
# GULP energy per Si atom -12388.698763 kJ/mol
# Density = 2.035125 g / cm^3
# Si number density = 20.397679 Si / 1000 Ang^3
#
#
#
# Elastic Constant Matrix: (Units=GPa)
#
#
# Indices 1 2 3 4 5 6 
#
# 1 127.3148 51.6551 32.4971 0.0000 -5.8379 0.0000
# 2 51.6551 70.5877 33.4422 0.0000 -5.2625 0.0000
# 3 32.4971 33.4422 124.5498 0.0000 6.8626 0.0000
# 4 0.0000 0.0000 0.0000 18.2799 0.0000 -0.1783
# 5 -5.8379 -5.2625 6.8626 0.0000 37.6662 0.0000
# 6 0.0000 0.0000 0.0000 -0.1783 0.0000 24.6275
#
#
#
# Elastic Compliance Matrix: (Units=1/GPa)
#
#
# Indices 1 2 3 4 5 6 
#
# 1 0.011271 -0.007758 -0.000903 0.000000 0.000827 0.000000
# 2 -0.007758 0.021937 -0.004009 0.000000 0.002593 0.000000
# 3 -0.000903 -0.004009 0.009475 0.000000 -0.002426 0.000000
# 4 0.000000 0.000000 0.000000 0.054709 0.000000 0.000396
# 5 0.000827 0.002593 -0.002426 0.000000 0.027482 0.000000
# 6 0.000000 0.000000 0.000000 0.000396 0.000000 0.040608
#
#
# Mechanical properties :
#
#
# Convention : Reuss Voigt Hill
#
# Bulk Modulus (GPa) = 57.66420 61.96012 59.81216
# Shear Modulus (GPa) = 25.43222 29.77190 27.60206
#
# Velocity S-wave (km/s) = 3.53486 3.82458 3.68257
# Velocity P-wave (km/s) = 6.70759 7.06719 6.88974
#
# Compressibility (1/GPa) = 0.01734178
#
# Stress axis : x y z
#
# Youngs Moduli (GPa) = 88.72533 45.58596 105.54514
#
# Poissons Ratio (x) = 0.35366 0.09533
# Poissons Ratio (y) = 0.68835 0.42310
# Poissons Ratio (z) = 0.08014 0.18274
#
# Static dielectric constant tensor:
#      x y z
#    x 3.708460 0.000000 0.008210 
#    y 0.000000 3.345260 0.000000 
#    z 0.008210 0.000000 4.187400 
# 
# 
# High freq. dielectric constant tensor:
#      x y z
#    x 1.808130 0.000000 0.001310 
#    y 0.000000 1.745590 0.000000 
#    z 0.001310 0.000000 1.819170 
# 
# From -- ./inp_files/11844.got.cif
#   From: 2010.06.25/outbox.cif.g09.slc.cpg/sg9_6_cif.got.tgz:11844.got - 2010.06.27 21:40:51.
