data_PCOD8054868
_publ_section_title
;
Structure prediction by ZEFSAII (Michael W. Deem and Ramdas Pophale) SiO2 
 PCOD8054868
Probable space group: C C
;
_chemical_formula_sum "Si O2"
_cell_formula_units_Z 32
_cell_length_a 10.714820
_cell_length_b 9.716310
_cell_length_c 13.429387
_cell_angle_alpha 90.000000
_cell_angle_beta 104.020265
_cell_angle_gamma 90.000000
_cell_volume 1356.463846
_symmetry_space_group_name_H-M "C C"
_symmetry_group_IT_number 9
_symmetry_cell_setting 'monoclinic'
loop_
_space_group_symop_operation_xyz
x,y,z
x,-y,1/2+z
1/2+x,1/2+y,z
1/2+x,1/2-y,1/2+z
loop_
_atom_site_type_symbol
_atom_site_label
_atom_site_fract_x
_atom_site_fract_y
_atom_site_fract_z
Si Si1 0.192050 0.744670 0.256740
Si Si2 0.976931 0.750811 0.832178
Si Si3 0.695721 0.804416 0.524652
Si Si4 0.515509 0.008938 0.212729
Si Si5 0.128010 0.400588 0.035680
Si Si6 0.761556 0.614116 0.068367
Si Si7 0.343057 0.895131 0.931760
Si Si8 0.143073 0.048268 0.242793
O O1 0.330716 0.719194 0.333975
O O2 0.199111 0.742216 0.138693
O O3 0.108827 0.619021 0.283373
O O4 0.128382 0.890058 0.274379
O O5 0.966321 0.597455 0.784702
O O6 0.023114 0.864129 0.760762
O O7 0.064413 0.751200 0.947494
O O8 0.818280 0.740791 0.492859
O O9 0.709753 0.967951 0.516475
O O10 0.403533 0.101036 0.142397
O O11 0.591060 0.918595 0.144641
O O12 0.218432 0.269164 0.032822
O O13 0.995518 0.402696 0.946746
O O14 0.768988 0.523518 0.970071
O O15 0.654562 0.557442 0.125333
O O16 0.275844 0.884292 0.811199
#
# Coordination Sequence:
#
# PCOD8054868 Si02
#       8
#     4   4   4   4   4   4   4   4
#     4  11  22  42  64  89 127 166 207 261 314 364
#     4  11  22  42  63  91 127 166 207 256 315 369
#     4  10  22  39  64  90 124 164 206 255 306 373
#     4  10  22  38  61  91 122 163 209 252 307 368
#     4  10  21  39  62  88 120 163 205 255 311 365
#     4  11  21  41  65  91 124 162 209 259 310 371
#     4  10  22  42  61  91 125 163 207 254 315 369
#     4  11  22  39  66  91 125 167 204 258 312 367
#
# _framework density 23.590751999999998
#
# number of rings (size 3 to 8) (size 9 to 14) (size 15 to 20)
#    0.000    1.500    3.750    1.500    0.000    3.000 
#    0.000    5.000    0.000    0.000    0.000    0.000 
#    0.000    0.000    0.000    0.000    0.000    0.000 
#
# Total GULP energy -198384.102768 kJ/mol
# GULP energy per Si atom -12399.006423 kJ/mol
# Density = 2.353706 g / cm^3
# Si number density = 23.590752 Si / 1000 Ang^3
#
#
#
# Elastic Constant Matrix: (Units=GPa)
#
#
# Indices 1 2 3 4 5 6 
#
# 1 57.3928 51.2367 4.1420 0.0000 6.7185 0.0000
# 2 51.2367 135.9790 5.4648 0.0000 10.0327 0.0000
# 3 4.1420 5.4648 46.5776 0.0000 2.3857 0.0000
# 4 0.0000 0.0000 0.0000 26.2953 0.0000 5.4062
# 5 6.7185 10.0327 2.3857 0.0000 26.0615 0.0000
# 6 0.0000 0.0000 0.0000 5.4062 0.0000 42.3339
#
#
#
# Elastic Compliance Matrix: (Units=1/GPa)
#
#
# Indices 1 2 3 4 5 6 
#
# 1 0.026545 -0.009738 -0.001064 0.000000 -0.002997 0.000000
# 2 -0.009738 0.011167 -0.000354 0.000000 -0.001756 0.000000
# 3 -0.001064 -0.000354 0.021686 0.000000 -0.001574 0.000000
# 4 0.000000 0.000000 0.000000 0.039055 0.000000 -0.004987
# 5 -0.002997 -0.001756 -0.001574 0.000000 0.039964 0.000000
# 6 0.000000 0.000000 0.000000 -0.004987 0.000000 0.024259
#
#
# Mechanical properties :
#
#
# Convention : Reuss Voigt Hill
#
# Bulk Modulus (GPa) = 26.96528 40.18181 33.57355
# Shear Modulus (GPa) = 25.33547 30.87852 28.10699
#
# Velocity S-wave (km/s) = 3.28068 3.62183 3.45547
# Velocity P-wave (km/s) = 5.07994 5.87878 5.49390
#
# Compressibility (1/GPa) = 0.03708472
#
# Stress axis : x y z
#
# Youngs Moduli (GPa) = 37.67163 89.54754 46.11177
#
# Poissons Ratio (x) = 0.87204 0.04909
# Poissons Ratio (y) = 0.36686 0.01634
# Poissons Ratio (z) = 0.04010 0.03173
#
# Static dielectric constant tensor:
#      x y z
#    x 4.050030 0.000000 0.030140 
#    y 0.000000 4.402040 0.000000 
#    z 0.030140 0.000000 4.300860 
# 
# 
# High freq. dielectric constant tensor:
#      x y z
#    x 1.915850 0.000000 -0.001950 
#    y 0.000000 1.938320 0.000000 
#    z -0.001950 0.000000 1.940850 
# 
# From -- ./inp_files/24283.got.cif
#   From: 2010.06.25/outbox.cif.g09.slc.cpg/sg9_13_cif.got.tgz:24283.got - 2010.06.27 21:40:51.
