data_PCOD8054526
_publ_section_title
;
Structure prediction by ZEFSAII (Michael W. Deem and Ramdas Pophale) SiO2 
 PCOD8054526
Probable space group: C C
;
_chemical_formula_sum "Si O2"
_cell_formula_units_Z 32
_cell_length_a 15.796972
_cell_length_b 11.512345
_cell_length_c 9.357831
_cell_angle_alpha 90.000000
_cell_angle_beta 48.814418
_cell_angle_gamma 90.000000
_cell_volume 1280.754479
_symmetry_space_group_name_H-M "C C"
_symmetry_group_IT_number 9
_symmetry_cell_setting 'monoclinic'
loop_
_space_group_symop_operation_xyz
x,y,z
x,-y,1/2+z
1/2+x,1/2+y,z
1/2+x,1/2-y,1/2+z
loop_
_atom_site_type_symbol
_atom_site_label
_atom_site_fract_x
_atom_site_fract_y
_atom_site_fract_z
Si Si1 0.423130 0.841559 0.450270
Si Si2 0.529271 0.422877 0.528763
Si Si3 0.197447 0.411078 0.648759
Si Si4 0.892073 0.077123 0.465374
Si Si5 0.351839 0.192334 0.456533
Si Si6 0.069505 0.307666 0.537605
Si Si7 0.498214 0.841559 0.043868
Si Si8 0.723897 0.411077 0.845379
O O1 0.384804 0.709505 0.524016
O O2 0.528189 0.871546 0.437833
O O3 0.460672 0.870196 0.247069
O O4 0.315414 0.916748 0.616330
O O5 0.460673 0.500000 0.497067
O O6 0.460671 0.427942 0.747069
O O7 0.536540 0.290495 0.470121
O O8 0.655899 0.468542 0.412346
O O9 0.265445 0.531458 0.581793
O O10 0.281962 0.304517 0.580301
O O11 0.140788 0.397518 0.555212
O O12 0.105930 0.416748 0.877808
O O13 0.460672 0.235251 0.247069
O O14 0.393155 0.128454 0.556306
O O15 0.280556 0.102482 0.438926
O O16 0.139382 0.195484 0.413837
#
# Coordination Sequence:
#
# PCOD8054526 Si02
#       8
#     4   4   4   4   4   4   4   4
#     4  10  22  39  61  98 133 165 217 278 328 374
#     4  11  23  40  62 102 132 164 220 278 315 389
#     4  10  20  36  66  90 130 183 213 259 330 394
#     4  11  23  40  62 102 132 164 220 278 315 389
#     4   9  18  34  59  92 125 171 218 253 319 397
#     4   9  18  34  59  92 125 171 218 253 319 397
#     4  10  22  39  61  98 133 165 217 278 328 374
#     4  10  20  36  66  90 130 183 213 259 330 394
#
# _framework density 24.985271000000001
#
# number of rings (size 3 to 8) (size 9 to 14) (size 15 to 20)
#    0.000    2.000    2.500    0.750    7.000    1.000 
#    0.000    0.000    0.000    9.000    0.000    0.000 
#    0.000    0.000    0.000    0.000    0.000    0.000 
#
# Total GULP energy -198437.530162 kJ/mol
# GULP energy per Si atom -12402.345635 kJ/mol
# Density = 2.492840 g / cm^3
# Si number density = 24.985271 Si / 1000 Ang^3
#
#
#
# Elastic Constant Matrix: (Units=GPa)
#
#
# Indices 1 2 3 4 5 6 
#
# 1 147.5139 21.9699 64.3543 0.0000 -13.5976 0.0000
# 2 21.9699 69.0020 33.6736 0.0000 -15.6164 0.0000
# 3 64.3543 33.6736 95.9665 0.0000 -6.2195 0.0000
# 4 0.0000 0.0000 0.0000 -14.6653 0.0000 -4.6964
# 5 -13.5976 -15.6164 -6.2195 0.0000 43.4089 0.0000
# 6 0.0000 0.0000 0.0000 -4.6964 0.0000 37.7272
#
#
#
# Elastic Compliance Matrix: (Units=1/GPa)
#
#
# Indices 1 2 3 4 5 6 
#
# 1 0.009799 0.000658 -0.006649 0.000000 0.002353 0.000000
# 2 0.000658 0.018916 -0.006686 0.000000 0.006053 0.000000
# 3 -0.006649 -0.006686 0.017093 0.000000 -0.002039 0.000000
# 4 0.000000 0.000000 0.000000 -0.065574 0.000000 -0.008163
# 5 0.002353 0.006053 -0.002039 0.000000 0.025659 0.000000
# 6 0.000000 0.000000 0.000000 -0.008163 0.000000 0.025490
#
#
# Mechanical properties :
#
#
# Convention : Reuss Voigt Hill
#
# Bulk Modulus (GPa) = 48.89416 61.38645 55.14030
# Shear Modulus (GPa) = 78.67161 26.12648 52.39905
#
# Velocity S-wave (km/s) = 5.61743 3.23720 4.58448
# Velocity P-wave (km/s) = 7.85403 6.21249 7.08099
#
# Compressibility (1/GPa) = 0.02045234
#
# Stress axis : x y z
#
# Youngs Moduli (GPa) = 102.05351 52.86622 58.50322
#
# Poissons Ratio (x) = -0.03476 0.38900
# Poissons Ratio (y) = -0.06711 0.39115
# Poissons Ratio (z) = 0.67857 0.35346
#
# Static dielectric constant tensor:
#      x y z
#    x 5.045580 0.000000 -0.018990 
#    y 0.000000 4.301690 0.000000 
#    z -0.018990 0.000000 4.474060 
# 
# 
# High freq. dielectric constant tensor:
#      x y z
#    x 2.009290 0.000000 -0.003660 
#    y 0.000000 1.991450 0.000000 
#    z -0.003660 0.000000 2.003660 
# 
# From -- ./inp_files/9674.got.cif
#   From: 2010.06.25/outbox.cif.g09.slc.cpg/sg9_5_cif.got.tgz:9674.got - 2010.06.27 21:40:51.
