data_PCOD8054831
_publ_section_title
;
Structure prediction by ZEFSAII (Michael W. Deem and Ramdas Pophale) SiO2 
 PCOD8054831
Probable space group: C C
;
_chemical_formula_sum "Si O2"
_cell_formula_units_Z 32
_cell_length_a 26.631013
_cell_length_b 9.074341
_cell_length_c 8.363446
_cell_angle_alpha 90.000000
_cell_angle_beta 49.679002
_cell_angle_gamma 90.000000
_cell_volume 1540.950621
_symmetry_space_group_name_H-M "C C"
_symmetry_group_IT_number 9
_symmetry_cell_setting 'monoclinic'
loop_
_space_group_symop_operation_xyz
x,y,z
x,-y,1/2+z
1/2+x,1/2+y,z
1/2+x,1/2-y,1/2+z
loop_
_atom_site_type_symbol
_atom_site_label
_atom_site_fract_x
_atom_site_fract_y
_atom_site_fract_z
Si Si1 0.965650 0.188249 0.910130
Si Si2 0.325497 0.620080 0.718482
Si Si3 0.591278 0.124162 0.193550
Si Si4 0.090931 0.693409 0.561290
Si Si5 0.965184 0.121703 0.279175
Si Si6 0.209494 0.802956 0.819012
Si Si7 0.824876 0.195926 0.088663
Si Si8 0.208526 0.881639 0.453850
O O1 0.021123 0.312385 0.781779
O O2 0.988450 0.045753 0.762227
O O3 0.952347 0.138565 0.118339
O O4 0.898415 0.253904 0.974998
O O5 0.398872 0.657788 0.510878
O O6 0.276751 0.719288 0.716505
O O7 0.308727 0.448267 0.727340
O O8 0.317424 0.654037 0.920221
O O9 0.605553 0.154408 0.348521
O O10 0.591831 0.949862 0.169534
O O11 0.648102 0.195476 0.970547
O O12 0.145984 0.806015 0.503489
O O13 0.020066 0.767255 0.729533
O O14 0.211048 0.852495 0.634689
O O15 0.202185 0.943712 0.947872
O O16 0.774892 0.325767 0.232809
#
# Coordination Sequence:
#
# PCOD8054831 Si02
#       8
#     4   4   4   4   4   4   4   4
#     4  10  21  38  61  89 121 157 199 245 296 353
#     4  11  22  39  63  90 122 159 200 244 295 352
#     4  11  24  41  62  89 121 158 200 246 297 352
#     4  11  24  41  62  89 121 158 200 246 297 352
#     4  10  21  38  61  89 121 157 199 245 296 353
#     4  12  25  42  63  88 120 156 199 247 298 355
#     4  11  22  39  63  90 122 159 200 244 295 352
#     4  12  25  42  63  88 120 156 199 247 298 355
#
# _framework density 20.766401999999999
#
# number of rings (size 3 to 8) (size 9 to 14) (size 15 to 20)
#    0.000    1.000    0.000    9.000    0.000    7.000 
#    0.000    2.500    0.000    0.000    0.000    0.000 
#    0.000    0.000    0.000    0.000    0.000    0.000 
#
# Total GULP energy -198521.742154 kJ/mol
# GULP energy per Si atom -12407.608885 kJ/mol
# Density = 2.071914 g / cm^3
# Si number density = 20.766402 Si / 1000 Ang^3
#
#
#
# Elastic Constant Matrix: (Units=GPa)
#
#
# Indices 1 2 3 4 5 6 
#
# 1 107.6526 23.0870 15.6299 0.0000 -6.9111 0.0000
# 2 23.0870 78.4589 5.5259 0.0000 -29.3962 0.0000
# 3 15.6299 5.5259 66.3531 0.0000 -6.9119 0.0000
# 4 0.0000 0.0000 0.0000 28.2054 0.0000 2.8635
# 5 -6.9111 -29.3962 -6.9119 0.0000 26.7750 0.0000
# 6 0.0000 0.0000 0.0000 2.8635 0.0000 36.2601
#
#
#
# Elastic Compliance Matrix: (Units=1/GPa)
#
#
# Indices 1 2 3 4 5 6 
#
# 1 0.010268 -0.003549 -0.002315 0.000000 -0.001844 0.000000
# 2 -0.003549 0.022910 0.001493 0.000000 0.024622 0.000000
# 3 -0.002315 0.001493 0.016031 0.000000 0.005180 0.000000
# 4 0.000000 0.000000 0.000000 0.035741 0.000000 -0.002822
# 5 -0.001844 0.024622 0.005180 0.000000 0.065242 0.000000
# 6 0.000000 0.000000 0.000000 -0.002822 0.000000 0.027801
#
#
# Mechanical properties :
#
#
# Convention : Reuss Voigt Hill
#
# Bulk Modulus (GPa) = 24.71186 37.88335 31.29761
# Shear Modulus (GPa) = 24.97183 32.12956 28.55069
#
# Velocity S-wave (km/s) = 3.47149 3.93770 3.71192
# Velocity P-wave (km/s) = 5.29094 6.24149 5.78577
#
# Compressibility (1/GPa) = 0.04046640
#
# Stress axis : x y z
#
# Youngs Moduli (GPa) = 97.38919 43.64915 62.37720
#
# Poissons Ratio (x) = 0.15492 0.14442
# Poissons Ratio (y) = 0.34566 -0.09313
# Poissons Ratio (z) = 0.22548 -0.06517
#
# Static dielectric constant tensor:
#      x y z
#    x 4.009890 0.000000 -0.018200 
#    y 0.000000 3.849660 0.000000 
#    z -0.018200 0.000000 3.797240 
# 
# 
# High freq. dielectric constant tensor:
#      x y z
#    x 1.836140 0.000000 0.002510 
#    y 0.000000 1.811970 0.000000 
#    z 0.002510 0.000000 1.823100 
# 
# From -- ./inp_files/12376.got.cif
#   From: 2010.06.25/outbox.cif.g09.slc.cpg/sg9_7_cif.got.tgz:12376.got - 2010.06.27 21:40:51.
