data_PCOD8054178
_publ_section_title
;
Structure prediction by ZEFSAII (Michael W. Deem and Ramdas Pophale) SiO2 
 PCOD8054178
Probable space group: C C
;
_chemical_formula_sum "Si O2"
_cell_formula_units_Z 32
_cell_length_a 11.382672
_cell_length_b 14.061920
_cell_length_c 11.338728
_cell_angle_alpha 90.000000
_cell_angle_beta 63.740582
_cell_angle_gamma 90.000000
_cell_volume 1627.604174
_symmetry_space_group_name_H-M "C C"
_symmetry_group_IT_number 9
_symmetry_cell_setting 'monoclinic'
loop_
_space_group_symop_operation_xyz
x,y,z
x,-y,1/2+z
1/2+x,1/2+y,z
1/2+x,1/2-y,1/2+z
loop_
_atom_site_type_symbol
_atom_site_label
_atom_site_fract_x
_atom_site_fract_y
_atom_site_fract_z
Si Si1 0.087570 0.318066 0.070510
Si Si2 0.355398 0.281587 0.075158
Si Si3 0.064960 0.071445 0.538488
Si Si4 0.138879 0.124691 0.945927
Si Si5 0.931899 0.630062 0.870215
Si Si6 0.227961 0.938198 0.180596
Si Si7 0.972270 0.426555 0.920986
Si Si8 0.303690 0.874437 0.789391
O O1 0.231539 0.324653 0.061532
O O2 0.980234 0.350180 0.215208
O O3 0.060042 0.209468 0.042715
O O4 0.087764 0.379858 0.948639
O O5 0.310380 0.217339 0.204179
O O6 0.429934 0.372179 0.093942
O O7 0.450696 0.223076 0.943584
O O8 0.101642 0.042303 0.655583
O O9 0.178049 0.136468 0.429666
O O10 0.048832 0.969584 0.481486
O O11 0.277620 0.102902 0.949587
O O12 0.181189 0.144542 0.792015
O O13 0.005545 0.538785 0.892888
O O14 0.282132 0.031469 0.222020
O O15 0.345077 0.897908 0.051833
O O16 0.939958 0.384371 0.804518
#
# Coordination Sequence:
#
# PCOD8054178 Si02
#       8
#     4   4   4   4   4   4   4   4
#     4  11  24  38  61  93 129 162 204 256 329 369
#     4  11  23  38  59  92 131 163 198 259 325 377
#     4  10  21  36  63  90 118 163 209 256 307 370
#     4  10  20  38  62  90 117 165 210 256 297 370
#     4  11  20  40  64  87 122 167 214 253 301 381
#     4  10  16  36  63  88 112 151 216 256 287 352
#     4  11  19  36  66  92 116 157 212 265 295 367
#     4  10  19  36  62  92 115 154 213 259 299 360
#
# _framework density 19.660800999999999
#
# number of rings (size 3 to 8) (size 9 to 14) (size 15 to 20)
#    0.000    1.500    6.250    1.500    1.750    1.000 
#    0.000    5.000    5.500    0.000    0.000    0.000 
#    0.000    0.000    0.000    0.000    0.000    0.000 
#
# Total GULP energy -198260.648650 kJ/mol
# GULP energy per Si atom -12391.290541 kJ/mol
# Density = 1.961605 g / cm^3
# Si number density = 19.660801 Si / 1000 Ang^3
#
#
#
# Elastic Constant Matrix: (Units=GPa)
#
#
# Indices 1 2 3 4 5 6 
#
# 1 95.9264 52.6023 35.9151 0.0000 26.7395 0.0000
# 2 52.6023 114.1934 45.2825 0.0000 5.6765 0.0000
# 3 35.9151 45.2825 90.1965 0.0000 20.0978 0.0000
# 4 0.0000 0.0000 0.0000 36.8569 0.0000 6.3226
# 5 26.7395 5.6765 20.0978 0.0000 30.5511 0.0000
# 6 0.0000 0.0000 0.0000 6.3226 0.0000 29.4346
#
#
#
# Elastic Compliance Matrix: (Units=1/GPa)
#
#
# Indices 1 2 3 4 5 6 
#
# 1 0.019063 -0.007932 -0.000257 0.000000 -0.015042 0.000000
# 2 -0.007932 0.014324 -0.005843 0.000000 0.008125 0.000000
# 3 -0.000257 -0.005843 0.016206 0.000000 -0.009351 0.000000
# 4 0.000000 0.000000 0.000000 0.028170 0.000000 -0.006051
# 5 -0.015042 0.008125 -0.009351 0.000000 0.050539 0.000000
# 6 0.000000 0.000000 0.000000 -0.006051 0.000000 0.035273
#
#
# Mechanical properties :
#
#
# Convention : Reuss Voigt Hill
#
# Bulk Modulus (GPa) = 46.44754 63.10180 54.77467
# Shear Modulus (GPa) = 25.14877 30.46962 27.80919
#
# Velocity S-wave (km/s) = 3.58038 3.94098 3.76500
# Velocity P-wave (km/s) = 6.38497 7.27140 6.84256
#
# Compressibility (1/GPa) = 0.02152966
#
# Stress axis : x y z
#
# Youngs Moduli (GPa) = 52.45673 69.81290 61.70421
#
# Poissons Ratio (x) = 0.55374 0.01586
# Poissons Ratio (y) = 0.41607 0.36056
# Poissons Ratio (z) = 0.01348 0.40794
#
# Static dielectric constant tensor:
#      x y z
#    x 3.478800 0.000000 0.408200 
#    y 0.000000 3.468250 0.000000 
#    z 0.408200 0.000000 3.911720 
# 
# 
# High freq. dielectric constant tensor:
#      x y z
#    x 1.739900 0.000000 0.030200 
#    y 0.000000 1.752230 0.000000 
#    z 0.030200 0.000000 1.773210 
# 
# From -- ./inp_files/14578.got.cif
#   From: 2010.06.25/outbox.cif.g09.slc.cpg/sg9_8_cif.got.tgz:14578.got - 2010.06.27 21:40:51.
