data_PCOD8054370
_publ_section_title
;
Structure prediction by ZEFSAII (Michael W. Deem and Ramdas Pophale) SiO2 
 PCOD8054370
Probable space group: C C
;
_chemical_formula_sum "Si O2"
_cell_formula_units_Z 28
_cell_length_a 16.798897
_cell_length_b 14.193098
_cell_length_c 5.123820
_cell_angle_alpha 90.000000
_cell_angle_beta 81.869194
_cell_angle_gamma 90.000000
_cell_volume 1209.383695
_symmetry_space_group_name_H-M "C C"
_symmetry_group_IT_number 9
_symmetry_cell_setting 'monoclinic'
loop_
_space_group_symop_operation_xyz
x,y,z
x,-y,1/2+z
1/2+x,1/2+y,z
1/2+x,1/2-y,1/2+z
loop_
_atom_site_type_symbol
_atom_site_label
_atom_site_fract_x
_atom_site_fract_y
_atom_site_fract_z
Si Si1 0.444540 0.940248 0.808730
Si Si2 0.485547 0.440104 0.082283
Si Si3 0.588936 0.176915 0.403215
Si Si4 0.258711 0.939245 0.872431
Si Si5 0.738588 0.097585 0.166220
Si Si6 0.122649 0.795115 0.901061
Si Si7 0.807531 0.890982 0.127143
O O1 0.497860 0.849731 0.867009
O O2 0.352061 0.908401 0.841294
O O3 0.465166 0.978748 0.511284
O O4 0.491525 0.472484 0.379731
O O5 0.402137 0.383310 0.118572
O O6 0.553752 0.372276 0.949825
O O7 0.647002 0.086130 0.317463
O O8 0.598756 0.219271 0.688114
O O9 0.626612 0.250122 0.183548
O O10 0.207430 0.847446 0.819346
O O11 0.238253 0.018235 0.665034
O O12 0.785814 0.159345 0.363980
O O13 0.780006 0.998596 0.075526
O O14 0.753050 0.153929 0.885465
#
# Coordination Sequence:
#
# PCOD8054370 Si02
#       7
#     4   4   4   4   4   4   4
#     4  10  23  43  72  94 123 171 231 280 312 382
#     4  12  21  41  66  95 130 165 224 267 313 391
#     4  12  26  43  61 101 138 173 210 265 352 398
#     4  10  21  45  72  94 120 172 236 275 314 377
#     4  10  20  36  60  85 131 156 209 255 303 396
#     4  12  26  43  63  98 140 172 211 268 344 404
#     4  10  19  37  60  97 114 159 215 258 312 368
#
# _framework density 23.152287000000001
#
# number of rings (size 3 to 8) (size 9 to 14) (size 15 to 20)
#    0.000    1.143    2.857    4.286    4.000    0.000 
#    7.714    0.000    0.000    0.000    0.000    0.000 
#    0.000    0.000    0.000    0.000    0.000    0.000 
#
# Total GULP energy -173465.087756 kJ/mol
# GULP energy per Si atom -12390.363411 kJ/mol
# Density = 2.309959 g / cm^3
# Si number density = 23.152287 Si / 1000 Ang^3
#
#
#
# Elastic Constant Matrix: (Units=GPa)
#
#
# Indices 1 2 3 4 5 6 
#
# 1 112.4376 29.4031 21.9220 0.0000 -7.8665 0.0000
# 2 29.4031 34.7669 8.1954 0.0000 -0.2146 0.0000
# 3 21.9220 8.1954 139.1012 0.0000 13.4350 0.0000
# 4 0.0000 0.0000 0.0000 12.7473 0.0000 21.3505
# 5 -7.8665 -0.2146 13.4350 0.0000 29.8074 0.0000
# 6 0.0000 0.0000 0.0000 21.3505 0.0000 12.3450
#
#
#
# Elastic Compliance Matrix: (Units=1/GPa)
#
#
# Indices 1 2 3 4 5 6 
#
# 1 0.012050 -0.009767 -0.001698 0.000000 0.003875 0.000000
# 2 -0.009767 0.037115 -0.000444 0.000000 -0.002110 0.000000
# 3 -0.001698 -0.000444 0.007869 0.000000 -0.003998 0.000000
# 4 0.000000 0.000000 0.000000 -0.041360 0.000000 0.071531
# 5 0.003875 -0.002110 -0.003998 0.000000 0.036358 0.000000
# 6 0.000000 0.000000 0.000000 0.071531 0.000000 -0.042708
#
#
# Mechanical properties :
#
#
# Convention : Reuss Voigt Hill
#
# Bulk Modulus (GPa) = 30.10525 45.03852 37.57188
# Shear Modulus (GPa) = 113.08853 26.09894 69.59373
#
# Velocity S-wave (km/s) = 6.99654 3.36113 5.48857
# Velocity P-wave (km/s) = 8.84873 5.87863 7.51194
#
# Compressibility (1/GPa) = 0.03321680
#
# Stress axis : x y z
#
# Youngs Moduli (GPa) = 82.98698 26.94360 127.08289
#
# Poissons Ratio (x) = 0.26315 0.21578
# Poissons Ratio (y) = 0.81052 0.05637
# Poissons Ratio (z) = 0.14090 0.01195
#
# Static dielectric constant tensor:
#      x y z
#    x 4.714350 0.000000 0.130300 
#    y 0.000000 4.145390 0.000000 
#    z 0.130300 0.000000 4.823090 
# 
# 
# High freq. dielectric constant tensor:
#      x y z
#    x 1.930220 0.000000 0.006920 
#    y 0.000000 1.869720 0.000000 
#    z 0.006920 0.000000 1.948450 
# 
# From -- ./inp_files/2381.got.cif
#   From: 2010.06.25/outbox.cif.g09.slc.cpg/sg9_2_cif.got.tgz:2381.got - 2010.06.27 21:40:51.
