data_PCOD8054855
_publ_section_title
;
Structure prediction by ZEFSAII (Michael W. Deem and Ramdas Pophale) SiO2 
 PCOD8054855
Probable space group: C C
;
_chemical_formula_sum "Si O2"
_cell_formula_units_Z 32
_cell_length_a 18.514127
_cell_length_b 16.858721
_cell_length_c 5.178808
_cell_angle_alpha 90.000000
_cell_angle_beta 69.607254
_cell_angle_gamma 90.000000
_cell_volume 1515.124736
_symmetry_space_group_name_H-M "C C"
_symmetry_group_IT_number 9
_symmetry_cell_setting 'monoclinic'
loop_
_space_group_symop_operation_xyz
x,y,z
x,-y,1/2+z
1/2+x,1/2+y,z
1/2+x,1/2-y,1/2+z
loop_
_atom_site_type_symbol
_atom_site_label
_atom_site_fract_x
_atom_site_fract_y
_atom_site_fract_z
Si Si1 0.037750 0.664196 0.028020
Si Si2 0.708611 0.589372 0.370202
Si Si3 0.777929 0.589373 0.786223
Si Si4 0.948782 0.164189 0.128514
Si Si5 0.944555 0.652575 0.632076
Si Si6 0.333402 0.455281 0.960661
Si Si7 0.153109 0.455282 0.195829
Si Si8 0.041980 0.847430 0.024458
O O1 0.060460 0.755187 0.046369
O O2 0.006599 0.627015 0.335857
O O3 0.116813 0.626635 0.832868
O O4 0.974567 0.644677 0.886514
O O5 0.743284 0.633403 0.578172
O O6 0.743270 0.500000 0.328158
O O7 0.616055 0.595805 0.474439
O O8 0.743255 0.634231 0.078209
O O9 0.870483 0.595808 0.682093
O O10 0.011961 0.144669 0.270036
O O11 0.926079 0.255181 0.110142
O O12 0.869714 0.126632 0.323644
O O13 0.979938 0.127009 0.820680
O O14 0.359977 0.520565 0.714830
O O15 0.243256 0.441669 0.078227
O O16 0.126530 0.520567 0.441663
#
# Coordination Sequence:
#
# PCOD8054855 Si02
#       8
#     4   4   4   4   4   4   4   4
#     4  10  21  39  60  89 114 160 201 245 303 354
#     4  10  21  39  56  83 122 158 194 244 296 356
#     4  10  21  39  56  83 122 158 194 244 296 356
#     4  10  21  39  60  89 114 160 201 245 303 354
#     4  10  21  39  61  84 124 153 204 250 288 367
#     4  10  21  39  58  86 120 147 195 250 301 361
#     4  10  21  39  58  86 120 147 195 250 301 361
#     4  10  21  39  61  84 124 153 204 250 288 367
#
# _framework density 21.120372
#
# number of rings (size 3 to 8) (size 9 to 14) (size 15 to 20)
#    0.000    2.000    0.000    3.000    0.000    1.000 
#   27.000    3.750    0.000    0.000    0.000    0.000 
#    0.000    0.000    0.000    0.000    0.000    0.000 
#
# Total GULP energy -198261.235846 kJ/mol
# GULP energy per Si atom -12391.327240 kJ/mol
# Density = 2.107230 g / cm^3
# Si number density = 21.120372 Si / 1000 Ang^3
#
#
#
# Elastic Constant Matrix: (Units=GPa)
#
#
# Indices 1 2 3 4 5 6 
#
# 1 71.1740 38.5366 42.6208 0.0000 11.6081 0.0000
# 2 38.5366 57.7836 31.5330 0.0000 -18.8946 0.0000
# 3 42.6208 31.5330 161.9505 0.0000 3.0844 0.0000
# 4 0.0000 0.0000 0.0000 29.3542 0.0000 -6.6113
# 5 11.6081 -18.8946 3.0844 0.0000 37.6276 0.0000
# 6 0.0000 0.0000 0.0000 -6.6113 0.0000 27.6332
#
#
#
# Elastic Compliance Matrix: (Units=1/GPa)
#
#
# Indices 1 2 3 4 5 6 
#
# 1 0.038576 -0.033293 -0.003130 0.000000 -0.028362 0.000000
# 2 -0.033293 0.052814 -0.002226 0.000000 0.036974 0.000000
# 3 -0.003130 -0.002226 0.007446 0.000000 -0.000763 0.000000
# 4 0.000000 0.000000 0.000000 0.036007 0.000000 0.008615
# 5 -0.028362 0.036974 -0.000763 0.000000 0.053955 0.000000
# 6 0.000000 0.000000 0.000000 0.008615 0.000000 0.038249
#
#
# Mechanical properties :
#
#
# Convention : Reuss Voigt Hill
#
# Bulk Modulus (GPa) = 46.42589 57.36542 51.89566
# Shear Modulus (GPa) = 16.05010 30.80420 23.42715
#
# Velocity S-wave (km/s) = 2.75968 3.82318 3.33411
# Velocity P-wave (km/s) = 5.67307 6.83441 6.28064
#
# Compressibility (1/GPa) = 0.02153970
#
# Stress axis : x y z
#
# Youngs Moduli (GPa) = 25.92272 18.93427 134.29657
#
# Poissons Ratio (x) = 0.63038 0.42028
# Poissons Ratio (y) = 0.86305 0.29890
# Poissons Ratio (z) = 0.08113 0.04214
#
# Static dielectric constant tensor:
#      x y z
#    x 3.969320 0.000000 0.737580 
#    y 0.000000 3.473110 0.000000 
#    z 0.737580 0.000000 5.205170 
# 
# 
# High freq. dielectric constant tensor:
#      x y z
#    x 1.822500 0.000000 0.012790 
#    y 0.000000 1.791520 0.000000 
#    z 0.012790 0.000000 1.864110 
# 
# From -- ./inp_files/2963.got.cif
#   From: 2010.06.25/outbox.cif.g09.slc.cpg/sg9_2_cif.got.tgz:2963.got - 2010.06.27 21:40:51.
