data_PCOD8054798
_publ_section_title
;
Structure prediction by ZEFSAII (Michael W. Deem and Ramdas Pophale) SiO2 
 PCOD8054798
Probable space group: C C
;
_chemical_formula_sum "Si O2"
_cell_formula_units_Z 32
_cell_length_a 8.845351
_cell_length_b 35.859779
_cell_length_c 5.040760
_cell_angle_alpha 90.000000
_cell_angle_beta 107.223801
_cell_angle_gamma 90.000000
_cell_volume 1527.188884
_symmetry_space_group_name_H-M "C C"
_symmetry_group_IT_number 9
_symmetry_cell_setting 'monoclinic'
loop_
_space_group_symop_operation_xyz
x,y,z
x,-y,1/2+z
1/2+x,1/2+y,z
1/2+x,1/2-y,1/2+z
loop_
_atom_site_type_symbol
_atom_site_label
_atom_site_fract_x
_atom_site_fract_y
_atom_site_fract_z
Si Si1 0.644140 0.788485 0.695670
Si Si2 0.275066 0.023779 0.484176
Si Si3 0.640572 0.976218 0.190557
Si Si4 0.146863 0.666197 0.691841
Si Si5 0.065724 0.094606 0.388288
Si Si6 0.771659 0.333832 0.985924
Si Si7 0.351307 0.405424 0.279220
Si Si8 0.273952 0.211477 0.981235
O O1 0.700168 0.802062 0.433757
O O2 0.459069 0.783622 0.586758
O O3 0.708659 0.749968 0.838681
O O4 0.699176 0.820126 0.929723
O O5 0.457831 0.036006 0.587280
O O6 0.171116 0.058966 0.512387
O O7 0.235415 0.009195 0.170057
O O8 0.744209 0.941032 0.161979
O O9 0.680266 0.990753 0.504895
O O10 0.237908 0.628448 0.804305
O O11 0.959263 0.658605 0.589656
O O12 0.181146 0.128440 0.372362
O O13 0.954729 0.104947 0.577234
O O14 0.962581 0.084743 0.080927
O O15 0.719080 0.302016 0.744459
O O16 0.718347 0.320199 0.247274
#
# Coordination Sequence:
#
# PCOD8054798 Si02
#       8
#     4   4   4   4   4   4   4   4
#     4  10  21  37  60  87 114 150 193 241 293 346
#     4  10  22  41  64  88 118 160 202 239 290 357
#     4  10  22  41  64  88 118 160 202 239 290 357
#     4  10  22  41  60  82 117 158 197 235 287 356
#     4  12  25  39  60  91 122 155 196 248 302 343
#     4  10  22  41  60  82 117 158 197 235 287 356
#     4  12  25  39  60  91 122 155 196 248 302 343
#     4  10  21  37  60  87 114 150 193 241 293 346
#
# _framework density 20.953531999999999
#
# number of rings (size 3 to 8) (size 9 to 14) (size 15 to 20)
#    0.000    1.500    0.000    4.500    0.000    6.000 
#    0.000   10.000    0.000    0.000    0.000    0.000 
#    0.000    0.000    0.000    0.000    0.000    0.000 
#
# Total GULP energy -198421.359206 kJ/mol
# GULP energy per Si atom -12401.334950 kJ/mol
# Density = 2.090584 g / cm^3
# Si number density = 20.953532 Si / 1000 Ang^3
#
#
#
# Elastic Constant Matrix: (Units=GPa)
#
#
# Indices 1 2 3 4 5 6 
#
# 1 59.3053 47.5757 33.6879 0.0000 -5.3627 0.0000
# 2 47.5757 113.5623 31.6946 0.0000 18.5904 0.0000
# 3 33.6879 31.6946 115.1412 0.0000 -3.5344 0.0000
# 4 0.0000 0.0000 0.0000 39.4555 0.0000 31.0053
# 5 -5.3627 18.5904 -3.5344 0.0000 26.7510 0.0000
# 6 0.0000 0.0000 0.0000 31.0053 0.0000 88.5303
#
#
#
# Elastic Compliance Matrix: (Units=1/GPa)
#
#
# Indices 1 2 3 4 5 6 
#
# 1 0.033639 -0.015423 -0.005081 0.000000 0.016791 0.000000
# 2 -0.015423 0.018125 -0.000962 0.000000 -0.015814 0.000000
# 3 -0.005081 -0.000962 0.010468 0.000000 0.001033 0.000000
# 4 0.000000 0.000000 0.000000 0.034969 0.000000 -0.012247
# 5 0.016791 -0.015814 0.001033 0.000000 0.051874 0.000000
# 6 0.000000 0.000000 0.000000 -0.012247 0.000000 0.015585
#
#
# Mechanical properties :
#
#
# Convention : Reuss Voigt Hill
#
# Bulk Modulus (GPa) = 51.81628 57.10279 54.45954
# Shear Modulus (GPa) = 23.36160 42.61740 32.98950
#
# Velocity S-wave (km/s) = 3.34267 4.51477 3.97219
# Velocity P-wave (km/s) = 6.29927 7.38165 6.86184
#
# Compressibility (1/GPa) = 0.01929895
#
# Stress axis : x y z
#
# Youngs Moduli (GPa) = 29.72700 55.17385 95.52781
#
# Poissons Ratio (x) = 0.85097 0.48540
# Poissons Ratio (y) = 0.45849 0.09189
# Poissons Ratio (z) = 0.15105 0.05308
#
# Static dielectric constant tensor:
#      x y z
#    x 4.547580 0.000000 -1.101550 
#    y 0.000000 3.435760 0.000000 
#    z -1.101550 0.000000 5.718180 
# 
# 
# High freq. dielectric constant tensor:
#      x y z
#    x 1.816960 0.000000 -0.000030 
#    y 0.000000 1.821430 0.000000 
#    z -0.000030 0.000000 1.841730 
# 
# From -- ./inp_files/1241.got.cif
#   From: 2010.06.25/outbox.cif.g09.slc.cpg/sg9_1_cif.got.tgz:1241.got - 2010.06.27 21:40:51.
