data_PCOD8054378
_publ_section_title
;
Structure prediction by ZEFSAII (Michael W. Deem and Ramdas Pophale) SiO2 
 PCOD8054378
Probable space group: C C
;
_chemical_formula_sum "Si O2"
_cell_formula_units_Z 28
_cell_length_a 16.205705
_cell_length_b 8.494156
_cell_length_c 16.646565
_cell_angle_alpha 90.000000
_cell_angle_beta 34.125431
_cell_angle_gamma 90.000000
_cell_volume 1285.525419
_symmetry_space_group_name_H-M "C C"
_symmetry_group_IT_number 9
_symmetry_cell_setting 'monoclinic'
loop_
_space_group_symop_operation_xyz
x,y,z
x,-y,1/2+z
1/2+x,1/2+y,z
1/2+x,1/2-y,1/2+z
loop_
_atom_site_type_symbol
_atom_site_label
_atom_site_fract_x
_atom_site_fract_y
_atom_site_fract_z
Si Si1 0.028520 0.700487 0.408880
Si Si2 0.237672 0.021360 0.959103
Si Si3 0.193902 0.165340 0.639871
Si Si4 0.722955 0.926370 0.280679
Si Si5 0.033406 0.405995 0.665214
Si Si6 0.170645 0.656984 0.453564
Si Si7 0.533401 0.682572 0.519537
O O1 0.082857 0.840622 0.305691
O O2 0.122980 0.543542 0.306864
O O3 0.060255 0.737318 0.477125
O O4 0.856850 0.673015 0.542545
O O5 0.171651 0.989788 0.101774
O O6 0.129741 0.958113 0.977334
O O7 0.266910 0.205264 0.916898
O O8 0.390111 0.924759 0.836181
O O9 0.160383 0.318473 0.612402
O O10 0.625596 0.770182 0.375679
O O11 0.876808 0.884841 0.112641
O O12 0.762907 0.019209 0.332949
O O13 0.987124 0.307114 0.624644
O O14 0.083241 0.578621 0.597328
#
# Coordination Sequence:
#
# PCOD8054378 Si02
#       7
#     4   4   4   4   4   4   4
#     4  10  24  42  66  98 127 180 218 279 327 397
#     4  11  22  37  68  96 130 177 221 273 330 399
#     4  11  23  45  67  88 141 178 219 268 349 399
#     4   9  21  38  64  92 135 162 225 267 330 382
#     4  10  21  41  64  96 129 176 227 266 329 410
#     4   9  24  38  69  95 135 162 234 275 318 393
#     4  10  19  37  62  97 123 171 214 276 311 388
#
# _framework density 21.780978999999999
#
# number of rings (size 3 to 8) (size 9 to 14) (size 15 to 20)
#    0.857    1.143    2.857    0.000    6.000    0.000 
#    0.000    1.429    0.000    0.000    0.000    0.000 
#    0.000    0.000    0.000    0.000    0.000    0.000 
#
# Total GULP energy -173490.314162 kJ/mol
# GULP energy per Si atom -12392.165297 kJ/mol
# Density = 2.173140 g / cm^3
# Si number density = 21.780979 Si / 1000 Ang^3
#
#
#
# Elastic Constant Matrix: (Units=GPa)
#
#
# Indices 1 2 3 4 5 6 
#
# 1 62.3169 11.4037 8.3881 0.0000 -9.3032 0.0000
# 2 11.4037 77.9593 21.1244 0.0000 -6.5768 0.0000
# 3 8.3881 21.1244 63.5720 0.0000 -16.9510 0.0000
# 4 0.0000 0.0000 0.0000 24.8860 0.0000 -3.5922
# 5 -9.3032 -6.5768 -16.9510 0.0000 37.4041 0.0000
# 6 0.0000 0.0000 0.0000 -3.5922 0.0000 23.4096
#
#
#
# Elastic Compliance Matrix: (Units=1/GPa)
#
#
# Indices 1 2 3 4 5 6 
#
# 1 0.017038 -0.002021 -0.000616 0.000000 0.003603 0.000000
# 2 -0.002021 0.014342 -0.004505 0.000000 -0.000023 0.000000
# 3 -0.000616 -0.004505 0.019401 0.000000 0.007847 0.000000
# 4 0.000000 0.000000 0.000000 0.041093 0.000000 0.006306
# 5 0.003603 -0.000023 0.007847 0.000000 0.031183 0.000000
# 6 0.000000 0.000000 0.000000 0.006306 0.000000 0.043685
#
#
# Mechanical properties :
#
#
# Convention : Reuss Voigt Hill
#
# Bulk Modulus (GPa) = 27.40012 31.74228 29.57120
# Shear Modulus (GPa) = 25.88109 28.00208 26.94159
#
# Velocity S-wave (km/s) = 3.45083 3.58945 3.52082
# Velocity P-wave (km/s) = 5.33711 5.63772 5.48947
#
# Compressibility (1/GPa) = 0.03649619
#
# Stress axis : x y z
#
# Youngs Moduli (GPa) = 58.69332 69.72688 51.54461
#
# Poissons Ratio (x) = 0.14095 0.03173
# Poissons Ratio (y) = 0.11865 0.23220
# Poissons Ratio (z) = 0.03613 0.31411
#
# Static dielectric constant tensor:
#      x y z
#    x 3.619100 0.000000 0.065730 
#    y 0.000000 3.799990 0.000000 
#    z 0.065730 0.000000 3.840040 
# 
# 
# High freq. dielectric constant tensor:
#      x y z
#    x 1.831250 0.000000 -0.004120 
#    y 0.000000 1.843340 0.000000 
#    z -0.004120 0.000000 1.848790 
# 
# From -- ./inp_files/10435.got.cif
#   From: 2010.06.25/outbox.cif.g09.slc.cpg/sg9_6_cif.got.tgz:10435.got - 2010.06.27 21:40:51.
