data_PCOD8054706
_publ_section_title
;
Structure prediction by ZEFSAII (Michael W. Deem and Ramdas Pophale) SiO2 
 PCOD8054706
Probable space group: C C
;
_chemical_formula_sum "Si O2"
_cell_formula_units_Z 32
_cell_length_a 20.883932
_cell_length_b 8.672494
_cell_length_c 15.486997
_cell_angle_alpha 90.000000
_cell_angle_beta 27.143787
_cell_angle_gamma 90.000000
_cell_volume 1279.683785
_symmetry_space_group_name_H-M "C C"
_symmetry_group_IT_number 9
_symmetry_cell_setting 'monoclinic'
loop_
_space_group_symop_operation_xyz
x,y,z
x,-y,1/2+z
1/2+x,1/2+y,z
1/2+x,1/2-y,1/2+z
loop_
_atom_site_type_symbol
_atom_site_label
_atom_site_fract_x
_atom_site_fract_y
_atom_site_fract_z
Si Si1 0.262050 0.400905 0.024560
Si Si2 0.074192 0.420371 0.411751
Si Si3 0.042886 0.806466 0.734162
Si Si4 0.677443 0.618964 0.532345
Si Si5 0.280286 0.024250 0.745773
Si Si6 0.788545 0.137195 0.216313
Si Si7 0.374519 0.716520 0.917444
Si Si8 0.531776 0.591203 0.444771
O O1 0.202307 0.399370 0.192519
O O2 0.139689 0.345270 0.106636
O O3 0.392728 0.280018 0.868717
O O4 0.319757 0.567833 0.928808
O O5 0.141127 0.542614 0.399128
O O6 0.031869 0.251038 0.501369
O O7 0.941201 0.497780 0.523267
O O8 0.018495 0.853639 0.862833
O O9 0.121515 0.946777 0.597625
O O10 0.752967 0.612823 0.348699
O O11 0.543469 0.734540 0.703224
O O12 0.790859 0.643508 0.472868
O O13 0.267633 0.202801 0.794133
O O14 0.176481 0.999792 0.789335
O O15 0.836482 0.194520 0.063205
O O16 0.906299 0.027051 0.118610
#
# Coordination Sequence:
#
# PCOD8054706 Si02
#       8
#     4   4   4   4   4   4   4   4
#     4   9  20  37  67  96 122 169 224 290 327 408
#     4  10  22  40  64 100 132 177 230 276 363 405
#     4  10  20  42  64  97 130 166 228 281 346 408
#     4  11  25  46  61 101 140 183 227 290 359 416
#     4  12  27  38  66  98 142 183 226 296 356 418
#     4  11  22  46  72 105 131 187 244 297 341 433
#     4  10  23  45  72  95 136 184 243 285 351 424
#     4  11  21  42  70  98 131 175 232 299 335 418
#
# _framework density 25.006177000000001
#
# number of rings (size 3 to 8) (size 9 to 14) (size 15 to 20)
#    0.000    1.500    3.750    2.250   10.500    1.000 
#    9.000    0.000    0.000    0.000    0.000    0.000 
#    0.000    0.000    0.000    0.000    0.000    0.000 
#
# Total GULP energy -198208.999415 kJ/mol
# GULP energy per Si atom -12388.062463 kJ/mol
# Density = 2.494926 g / cm^3
# Si number density = 25.006177 Si / 1000 Ang^3
#
#
#
# Elastic Constant Matrix: (Units=GPa)
#
#
# Indices 1 2 3 4 5 6 
#
# 1 55.4960 16.5661 34.6846 0.0001 -15.1442 0.0000
# 2 16.5661 104.7757 35.0169 0.0006 -28.1702 -0.0002
# 3 34.6846 35.0169 100.6864 0.0004 -41.3551 -0.0001
# 4 0.0001 0.0006 0.0004 40.6707 -0.0002 -16.9761
# 5 -15.1442 -28.1702 -41.3551 -0.0002 40.2692 0.0000
# 6 0.0000 -0.0002 -0.0001 -16.9761 0.0000 37.8713
#
#
#
# Elastic Compliance Matrix: (Units=1/GPa)
#
#
# Indices 1 2 3 4 5 6 
#
# 1 0.023081 -0.001086 -0.007472 0.000000 0.000247 0.000000
# 2 -0.001086 0.011895 -0.000887 0.000000 0.007002 0.000000
# 3 -0.007472 -0.000887 0.019726 0.000000 0.016827 0.000000
# 4 0.000000 0.000000 0.000000 0.030247 0.000000 0.013559
# 5 0.000247 0.007002 0.016827 0.000000 0.047105 0.000000
# 6 0.000000 0.000000 0.000000 0.013559 0.000000 0.032483
#
#
# Mechanical properties :
#
#
# Convention : Reuss Voigt Hill
#
# Bulk Modulus (GPa) = 27.92319 48.16590 38.04455
# Shear Modulus (GPa) = 25.59352 35.40828 30.50090
#
# Velocity S-wave (km/s) = 3.20267 3.76703 3.49626
# Velocity P-wave (km/s) = 4.98667 6.18257 5.61654
#
# Compressibility (1/GPa) = 0.03581252
#
# Stress axis : x y z
#
# Youngs Moduli (GPa) = 43.32634 84.07026 50.69569
#
# Poissons Ratio (x) = 0.09127 0.37878
# Poissons Ratio (y) = 0.04704 0.04496
# Poissons Ratio (z) = 0.32372 0.07456
#
# Static dielectric constant tensor:
#      x y z
#    x 4.274290 0.000000 -0.403910 
#    y 0.000000 4.993450 0.000000 
#    z -0.403910 0.000000 4.649180 
# 
# 
# High freq. dielectric constant tensor:
#      x y z
#    x 1.963540 0.000000 -0.027920 
#    y 0.000000 1.996780 0.000000 
#    z -0.027920 0.000000 2.002080 
# 
# From -- ./inp_files/34599.got.cif
#   From: 2010.06.25/outbox.cif.g09.slc.cpg/sg9_18_cif.got.tgz:34599.got - 2010.06.27 21:40:51.
