data_PCOD8054208
_publ_section_title
;
Structure prediction by ZEFSAII (Michael W. Deem and Ramdas Pophale) SiO2 
 PCOD8054208
Probable space group: C C
;
_chemical_formula_sum "Si O2"
_cell_formula_units_Z 24
_cell_length_a 24.657656
_cell_length_b 8.448276
_cell_length_c 8.856802
_cell_angle_alpha 90.000000
_cell_angle_beta 42.480267
_cell_angle_gamma 90.000000
_cell_volume 1245.996658
_symmetry_space_group_name_H-M "C C"
_symmetry_group_IT_number 9
_symmetry_cell_setting 'monoclinic'
loop_
_space_group_symop_operation_xyz
x,y,z
x,-y,1/2+z
1/2+x,1/2+y,z
1/2+x,1/2-y,1/2+z
loop_
_atom_site_type_symbol
_atom_site_label
_atom_site_fract_x
_atom_site_fract_y
_atom_site_fract_z
Si Si1 0.500000 0.813155 0.555410
Si Si2 0.167888 0.211454 0.198773
Si Si3 0.492185 0.440380 0.534715
Si Si4 0.910503 0.513520 0.984213
Si Si5 0.103202 0.970375 0.558011
Si Si6 0.345426 0.785716 0.355241
O O1 0.596457 0.836180 0.378297
O O2 0.478854 0.627776 0.586693
O O3 0.455165 0.887019 0.788768
O O4 0.476320 0.897578 0.449080
O O5 0.163588 0.069992 0.329816
O O6 0.155135 0.145614 0.055215
O O7 0.255887 0.288921 0.033026
O O8 0.542210 0.371179 0.574734
O O9 0.546402 0.413027 0.274561
O O10 0.407560 0.353935 0.691790
O O11 0.861215 0.640300 0.987361
O O12 0.849526 0.421476 0.219515
#
# Coordination Sequence:
#
# PCOD8054208 Si02
#       6
#     4   4   4   4   4   4
#     4   9  20  38  56  75 102 140 178 207 256 320
#     4  10  18  32  52  80 106 132 172 218 256 298
#     4  10  18  34  58  78  98 140 182 210 248 314
#     4  10  21  36  53  76 108 142 172 208 261 316
#     4   8  17  32  53  74 102 140 176 202 251 324
#     4  11  20  32  54  81 108 136 172 221 258 294
#
# _framework density 19.261689000000001
#
# number of rings (size 3 to 8) (size 9 to 14) (size 15 to 20)
#    0.000    2.667    0.000    5.000    0.000    0.000 
#    0.000    5.000    0.000   12.000    0.000    0.000 
#    0.000    0.000    0.000    0.000    0.000    0.000 
#
# Total GULP energy -148728.441223 kJ/mol
# GULP energy per Si atom -12394.036769 kJ/mol
# Density = 1.921785 g / cm^3
# Si number density = 19.261689 Si / 1000 Ang^3
#
#
#
# Elastic Constant Matrix: (Units=GPa)
#
#
# Indices 1 2 3 4 5 6 
#
# 1 100.4634 12.3222 47.3197 0.0000 -12.2478 0.0000
# 2 12.3222 46.5370 2.5828 0.0000 -8.1345 0.0000
# 3 47.3197 2.5828 62.6718 0.0000 -13.8934 0.0000
# 4 0.0000 0.0000 0.0000 23.5557 0.0000 -2.2744
# 5 -12.2478 -8.1345 -13.8934 0.0000 48.9530 0.0000
# 6 0.0000 0.0000 0.0000 -2.2744 0.0000 25.4730
#
#
#
# Elastic Compliance Matrix: (Units=1/GPa)
#
#
# Indices 1 2 3 4 5 6 
#
# 1 0.016021 -0.003575 -0.011944 0.000000 0.000025 0.000000
# 2 -0.003575 0.022929 0.002562 0.000000 0.003643 0.000000
# 3 -0.011944 0.002562 0.025932 0.000000 0.004797 0.000000
# 4 0.000000 0.000000 0.000000 0.042822 0.000000 0.003823
# 5 0.000025 0.003643 0.004797 0.000000 0.022401 0.000000
# 6 0.000000 0.000000 0.000000 0.003823 0.000000 0.039599
#
#
# Mechanical properties :
#
#
# Convention : Reuss Voigt Hill
#
# Bulk Modulus (GPa) = 25.66156 37.12461 31.39308
# Shear Modulus (GPa) = 23.96856 29.42619 26.69737
#
# Velocity S-wave (km/s) = 3.53138 3.91283 3.72699
# Velocity P-wave (km/s) = 5.47531 6.30312 5.90374
#
# Compressibility (1/GPa) = 0.03896880
#
# Stress axis : x y z
#
# Youngs Moduli (GPa) = 62.41810 43.61207 38.56245
#
# Poissons Ratio (x) = 0.15591 0.46058
# Poissons Ratio (y) = 0.22314 -0.09879
# Poissons Ratio (z) = 0.74550 -0.11173
#
# Static dielectric constant tensor:
#      x y z
#    x 3.762620 0.000000 0.187840 
#    y 0.000000 3.158480 0.000000 
#    z 0.187840 0.000000 3.533770 
# 
# 
# High freq. dielectric constant tensor:
#      x y z
#    x 1.765370 0.000000 0.016910 
#    y 0.000000 1.712200 0.000000 
#    z 0.016910 0.000000 1.754050 
# 
# From -- ./inp_files/8746.got.cif
#   From: 2010.06.25/outbox.cif.g09.slc.cpg/sg9_5_cif.got.tgz:8746.got - 2010.06.27 21:40:51.
