data_PCOD8054261
_publ_section_title
;
Structure prediction by ZEFSAII (Michael W. Deem and Ramdas Pophale) SiO2 
 PCOD8054261
Probable space group: C C
;
_chemical_formula_sum "Si O2"
_cell_formula_units_Z 28
_cell_length_a 19.891298
_cell_length_b 9.925852
_cell_length_c 15.178776
_cell_angle_alpha 90.000000
_cell_angle_beta 150.908936
_cell_angle_gamma 90.000000
_cell_volume 1457.074711
_symmetry_space_group_name_H-M "C C"
_symmetry_group_IT_number 9
_symmetry_cell_setting 'monoclinic'
loop_
_space_group_symop_operation_xyz
x,y,z
x,-y,1/2+z
1/2+x,1/2+y,z
1/2+x,1/2-y,1/2+z
loop_
_atom_site_type_symbol
_atom_site_label
_atom_site_fract_x
_atom_site_fract_y
_atom_site_fract_z
Si Si1 0.812770 0.361168 0.210020
Si Si2 0.590378 0.840968 0.930461
Si Si3 0.582625 0.850269 0.417383
Si Si4 0.785086 0.534196 0.867255
Si Si5 0.774073 0.625195 0.048853
Si Si6 0.710242 0.250202 0.750485
Si Si7 0.990356 0.677491 0.627156
O O1 0.792360 0.369866 0.291594
O O2 0.759242 0.490374 0.092190
O O3 0.975889 0.337644 0.377093
O O4 0.724558 0.229665 0.087931
O O5 0.426601 0.814402 0.738173
O O6 0.624151 0.995292 0.945312
O O7 0.664764 0.738031 0.950694
O O8 0.645648 0.816210 0.091454
O O9 0.499617 0.786547 0.240318
O O10 0.681884 0.411197 0.722928
O O11 0.737592 0.601784 0.904309
O O12 0.939210 0.476956 0.060995
O O13 0.639296 0.184805 0.753957
O O14 0.876211 0.224843 0.948980
#
# Coordination Sequence:
#
# PCOD8054261 Si02
#       7
#     4   4   4   4   4   4   4
#     4  11  22  43  62  90 129 164 197 260 304 366
#     4  11  21  40  63  93 122 162 204 256 301 363
#     4  11  23  40  63  90 127 161 203 252 313 355
#     4  10  21  39  65  85 124 166 199 245 316 357
#     4  11  22  42  66  88 126 163 204 254 307 360
#     4  10  19  35  64  88 116 160 210 243 296 364
#     4  10  18  37  61  86 118 158 207 244 297 361
#
# _framework density 19.216586
#
# number of rings (size 3 to 8) (size 9 to 14) (size 15 to 20)
#    0.857    0.571    4.286    4.286    0.000    2.286 
#    5.143    1.429    0.000    0.000    0.000    0.000 
#    0.000    0.000    0.000    0.000    0.000    0.000 
#
# Total GULP energy -173470.256369 kJ/mol
# GULP energy per Si atom -12390.732598 kJ/mol
# Density = 1.917285 g / cm^3
# Si number density = 19.216586 Si / 1000 Ang^3
#
#
#
# Elastic Constant Matrix: (Units=GPa)
#
#
# Indices 1 2 3 4 5 6 
#
# 1 108.0538 41.9421 26.6315 0.0000 -16.5851 0.0000
# 2 41.9421 74.1749 20.0601 0.0000 16.1957 0.0000
# 3 26.6315 20.0601 59.8144 0.0000 -9.2862 0.0000
# 4 0.0000 0.0000 0.0000 29.4954 0.0000 6.4896
# 5 -16.5851 16.1957 -9.2862 0.0000 37.2952 0.0000
# 6 0.0000 0.0000 0.0000 6.4896 0.0000 39.1645
#
#
#
# Elastic Compliance Matrix: (Units=1/GPa)
#
#
# Indices 1 2 3 4 5 6 
#
# 1 0.015571 -0.010840 -0.001551 0.000000 0.011246 0.000000
# 2 -0.010840 0.025076 -0.006265 0.000000 -0.017270 0.000000
# 3 -0.001551 -0.006265 0.020622 0.000000 0.007165 0.000000
# 4 0.000000 0.000000 0.000000 0.035186 0.000000 -0.005830
# 5 0.011246 -0.017270 0.007165 0.000000 0.041098 0.000000
# 6 0.000000 0.000000 0.000000 -0.005830 0.000000 0.026499
#
#
# Mechanical properties :
#
#
# Convention : Reuss Voigt Hill
#
# Bulk Modulus (GPa) = 41.74104 46.59004 44.16554
# Shear Modulus (GPa) = 23.88326 31.41833 27.65079
#
# Velocity S-wave (km/s) = 3.52923 4.04785 3.79740
# Velocity P-wave (km/s) = 6.19482 6.79295 6.50076
#
# Compressibility (1/GPa) = 0.02395724
#
# Stress axis : x y z
#
# Youngs Moduli (GPa) = 64.22249 39.87809 48.49080
#
# Poissons Ratio (x) = 0.43230 0.07522
# Poissons Ratio (y) = 0.69620 0.30378
# Poissons Ratio (z) = 0.09962 0.24982
#
# Static dielectric constant tensor:
#      x y z
#    x 3.547470 0.000000 -0.087900 
#    y 0.000000 3.363110 0.000000 
#    z -0.087900 0.000000 3.548560 
# 
# 
# High freq. dielectric constant tensor:
#      x y z
#    x 1.757290 0.000000 -0.010020 
#    y 0.000000 1.726510 0.000000 
#    z -0.010020 0.000000 1.744070 
# 
# From -- ./inp_files/27290.got.cif
#   From: 2010.06.25/outbox.cif.g09.slc.cpg/sg9_14_cif.got.tgz:27290.got - 2010.06.27 21:40:51.
