data_PCOD8054454
_publ_section_title
;
Structure prediction by ZEFSAII (Michael W. Deem and Ramdas Pophale) SiO2 
 PCOD8054454
Probable space group: C C
;
_chemical_formula_sum "Si O2"
_cell_formula_units_Z 24
_cell_length_a 12.804139
_cell_length_b 7.596977
_cell_length_c 12.580116
_cell_angle_alpha 90.000000
_cell_angle_beta 66.838655
_cell_angle_gamma 90.000000
_cell_volume 1125.073161
_symmetry_space_group_name_H-M "C C"
_symmetry_group_IT_number 9
_symmetry_cell_setting 'monoclinic'
loop_
_space_group_symop_operation_xyz
x,y,z
x,-y,1/2+z
1/2+x,1/2+y,z
1/2+x,1/2-y,1/2+z
loop_
_atom_site_type_symbol
_atom_site_label
_atom_site_fract_x
_atom_site_fract_y
_atom_site_fract_z
Si Si1 0.242710 0.830100 0.284370
Si Si2 0.049321 0.053009 0.275636
Si Si3 0.197131 0.931158 0.529493
Si Si4 0.878864 0.381181 0.625898
Si Si5 0.110118 0.274147 0.454015
Si Si6 0.816522 0.959548 0.273841
O O1 0.289617 0.643279 0.224427
O O2 0.130541 0.884470 0.264408
O O3 0.211347 0.808347 0.421138
O O4 0.340615 0.980077 0.232188
O O5 0.055117 0.189430 0.370060
O O6 0.922246 0.984560 0.311282
O O7 0.098235 0.143111 0.147778
O O8 0.162334 0.126629 0.508534
O O9 0.317281 0.936355 0.541727
O O10 0.841445 0.185150 0.674653
O O11 0.013667 0.383819 0.554636
O O12 0.208579 0.409677 0.387265
#
# Coordination Sequence:
#
# PCOD8054454 Si02
#       6
#     4   4   4   4   4   4
#     4  10  24  44  67 104 132 176 228 273 335 404
#     4  10  22  44  68  98 137 170 226 280 322 412
#     4  10  19  43  69  93 140 169 217 286 321 392
#     4  11  23  45  67 100 140 172 227 285 326 404
#     4  11  23  44  70  97 137 183 217 282 342 388
#     4  12  23  44  69  96 130 182 225 268 350 390
#
# _framework density 21.331945999999999
#
# number of rings (size 3 to 8) (size 9 to 14) (size 15 to 20)
#    0.000    1.333    6.667    1.000    0.000    2.667 
#   15.000    0.000    0.000    0.000    0.000    0.000 
#    0.000    0.000    0.000    0.000    0.000    0.000 
#
# Total GULP energy -148799.790385 kJ/mol
# GULP energy per Si atom -12399.982532 kJ/mol
# Density = 2.128339 g / cm^3
# Si number density = 21.331946 Si / 1000 Ang^3
#
#
#
# Elastic Constant Matrix: (Units=GPa)
#
#
# Indices 1 2 3 4 5 6 
#
# 1 148.5179 56.3523 48.2696 0.0000 -25.9286 0.0000
# 2 56.3523 113.8298 38.5817 0.0000 -10.4099 0.0000
# 3 48.2696 38.5817 117.6246 0.0000 -7.7312 0.0000
# 4 0.0000 0.0000 0.0000 14.9482 0.0000 -1.9044
# 5 -25.9286 -10.4099 -7.7312 0.0000 39.8611 0.0000
# 6 0.0000 0.0000 0.0000 -1.9044 0.0000 33.4092
#
#
#
# Elastic Compliance Matrix: (Units=1/GPa)
#
#
# Indices 1 2 3 4 5 6 
#
# 1 0.009750 -0.003521 -0.002522 0.000000 0.004934 0.000000
# 2 -0.003521 0.011312 -0.002251 0.000000 0.000227 0.000000
# 3 -0.002522 -0.002251 0.010259 0.000000 -0.000238 0.000000
# 4 0.000000 0.000000 0.000000 0.067387 0.000000 0.003841
# 5 0.004934 0.000227 -0.000238 0.000000 0.028309 0.000000
# 6 0.000000 0.000000 0.000000 0.003841 0.000000 0.030151
#
#
# Mechanical properties :
#
#
# Convention : Reuss Voigt Hill
#
# Bulk Modulus (GPa) = 67.86982 74.04219 70.95601
# Shear Modulus (GPa) = 27.98512 33.42827 30.70670
#
# Velocity S-wave (km/s) = 3.62593 3.96290 3.79815
# Velocity P-wave (km/s) = 7.02958 7.46487 7.25049
#
# Compressibility (1/GPa) = 0.01473409
#
# Stress axis : x y z
#
# Youngs Moduli (GPa) = 102.56290 88.40433 97.47448
#
# Poissons Ratio (x) = 0.31126 0.24583
# Poissons Ratio (y) = 0.36111 0.21937
# Poissons Ratio (z) = 0.25866 0.19895
#
# Static dielectric constant tensor:
#      x y z
#    x 3.864530 0.000000 -0.131230 
#    y 0.000000 3.711040 0.000000 
#    z -0.131230 0.000000 4.081830 
# 
# 
# High freq. dielectric constant tensor:
#      x y z
#    x 1.838700 0.000000 -0.009220 
#    y 0.000000 1.821830 0.000000 
#    z -0.009220 0.000000 1.844290 
# 
# From -- ./inp_files/15858.got.cif
#   From: 2010.06.25/outbox.cif.g09.slc.cpg/sg9_8_cif.got.tgz:15858.got - 2010.06.27 21:40:51.
