data_PCOD8054852
_publ_section_title
;
Structure prediction by ZEFSAII (Michael W. Deem and Ramdas Pophale) SiO2 
 PCOD8054852
Probable space group: C C
;
_chemical_formula_sum "Si O2"
_cell_formula_units_Z 32
_cell_length_a 13.932773
_cell_length_b 11.481528
_cell_length_c 8.753971
_cell_angle_alpha 90.000000
_cell_angle_beta 66.105799
_cell_angle_gamma 90.000000
_cell_volume 1280.349918
_symmetry_space_group_name_H-M "C C"
_symmetry_group_IT_number 9
_symmetry_cell_setting 'monoclinic'
loop_
_space_group_symop_operation_xyz
x,y,z
x,-y,1/2+z
1/2+x,1/2+y,z
1/2+x,1/2-y,1/2+z
loop_
_atom_site_type_symbol
_atom_site_label
_atom_site_fract_x
_atom_site_fract_y
_atom_site_fract_z
Si Si1 0.566440 0.293999 0.953620
Si Si2 0.271254 0.545909 0.875534
Si Si3 0.682801 0.318729 0.575986
Si Si4 0.218602 0.746444 0.110058
Si Si5 0.813049 0.565178 0.763788
Si Si6 0.442209 0.064857 0.969957
Si Si7 0.098161 0.379582 0.945627
Si Si8 0.347520 0.370972 0.026198
O O1 0.635981 0.349056 0.771110
O O2 0.630819 0.314515 0.067098
O O3 0.532291 0.158326 0.953793
O O4 0.458801 0.363172 0.036710
O O5 0.162283 0.482058 0.990334
O O6 0.271069 0.566030 0.695109
O O7 0.286891 0.670126 0.947517
O O8 0.361264 0.454453 0.870228
O O9 0.710019 0.429773 0.445705
O O10 0.594561 0.234258 0.557027
O O11 0.797938 0.254053 0.512288
O O12 0.295728 0.832586 0.150647
O O13 0.162073 0.656002 0.255402
O O14 0.836685 0.444635 0.650790
O O15 0.914446 0.581932 0.809489
O O16 0.485988 0.932617 0.969973
#
# Coordination Sequence:
#
# PCOD8054852 Si02
#       8
#     4   4   4   4   4   4   4   4
#     4  12  24  42  74 105 136 184 244 286 352 427
#     4  11  21  40  69 101 136 177 226 299 353 409
#     4  10  22  44  67 104 143 176 219 307 360 404
#     4  11  23  43  66 102 142 184 229 297 361 416
#     4  11  27  43  67 102 148 185 226 297 368 408
#     4  12  23  43  72 109 134 187 248 294 341 437
#     4  10  21  38  70 103 133 170 238 298 348 405
#     4  11  23  41  71 100 136 179 234 286 353 418
#
# _framework density 24.993167
#
# number of rings (size 3 to 8) (size 9 to 14) (size 15 to 20)
#    0.000    1.000    5.000    1.500    1.750    3.000 
#    0.000    6.250    0.000    0.000    0.000    0.000 
#    0.000    0.000    0.000    0.000    0.000    0.000 
#
# Total GULP energy -198216.166355 kJ/mol
# GULP energy per Si atom -12388.510397 kJ/mol
# Density = 2.493628 g / cm^3
# Si number density = 24.993167 Si / 1000 Ang^3
#
#
#
# Elastic Constant Matrix: (Units=GPa)
#
#
# Indices 1 2 3 4 5 6 
#
# 1 117.3059 20.8066 21.7287 0.0000 25.9538 0.0000
# 2 20.8066 46.0415 24.5082 0.0000 7.1594 0.0000
# 3 21.7287 24.5082 99.9333 0.0000 19.0251 0.0000
# 4 0.0000 0.0000 0.0000 39.7741 0.0000 -4.5575
# 5 25.9538 7.1594 19.0251 0.0000 44.8300 0.0000
# 6 0.0000 0.0000 0.0000 -4.5575 0.0000 33.3071
#
#
#
# Elastic Compliance Matrix: (Units=1/GPa)
#
#
# Indices 1 2 3 4 5 6 
#
# 1 0.010416 -0.003698 -0.000351 0.000000 -0.005291 0.000000
# 2 -0.003698 0.026388 -0.005736 0.000000 0.000361 0.000000
# 3 -0.000351 -0.005736 0.012268 0.000000 -0.004087 0.000000
# 4 0.000000 0.000000 0.000000 0.025542 0.000000 0.003495
# 5 -0.005291 0.000361 -0.004087 0.000000 0.027047 0.000000
# 6 0.000000 0.000000 0.000000 0.003495 0.000000 0.030502
#
#
# Mechanical properties :
#
#
# Convention : Reuss Voigt Hill
#
# Bulk Modulus (GPa) = 33.89536 44.15196 39.02366
# Shear Modulus (GPa) = 30.94706 36.66472 33.80589
#
# Velocity S-wave (km/s) = 3.52265 3.83429 3.68177
# Velocity P-wave (km/s) = 5.48969 6.10789 5.80702
#
# Compressibility (1/GPa) = 0.02950256
#
# Stress axis : x y z
#
# Youngs Moduli (GPa) = 96.00451 37.89619 81.51419
#
# Poissons Ratio (x) = 0.14013 0.02858
# Poissons Ratio (y) = 0.35500 0.46758
# Poissons Ratio (z) = 0.03366 0.21738
#
# Static dielectric constant tensor:
#      x y z
#    x 4.433150 0.000000 0.250430 
#    y 0.000000 4.357120 0.000000 
#    z 0.250430 0.000000 4.517290 
# 
# 
# High freq. dielectric constant tensor:
#      x y z
#    x 1.989200 0.000000 0.022450 
#    y 0.000000 1.980280 0.000000 
#    z 0.022450 0.000000 2.002110 
# 
# From -- ./inp_files/9267.got.cif
#   From: 2010.06.25/outbox.cif.g09.slc.cpg/sg9_5_cif.got.tgz:9267.got - 2010.06.27 21:40:51.
