data_PCOD8054319
_publ_section_title
;
Structure prediction by ZEFSAII (Michael W. Deem and Ramdas Pophale) SiO2 
 PCOD8054319
Probable space group: C C
;
_chemical_formula_sum "Si O2"
_cell_formula_units_Z 32
_cell_length_a 8.840674
_cell_length_b 22.662911
_cell_length_c 15.350619
_cell_angle_alpha 90.000000
_cell_angle_beta 33.292021
_cell_angle_gamma 90.000000
_cell_volume 1688.205346
_symmetry_space_group_name_H-M "C C"
_symmetry_group_IT_number 9
_symmetry_cell_setting 'monoclinic'
loop_
_space_group_symop_operation_xyz
x,y,z
x,-y,1/2+z
1/2+x,1/2+y,z
1/2+x,1/2-y,1/2+z
loop_
_atom_site_type_symbol
_atom_site_label
_atom_site_fract_x
_atom_site_fract_y
_atom_site_fract_z
Si Si1 0.869600 0.125694 0.176170
Si Si2 0.885281 0.319258 0.501806
Si Si3 0.309207 0.826674 0.890694
Si Si4 0.547452 0.488008 0.675381
Si Si5 0.759437 0.954965 0.580116
Si Si6 0.859009 0.745151 0.193776
Si Si7 0.589441 0.937278 0.476729
Si Si8 0.678982 0.542676 0.427877
O O1 0.571619 0.156626 0.324038
O O2 0.892135 0.074614 0.238513
O O3 0.916800 0.095923 0.058696
O O4 0.107603 0.173226 0.079498
O O5 0.804465 0.294459 0.635376
O O6 0.048334 0.379985 0.437533
O O7 0.077036 0.278906 0.350035
O O8 0.421404 0.792737 0.750766
O O9 0.151257 0.886189 0.935466
O O10 0.112404 0.788350 0.048049
O O11 0.831051 0.480432 0.590798
O O12 0.596973 0.519549 0.560943
O O13 0.368630 0.531219 0.817917
O O14 0.635230 0.922440 0.555684
O O15 0.492950 0.978154 0.761746
O O16 0.964711 0.010610 0.463952
#
# Coordination Sequence:
#
# PCOD8054319 Si02
#       8
#     4   4   4   4   4   4   4   4
#     4   9  20  36  56  78 107 139 171 215 267 315
#     4  10  21  37  56  77 106 139 177 221 261 304
#     4  10  20  37  56  77 105 139 178 222 262 304
#     4  10  20  33  54  82 109 140 172 205 262 327
#     4  10  20  33  54  82 109 140 171 206 263 325
#     4  10  22  37  56  78 100 139 186 221 261 304
#     4  11  20  34  54  81 112 138 170 216 260 313
#     4  10  19  35  54  77 110 142 171 210 260 318
#
# _framework density 18.95504
#
# number of rings (size 3 to 8) (size 9 to 14) (size 15 to 20)
#    0.000    2.000    0.000    5.250    0.000    4.000 
#    0.000    0.000    0.000    6.000    0.000    0.000 
#    0.000    0.000    0.000    0.000    0.000    0.000 
#
# Total GULP energy -198348.353286 kJ/mol
# GULP energy per Si atom -12396.772080 kJ/mol
# Density = 1.891190 g / cm^3
# Si number density = 18.955040 Si / 1000 Ang^3
#
#
#
# Elastic Constant Matrix: (Units=GPa)
#
#
# Indices 1 2 3 4 5 6 
#
# 1 48.4106 23.9775 14.7150 0.0139 4.9535 0.0070
# 2 23.9775 81.3272 42.8659 -0.0058 -11.4885 -0.0017
# 3 14.7150 42.8659 92.8256 0.0150 2.4067 0.0059
# 4 0.0139 -0.0058 0.0150 34.5522 -0.0103 -6.3914
# 5 4.9535 -11.4885 2.4067 -0.0103 20.7288 -0.0027
# 6 0.0070 -0.0017 0.0059 -6.3914 -0.0027 30.2909
#
#
#
# Elastic Compliance Matrix: (Units=1/GPa)
#
#
# Indices 1 2 3 4 5 6 
#
# 1 0.026553 -0.009847 0.000646 -0.000018 -0.011878 -0.000012
# 2 -0.009847 0.022222 -0.009109 0.000018 0.015726 0.000011
# 3 0.000646 -0.009109 0.015057 -0.000012 -0.006951 -0.000007
# 4 -0.000018 0.000018 -0.000012 0.030117 0.000032 0.006355
# 5 -0.011878 0.015726 -0.006951 0.000032 0.060604 0.000017
# 6 -0.000012 0.000011 -0.000007 0.006355 0.000017 0.034354
#
#
# Mechanical properties :
#
#
# Convention : Reuss Voigt Hill
#
# Bulk Modulus (GPa) = 36.74792 42.85337 39.80065
# Shear Modulus (GPa) = 21.31326 26.51471 23.91399
#
# Velocity S-wave (km/s) = 3.35686 3.74414 3.55578
# Velocity P-wave (km/s) = 5.86972 6.43027 6.15638
#
# Compressibility (1/GPa) = 0.02721243
#
# Stress axis : x y z
#
# Youngs Moduli (GPa) = 37.66091 45.00130 66.41454
#
# Poissons Ratio (x) = 0.44312 -0.04290
# Poissons Ratio (y) = 0.37084 0.60494
# Poissons Ratio (z) = -0.02432 0.40989
#
# Static dielectric constant tensor:
#      x y z
#    x 3.593470 0.000050 -0.136900 
#    y 0.000050 3.643160 -0.000130 
#    z -0.136900 -0.000130 3.572460 
# 
# 
# High freq. dielectric constant tensor:
#      x y z
#    x 1.738210 0.000000 -0.004300 
#    y 0.000000 1.734840 0.000000 
#    z -0.004300 0.000000 1.736600 
# 
# From -- ./inp_files/5740.got.cif
#   From: 2010.06.25/outbox.cif.g09.slc.cpg/sg9_3_cif.got.tgz:5740.got - 2010.06.27 21:40:51.
