data_PCOD8054773
_publ_section_title
;
Structure prediction by ZEFSAII (Michael W. Deem and Ramdas Pophale) SiO2 
 PCOD8054773
Probable space group: C C
;
_chemical_formula_sum "Si O2"
_cell_formula_units_Z 28
_cell_length_a 12.161925
_cell_length_b 16.746685
_cell_length_c 8.811950
_cell_angle_alpha 90.000000
_cell_angle_beta 126.869485
_cell_angle_gamma 90.000000
_cell_volume 1435.805225
_symmetry_space_group_name_H-M "C C"
_symmetry_group_IT_number 9
_symmetry_cell_setting 'monoclinic'
loop_
_space_group_symop_operation_xyz
x,y,z
x,-y,1/2+z
1/2+x,1/2+y,z
1/2+x,1/2-y,1/2+z
loop_
_atom_site_type_symbol
_atom_site_label
_atom_site_fract_x
_atom_site_fract_y
_atom_site_fract_z
Si Si1 0.671320 0.987988 0.065250
Si Si2 0.817134 0.914079 0.434136
Si Si3 0.955820 0.421129 0.557713
Si Si4 0.031514 0.674764 0.373718
Si Si5 0.128978 0.907014 0.760699
Si Si6 0.250225 0.248731 0.252539
Si Si7 0.782350 0.519117 0.654295
O O1 0.807933 0.951610 0.257197
O O2 0.711171 0.038150 0.951534
O O3 0.602733 0.046118 0.130254
O O4 0.560988 0.917223 0.944660
O O5 0.768230 0.822604 0.381632
O O6 0.968537 0.923998 0.621376
O O7 0.890250 0.478521 0.631092
O O8 0.856414 0.417316 0.328400
O O9 0.989870 0.333399 0.660006
O O10 0.166777 0.727137 0.527941
O O11 0.899572 0.711844 0.346287
O O12 0.156781 0.813488 0.765450
O O13 0.206520 0.951871 0.689251
O O14 0.172778 0.932634 0.964894
#
# Coordination Sequence:
#
# PCOD8054773 Si02
#       7
#     4   4   4   4   4   4   4
#     4  11  21  38  67  95 122 170 223 273 310 395
#     4  11  23  39  65  94 129 171 223 266 326 393
#     4  11  18  38  63  97 120 161 223 263 319 385
#     4  11  21  40  66  93 128 173 217 264 329 397
#     4  11  21  41  61  94 130 167 220 268 335 386
#     4  11  23  40  66  94 131 178 210 272 340 392
#     4  10  21  34  68  93 122 166 218 280 315 386
#
# _framework density 19.501252000000001
#
# number of rings (size 3 to 8) (size 9 to 14) (size 15 to 20)
#    0.000    1.143    5.714    1.714    0.000    1.143 
#    0.000    1.429    0.000    0.000    0.000    0.000 
#    0.000    0.000    0.000    0.000    0.000    0.000 
#
# Total GULP energy -173482.834972 kJ/mol
# GULP energy per Si atom -12391.631069 kJ/mol
# Density = 1.945687 g / cm^3
# Si number density = 19.501252 Si / 1000 Ang^3
#
#
#
# Elastic Constant Matrix: (Units=GPa)
#
#
# Indices 1 2 3 4 5 6 
#
# 1 82.4293 33.4375 39.8881 0.0000 6.9328 0.0000
# 2 33.4375 97.3922 52.9359 0.0000 -1.5350 0.0000
# 3 39.8881 52.9359 165.2777 0.0000 11.4867 0.0000
# 4 0.0000 0.0000 0.0000 24.0431 0.0000 6.2170
# 5 6.9328 -1.5350 11.4867 0.0000 35.2284 0.0000
# 6 0.0000 0.0000 0.0000 6.2170 0.0000 25.7619
#
#
#
# Elastic Compliance Matrix: (Units=1/GPa)
#
#
# Indices 1 2 3 4 5 6 
#
# 1 0.015013 -0.004013 -0.002170 0.000000 -0.002422 0.000000
# 2 -0.004013 0.013628 -0.003573 0.000000 0.002549 0.000000
# 3 -0.002170 -0.003573 0.007878 0.000000 -0.002298 0.000000
# 4 0.000000 0.000000 0.000000 0.044360 0.000000 -0.010705
# 5 -0.002422 0.002549 -0.002298 0.000000 0.029723 0.000000
# 6 0.000000 0.000000 0.000000 -0.010705 0.000000 0.041400
#
#
# Mechanical properties :
#
#
# Convention : Reuss Voigt Hill
#
# Bulk Modulus (GPa) = 58.79998 66.40246 62.60122
# Shear Modulus (GPa) = 28.21913 31.59586 29.90750
#
# Velocity S-wave (km/s) = 3.80813 4.02953 3.92039
# Velocity P-wave (km/s) = 7.03940 7.46819 7.25696
#
# Compressibility (1/GPa) = 0.01700681
#
# Stress axis : x y z
#
# Youngs Moduli (GPa) = 66.60805 73.37765 126.93252
#
# Poissons Ratio (x) = 0.29450 0.27538
# Poissons Ratio (y) = 0.26733 0.45358
# Poissons Ratio (z) = 0.14451 0.26221
#
# Static dielectric constant tensor:
#      x y z
#    x 3.350680 0.000000 0.045950 
#    y 0.000000 3.561750 0.000000 
#    z 0.045950 0.000000 4.099680 
# 
# 
# High freq. dielectric constant tensor:
#      x y z
#    x 1.744980 0.000000 0.016040 
#    y 0.000000 1.743850 0.000000 
#    z 0.016040 0.000000 1.785630 
# 
# From -- ./inp_files/7328.got.cif
#   From: 2010.06.25/outbox.cif.g09.slc.cpg/sg9_4_cif.got.tgz:7328.got - 2010.06.27 21:40:51.
