data_PCOD8054826
_publ_section_title
;
Structure prediction by ZEFSAII (Michael W. Deem and Ramdas Pophale) SiO2 
 PCOD8054826
Probable space group: C C
;
_chemical_formula_sum "Si O2"
_cell_formula_units_Z 24
_cell_length_a 28.719772
_cell_length_b 8.902276
_cell_length_c 8.953139
_cell_angle_alpha 90.000000
_cell_angle_beta 150.882424
_cell_angle_gamma 90.000000
_cell_volume 1113.864863
_symmetry_space_group_name_H-M "C C"
_symmetry_group_IT_number 9
_symmetry_cell_setting 'monoclinic'
loop_
_space_group_symop_operation_xyz
x,y,z
x,-y,1/2+z
1/2+x,1/2+y,z
1/2+x,1/2-y,1/2+z
loop_
_atom_site_type_symbol
_atom_site_label
_atom_site_fract_x
_atom_site_fract_y
_atom_site_fract_z
Si Si1 0.797660 0.186819 0.918730
Si Si2 0.651585 0.369349 0.701840
Si Si3 0.232282 0.574204 0.416626
Si Si4 0.911364 0.539462 0.815067
Si Si5 0.216775 0.875522 0.213801
Si Si6 0.536767 0.097086 0.434196
O O1 0.709074 0.279591 0.736099
O O2 0.778645 0.142686 0.694599
O O3 0.808920 0.037339 0.052156
O O4 0.890880 0.294853 0.186804
O O5 0.634123 0.531148 0.573247
O O6 0.555594 0.277372 0.474963
O O7 0.711608 0.394452 0.021463
O O8 0.206120 0.701812 0.223698
O O9 0.134941 0.487142 0.176319
O O10 0.818862 0.434846 0.556164
O O11 0.002594 0.455523 0.000143
O O12 0.944504 0.559789 0.077042
#
# Coordination Sequence:
#
# PCOD8054826 Si02
#       6
#     4   4   4   4   4   4
#     4  10  21  38  60  88 119 161 204 240 298 375
#     4  10  21  38  60  88 119 161 204 240 298 375
#     4  11  21  39  63  87 119 164 203 243 300 372
#     4  11  22  39  61  89 120 153 198 257 304 347
#     4  11  21  39  63  87 119 164 203 243 300 372
#     4  11  22  39  61  89 120 153 198 257 304 347
#
# _framework density 21.546599000000001
#
# number of rings (size 3 to 8) (size 9 to 14) (size 15 to 20)
#    0.000    1.333    0.000   10.000    0.000    0.000 
#    0.000    8.333    0.000    0.000    0.000    0.000 
#    0.000    0.000    0.000    0.000    0.000    0.000 
#
# Total GULP energy -148750.096568 kJ/mol
# GULP energy per Si atom -12395.841381 kJ/mol
# Density = 2.149756 g / cm^3
# Si number density = 21.546599 Si / 1000 Ang^3
#
#
#
# Elastic Constant Matrix: (Units=GPa)
#
#
# Indices 1 2 3 4 5 6 
#
# 1 69.9349 29.0576 2.8487 0.0000 -3.1113 0.0000
# 2 29.0576 107.6634 -8.8403 0.0000 17.2615 0.0000
# 3 2.8487 -8.8403 52.2202 0.0000 -2.5770 0.0000
# 4 0.0000 0.0000 0.0000 41.8253 0.0000 2.0408
# 5 -3.1113 17.2615 -2.5770 0.0000 34.4854 0.0000
# 6 0.0000 0.0000 0.0000 2.0408 0.0000 40.4055
#
#
#
# Elastic Compliance Matrix: (Units=1/GPa)
#
#
# Indices 1 2 3 4 5 6 
#
# 1 0.016747 -0.005300 -0.001611 0.000000 0.004044 0.000000
# 2 -0.005300 0.011889 0.001992 0.000000 -0.006280 0.000000
# 3 -0.001611 0.001992 0.019591 0.000000 0.000322 0.000000
# 4 0.000000 0.000000 0.000000 0.023968 0.000000 -0.001211
# 5 0.004044 -0.006280 0.000322 0.000000 0.032530 0.000000
# 6 0.000000 0.000000 0.000000 -0.001211 0.000000 0.024810
#
#
# Mechanical properties :
#
#
# Convention : Reuss Voigt Hill
#
# Bulk Modulus (GPa) = 26.05045 30.66116 28.35581
# Shear Modulus (GPa) = 32.85783 37.12675 34.99229
#
# Velocity S-wave (km/s) = 3.90932 4.15552 4.03430
# Velocity P-wave (km/s) = 5.70031 6.10618 5.90673
#
# Compressibility (1/GPa) = 0.03838705
#
# Stress axis : x y z
#
# Youngs Moduli (GPa) = 59.71262 84.10951 51.04478
#
# Poissons Ratio (x) = 0.44582 0.08225
# Poissons Ratio (y) = 0.31651 -0.10168
# Poissons Ratio (z) = 0.09622 -0.16754
#
# Static dielectric constant tensor:
#      x y z
#    x 3.969710 0.000000 -0.155910 
#    y 0.000000 4.866060 0.000000 
#    z -0.155910 0.000000 3.594490 
# 
# 
# High freq. dielectric constant tensor:
#      x y z
#    x 1.847400 0.000000 -0.025280 
#    y 0.000000 1.861370 0.000000 
#    z -0.025280 0.000000 1.824310 
# 
# From -- ./inp_files/10279.got.cif
#   From: 2010.06.25/outbox.cif.g09.slc.cpg/sg9_6_cif.got.tgz:10279.got - 2010.06.27 21:40:51.
