data_PCOD8054947
_publ_section_title
;
Structure prediction by ZEFSAII (Michael W. Deem and Ramdas Pophale) SiO2 
 PCOD8054947
Probable space group: C C
;
_chemical_formula_sum "Si O2"
_cell_formula_units_Z 32
_cell_length_a 10.092191
_cell_length_b 16.933666
_cell_length_c 9.238984
_cell_angle_alpha 90.000000
_cell_angle_beta 103.715103
_cell_angle_gamma 90.000000
_cell_volume 1533.901618
_symmetry_space_group_name_H-M "C C"
_symmetry_group_IT_number 9
_symmetry_cell_setting 'monoclinic'
loop_
_space_group_symop_operation_xyz
x,y,z
x,-y,1/2+z
1/2+x,1/2+y,z
1/2+x,1/2-y,1/2+z
loop_
_atom_site_type_symbol
_atom_site_label
_atom_site_fract_x
_atom_site_fract_y
_atom_site_fract_z
Si Si1 0.310480 0.012462 0.301610
Si Si2 0.832581 0.333428 0.950841
Si Si3 0.969749 0.370053 0.269885
Si Si4 0.878520 0.936448 0.982096
Si Si5 0.013256 0.196855 0.339969
Si Si6 0.253614 0.564439 0.768799
Si Si7 0.634574 0.539503 0.996652
Si Si8 0.449333 0.328505 0.495148
O O1 0.385569 0.091351 0.374955
O O2 0.410449 0.938647 0.357080
O O3 0.168112 0.995566 0.348317
O O4 0.271217 0.025965 0.124782
O O5 0.672771 0.322797 0.880616
O O6 0.851599 0.349240 0.125268
O O7 0.927306 0.259712 0.927016
O O8 0.001617 0.290857 0.368965
O O9 0.098425 0.407159 0.219476
O O10 0.928678 0.850751 0.939319
O O11 0.772485 0.975563 0.838512
O O12 0.814295 0.926865 0.124046
O O13 0.007929 0.993448 0.032440
O O14 0.949378 0.173776 0.168963
O O15 0.323884 0.620795 0.904547
O O16 0.591791 0.632390 0.976739
#
# Coordination Sequence:
#
# PCOD8054947 Si02
#       8
#     4   4   4   4   4   4   4   4
#     4  12  22  41  66  95 123 174 209 277 322 387
#     4  11  22  41  69  91 128 175 213 270 336 381
#     4  11  26  43  63  98 140 169 218 278 341 394
#     4  11  22  40  71 100 128 179 224 273 327 403
#     4  11  21  46  69  92 133 173 225 274 333 392
#     4  11  24  41  68 101 137 173 220 271 339 401
#     4  11  20  38  68  95 124 159 232 259 317 391
#     4  10  21  40  68  94 129 174 211 274 327 393
#
# _framework density 20.861833000000001
#
# number of rings (size 3 to 8) (size 9 to 14) (size 15 to 20)
#    0.000    1.000    5.000    3.000    1.750    0.000 
#    6.750    0.000    0.000    0.000    0.000    0.000 
#    0.000    0.000    0.000    0.000    0.000    0.000 
#
# Total GULP energy -198337.284022 kJ/mol
# GULP energy per Si atom -12396.080251 kJ/mol
# Density = 2.081435 g / cm^3
# Si number density = 20.861833 Si / 1000 Ang^3
#
#
#
# Elastic Constant Matrix: (Units=GPa)
#
#
# Indices 1 2 3 4 5 6 
#
# 1 75.6435 60.2665 41.7051 0.0000 -9.1892 0.0000
# 2 60.2665 180.6434 39.7324 0.0000 -3.5146 0.0000
# 3 41.7051 39.7324 87.3478 0.0000 0.6307 0.0000
# 4 0.0000 0.0000 0.0000 31.3148 0.0000 0.0325
# 5 -9.1892 -3.5146 0.6307 0.0000 20.1515 0.0000
# 6 0.0000 0.0000 0.0000 0.0325 0.0000 40.9428
#
#
#
# Elastic Compliance Matrix: (Units=1/GPa)
#
#
# Indices 1 2 3 4 5 6 
#
# 1 0.024028 -0.005865 -0.008878 0.000000 0.010212 0.000000
# 2 -0.005865 0.007610 -0.000652 0.000000 -0.001327 0.000000
# 3 -0.008878 -0.000652 0.016018 0.000000 -0.004664 0.000000
# 4 0.000000 0.000000 0.000000 0.031934 0.000000 -0.000025
# 5 0.010212 -0.001327 -0.004664 0.000000 0.054195 0.000000
# 6 0.000000 0.000000 0.000000 -0.000025 0.000000 0.024424
#
#
# Mechanical properties :
#
#
# Convention : Reuss Voigt Hill
#
# Bulk Modulus (GPa) = 59.29189 69.67141 64.48165
# Shear Modulus (GPa) = 25.69094 31.94387 28.81741
#
# Velocity S-wave (km/s) = 3.51305 3.91731 3.72068
# Velocity P-wave (km/s) = 6.70360 7.34367 7.03093
#
# Compressibility (1/GPa) = 0.01686571
#
# Stress axis : x y z
#
# Youngs Moduli (GPa) = 41.61806 131.40717 62.43085
#
# Poissons Ratio (x) = 0.77067 0.55429
# Poissons Ratio (y) = 0.24408 0.04069
# Poissons Ratio (z) = 0.36950 0.08565
#
# Static dielectric constant tensor:
#      x y z
#    x 3.569450 0.000000 0.236500 
#    y 0.000000 4.283110 0.000000 
#    z 0.236500 0.000000 3.619740 
# 
# 
# High freq. dielectric constant tensor:
#      x y z
#    x 1.796680 0.000000 0.018640 
#    y 0.000000 1.833880 0.000000 
#    z 0.018640 0.000000 1.810750 
# 
# From -- ./inp_files/7942.got.cif
#   From: 2010.06.25/outbox.cif.g09.slc.cpg/sg9_4_cif.got.tgz:7942.got - 2010.06.27 21:40:51.
