data_PCOD8054676
_publ_section_title
;
Structure prediction by ZEFSAII (Michael W. Deem and Ramdas Pophale) SiO2 
 PCOD8054676
Probable space group: C C
;
_chemical_formula_sum "Si O2"
_cell_formula_units_Z 32
_cell_length_a 11.192700
_cell_length_b 10.576529
_cell_length_c 24.251218
_cell_angle_alpha 90.000000
_cell_angle_beta 148.078862
_cell_angle_gamma 90.000000
_cell_volume 1517.970049
_symmetry_space_group_name_H-M "C C"
_symmetry_group_IT_number 9
_symmetry_cell_setting 'monoclinic'
loop_
_space_group_symop_operation_xyz
x,y,z
x,-y,1/2+z
1/2+x,1/2+y,z
1/2+x,1/2-y,1/2+z
loop_
_atom_site_type_symbol
_atom_site_label
_atom_site_fract_x
_atom_site_fract_y
_atom_site_fract_z
Si Si1 0.987000 0.987260 0.688320
Si Si2 0.558076 0.882263 0.991308
Si Si3 0.129622 0.669738 0.312215
Si Si4 0.483817 0.996533 0.853165
Si Si5 0.095211 0.932577 0.957325
Si Si6 0.834549 0.818314 0.539162
Si Si7 0.160866 0.048730 0.869133
Si Si8 0.668387 0.632737 0.079318
O O1 0.877096 0.859934 0.619381
O O2 0.219180 0.029195 0.749419
O O3 0.818202 0.100907 0.609671
O O4 0.017245 0.972355 0.766319
O O5 0.523898 0.884004 0.912474
O O6 0.413022 0.991493 0.964805
O O7 0.505878 0.739483 0.988517
O O8 0.364290 0.644296 0.373730
O O9 0.151774 0.802122 0.353267
O O10 0.076528 0.551738 0.331418
O O11 0.929975 0.672066 0.188878
O O12 0.614103 0.120660 0.924906
O O13 0.067044 0.025265 0.893820
O O14 0.299163 0.832919 0.025258
O O15 0.152846 0.007651 0.035943
O O16 0.056394 0.876003 0.595916
#
# Coordination Sequence:
#
# PCOD8054676 Si02
#       8
#     4   4   4   4   4   4   4   4
#     4  10  20  40  71  96 128 188 225 279 351 403
#     4  10  21  41  68  95 132 178 228 282 345 403
#     4  12  24  44  69 103 139 177 234 285 344 423
#     4  10  21  40  69  95 131 182 222 282 345 408
#     4  12  27  46  68 108 139 182 234 289 346 416
#     4  11  23  45  66  96 142 173 235 288 342 412
#     4  11  24  44  71  99 139 184 231 286 348 419
#     4  12  24  44  68  98 140 178 225 291 343 410
#
# _framework density 21.080784999999999
#
# number of rings (size 3 to 8) (size 9 to 14) (size 15 to 20)
#    0.000    1.000    5.000    3.000    0.000    2.000 
#    6.750    1.250    0.000    0.000    0.000    0.000 
#    0.000    0.000    0.000    0.000    0.000    0.000 
#
# Total GULP energy -198316.941314 kJ/mol
# GULP energy per Si atom -12394.808832 kJ/mol
# Density = 2.103280 g / cm^3
# Si number density = 21.080785 Si / 1000 Ang^3
#
#
#
# Elastic Constant Matrix: (Units=GPa)
#
#
# Indices 1 2 3 4 5 6 
#
# 1 95.4571 34.2632 35.1452 -0.0001 -8.7332 -0.0001
# 2 34.2632 114.8807 40.9061 0.0002 -1.9688 0.0001
# 3 35.1452 40.9061 101.6300 0.0008 11.2895 0.0003
# 4 -0.0001 0.0002 0.0008 23.1036 0.0004 -5.0162
# 5 -8.7332 -1.9688 11.2895 0.0004 29.8262 0.0001
# 6 -0.0001 0.0001 0.0003 -5.0162 0.0001 37.5491
#
#
#
# Elastic Compliance Matrix: (Units=1/GPa)
#
#
# Indices 1 2 3 4 5 6 
#
# 1 0.013396 -0.002382 -0.004272 0.000000 0.005382 0.000000
# 2 -0.002382 0.010740 -0.003654 0.000000 0.001395 0.000000
# 3 -0.004272 -0.003654 0.013522 0.000000 -0.006610 0.000000
# 4 0.000000 0.000000 0.000000 0.044576 0.000000 0.005955
# 5 0.005382 0.001395 -0.006610 0.000000 0.037698 0.000000
# 6 0.000000 0.000000 0.000000 0.005955 0.000000 0.027427
#
#
# Mechanical properties :
#
#
# Convention : Reuss Voigt Hill
#
# Bulk Modulus (GPa) = 58.67694 59.17742 58.92718
# Shear Modulus (GPa) = 28.79261 31.53932 30.16597
#
# Velocity S-wave (km/s) = 3.69971 3.87216 3.78692
# Velocity P-wave (km/s) = 6.79303 6.93716 6.86547
#
# Compressibility (1/GPa) = 0.01704247
#
# Stress axis : x y z
#
# Youngs Moduli (GPa) = 74.64883 93.10840 73.95445
#
# Poissons Ratio (x) = 0.22180 0.31590
# Poissons Ratio (y) = 0.17782 0.27023
# Poissons Ratio (z) = 0.31887 0.34022
#
# Static dielectric constant tensor:
#      x y z
#    x 3.867670 0.000000 0.001280 
#    y 0.000000 3.605450 0.000000 
#    z 0.001280 0.000000 3.862490 
# 
# 
# High freq. dielectric constant tensor:
#      x y z
#    x 1.824670 0.000000 0.001860 
#    y 0.000000 1.817130 0.000000 
#    z 0.001860 0.000000 1.832430 
# 
# From -- ./inp_files/16438.got.cif
#   From: 2010.06.25/outbox.cif.g09.slc.cpg/sg9_9_cif.got.tgz:16438.got - 2010.06.27 21:40:51.
