data_PCOD8054086
_publ_section_title
;
Structure prediction by ZEFSAII (Michael W. Deem and Ramdas Pophale) SiO2 
 PCOD8054086
Probable space group: C M
;
_chemical_formula_sum "Si O2"
_cell_formula_units_Z 32
_cell_length_a 11.352560
_cell_length_b 20.353053
_cell_length_c 8.795041
_cell_angle_alpha 90.000000
_cell_angle_beta 44.996235
_cell_angle_gamma 90.000000
_cell_volume 1436.870736
_symmetry_space_group_name_H-M "C M"
_symmetry_group_IT_number 8
_symmetry_cell_setting 'monoclinic'
loop_
_space_group_symop_operation_xyz
x,y,z
x,-y,z
1/2+x,1/2+y,z
1/2+x,1/2-y,z
loop_
_atom_site_type_symbol
_atom_site_label
_atom_site_fract_x
_atom_site_fract_y
_atom_site_fract_z
Si Si1 0.760900 0.715634 0.478020
Si Si2 0.510084 0.151334 0.070296
Si Si3 0.808753 0.239949 0.757057
Si Si4 0.678090 0.141720 0.457544
Si Si5 0.499969 0.574175 0.298028
Si Si6 0.719808 0.924655 0.099420
Si Si7 0.512223 0.380110 0.619657
Si Si8 0.338175 0.137801 0.919730
O O1 0.806134 0.714675 0.613161
O O2 0.663323 0.780104 0.503239
O O3 0.692098 0.639866 0.521525
O O4 0.934213 0.712790 0.230971
O O5 0.567499 0.090406 0.123759
O O6 0.672123 0.183968 0.851591
O O7 0.385731 0.128208 0.052276
O O8 0.794146 0.286391 0.918954
O O9 0.972104 0.196239 0.619394
O O10 0.708300 0.123947 0.253892
O O11 0.497666 0.112056 0.675043
O O12 0.835391 0.115544 0.409255
O O13 0.466456 0.500000 0.277301
O O14 0.523272 0.576083 0.458964
O O15 0.665844 0.597606 0.056207
O O16 0.709626 0.000000 0.162561
O O17 0.895383 0.912905 0.853414
#
# Coordination Sequence:
#
# PCOD8054086 Si02
#       8
#     4   4   4   4   4   4   4   4
#     4  12  23  39  67 106 140 171 224 296 370 415
#     4  11  24  41  69 102 140 187 225 301 354 427
#     4  11  22  40  66 105 139 174 228 287 365 424
#     4  12  25  46  75 104 144 186 235 304 360 419
#     4  12  27  47  71 103 144 195 245 285 347 433
#     4  11  27  48  69  98 140 198 243 283 352 427
#     4  11  23  42  69  99 136 181 226 292 354 416
#     4  12  25  45  72 109 139 186 238 294 364 423
#
# _framework density 22.270619
#
# number of rings (size 3 to 8) (size 9 to 14) (size 15 to 20)
#    0.000    0.500    5.000    3.000    7.000    1.500 
#    0.000    0.000    0.000    0.000    0.000    0.000 
#    0.000    0.000    0.000    0.000    0.000    0.000 
#
# Total GULP energy -198255.709946 kJ/mol
# GULP energy per Si atom -12390.981872 kJ/mol
# Density = 2.221993 g / cm^3
# Si number density = 22.270619 Si / 1000 Ang^3
#
#
#
# Elastic Constant Matrix: (Units=GPa)
#
#
# Indices 1 2 3 4 5 6 
#
# 1 56.1041 24.4739 22.7360 0.0000 5.5942 0.0000
# 2 24.4739 85.7663 23.4937 0.0000 -6.2973 0.0000
# 3 22.7360 23.4937 114.5802 0.0000 -7.2100 0.0000
# 4 0.0000 0.0000 0.0000 29.0494 0.0000 3.0939
# 5 5.5942 -6.2973 -7.2100 0.0000 41.6645 0.0000
# 6 0.0000 0.0000 0.0000 3.0939 0.0000 19.6468
#
#
#
# Elastic Compliance Matrix: (Units=1/GPa)
#
#
# Indices 1 2 3 4 5 6 
#
# 1 0.022174 -0.005692 -0.003513 0.000000 -0.004445 0.000000
# 2 -0.005692 0.013901 -0.001558 0.000000 0.002596 0.000000
# 3 -0.003513 -0.001558 0.009866 0.000000 0.001944 0.000000
# 4 0.000000 0.000000 0.000000 0.035011 0.000000 -0.005514
# 5 -0.004445 0.002596 0.001944 0.000000 0.025327 0.000000
# 6 0.000000 0.000000 0.000000 -0.005514 0.000000 0.051767
#
#
# Mechanical properties :
#
#
# Convention : Reuss Voigt Hill
#
# Bulk Modulus (GPa) = 40.95466 44.20643 42.58054
# Shear Modulus (GPa) = 26.63707 30.45528 28.54618
#
# Velocity S-wave (km/s) = 3.46217 3.70200 3.58409
# Velocity P-wave (km/s) = 5.86614 6.17785 6.02401
#
# Compressibility (1/GPa) = 0.02441725
#
# Stress axis : x y z
#
# Youngs Moduli (GPa) = 45.09884 71.93756 101.35640
#
# Poissons Ratio (x) = 0.40944 0.35602
# Poissons Ratio (y) = 0.25668 0.15787
# Poissons Ratio (z) = 0.15841 0.11205
#
# Static dielectric constant tensor:
#      x y z
#    x 4.160490 0.000000 -0.124500 
#    y 0.000000 4.223470 0.000000 
#    z -0.124500 0.000000 4.094890 
# 
# 
# High freq. dielectric constant tensor:
#      x y z
#    x 1.887960 0.000000 -0.009870 
#    y 0.000000 1.854580 0.000000 
#    z -0.009870 0.000000 1.887580 
# 
# From -- ./inp_files/11452.got.cif
#   From: 2010.03.12/outbox.cif.g09.slc.cpg/sg8_6_cif.got.tgz:11452.got - 2010.03.31 10:45:26.
