data_PCOD8054002
_publ_section_title
;
Structure prediction by ZEFSAII (Michael W. Deem and Ramdas Pophale) SiO2 
 PCOD8054002
Probable space group: C M
;
_chemical_formula_sum "Si O2"
_cell_formula_units_Z 22
_cell_length_a 13.674663
_cell_length_b 13.162714
_cell_length_c 11.717197
_cell_angle_alpha 90.000000
_cell_angle_beta 33.204240
_cell_angle_gamma 90.000000
_cell_volume 1154.965973
_symmetry_space_group_name_H-M "C M"
_symmetry_group_IT_number 8
_symmetry_cell_setting 'monoclinic'
loop_
_space_group_symop_operation_xyz
x,y,z
x,-y,z
1/2+x,1/2+y,z
1/2+x,1/2-y,z
loop_
_atom_site_type_symbol
_atom_site_label
_atom_site_fract_x
_atom_site_fract_y
_atom_site_fract_z
Si Si1 0.911890 0.884975 0.917320
Si Si2 0.112009 0.820780 0.925965
Si Si3 0.588236 0.500000 0.113766
Si Si4 0.426707 0.322254 0.645365
Si Si5 0.294231 0.791752 0.172656
Si Si6 0.401259 0.000000 0.955545
Si Si7 0.815339 0.000000 0.589786
O O1 0.947405 0.870571 0.749477
O O2 0.839278 0.000000 0.007800
O O3 0.773033 0.798008 0.097065
O O4 0.094061 0.868409 0.814748
O O5 0.046445 0.901201 0.082151
O O6 0.968517 0.729601 0.079934
O O7 0.308611 0.779709 0.759896
O O8 0.801306 0.500000 0.931679
O O9 0.461142 0.500000 0.348089
O O10 0.621642 0.288402 0.418890
O O11 0.338453 0.400765 0.643999
O O12 0.322121 0.902389 0.095175
O O13 0.614892 0.000000 0.733245
#
# Coordination Sequence:
#
# PCOD8054002 Si02
#       7
#     4   4   2   4   4   2   2
#     4  10  22  46  64  95 135 167 215 269 323 395
#     4  10  24  42  64  96 132 167 217 267 328 382
#     4  12  24  43  70  93 137 174 212 282 328 383
#     4  12  22  42  70  93 130 175 215 269 327 385
#     4  10  23  42  66  96 131 165 222 268 318 390
#     4  12  22  44  65 100 128 168 235 269 309 409
#     4  12  24  39  71  99 125 176 225 263 337 382
#
# _framework density 19.048179999999999
#
# number of rings (size 3 to 8) (size 9 to 14) (size 15 to 20)
#    1.091    0.000    5.455    1.091    0.000    4.364 
#    1.636    0.000    0.000    0.000    0.000    0.000 
#    0.000    0.000    0.000    0.000    0.000    0.000 
#
# Total GULP energy -136303.549341 kJ/mol
# GULP energy per Si atom -12391.231758 kJ/mol
# Density = 1.900483 g / cm^3
# Si number density = 19.048180 Si / 1000 Ang^3
#
#
#
# Elastic Constant Matrix: (Units=GPa)
#
#
# Indices 1 2 3 4 5 6 
#
# 1 107.2169 30.2707 41.8347 0.0001 8.4328 0.0001
# 2 30.2707 144.4701 42.3003 0.0003 12.0778 -0.0001
# 3 41.8347 42.3003 96.8620 0.0005 -1.3070 0.0000
# 4 0.0001 0.0003 0.0005 20.1994 -0.0004 5.3261
# 5 8.4328 12.0778 -1.3070 -0.0004 31.7997 0.0001
# 6 0.0001 -0.0001 0.0000 5.3261 0.0001 33.8258
#
#
#
# Elastic Compliance Matrix: (Units=1/GPa)
#
#
# Indices 1 2 3 4 5 6 
#
# 1 0.011626 -0.000809 -0.004708 0.000000 -0.002969 0.000000
# 2 -0.000809 0.008323 -0.003327 0.000000 -0.003083 0.000000
# 3 -0.004708 -0.003327 0.013852 0.000000 0.003081 0.000000
# 4 0.000000 0.000000 0.000000 0.051651 0.000001 -0.008133
# 5 -0.002969 -0.003083 0.003081 0.000001 0.033532 0.000000
# 6 0.000000 0.000000 0.000000 -0.008133 0.000000 0.030844
#
#
# Mechanical properties :
#
#
# Convention : Reuss Voigt Hill
#
# Bulk Modulus (GPa) = 62.06248 64.15116 63.10682
# Shear Modulus (GPa) = 28.92070 32.77452 30.84761
#
# Velocity S-wave (km/s) = 3.90075 4.15253 4.02861
# Velocity P-wave (km/s) = 7.27602 7.53278 7.40551
#
# Compressibility (1/GPa) = 0.01611279
#
# Stress axis : x y z
#
# Youngs Moduli (GPa) = 86.01519 120.14459 72.19296
#
# Poissons Ratio (x) = 0.09723 0.33987
# Poissons Ratio (y) = 0.06961 0.24018
# Poissons Ratio (z) = 0.40495 0.39971
#
# Static dielectric constant tensor:
#      x y z
#    x 3.624170 0.000000 -0.038870 
#    y 0.000000 3.619210 0.000000 
#    z -0.038870 0.000000 3.213770 
# 
# 
# High freq. dielectric constant tensor:
#      x y z
#    x 1.746740 0.000000 0.002320 
#    y 0.000000 1.759650 0.000000 
#    z 0.002320 0.000000 1.717200 
# 
# From -- ./inp_files/13037.got.cif
#   From: 2010.03.12/outbox.cif.g09.slc.cpg/sg8_7_cif.got.tgz:13037.got - 2010.03.31 10:45:26.
