data_PCOD8054629
_publ_section_title
;
Structure prediction by ZEFSAII (Michael W. Deem and Ramdas Pophale) SiO2 
 PCOD8054629
Probable space group: C C
;
_chemical_formula_sum "Si O2"
_cell_formula_units_Z 24
_cell_length_a 7.011503
_cell_length_b 22.219113
_cell_length_c 11.789804
_cell_angle_alpha 90.000000
_cell_angle_beta 36.995144
_cell_angle_gamma 90.000000
_cell_volume 1105.245110
_symmetry_space_group_name_H-M "C C"
_symmetry_group_IT_number 9
_symmetry_cell_setting 'monoclinic'
loop_
_space_group_symop_operation_xyz
x,y,z
x,-y,1/2+z
1/2+x,1/2+y,z
1/2+x,1/2-y,1/2+z
loop_
_atom_site_type_symbol
_atom_site_label
_atom_site_fract_x
_atom_site_fract_y
_atom_site_fract_z
Si Si1 0.171210 0.430567 0.365450
Si Si2 0.729985 0.413415 0.769134
Si Si3 0.648878 0.186611 0.162520
Si Si4 0.246963 0.981107 0.977667
Si Si5 0.157570 0.378949 0.879754
Si Si6 0.033954 0.821654 0.259562
O O1 0.285137 0.361086 0.300844
O O2 0.027997 0.441556 0.559003
O O3 0.887109 0.450413 0.413416
O O4 0.472889 0.473879 0.201943
O O5 0.618413 0.463222 0.914226
O O6 0.447296 0.395082 0.822025
O O7 0.839854 0.353167 0.781480
O O8 0.770340 0.169336 0.230824
O O9 0.530690 0.255055 0.211320
O O10 0.932214 0.176514 0.939131
O O11 0.543439 0.938843 0.869862
O O12 0.881991 0.350148 0.087535
#
# Coordination Sequence:
#
# PCOD8054629 Si02
#       6
#     4   4   4   4   4   4
#     4  10  22  40  65  93 126 172 210 262 326 376
#     4  10  23  41  64  93 125 170 215 262 319 379
#     4  10  20  40  62  90 133 167 207 266 314 377
#     4  10  22  40  63  89 130 165 214 266 313 380
#     4  10  21  40  62  92 123 170 214 259 321 375
#     4  10  20  39  66  93 133 170 210 267 319 375
#
# _framework density 21.714642999999999
#
# number of rings (size 3 to 8) (size 9 to 14) (size 15 to 20)
#    0.000    2.000    1.667    1.000    0.000    4.000 
#    6.000    5.000    0.000    0.000    0.000    0.000 
#    0.000    0.000    0.000    0.000    0.000    0.000 
#
# Total GULP energy -148731.033922 kJ/mol
# GULP energy per Si atom -12394.252827 kJ/mol
# Density = 2.166522 g / cm^3
# Si number density = 21.714643 Si / 1000 Ang^3
#
#
#
# Elastic Constant Matrix: (Units=GPa)
#
#
# Indices 1 2 3 4 5 6 
#
# 1 133.3748 66.6913 54.8672 0.0000 0.2137 0.0000
# 2 66.6913 111.8497 61.0027 0.0000 3.2188 0.0000
# 3 54.8672 61.0027 143.2640 0.0000 15.7707 0.0000
# 4 0.0000 0.0000 0.0000 28.7661 0.0000 -3.0274
# 5 0.2137 3.2188 15.7707 0.0000 24.1923 0.0000
# 6 0.0000 0.0000 0.0000 -3.0274 0.0000 35.2623
#
#
#
# Elastic Compliance Matrix: (Units=1/GPa)
#
#
# Indices 1 2 3 4 5 6 
#
# 1 0.011141 -0.005539 -0.002132 0.000000 0.002028 0.000000
# 2 -0.005539 0.014473 -0.004131 0.000000 0.000816 0.000000
# 3 -0.002132 -0.004131 0.010227 0.000000 -0.006098 0.000000
# 4 0.000000 0.000000 0.000000 0.035080 0.000000 0.003012
# 5 0.002028 0.000816 -0.006098 0.000000 0.045184 0.000000
# 6 0.000000 0.000000 0.000000 0.003012 0.000000 0.028617
#
#
# Mechanical properties :
#
#
# Convention : Reuss Voigt Hill
#
# Bulk Modulus (GPa) = 81.71605 83.73454 82.72530
# Shear Modulus (GPa) = 29.00162 31.37263 30.18713
#
# Velocity S-wave (km/s) = 3.65852 3.80513 3.73255
# Velocity P-wave (km/s) = 7.45385 7.61252 7.53360
#
# Compressibility (1/GPa) = 0.01223750
#
# Stress axis : x y z
#
# Youngs Moduli (GPa) = 89.76061 69.09572 97.78142
#
# Poissons Ratio (x) = 0.38269 0.20843
# Poissons Ratio (y) = 0.49714 0.40396
# Poissons Ratio (z) = 0.19133 0.28545
#
# Static dielectric constant tensor:
#      x y z
#    x 3.686390 0.000000 0.221780 
#    y 0.000000 4.118010 0.000000 
#    z 0.221780 0.000000 4.270810 
# 
# 
# High freq. dielectric constant tensor:
#      x y z
#    x 1.820490 0.000000 0.010500 
#    y 0.000000 1.853310 0.000000 
#    z 0.010500 0.000000 1.874410 
# 
# From -- ./inp_files/3868.got.cif
#   From: 2010.06.25/outbox.cif.g09.slc.cpg/sg9_2_cif.got.tgz:3868.got - 2010.06.27 21:40:51.
