data_PCOD8054380
_publ_section_title
;
Structure prediction by ZEFSAII (Michael W. Deem and Ramdas Pophale) SiO2 
 PCOD8054380
Probable space group: C C
;
_chemical_formula_sum "Si O2"
_cell_formula_units_Z 32
_cell_length_a 7.914824
_cell_length_b 22.812906
_cell_length_c 9.448484
_cell_angle_alpha 90.000000
_cell_angle_beta 84.091145
_cell_angle_gamma 90.000000
_cell_volume 1696.955335
_symmetry_space_group_name_H-M "C C"
_symmetry_group_IT_number 9
_symmetry_cell_setting 'monoclinic'
loop_
_space_group_symop_operation_xyz
x,y,z
x,-y,1/2+z
1/2+x,1/2+y,z
1/2+x,1/2-y,1/2+z
loop_
_atom_site_type_symbol
_atom_site_label
_atom_site_fract_x
_atom_site_fract_y
_atom_site_fract_z
Si Si1 0.466970 0.410751 0.448100
Si Si2 0.227389 0.935141 0.637496
Si Si3 0.561083 0.638026 0.643435
Si Si4 0.906485 0.675034 0.186482
Si Si5 0.218024 0.685737 0.978434
Si Si6 0.612383 0.472056 0.951765
Si Si7 0.719548 0.789139 0.168263
Si Si8 0.399135 0.199287 0.506724
O O1 0.568594 0.398928 0.585472
O O2 0.563763 0.382195 0.305824
O O3 0.283615 0.381297 0.483058
O O4 0.458973 0.481868 0.428288
O O5 0.382434 0.889435 0.620527
O O6 0.253488 0.993218 0.537237
O O7 0.199855 0.951992 0.801547
O O8 0.538201 0.582592 0.542554
O O9 0.398676 0.678531 0.625127
O O10 0.738592 0.670957 0.600843
O O11 0.081092 0.699592 0.109482
O O12 0.754581 0.719428 0.157238
O O13 0.919617 0.668442 0.353768
O O14 0.372733 0.731093 0.989235
O O15 0.142437 0.695675 0.828780
O O16 0.576516 0.810177 0.071658
#
# Coordination Sequence:
#
# PCOD8054380 Si02
#       8
#     4   4   4   4   4   4   4   4
#     4   9  20  37  63  85 115 168 204 247 308 358
#     4  10  20  36  63  88 115 162 210 248 301 367
#     4  11  20  41  62  91 126 158 212 254 304 375
#     4  11  22  39  59  95 126 157 212 255 306 374
#     4  10  22  40  58  90 127 158 210 255 304 373
#     4  10  19  37  63  86 119 164 207 249 306 362
#     4  10  24  39  61  94 124 167 202 253 316 365
#     4  11  23  39  61  91 128 164 201 257 315 362
#
# _framework density 18.857302000000001
#
# number of rings (size 3 to 8) (size 9 to 14) (size 15 to 20)
#    0.750    1.000    3.750    0.750    1.750    2.000 
#    0.000    1.250    5.500    0.000    0.000    0.000 
#    0.000    0.000    0.000    0.000    0.000    0.000 
#
# Total GULP energy -198257.068130 kJ/mol
# GULP energy per Si atom -12391.066758 kJ/mol
# Density = 1.881438 g / cm^3
# Si number density = 18.857302 Si / 1000 Ang^3
#
#
#
# Elastic Constant Matrix: (Units=GPa)
#
#
# Indices 1 2 3 4 5 6 
#
# 1 88.1788 29.9726 48.6914 0.0000 3.5432 0.0000
# 2 29.9726 95.6210 39.8173 0.0000 6.7403 0.0000
# 3 48.6914 39.8173 114.9665 0.0000 -0.3312 0.0000
# 4 0.0000 0.0000 0.0000 28.8571 0.0000 1.7950
# 5 3.5432 6.7403 -0.3312 0.0000 24.4056 0.0000
# 6 0.0000 0.0000 0.0000 1.7950 0.0000 25.9260
#
#
#
# Elastic Compliance Matrix: (Units=1/GPa)
#
#
# Indices 1 2 3 4 5 6 
#
# 1 0.015343 -0.002318 -0.005700 0.000000 -0.001665 0.000000
# 2 -0.002318 0.012865 -0.003483 0.000000 -0.003264 0.000000
# 3 -0.005700 -0.003483 0.012324 0.000000 0.001957 0.000000
# 4 0.000000 0.000000 0.000000 0.034803 0.000000 -0.002410
# 5 -0.001665 -0.003264 0.001957 0.000000 0.042144 0.000000
# 6 0.000000 0.000000 0.000000 -0.002410 0.000000 0.038738
#
#
# Mechanical properties :
#
#
# Convention : Reuss Voigt Hill
#
# Bulk Modulus (GPa) = 57.04762 59.52542 58.28652
# Shear Modulus (GPa) = 27.01765 27.85674 27.43720
#
# Velocity S-wave (km/s) = 3.78926 3.84766 3.81857
# Velocity P-wave (km/s) = 7.03297 7.16757 7.10059
#
# Compressibility (1/GPa) = 0.01752921
#
# Stress axis : x y z
#
# Youngs Moduli (GPa) = 65.17615 77.72940 81.14056
#
# Poissons Ratio (x) = 0.18021 0.46250
# Poissons Ratio (y) = 0.15111 0.28263
# Poissons Ratio (z) = 0.37151 0.27074
#
# Static dielectric constant tensor:
#      x y z
#    x 3.014470 0.000000 0.001630 
#    y 0.000000 3.622920 0.000000 
#    z 0.001630 0.000000 3.545780 
# 
# 
# High freq. dielectric constant tensor:
#      x y z
#    x 1.693950 0.000000 -0.001250 
#    y 0.000000 1.743930 0.000000 
#    z -0.001250 0.000000 1.746480 
# 
# From -- ./inp_files/6067.got.cif
#   From: 2010.06.25/outbox.cif.g09.slc.cpg/sg9_4_cif.got.tgz:6067.got - 2010.06.27 21:40:51.
