data_PCOD8054100
_publ_section_title
;
Structure prediction by ZEFSAII (Michael W. Deem and Ramdas Pophale) SiO2 
 PCOD8054100
Probable space group: C M
;
_chemical_formula_sum "Si O2"
_cell_formula_units_Z 24
_cell_length_a 11.350247
_cell_length_b 18.773829
_cell_length_c 8.536895
_cell_angle_alpha 90.000000
_cell_angle_beta 41.224519
_cell_angle_gamma 90.000000
_cell_volume 1198.811854
_symmetry_space_group_name_H-M "C M"
_symmetry_group_IT_number 8
_symmetry_cell_setting 'monoclinic'
loop_
_space_group_symop_operation_xyz
x,y,z
x,-y,z
1/2+x,1/2+y,z
1/2+x,1/2-y,z
loop_
_atom_site_type_symbol
_atom_site_label
_atom_site_fract_x
_atom_site_fract_y
_atom_site_fract_z
Si Si1 0.351980 0.918450 0.444990
Si Si2 0.047745 0.827126 0.248143
Si Si3 0.047745 0.172874 0.887971
Si Si4 0.851980 0.581550 0.082654
Si Si5 0.141123 0.678691 0.294099
Si Si6 0.141123 0.678691 0.655258
O O1 0.168561 0.876739 0.658954
O O2 0.402909 0.910568 0.212893
O O3 0.513292 0.887568 0.386459
O O4 0.323577 0.000000 0.522408
O O5 0.168561 0.876739 0.235527
O O6 0.083672 0.744328 0.243957
O O7 0.842598 0.844987 0.492410
O O8 0.093992 0.843025 0.021810
O O9 0.083672 0.255672 0.820302
O O10 0.842598 0.155013 0.053998
O O11 0.823577 0.500000 0.062041
O O12 0.013292 0.612432 0.818561
O O13 0.123036 0.701756 0.492765
#
# Coordination Sequence:
#
# PCOD8054100 Si02
#       6
#     4   4   4   4   4   4
#     4  11  25  43  63  91 128 167 208 257 313 369
#     4  11  23  39  64  94 124 162 208 258 310 370
#     4  11  23  39  64  94 124 162 208 258 310 370
#     4  11  25  43  63  91 128 167 208 257 313 369
#     4  11  23  39  64  94 124 162 208 258 310 370
#     4  11  23  39  64  94 124 162 208 258 310 370
#
# _framework density 20.019822999999999
#
# number of rings (size 3 to 8) (size 9 to 14) (size 15 to 20)
#    0.000    1.000    3.333    3.000    0.000    8.000 
#    0.000    6.667    0.000    0.000    0.000    0.000 
#    0.000    0.000    0.000    0.000    0.000    0.000 
#
# Total GULP energy -148896.182181 kJ/mol
# GULP energy per Si atom -12408.015182 kJ/mol
# Density = 1.997426 g / cm^3
# Si number density = 20.019823 Si / 1000 Ang^3
#
#
#
# Elastic Constant Matrix: (Units=GPa)
#
#
# Indices 1 2 3 4 5 6 
#
# 1 90.1894 27.8919 32.1576 0.0000 -25.6361 0.0000
# 2 27.8919 108.1989 31.8732 0.0000 -13.1848 0.0000
# 3 32.1576 31.8732 105.3201 0.0000 -24.4721 0.0000
# 4 0.0000 0.0000 0.0000 30.9114 0.0000 -0.0482
# 5 -25.6361 -13.1848 -24.4721 0.0000 29.0318 0.0000
# 6 0.0000 0.0000 0.0000 -0.0482 0.0000 30.8968
#
#
#
# Elastic Compliance Matrix: (Units=1/GPa)
#
#
# Indices 1 2 3 4 5 6 
#
# 1 0.015548 -0.002187 -0.001400 0.000000 0.011556 0.000000
# 2 -0.002187 0.010604 -0.002327 0.000000 0.000923 0.000000
# 3 -0.001400 -0.002327 0.012552 0.000000 0.008288 0.000000
# 4 0.000000 0.000000 0.000000 0.032351 0.000000 0.000050
# 5 0.011556 0.000923 0.008288 0.000000 0.052054 0.000000
# 6 0.000000 0.000000 0.000000 0.000050 0.000000 0.032366
#
#
# Mechanical properties :
#
#
# Convention : Reuss Voigt Hill
#
# Bulk Modulus (GPa) = 37.20849 54.17264 45.69057
# Shear Modulus (GPa) = 28.36671 32.28704 30.32688
#
# Velocity S-wave (km/s) = 3.76830 4.02027 3.89632
# Velocity P-wave (km/s) = 6.12859 6.97627 6.56612
#
# Compressibility (1/GPa) = 0.02687559
#
# Stress axis : x y z
#
# Youngs Moduli (GPa) = 64.31583 94.30408 79.66677
#
# Poissons Ratio (x) = 0.20628 0.11156
# Poissons Ratio (y) = 0.14069 0.18537
# Poissons Ratio (z) = 0.09006 0.21942
#
# Static dielectric constant tensor:
#      x y z
#    x 3.724730 0.000000 -0.069480 
#    y 0.000000 3.542540 0.000000 
#    z -0.069480 0.000000 3.745710 
# 
# 
# High freq. dielectric constant tensor:
#      x y z
#    x 1.794170 0.000000 -0.002530 
#    y 0.000000 1.772160 0.000000 
#    z -0.002530 0.000000 1.794940 
# 
# From -- ./inp_files/11290.got.cif
#   From: 2010.03.12/outbox.cif.g09.slc.cpg/sg8_6_cif.got.tgz:11290.got - 2010.03.31 10:45:26.
