data_PCOD8054879
_publ_section_title
;
Structure prediction by ZEFSAII (Michael W. Deem and Ramdas Pophale) SiO2 
 PCOD8054879
Probable space group: C C
;
_chemical_formula_sum "Si O2"
_cell_formula_units_Z 28
_cell_length_a 7.608723
_cell_length_b 28.416724
_cell_length_c 5.124367
_cell_angle_alpha 90.000000
_cell_angle_beta 91.279986
_cell_angle_gamma 90.000000
_cell_volume 1107.688449
_symmetry_space_group_name_H-M "C C"
_symmetry_group_IT_number 9
_symmetry_cell_setting 'monoclinic'
loop_
_space_group_symop_operation_xyz
x,y,z
x,-y,1/2+z
1/2+x,1/2+y,z
1/2+x,1/2-y,1/2+z
loop_
_atom_site_type_symbol
_atom_site_label
_atom_site_fract_x
_atom_site_fract_y
_atom_site_fract_z
Si Si1 0.754970 0.700435 0.018390
Si Si2 0.597237 0.788291 0.259110
Si Si3 0.446820 0.335270 0.232730
Si Si4 0.341776 0.030212 0.430654
Si Si5 0.821309 0.878751 0.709738
Si Si6 0.455334 0.864779 0.861100
Si Si7 0.931207 0.026923 0.430022
O O1 0.617783 0.739081 0.113441
O O2 0.782109 0.656550 0.216917
O O3 0.648930 0.682289 0.758468
O O4 0.949535 0.722353 0.974927
O O5 0.796232 0.800878 0.354584
O O6 0.512932 0.831773 0.100676
O O7 0.427508 0.378986 0.438784
O O8 0.412074 0.344979 0.929512
O O9 0.425411 0.082017 0.457354
O O10 0.135045 0.039588 0.413735
O O11 0.402236 0.998079 0.675402
O O12 0.617742 0.863776 0.659165
O O13 0.814337 0.929617 0.839582
O O14 0.882719 0.014546 0.725281
#
# Coordination Sequence:
#
# PCOD8054879 Si02
#       7
#     4   4   4   4   4   4   4
#     4  12  27  47  78 104 156 202 257 320 388 456
#     4  11  28  47  73 111 151 200 263 314 386 463
#     4  11  26  45  72 102 146 192 248 304 374 449
#     4  10  24  42  71 107 146 194 253 310 378 453
#     4  11  24  45  68 106 143 191 250 305 372 458
#     4  11  26  45  74 109 154 200 256 315 384 455
#     4  10  21  39  64  99 140 185 241 306 376 442
#
# _framework density 25.277867000000001
#
# number of rings (size 3 to 8) (size 9 to 14) (size 15 to 20)
#    0.000    1.143    1.429    2.571   10.000    4.571 
#    0.000    0.000    0.000    0.000    0.000    0.000 
#    0.000    0.000    0.000    0.000    0.000    0.000 
#
# Total GULP energy -173512.638476 kJ/mol
# GULP energy per Si atom -12393.759891 kJ/mol
# Density = 2.522033 g / cm^3
# Si number density = 25.277867 Si / 1000 Ang^3
#
#
#
# Elastic Constant Matrix: (Units=GPa)
#
#
# Indices 1 2 3 4 5 6 
#
# 1 109.4979 34.9464 14.0071 0.0000 15.1956 0.0000
# 2 34.9464 129.0895 21.6040 0.0000 12.2300 0.0000
# 3 14.0071 21.6040 81.8862 0.0000 12.4518 0.0000
# 4 0.0000 0.0000 0.0000 30.0810 0.0000 8.3211
# 5 15.1956 12.2300 12.4518 0.0000 38.7510 0.0000
# 6 0.0000 0.0000 0.0000 8.3211 0.0000 34.4129
#
#
#
# Elastic Compliance Matrix: (Units=1/GPa)
#
#
# Indices 1 2 3 4 5 6 
#
# 1 0.010420 -0.002414 -0.000673 0.000000 -0.003108 0.000000
# 2 -0.002414 0.008809 -0.001716 0.000000 -0.001282 0.000000
# 3 -0.000673 -0.001716 0.013308 0.000000 -0.003471 0.000000
# 4 0.000000 0.000000 0.000000 0.035627 0.000000 -0.008615
# 5 -0.003108 -0.001282 -0.003471 0.000000 0.028544 0.000000
# 6 0.000000 0.000000 0.000000 -0.008615 0.000000 0.031142
#
#
# Mechanical properties :
#
#
# Convention : Reuss Voigt Hill
#
# Bulk Modulus (GPa) = 43.60939 51.28762 47.44851
# Shear Modulus (GPa) = 34.45912 37.31003 35.88457
#
# Velocity S-wave (km/s) = 3.69618 3.84604 3.77185
# Velocity P-wave (km/s) = 5.95862 6.32900 6.14660
#
# Compressibility (1/GPa) = 0.02293084
#
# Stress axis : x y z
#
# Youngs Moduli (GPa) = 95.96556 113.52406 75.14441
#
# Poissons Ratio (x) = 0.27403 0.05057
# Poissons Ratio (y) = 0.23165 0.12896
# Poissons Ratio (z) = 0.06458 0.19482
#
# Static dielectric constant tensor:
#      x y z
#    x 4.749610 0.000000 -0.008640 
#    y 0.000000 4.480340 0.000000 
#    z -0.008640 0.000000 4.434890 
# 
# 
# High freq. dielectric constant tensor:
#      x y z
#    x 2.020540 0.000000 0.003380 
#    y 0.000000 2.008010 0.000000 
#    z 0.003380 0.000000 1.999720 
# 
# From -- ./inp_files/1056.got.cif
#   From: 2010.06.25/outbox.cif.g09.slc.cpg/sg9_1_cif.got.tgz:1056.got - 2010.06.27 21:40:51.
