data_PCOD8054122
_publ_section_title
;
Structure prediction by ZEFSAII (Michael W. Deem and Ramdas Pophale) SiO2 
 PCOD8054122
Probable space group: C M
;
_chemical_formula_sum "Si O2"
_cell_formula_units_Z 26
_cell_length_a 9.949814
_cell_length_b 15.773916
_cell_length_c 13.913601
_cell_angle_alpha 90.000000
_cell_angle_beta 148.697643
_cell_angle_gamma 90.000000
_cell_volume 1134.553402
_symmetry_space_group_name_H-M "C M"
_symmetry_group_IT_number 8
_symmetry_cell_setting 'monoclinic'
loop_
_space_group_symop_operation_xyz
x,y,z
x,-y,z
1/2+x,1/2+y,z
1/2+x,1/2-y,z
loop_
_atom_site_type_symbol
_atom_site_label
_atom_site_fract_x
_atom_site_fract_y
_atom_site_fract_z
Si Si1 0.125000 0.688273 0.457550
Si Si2 0.333991 0.905081 0.133170
Si Si3 0.843486 0.152981 0.943524
Si Si4 0.473827 0.000000 0.953750
Si Si5 0.052433 0.000000 0.348856
Si Si6 0.703124 0.665395 0.858079
Si Si7 0.655361 0.328612 0.314731
Si Si8 0.992823 0.500000 0.747742
O O1 0.392584 0.666553 0.673518
O O2 0.122158 0.772017 0.389789
O O3 0.073463 0.612231 0.350360
O O4 0.909661 0.698008 0.409137
O O5 0.084532 0.893572 0.045280
O O6 0.349319 0.000000 0.099975
O O7 0.325611 0.840612 0.039297
O O8 0.900857 0.172803 0.090989
O O9 0.788631 0.245372 0.862007
O O10 0.609623 0.088539 0.779256
O O11 0.304238 0.084541 0.861861
O O12 0.568105 0.000000 0.903655
O O13 0.742685 0.000000 0.178883
O O14 0.171351 0.923533 0.361490
O O15 0.187791 0.000000 0.536967
#
# Coordination Sequence:
#
# PCOD8054122 Si02
#       8
#     4   4   4   2   2   4   4   2
#     4  11  28  45  78 109 142 194 242 299 365 432
#     4  11  25  46  72 103 142 187 236 300 360 422
#     4  11  24  47  74 103 142 192 237 297 357 436
#     4  12  30  48  68 114 148 193 238 306 361 436
#     4  12  28  47  73 107 147 193 237 303 358 432
#     4  12  28  46  74 104 149 186 245 297 363 435
#     4  11  25  49  74 108 150 186 243 301 365 430
#     4  12  26  47  75 105 143 190 245 291 365 436
#
# _framework density 22.916505999999998
#
# number of rings (size 3 to 8) (size 9 to 14) (size 15 to 20)
#    0.000    0.615    4.615    0.923   15.077    2.462 
#    0.000    0.000    0.000    0.000    0.000    0.000 
#    0.000    0.000    0.000    0.000    0.000    0.000 
#
# Total GULP energy -161140.242343 kJ/mol
# GULP energy per Si atom -12395.403257 kJ/mol
# Density = 2.286435 g / cm^3
# Si number density = 22.916506 Si / 1000 Ang^3
#
#
#
# Elastic Constant Matrix: (Units=GPa)
#
#
# Indices 1 2 3 4 5 6 
#
# 1 65.8954 40.6632 -0.4016 -0.0044 7.6212 0.0015
# 2 40.6632 187.8633 24.9062 -0.0520 12.8639 -0.0169
# 3 -0.4016 24.9062 77.2377 -0.0238 21.3270 -0.0048
# 4 -0.0044 -0.0520 -0.0238 26.8659 -0.0327 0.3786
# 5 7.6212 12.8639 21.3270 -0.0327 28.2368 -0.0071
# 6 0.0015 -0.0169 -0.0048 0.3786 -0.0071 32.1159
#
#
#
# Elastic Compliance Matrix: (Units=1/GPa)
#
#
# Indices 1 2 3 4 5 6 
#
# 1 0.018246 -0.003964 0.002823 -0.000009 -0.005251 -0.000004
# 2 -0.003964 0.006472 -0.002008 0.000010 -0.000362 0.000003
# 3 0.002823 -0.002008 0.017142 -0.000004 -0.012794 -0.000001
# 4 -0.000009 0.000010 -0.000004 0.037228 0.000044 -0.000439
# 5 -0.005251 -0.000362 -0.012794 0.000044 0.046661 0.000008
# 6 -0.000004 0.000003 -0.000001 -0.000439 0.000008 0.031142
#
#
# Mechanical properties :
#
#
# Convention : Reuss Voigt Hill
#
# Bulk Modulus (GPa) = 28.11915 51.25912 39.68914
# Shear Modulus (GPa) = 28.56440 35.16562 31.86501
#
# Velocity S-wave (km/s) = 3.53435 3.92153 3.73296
# Velocity P-wave (km/s) = 5.38074 6.55140 5.99472
#
# Compressibility (1/GPa) = 0.03556295
#
# Stress axis : x y z
#
# Youngs Moduli (GPa) = 54.80563 154.51116 58.33659
#
# Poissons Ratio (x) = 0.61250 -0.16469
# Poissons Ratio (y) = 0.21726 0.11711
# Poissons Ratio (z) = -0.15472 0.31019
#
# Static dielectric constant tensor:
#      x y z
#    x 3.870710 -0.000020 -0.088380 
#    y -0.000020 4.573800 -0.000140 
#    z -0.088380 -0.000140 4.359510 
# 
# 
# High freq. dielectric constant tensor:
#      x y z
#    x 1.889160 0.000000 -0.004470 
#    y 0.000000 1.923680 0.000000 
#    z -0.004470 0.000000 1.912850 
# 
# From -- ./inp_files/26166.got.cif
#   From: 2010.03.12/outbox.cif.g09.slc.cpg/sg8_14_cif.got.tgz:26166.got - 2010.03.31 10:45:26.
