data_PCOD8054822
_publ_section_title
;
Structure prediction by ZEFSAII (Michael W. Deem and Ramdas Pophale) SiO2 
 PCOD8054822
Probable space group: C C
;
_chemical_formula_sum "Si O2"
_cell_formula_units_Z 32
_cell_length_a 14.570269
_cell_length_b 23.677928
_cell_length_c 5.157504
_cell_angle_alpha 90.000000
_cell_angle_beta 65.032703
_cell_angle_gamma 90.000000
_cell_volume 1613.028552
_symmetry_space_group_name_H-M "C C"
_symmetry_group_IT_number 9
_symmetry_cell_setting 'monoclinic'
loop_
_space_group_symop_operation_xyz
x,y,z
x,-y,1/2+z
1/2+x,1/2+y,z
1/2+x,1/2-y,1/2+z
loop_
_atom_site_type_symbol
_atom_site_label
_atom_site_fract_x
_atom_site_fract_y
_atom_site_fract_z
Si Si1 0.451010 0.207315 0.782930
Si Si2 0.781348 0.851575 0.372598
Si Si3 0.458970 0.274642 0.278160
Si Si4 0.737833 0.327213 0.446651
Si Si5 0.030516 0.026843 0.833171
Si Si6 0.305676 0.520741 0.702654
Si Si7 0.629459 0.358338 0.082100
Si Si8 0.178513 0.304911 0.997910
O O1 0.423389 0.257115 0.608998
O O2 0.560366 0.183077 0.574789
O O3 0.459054 0.223502 0.074907
O O4 0.357124 0.164366 0.865439
O O5 0.886668 0.819455 0.227990
O O6 0.813147 0.915708 0.288582
O O7 0.704057 0.830253 0.247692
O O8 0.736741 0.840075 0.709584
O O9 0.571136 0.299147 0.169962
O O10 0.716035 0.357103 0.198295
O O11 0.704773 0.261570 0.473556
O O12 0.677724 0.361742 0.739732
O O13 0.049351 0.091755 0.734714
O O14 0.081949 0.988654 0.545551
O O15 0.911665 0.010253 0.988801
O O16 0.247367 0.515445 0.496235
#
# Coordination Sequence:
#
# PCOD8054822 Si02
#       8
#     4   4   4   4   4   4   4   4
#     4  12  24  36  58  79 126 165 204 260 278 350
#     4  12  23  37  63  88 125 170 200 247 325 376
#     4  12  20  34  56  87 116 167 204 238 304 350
#     4  12  23  41  56  90 124 169 217 251 297 376
#     4  10  21  38  58  88 127 151 197 256 311 380
#     4  10  21  38  58  88 127 151 197 256 311 380
#     4  12  23  37  63  88 125 170 200 247 325 376
#     4  12  23  41  56  90 124 169 217 251 297 376
#
# _framework density 19.838456999999998
#
# number of rings (size 3 to 8) (size 9 to 14) (size 15 to 20)
#    0.000    0.500    5.000    5.250    0.000    4.000 
#    0.000    0.000    0.000    0.000    0.000   17.500 
#    0.000    0.000    0.000    0.000    0.000    0.000 
#
# Total GULP energy -198272.253077 kJ/mol
# GULP energy per Si atom -12392.015817 kJ/mol
# Density = 1.979330 g / cm^3
# Si number density = 19.838457 Si / 1000 Ang^3
#
#
#
# Elastic Constant Matrix: (Units=GPa)
#
#
# Indices 1 2 3 4 5 6 
#
# 1 89.7343 16.6893 27.5227 0.0000 5.2516 0.0000
# 2 16.6893 63.7401 22.4550 0.0000 4.0972 0.0000
# 3 27.5227 22.4550 109.9127 0.0000 27.1122 0.0000
# 4 0.0000 0.0000 0.0000 39.0259 0.0000 1.7858
# 5 5.2516 4.0972 27.1122 0.0000 40.4751 0.0000
# 6 0.0000 0.0000 0.0000 1.7858 0.0000 17.9703
#
#
#
# Elastic Compliance Matrix: (Units=1/GPa)
#
#
# Indices 1 2 3 4 5 6 
#
# 1 0.012388 -0.002306 -0.002746 0.000000 0.000465 0.000000
# 2 -0.002306 0.017352 -0.003124 0.000000 0.000635 0.000000
# 3 -0.002746 -0.003124 0.012288 0.000000 -0.007559 0.000000
# 4 0.000000 0.000000 0.000000 0.025741 0.000000 -0.002558
# 5 0.000465 0.000635 -0.007559 0.000000 0.029645 0.000000
# 6 0.000000 0.000000 0.000000 -0.002558 0.000000 0.055902
#
#
# Mechanical properties :
#
#
# Convention : Reuss Voigt Hill
#
# Bulk Modulus (GPa) = 38.94626 44.08013 41.51319
# Shear Modulus (GPa) = 28.05401 32.60893 30.33147
#
# Velocity S-wave (km/s) = 3.76456 4.05868 3.91439
# Velocity P-wave (km/s) = 6.21049 6.65069 6.43436
#
# Compressibility (1/GPa) = 0.02567641
#
# Stress axis : x y z
#
# Youngs Moduli (GPa) = 80.72449 57.62899 81.37697
#
# Poissons Ratio (x) = 0.13290 0.22343
# Poissons Ratio (y) = 0.18617 0.25425
# Poissons Ratio (z) = 0.22164 0.18005
#
# Static dielectric constant tensor:
#      x y z
#    x 3.886410 0.000000 0.460000 
#    y 0.000000 3.327890 0.000000 
#    z 0.460000 0.000000 4.180100 
# 
# 
# High freq. dielectric constant tensor:
#      x y z
#    x 1.767490 0.000000 0.029990 
#    y 0.000000 1.735350 0.000000 
#    z 0.029990 0.000000 1.794950 
# 
# From -- ./inp_files/2688.got.cif
#   From: 2010.06.25/outbox.cif.g09.slc.cpg/sg9_2_cif.got.tgz:2688.got - 2010.06.27 21:40:51.
