data_PCOD8054103
_publ_section_title
;
Structure prediction by ZEFSAII (Michael W. Deem and Ramdas Pophale) SiO2 
 PCOD8054103
Probable space group: C M
;
_chemical_formula_sum "Si O2"
_cell_formula_units_Z 32
_cell_length_a 19.152241
_cell_length_b 8.485573
_cell_length_c 11.859248
_cell_angle_alpha 90.000000
_cell_angle_beta 52.294907
_cell_angle_gamma 90.000000
_cell_volume 1524.850545
_symmetry_space_group_name_H-M "C M"
_symmetry_group_IT_number 8
_symmetry_cell_setting 'monoclinic'
loop_
_space_group_symop_operation_xyz
x,y,z
x,-y,z
1/2+x,1/2+y,z
1/2+x,1/2-y,z
loop_
_atom_site_type_symbol
_atom_site_label
_atom_site_fract_x
_atom_site_fract_y
_atom_site_fract_z
Si Si1 0.319240 0.682548 0.121120
Si Si2 0.637645 0.318598 0.251096
Si Si3 0.842317 0.818227 0.548867
Si Si4 0.991766 0.682515 0.551371
Si Si5 0.143947 0.314599 0.791378
Si Si6 0.384619 0.180751 0.272641
Si Si7 0.983661 0.814991 0.807154
Si Si8 0.566269 0.316494 0.077221
O O1 0.332433 0.500000 0.136036
O O2 0.224703 0.712129 0.158349
O O3 0.315994 0.778960 0.241578
O O4 0.397490 0.741262 0.961819
O O5 0.666080 0.500000 0.231811
O O6 0.573439 0.277886 0.417762
O O7 0.585982 0.283236 0.187470
O O8 0.740676 0.767090 0.653499
O O9 0.872884 0.791928 0.391428
O O10 0.900016 0.718699 0.579410
O O11 0.855706 0.000000 0.567801
O O12 0.013920 0.500000 0.515487
O O13 0.982819 0.723179 0.690815
O O14 0.126923 0.500000 0.799539
O O15 0.072417 0.224071 0.787031
O O16 0.141868 0.254115 0.922389
O O17 0.479799 0.219853 0.126637
O O18 0.375125 0.000000 0.318742
O O19 0.979502 0.000000 0.786621
O O20 0.552332 0.500000 0.065342
#
# Coordination Sequence:
#
# PCOD8054103 Si02
#       8
#     4   4   4   4   4   4   4   4
#     4  11  25  44  68  97 132 173 218 268 326 387
#     4  11  25  44  68  97 132 173 218 269 325 387
#     4  11  25  45  67  96 134 172 217 268 327 388
#     4  12  26  44  68  96 132 173 219 270 325 388
#     4  11  25  43  68  98 131 171 218 270 323 387
#     4  12  24  41  69  98 129 169 219 271 325 385
#     4  11  25  45  68  94 133 175 215 266 327 389
#     4  11  23  42  68  96 131 170 214 270 328 385
#
# _framework density 20.985662999999999
#
# number of rings (size 3 to 8) (size 9 to 14) (size 15 to 20)
#    0.000    0.750    2.500    4.500    3.500    5.000 
#    0.000    0.000    0.000    0.000    0.000    0.000 
#    0.000    0.000    0.000    0.000    0.000    0.000 
#
# Total GULP energy -198513.997337 kJ/mol
# GULP energy per Si atom -12407.124834 kJ/mol
# Density = 2.093790 g / cm^3
# Si number density = 20.985663 Si / 1000 Ang^3
#
#
#
# Elastic Constant Matrix: (Units=GPa)
#
#
# Indices 1 2 3 4 5 6 
#
# 1 87.7330 23.9241 47.8237 0.0000 -11.2256 0.0000
# 2 23.9241 58.2882 19.8030 0.0000 -2.6504 0.0000
# 3 47.8237 19.8030 105.0903 0.0000 3.7759 0.0000
# 4 0.0000 0.0000 0.0000 33.4162 0.0000 2.1173
# 5 -11.2256 -2.6504 3.7759 0.0000 36.9326 0.0000
# 6 0.0000 0.0000 0.0000 2.1173 0.0000 37.2660
#
#
#
# Elastic Compliance Matrix: (Units=1/GPa)
#
#
# Indices 1 2 3 4 5 6 
#
# 1 0.017259 -0.004368 -0.007235 0.000000 0.005672 0.000000
# 2 -0.004368 0.019539 -0.001703 0.000000 0.000249 0.000000
# 3 -0.007235 -0.001703 0.013261 0.000000 -0.003677 0.000000
# 4 0.000000 0.000000 0.000000 0.030034 0.000000 -0.001706
# 5 0.005672 0.000249 -0.003677 0.000000 0.029194 0.000000
# 6 0.000000 0.000000 0.000000 -0.001706 0.000000 0.026931
#
#
# Mechanical properties :
#
#
# Convention : Reuss Voigt Hill
#
# Bulk Modulus (GPa) = 42.64907 48.24592 45.44750
# Shear Modulus (GPa) = 29.30066 32.16032 30.73049
#
# Velocity S-wave (km/s) = 3.74066 3.91895 3.83084
# Velocity P-wave (km/s) = 6.24690 6.59677 6.42422
#
# Compressibility (1/GPa) = 0.02344717
#
# Stress axis : x y z
#
# Youngs Moduli (GPa) = 57.94169 51.18011 75.40921
#
# Poissons Ratio (x) = 0.22355 0.54556
# Poissons Ratio (y) = 0.25308 0.12843
# Poissons Ratio (z) = 0.41919 0.08716
#
# Static dielectric constant tensor:
#      x y z
#    x 3.764150 0.000000 -0.013530 
#    y 0.000000 3.790970 0.000000 
#    z -0.013530 0.000000 3.854440 
# 
# 
# High freq. dielectric constant tensor:
#      x y z
#    x 1.828530 0.000000 0.001460 
#    y 0.000000 1.830330 0.000000 
#    z 0.001460 0.000000 1.832840 
# 
# From -- ./inp_files/23848.got.cif
#   From: 2010.03.12/outbox.cif.g09.slc.cpg/sg8_12_cif.got.tgz:23848.got - 2010.03.31 10:45:26.
