data_PCOD8054524
_publ_section_title
;
Structure prediction by ZEFSAII (Michael W. Deem and Ramdas Pophale) SiO2 
 PCOD8054524
Probable space group: C C
;
_chemical_formula_sum "Si O2"
_cell_formula_units_Z 28
_cell_length_a 18.274832
_cell_length_b 4.999091
_cell_length_c 25.731791
_cell_angle_alpha 90.000000
_cell_angle_beta 141.804595
_cell_angle_gamma 90.000000
_cell_volume 1453.602174
_symmetry_space_group_name_H-M "C C"
_symmetry_group_IT_number 9
_symmetry_cell_setting 'monoclinic'
loop_
_space_group_symop_operation_xyz
x,y,z
x,-y,1/2+z
1/2+x,1/2+y,z
1/2+x,1/2-y,1/2+z
loop_
_atom_site_type_symbol
_atom_site_label
_atom_site_fract_x
_atom_site_fract_y
_atom_site_fract_z
Si Si1 0.747150 0.312106 0.814430
Si Si2 0.281080 0.314043 0.449218
Si Si3 0.669522 0.009914 0.183818
Si Si4 0.910008 0.321722 0.559386
Si Si5 0.018858 0.401734 0.288543
Si Si6 0.518302 0.402358 0.218985
Si Si7 0.308075 0.986863 0.745350
O O1 0.804024 0.275054 0.902332
O O2 0.699545 0.032787 0.762272
O O3 0.633043 0.504705 0.751585
O O4 0.839581 0.444918 0.824658
O O5 0.343770 0.599971 0.488295
O O6 0.141669 0.320780 0.384835
O O7 0.333808 0.094043 0.518034
O O8 0.709303 0.738878 0.175132
O O9 0.533343 0.092314 0.101581
O O10 0.750082 0.230429 0.202146
O O11 0.920521 0.195296 0.622803
O O12 0.054625 0.646654 0.272309
O O13 0.927058 0.519624 0.278606
O O14 0.970092 0.148021 0.228055
#
# Coordination Sequence:
#
# PCOD8054524 Si02
#       7
#     4   4   4   4   4   4   4
#     4   9  21  37  64  90 109 155 210 245 280 348
#     4  11  23  33  62  89 126 149 200 247 305 353
#     4  10  20  36  64  85 116 151 203 244 294 336
#     4  12  21  37  59  93 120 154 195 258 299 340
#     4  11  23  40  62  93 116 160 204 242 300 355
#     4  11  21  38  64  87 118 155 211 248 281 355
#     4  10  21  37  67  85 119 150 207 248 285 351
#
# _framework density 19.26249
#
# number of rings (size 3 to 8) (size 9 to 14) (size 15 to 20)
#    0.857    0.571    1.429    6.857    2.000    0.000 
#    0.000    0.000   12.571    0.000    0.000    0.000 
#    0.000    0.000    0.000    0.000    0.000    0.000 
#
# Total GULP energy -173455.404311 kJ/mol
# GULP energy per Si atom -12389.671737 kJ/mol
# Density = 1.921865 g / cm^3
# Si number density = 19.262490 Si / 1000 Ang^3
#
#
#
# Elastic Constant Matrix: (Units=GPa)
#
#
# Indices 1 2 3 4 5 6 
#
# 1 103.5581 25.1457 41.9049 -0.0004 16.0771 0.0390
# 2 25.1457 122.9675 31.5251 0.0037 13.2381 0.0045
# 3 41.9049 31.5251 77.5327 0.0001 11.8913 -0.0102
# 4 -0.0004 0.0037 0.0001 44.2526 -0.0023 0.5922
# 5 16.0771 13.2381 11.8913 -0.0023 16.5107 -0.0101
# 6 0.0390 0.0045 -0.0102 0.5922 -0.0101 32.0370
#
#
#
# Elastic Compliance Matrix: (Units=1/GPa)
#
#
# Indices 1 2 3 4 5 6 
#
# 1 0.013422 -0.000329 -0.005797 0.000000 -0.008630 -0.000021
# 2 -0.000329 0.009501 -0.002885 -0.000001 -0.005219 -0.000003
# 3 -0.005797 -0.002885 0.017968 0.000000 -0.004984 0.000012
# 4 0.000000 -0.000001 0.000000 0.022603 0.000004 -0.000418
# 5 -0.008630 -0.005219 -0.004984 0.000004 0.076745 0.000034
# 6 -0.000021 -0.000003 0.000012 -0.000418 0.000034 0.031222
#
#
# Mechanical properties :
#
#
# Convention : Reuss Voigt Hill
#
# Bulk Modulus (GPa) = 43.72630 55.68996 49.70813
# Shear Modulus (GPa) = 25.36722 32.25891 28.81306
#
# Velocity S-wave (km/s) = 3.63288 4.09675 3.87177
# Velocity P-wave (km/s) = 6.35190 7.16601 6.77120
#
# Compressibility (1/GPa) = 0.02286953
#
# Stress axis : x y z
#
# Youngs Moduli (GPa) = 74.50517 105.25188 55.65451
#
# Poissons Ratio (x) = 0.03468 0.32261
# Poissons Ratio (y) = 0.02455 0.16054
# Poissons Ratio (z) = 0.43188 0.30361
#
# Static dielectric constant tensor:
#      x y z
#    x 3.269530 0.000030 -0.023980 
#    y 0.000030 3.815620 0.000020 
#    z -0.023980 0.000020 3.309590 
# 
# 
# High freq. dielectric constant tensor:
#      x y z
#    x 1.728930 0.000000 0.000980 
#    y 0.000000 1.781410 0.000000 
#    z 0.000980 0.000000 1.719210 
# 
# From -- ./inp_files/34213.got.cif
#   From: 2010.06.25/outbox.cif.g09.slc.cpg/sg9_18_cif.got.tgz:34213.got - 2010.06.27 21:40:51.
