data_PCOD8054019
_publ_section_title
;
Structure prediction by ZEFSAII (Michael W. Deem and Ramdas Pophale) SiO2 
 PCOD8054019
Probable space group: C M
;
_chemical_formula_sum "Si O2"
_cell_formula_units_Z 32
_cell_length_a 19.129296
_cell_length_b 8.626915
_cell_length_c 15.129084
_cell_angle_alpha 90.000000
_cell_angle_beta 141.688647
_cell_angle_gamma 90.000000
_cell_volume 1547.793296
_symmetry_space_group_name_H-M "C M"
_symmetry_group_IT_number 8
_symmetry_cell_setting 'monoclinic'
loop_
_space_group_symop_operation_xyz
x,y,z
x,-y,z
1/2+x,1/2+y,z
1/2+x,1/2-y,z
loop_
_atom_site_type_symbol
_atom_site_label
_atom_site_fract_x
_atom_site_fract_y
_atom_site_fract_z
Si Si1 0.728680 0.678340 0.069780
Si Si2 0.446733 0.319641 0.224626
Si Si3 0.933356 0.680698 0.540971
Si Si4 0.341095 0.318778 0.793926
Si Si5 0.736628 0.177689 0.255965
Si Si6 0.993425 0.679932 0.797202
Si Si7 0.494147 0.179032 0.091342
Si Si8 0.580954 0.818601 0.519507
O O1 0.696398 0.500000 0.023682
O O2 0.828980 0.726165 0.104024
O O3 0.774867 0.710368 0.214127
O O4 0.620914 0.785960 0.950421
O O5 0.419896 0.500000 0.204810
O O6 0.506366 0.280736 0.191516
O O7 0.526367 0.273297 0.384552
O O8 0.905035 0.500000 0.508589
O O9 0.817625 0.776972 0.417253
O O10 0.983303 0.727293 0.685078
O O11 0.022643 0.728637 0.554025
O O12 0.353953 0.500000 0.825671
O O13 0.406079 0.277582 0.768513
O O14 0.211325 0.270155 0.654813
O O15 0.390035 0.228637 0.926856
O O16 0.607335 0.210081 0.149275
O O17 0.756147 0.000000 0.248502
O O18 0.968185 0.500000 0.789346
O O19 0.481549 0.000000 0.105331
O O20 0.566720 0.000000 0.485863
#
# Coordination Sequence:
#
# PCOD8054019 Si02
#       8
#     4   4   4   4   4   4   4   4
#     4  12  24  42  68  95 128 168 214 266 325 383
#     4  12  26  43  67  97 129 169 218 267 322 385
#     4  10  23  42  66  93 127 170 213 263 318 378
#     4  11  24  42  66  94 130 173 214 264 322 382
#     4  11  23  41  67  96 127 165 213 269 322 380
#     4  11  24  42  65  96 131 168 215 266 320 381
#     4  11  25  44  66  95 132 170 213 270 324 379
#     4  10  23  44  65  92 130 171 214 263 321 380
#
# _framework density 20.674596000000001
#
# number of rings (size 3 to 8) (size 9 to 14) (size 15 to 20)
#    0.000    1.000    2.500    3.750    3.500    3.500 
#    0.000    0.000    0.000    0.000    0.000    0.000 
#    0.000    0.000    0.000    0.000    0.000    0.000 
#
# Total GULP energy -198509.333541 kJ/mol
# GULP energy per Si atom -12406.833346 kJ/mol
# Density = 2.062754 g / cm^3
# Si number density = 20.674596 Si / 1000 Ang^3
#
#
#
# Elastic Constant Matrix: (Units=GPa)
#
#
# Indices 1 2 3 4 5 6 
#
# 1 74.9643 32.3585 47.7042 0.0000 -5.9365 0.0000
# 2 32.3585 63.9590 32.9005 0.0000 0.7615 0.0000
# 3 47.7042 32.9005 104.3413 0.0000 0.8936 0.0000
# 4 0.0000 0.0000 0.0000 34.6027 0.0000 0.3487
# 5 -5.9365 0.7615 0.8936 0.0000 42.6412 0.0000
# 6 0.0000 0.0000 0.0000 0.3487 0.0000 31.5089
#
#
#
# Elastic Compliance Matrix: (Units=1/GPa)
#
#
# Indices 1 2 3 4 5 6 
#
# 1 0.021474 -0.006969 -0.007649 0.000000 0.003274 0.000000
# 2 -0.006969 0.020925 -0.003401 0.000000 -0.001273 0.000000
# 3 -0.007649 -0.003401 0.014164 0.000000 -0.001301 0.000000
# 4 0.000000 0.000000 0.000000 0.028903 0.000000 -0.000320
# 5 0.003274 -0.001273 -0.001301 0.000000 0.023957 0.000000
# 6 0.000000 0.000000 0.000000 -0.000320 0.000000 0.031741
#
#
# Mechanical properties :
#
#
# Convention : Reuss Voigt Hill
#
# Bulk Modulus (GPa) = 48.71640 52.13234 50.42437
# Shear Modulus (GPa) = 27.16735 30.43731 28.80233
#
# Velocity S-wave (km/s) = 3.62891 3.84110 3.73651
# Velocity P-wave (km/s) = 6.41663 6.70391 6.56185
#
# Compressibility (1/GPa) = 0.02052697
#
# Stress axis : x y z
#
# Youngs Moduli (GPa) = 46.56709 47.78870 70.59969
#
# Poissons Ratio (x) = 0.33304 0.53999
# Poissons Ratio (y) = 0.32453 0.24011
# Poissons Ratio (z) = 0.35617 0.16253
#
# Static dielectric constant tensor:
#      x y z
#    x 3.818100 0.000000 -0.007890 
#    y 0.000000 3.690920 0.000000 
#    z -0.007890 0.000000 3.747950 
# 
# 
# High freq. dielectric constant tensor:
#      x y z
#    x 1.816460 0.000000 0.001120 
#    y 0.000000 1.812150 0.000000 
#    z 0.001120 0.000000 1.818590 
# 
# From -- ./inp_files/27789.got.cif
#   From: 2010.03.12/outbox.cif.g09.slc.cpg/sg8_14_cif.got.tgz:27789.got - 2010.03.31 10:45:26.
