data_PCOD8054193
_publ_section_title
;
Structure prediction by ZEFSAII (Michael W. Deem and Ramdas Pophale) SiO2 
 PCOD8054193
Probable space group: C C
;
_chemical_formula_sum "Si O2"
_cell_formula_units_Z 32
_cell_length_a 17.363903
_cell_length_b 16.875039
_cell_length_c 10.750738
_cell_angle_alpha 90.000000
_cell_angle_beta 149.387165
_cell_angle_gamma 90.000000
_cell_volume 1604.161152
_symmetry_space_group_name_H-M "C C"
_symmetry_group_IT_number 9
_symmetry_cell_setting 'monoclinic'
loop_
_space_group_symop_operation_xyz
x,y,z
x,-y,1/2+z
1/2+x,1/2+y,z
1/2+x,1/2-y,1/2+z
loop_
_atom_site_type_symbol
_atom_site_label
_atom_site_fract_x
_atom_site_fract_y
_atom_site_fract_z
Si Si1 0.066500 0.355489 0.596780
Si Si2 0.362192 0.263289 0.667325
Si Si3 0.538435 0.340858 0.355442
Si Si4 0.566478 0.528538 0.096704
Si Si5 0.781273 0.394663 0.332566
Si Si6 0.094561 0.159144 0.338026
Si Si7 0.351677 0.605336 0.360856
Si Si8 0.770828 0.736716 0.026210
O O1 0.188350 0.411230 0.696072
O O2 0.981828 0.301399 0.379462
O O3 0.944608 0.411230 0.497378
O O4 0.151233 0.301460 0.814237
O O5 0.203648 0.219883 0.415481
O O6 0.430186 0.302135 0.636259
O O7 0.330330 0.328261 0.727621
O O8 0.559929 0.419918 0.463702
O O9 0.702844 0.302174 0.557260
O O10 0.429415 0.280087 0.278101
O O11 0.470166 0.361783 0.126032
O O12 0.717786 0.475234 0.303709
O O13 0.573010 0.580106 0.229654
O O14 0.415164 0.475243 0.889743
O O15 0.802588 0.328218 0.465692
O O16 0.662769 0.361828 0.067349
#
# Coordination Sequence:
#
# PCOD8054193 Si02
#       8
#     4   4   4   4   4   4   4   4
#     4  10  17  34  60  93 104 140 204 246 269 320
#     4  11  18  37  64  89 107 150 200 247 267 337
#     4  11  22  37  61  85 120 147 200 232 287 339
#     4  12  25  38  54  89 124 160 172 238 303 346
#     4  11  20  36  62  88 114 150 197 235 287 336
#     4  11  22  37  61  85 120 147 200 232 287 339
#     4  11  20  36  62  88 114 150 197 235 287 336
#     4  11  18  37  64  89 107 150 200 247 267 337
#
# _framework density 19.948122000000001
#
# number of rings (size 3 to 8) (size 9 to 14) (size 15 to 20)
#    0.000    1.000    7.500    2.250    0.000    1.000 
#    0.000    7.500    0.000    0.000    0.000    0.000 
#    0.000    0.000    0.000    0.000    0.000    0.000 
#
# Total GULP energy -198424.560514 kJ/mol
# GULP energy per Si atom -12401.535032 kJ/mol
# Density = 1.990272 g / cm^3
# Si number density = 19.948122 Si / 1000 Ang^3
#
#
#
# Elastic Constant Matrix: (Units=GPa)
#
#
# Indices 1 2 3 4 5 6 
#
# 1 105.6525 49.9815 25.4860 0.0000 40.3949 0.0000
# 2 49.9815 102.2463 23.7609 0.0000 12.2487 0.0000
# 3 25.4860 23.7609 32.0174 0.0000 22.0861 0.0000
# 4 0.0000 0.0000 0.0000 9.2208 0.0000 -3.6241
# 5 40.3949 12.2487 22.0861 0.0000 31.1012 0.0000
# 6 0.0000 0.0000 0.0000 -3.6241 0.0000 53.1972
#
#
#
# Elastic Compliance Matrix: (Units=1/GPa)
#
#
# Indices 1 2 3 4 5 6 
#
# 1 0.027663 -0.012261 0.016727 0.000000 -0.042979 0.000000
# 2 -0.012261 0.017406 -0.018454 0.000000 0.022175 0.000000
# 3 0.016727 -0.018454 0.081520 0.000000 -0.072348 0.000000
# 4 0.000000 0.000000 0.000000 0.111435 0.000000 0.007592
# 5 -0.042979 0.022175 -0.072348 0.000000 0.130619 0.000000
# 6 0.000000 0.000000 0.000000 0.007592 0.000000 0.019315
#
#
# Mechanical properties :
#
#
# Convention : Reuss Voigt Hill
#
# Bulk Modulus (GPa) = 10.14069 48.70812 29.42440
# Shear Modulus (GPa) = 11.14070 28.08300 19.61185
#
# Velocity S-wave (km/s) = 2.36579 3.75614 3.13891
# Velocity P-wave (km/s) = 3.54361 6.57889 5.28389
#
# Compressibility (1/GPa) = 0.09861259
#
# Stress axis : x y z
#
# Youngs Moduli (GPa) = 36.14963 57.45152 12.26689
#
# Poissons Ratio (x) = 0.70441 -0.20519
# Poissons Ratio (y) = 0.44323 0.22637
# Poissons Ratio (z) = -0.60467 1.06021
#
# Static dielectric constant tensor:
#      x y z
#    x 3.856230 0.000000 0.432800 
#    y 0.000000 3.587240 0.000000 
#    z 0.432800 0.000000 3.469060 
# 
# 
# High freq. dielectric constant tensor:
#      x y z
#    x 1.794200 0.000000 0.028200 
#    y 0.000000 1.766500 0.000000 
#    z 0.028200 0.000000 1.748110 
# 
# From -- ./inp_files/9954.got.cif
#   From: 2010.06.25/outbox.cif.g09.slc.cpg/sg9_5_cif.got.tgz:9954.got - 2010.06.27 21:40:51.
