data_PCOD8054459
_publ_section_title
;
Structure prediction by ZEFSAII (Michael W. Deem and Ramdas Pophale) SiO2 
 PCOD8054459
Probable space group: C C
;
_chemical_formula_sum "Si O2"
_cell_formula_units_Z 28
_cell_length_a 17.100746
_cell_length_b 12.478769
_cell_length_c 8.927322
_cell_angle_alpha 90.000000
_cell_angle_beta 40.317670
_cell_angle_gamma 90.000000
_cell_volume 1232.619497
_symmetry_space_group_name_H-M "C C"
_symmetry_group_IT_number 9
_symmetry_cell_setting 'monoclinic'
loop_
_space_group_symop_operation_xyz
x,y,z
x,-y,1/2+z
1/2+x,1/2+y,z
1/2+x,1/2-y,1/2+z
loop_
_atom_site_type_symbol
_atom_site_label
_atom_site_fract_x
_atom_site_fract_y
_atom_site_fract_z
Si Si1 0.043170 0.620202 0.792410
Si Si2 0.611952 0.939198 0.888773
Si Si3 0.986830 0.913877 0.725862
Si Si4 0.700814 0.313122 0.555967
Si Si5 0.854336 0.868315 0.417585
Si Si6 0.823737 0.236941 0.652688
Si Si7 0.947049 0.741671 0.540889
O O1 0.107711 0.558605 0.830595
O O2 0.042035 0.544876 0.648047
O O3 0.123921 0.714734 0.604129
O O4 0.915595 0.663589 0.035436
O O5 0.753337 0.909406 0.682321
O O6 0.545056 0.851524 0.884777
O O7 0.997328 0.844927 0.557788
O O8 0.115908 0.914619 0.630632
O O9 0.946804 0.034923 0.741761
O O10 0.881416 0.860655 0.977113
O O11 0.712308 0.290364 0.720295
O O12 0.831521 0.314518 0.289362
O O13 0.793141 0.813685 0.359666
O O14 0.924915 0.775784 0.402632
#
# Coordination Sequence:
#
# PCOD8054459 Si02
#       7
#     4   4   4   4   4   4   4
#     4  11  24  42  67  95 127 180 219 275 331 403
#     4  12  25  41  68  97 132 174 227 272 335 398
#     4  10  21  40  69  96 133 179 218 275 339 400
#     4  10  19  45  68  87 135 182 213 269 347 388
#     4  12  25  39  69 106 128 172 231 280 329 407
#     4  10  23  42  65  96 139 175 220 276 340 397
#     4  11  21  43  64  93 136 172 218 279 335 397
#
# _framework density 22.715848000000001
#
# number of rings (size 3 to 8) (size 9 to 14) (size 15 to 20)
#    0.000    1.143    5.714    2.571    6.000    1.143 
#    0.000    7.143    0.000    0.000    0.000    0.000 
#    0.000    0.000    0.000    0.000    0.000    0.000 
#
# Total GULP energy -173469.691955 kJ/mol
# GULP energy per Si atom -12390.692282 kJ/mol
# Density = 2.266415 g / cm^3
# Si number density = 22.715848 Si / 1000 Ang^3
#
#
#
# Elastic Constant Matrix: (Units=GPa)
#
#
# Indices 1 2 3 4 5 6 
#
# 1 111.3902 13.7815 13.3648 0.0000 1.4076 0.0000
# 2 13.7815 43.9693 21.3153 0.0000 -4.7987 0.0000
# 3 13.3648 21.3153 50.4835 0.0000 0.5743 0.0000
# 4 0.0000 0.0000 0.0000 14.6130 0.0000 3.0683
# 5 1.4076 -4.7987 0.5743 0.0000 41.9485 0.0000
# 6 0.0000 0.0000 0.0000 3.0683 0.0000 42.6475
#
#
#
# Elastic Compliance Matrix: (Units=1/GPa)
#
#
# Indices 1 2 3 4 5 6 
#
# 1 0.009450 -0.002280 -0.001533 0.000000 -0.000557 0.000000
# 2 -0.002280 0.029651 -0.011957 0.000000 0.003632 0.000000
# 3 -0.001533 -0.011957 0.025282 0.000000 -0.001663 0.000000
# 4 0.000000 0.000000 0.000000 0.069482 0.000000 -0.004999
# 5 -0.000557 0.003632 -0.001663 0.000000 0.024296 0.000000
# 6 0.000000 0.000000 0.000000 -0.004999 0.000000 0.023808
#
#
# Mechanical properties :
#
#
# Convention : Reuss Voigt Hill
#
# Bulk Modulus (GPa) = 30.44753 33.64071 32.04412
# Shear Modulus (GPa) = 22.27618 30.33390 26.30504
#
# Velocity S-wave (km/s) = 3.13492 3.65823 3.40664
# Velocity P-wave (km/s) = 5.15135 5.71708 5.44157
#
# Compressibility (1/GPa) = 0.03284338
#
# Stress axis : x y z
#
# Youngs Moduli (GPa) = 105.81483 33.72618 39.55427
#
# Poissons Ratio (x) = 0.07689 0.06064
# Poissons Ratio (y) = 0.24123 0.47295
# Poissons Ratio (z) = 0.16221 0.40326
#
# Static dielectric constant tensor:
#      x y z
#    x 4.395060 0.000000 -0.072910 
#    y 0.000000 3.941770 0.000000 
#    z -0.072910 0.000000 3.753000 
# 
# 
# High freq. dielectric constant tensor:
#      x y z
#    x 1.909300 0.000000 0.002500 
#    y 0.000000 1.880320 0.000000 
#    z 0.002500 0.000000 1.870340 
# 
# From -- ./inp_files/10882.got.cif
#   From: 2010.06.25/outbox.cif.g09.slc.cpg/sg9_6_cif.got.tgz:10882.got - 2010.06.27 21:40:51.
