data_PCOD8054637
_publ_section_title
;
Structure prediction by ZEFSAII (Michael W. Deem and Ramdas Pophale) SiO2 
 PCOD8054637
Probable space group: C C
;
_chemical_formula_sum "Si O2"
_cell_formula_units_Z 28
_cell_length_a 7.819602
_cell_length_b 11.430323
_cell_length_c 14.773795
_cell_angle_alpha 90.000000
_cell_angle_beta 76.713086
_cell_angle_gamma 90.000000
_cell_volume 1285.142624
_symmetry_space_group_name_H-M "C C"
_symmetry_group_IT_number 9
_symmetry_cell_setting 'monoclinic'
loop_
_space_group_symop_operation_xyz
x,y,z
x,-y,1/2+z
1/2+x,1/2+y,z
1/2+x,1/2-y,1/2+z
loop_
_atom_site_type_symbol
_atom_site_label
_atom_site_fract_x
_atom_site_fract_y
_atom_site_fract_z
Si Si1 0.470420 0.905920 0.313290
Si Si2 0.989746 0.977945 0.831633
Si Si3 0.881195 0.802762 0.708133
Si Si4 0.523414 0.129479 0.196937
Si Si5 0.707569 0.440416 0.639299
Si Si6 0.304036 0.714064 0.853869
Si Si7 0.226458 0.934440 0.957263
O O1 0.375021 0.827862 0.247974
O O2 0.609732 0.821452 0.345528
O O3 0.338136 0.956095 0.405072
O O4 0.560231 0.013773 0.251288
O O5 0.160599 0.994685 0.744423
O O6 0.050103 0.921906 0.918836
O O7 0.906999 0.099831 0.870702
O O8 0.852913 0.892417 0.797056
O O9 0.718337 0.817551 0.657362
O O10 0.067512 0.834815 0.636289
O O11 0.398631 0.224207 0.258808
O O12 0.413174 0.100354 0.118293
O O13 0.685134 0.540734 0.566754
O O14 0.312481 0.805442 0.937207
#
# Coordination Sequence:
#
# PCOD8054637 Si02
#       7
#     4   4   4   4   4   4   4
#     4  11  18  40  65  90 127 164 206 259 310 374
#     4  10  20  42  65  88 128 166 206 258 314 368
#     4  10  20  39  70  88 120 171 206 253 318 366
#     4  11  21  38  67  91 124 168 210 253 318 372
#     4  10  22  45  61  95 130 160 215 260 310 380
#     4  11  20  40  66  95 123 170 211 254 316 377
#     4  11  23  42  62  93 132 163 208 267 312 371
#
# _framework density 21.787466999999999
#
# number of rings (size 3 to 8) (size 9 to 14) (size 15 to 20)
#    0.857    0.571    7.143    0.857    0.000    0.000 
#    7.714    0.000    0.000    0.000    0.000    0.000 
#    0.000    0.000    0.000    0.000    0.000    0.000 
#
# Total GULP energy -173456.337792 kJ/mol
# GULP energy per Si atom -12389.738414 kJ/mol
# Density = 2.173788 g / cm^3
# Si number density = 21.787467 Si / 1000 Ang^3
#
#
#
# Elastic Constant Matrix: (Units=GPa)
#
#
# Indices 1 2 3 4 5 6 
#
# 1 127.5552 15.5331 5.3279 0.0000 18.4165 0.0000
# 2 15.5331 68.9305 -22.4703 0.0000 -4.6235 0.0000
# 3 5.3279 -22.4703 33.6967 0.0000 11.6289 0.0000
# 4 0.0000 0.0000 0.0000 11.9518 0.0000 -4.3374
# 5 18.4165 -4.6235 11.6289 0.0000 17.6977 0.0000
# 6 0.0000 0.0000 0.0000 -4.3374 0.0000 37.2093
#
#
#
# Elastic Compliance Matrix: (Units=1/GPa)
#
#
# Indices 1 2 3 4 5 6 
#
# 1 0.009781 -0.002810 0.000447 0.000000 -0.011206 0.000000
# 2 -0.002810 0.019594 0.013882 0.000000 -0.001079 0.000000
# 3 0.000447 0.013882 0.048849 0.000000 -0.028936 0.000000
# 4 0.000000 0.000000 0.000000 0.087365 0.000000 0.010184
# 5 -0.011206 -0.001079 -0.028936 0.000000 0.086898 0.000000
# 6 0.000000 0.000000 0.000000 0.010184 0.000000 0.028062
#
#
# Mechanical properties :
#
#
# Convention : Reuss Voigt Hill
#
# Bulk Modulus (GPa) = 9.87529 25.21820 17.54675
# Shear Modulus (GPa) = 17.16647 28.82454 22.99550
#
# Velocity S-wave (km/s) = 2.81001 3.64123 3.25229
# Velocity P-wave (km/s) = 3.88209 5.41090 4.70895
#
# Compressibility (1/GPa) = 0.10126284
#
# Stress axis : x y z
#
# Youngs Moduli (GPa) = 102.23620 51.03676 20.47113
#
# Poissons Ratio (x) = 0.14342 -0.00915
# Poissons Ratio (y) = 0.28730 -0.28419
# Poissons Ratio (z) = -0.04569 -0.70852
#
# Static dielectric constant tensor:
#      x y z
#    x 3.947620 0.000000 0.155630 
#    y 0.000000 4.020570 0.000000 
#    z 0.155630 0.000000 3.343770 
# 
# 
# High freq. dielectric constant tensor:
#      x y z
#    x 1.859120 0.000000 0.024250 
#    y 0.000000 1.868760 0.000000 
#    z 0.024250 0.000000 1.802740 
# 
# From -- ./inp_files/29071.got.cif
#   From: 2010.06.25/outbox.cif.g09.slc.cpg/sg9_15_cif.got.tgz:29071.got - 2010.06.27 21:40:51.
