data_PCOD8054447
_publ_section_title
;
Structure prediction by ZEFSAII (Michael W. Deem and Ramdas Pophale) SiO2 
 PCOD8054447
Probable space group: C C
;
_chemical_formula_sum "Si O2"
_cell_formula_units_Z 32
_cell_length_a 10.131890
_cell_length_b 11.587788
_cell_length_c 11.259465
_cell_angle_alpha 90.000000
_cell_angle_beta 103.721296
_cell_angle_gamma 90.000000
_cell_volume 1284.204369
_symmetry_space_group_name_H-M "C C"
_symmetry_group_IT_number 9
_symmetry_cell_setting 'monoclinic'
loop_
_space_group_symop_operation_xyz
x,y,z
x,-y,1/2+z
1/2+x,1/2+y,z
1/2+x,1/2-y,1/2+z
loop_
_atom_site_type_symbol
_atom_site_label
_atom_site_fract_x
_atom_site_fract_y
_atom_site_fract_z
Si Si1 0.234570 0.050292 0.646620
Si Si2 0.810754 0.129884 0.171556
Si Si3 0.482432 0.276936 0.107120
Si Si4 0.114587 0.828712 0.705565
Si Si5 0.553568 0.207220 0.371009
Si Si6 0.200555 0.606748 0.595615
Si Si7 0.289667 0.199945 0.462774
Si Si8 0.312092 0.811241 0.372792
O O1 0.099412 0.129346 0.609343
O O2 0.319348 0.080883 0.544467
O O3 0.321990 0.081078 0.784354
O O4 0.209758 0.913632 0.647607
O O5 0.745474 0.205018 0.051043
O O6 0.802346 0.192520 0.295443
O O7 0.967935 0.111376 0.172336
O O8 0.717952 0.015990 0.162527
O O9 0.521973 0.190437 0.224311
O O10 0.352190 0.349054 0.114904
O O11 0.443470 0.195621 0.986210
O O12 0.112407 0.699091 0.653240
O O13 0.162151 0.822675 0.851302
O O14 0.622775 0.096198 0.451305
O O15 0.416942 0.242464 0.411909
O O16 0.665729 0.311617 0.411102
#
# Coordination Sequence:
#
# PCOD8054447 Si02
#       8
#     4   4   4   4   4   4   4   4
#     4  10  23  43  68 108 143 192 247 311 375 449
#     4  11  24  48  75 106 149 193 255 311 374 459
#     4  10  19  42  69  98 143 191 246 307 369 450
#     4  12  24  44  75 107 146 201 249 310 381 450
#     4  10  21  42  66 102 147 192 246 309 373 446
#     4  11  23  42  73 110 138 197 247 308 374 445
#     4  11  24  45  70 108 149 189 252 313 373 458
#     4   9  22  42  70 107 145 193 250 309 379 447
#
# _framework density 24.918151999999999
#
# number of rings (size 3 to 8) (size 9 to 14) (size 15 to 20)
#    0.000    1.500    3.750    0.750    0.000    5.000 
#    6.750    5.000    0.000    0.000    0.000    0.000 
#    0.000    0.000    0.000    0.000    0.000    0.000 
#
# Total GULP energy -198245.809627 kJ/mol
# GULP energy per Si atom -12390.363102 kJ/mol
# Density = 2.486144 g / cm^3
# Si number density = 24.918152 Si / 1000 Ang^3
#
#
#
# Elastic Constant Matrix: (Units=GPa)
#
#
# Indices 1 2 3 4 5 6 
#
# 1 48.5033 18.4066 27.1117 0.0000 7.2746 0.0000
# 2 18.4066 116.9484 57.5318 0.0000 3.7369 0.0000
# 3 27.1117 57.5318 184.8338 0.0000 24.1307 0.0000
# 4 0.0000 0.0000 0.0000 23.4008 0.0000 1.9475
# 5 7.2746 3.7369 24.1307 0.0000 40.5235 0.0000
# 6 0.0000 0.0000 0.0000 1.9475 0.0000 23.1743
#
#
#
# Elastic Compliance Matrix: (Units=1/GPa)
#
#
# Indices 1 2 3 4 5 6 
#
# 1 0.023219 -0.002435 -0.002313 0.000000 -0.002566 0.000000
# 2 -0.002435 0.010391 -0.003046 0.000000 0.001293 0.000000
# 3 -0.002313 -0.003046 0.007164 0.000000 -0.003570 0.000000
# 4 0.000000 0.000000 0.000000 0.043035 0.000000 -0.003616
# 5 -0.002566 0.001293 -0.003570 0.000000 0.027144 0.000000
# 6 0.000000 0.000000 0.000000 -0.003616 0.000000 0.043455
#
#
# Mechanical properties :
#
#
# Convention : Reuss Voigt Hill
#
# Bulk Modulus (GPa) = 39.70377 61.82061 50.76219
# Shear Modulus (GPa) = 28.02847 33.90209 30.96528
#
# Velocity S-wave (km/s) = 3.35747 3.69255 3.52899
# Velocity P-wave (km/s) = 5.56762 6.56073 6.08447
#
# Compressibility (1/GPa) = 0.02518653
#
# Stress axis : x y z
#
# Youngs Moduli (GPa) = 43.06854 96.23600 139.59321
#
# Poissons Ratio (x) = 0.23430 0.32287
# Poissons Ratio (y) = 0.10485 0.42520
# Poissons Ratio (z) = 0.09961 0.29314
#
# Static dielectric constant tensor:
#      x y z
#    x 4.836410 0.000000 0.118870 
#    y 0.000000 4.097480 0.000000 
#    z 0.118870 0.000000 4.910080 
# 
# 
# High freq. dielectric constant tensor:
#      x y z
#    x 2.002710 0.000000 0.007200 
#    y 0.000000 1.949910 0.000000 
#    z 0.007200 0.000000 2.011480 
# 
# From -- ./inp_files/16581.got.cif
#   From: 2010.06.25/outbox.cif.g09.slc.cpg/sg9_9_cif.got.tgz:16581.got - 2010.06.27 21:40:51.
