data_PCOD8054474
_publ_section_title
;
Structure prediction by ZEFSAII (Michael W. Deem and Ramdas Pophale) SiO2 
 PCOD8054474
Probable space group: C C
;
_chemical_formula_sum "Si O2"
_cell_formula_units_Z 28
_cell_length_a 14.513036
_cell_length_b 13.358282
_cell_length_c 8.806834
_cell_angle_alpha 90.000000
_cell_angle_beta 59.042061
_cell_angle_gamma 90.000000
_cell_volume 1464.150401
_symmetry_space_group_name_H-M "C C"
_symmetry_group_IT_number 9
_symmetry_cell_setting 'monoclinic'
loop_
_space_group_symop_operation_xyz
x,y,z
x,-y,1/2+z
1/2+x,1/2+y,z
1/2+x,1/2-y,1/2+z
loop_
_atom_site_type_symbol
_atom_site_label
_atom_site_fract_x
_atom_site_fract_y
_atom_site_fract_z
Si Si1 0.025360 0.117448 0.080230
Si Si2 0.470555 0.194079 0.812124
Si Si3 0.106856 0.781614 0.943670
Si Si4 0.231645 0.817563 0.537510
Si Si5 0.746853 0.899549 0.364489
Si Si6 0.478316 0.416249 0.269714
Si Si7 0.685520 0.098070 0.581933
O O1 0.154386 0.115032 0.997909
O O2 0.977001 0.224572 0.170726
O O3 0.971657 0.032777 0.231130
O O4 0.001250 0.095273 0.926890
O O5 0.556573 0.105235 0.714847
O O6 0.498669 0.247985 0.947719
O O7 0.353402 0.143695 0.920919
O O8 0.074554 0.863887 0.094562
O O9 0.190572 0.824000 0.747031
O O10 0.162889 0.687808 0.981495
O O11 0.226420 0.703494 0.478385
O O12 0.862989 0.867793 0.329984
O O13 0.751620 0.915391 0.180712
O O14 0.707652 0.005864 0.457013
#
# Coordination Sequence:
#
# PCOD8054474 Si02
#       7
#     4   4   4   4   4   4   4
#     4  10  22  33  55  80 105 141 182 220 262 325
#     4   9  18  37  56  77 108 142 172 220 275 316
#     4   9  20  34  55  79 103 138 182 219 266 323
#     4   9  18  37  55  75 107 142 175 222 270 312
#     4  10  20  34  54  78 105 138 171 220 263 312
#     4  12  21  36  54  79 109 140 181 225 266 314
#     4   9  19  33  55  80 103 135 177 210 262 324
#
# _framework density 19.123718
#
# number of rings (size 3 to 8) (size 9 to 14) (size 15 to 20)
#    0.000    2.857    0.000    5.143    0.000    3.429 
#    0.000    7.143    0.000    0.000    0.000    0.000 
#    0.000    0.000    0.000    0.000    0.000    0.000 
#
# Total GULP energy -173541.848171 kJ/mol
# GULP energy per Si atom -12395.846298 kJ/mol
# Density = 1.908019 g / cm^3
# Si number density = 19.123718 Si / 1000 Ang^3
#
#
#
# Elastic Constant Matrix: (Units=GPa)
#
#
# Indices 1 2 3 4 5 6 
#
# 1 137.4891 17.2648 53.3972 0.0000 -3.1212 0.0000
# 2 17.2648 61.6242 31.3812 0.0000 12.0816 0.0000
# 3 53.3972 31.3812 75.4606 0.0000 12.7903 0.0000
# 4 0.0000 0.0000 0.0000 28.6287 0.0000 2.9306
# 5 -3.1212 12.0816 12.7903 0.0000 34.4972 0.0000
# 6 0.0000 0.0000 0.0000 2.9306 0.0000 22.1280
#
#
#
# Elastic Compliance Matrix: (Units=1/GPa)
#
#
# Indices 1 2 3 4 5 6 
#
# 1 0.010526 0.000535 -0.008324 0.000000 0.003851 0.000000
# 2 0.000535 0.021232 -0.008489 0.000000 -0.004240 0.000000
# 3 -0.008324 -0.008489 0.023791 0.000000 -0.006601 0.000000
# 4 0.000000 0.000000 0.000000 0.035410 0.000000 -0.004690
# 5 0.003851 -0.004240 -0.006601 0.000000 0.033269 0.000000
# 6 0.000000 0.000000 0.000000 -0.004690 0.000000 0.045813
#
#
# Mechanical properties :
#
#
# Convention : Reuss Voigt Hill
#
# Bulk Modulus (GPa) = 43.49197 53.18447 48.33822
# Shear Modulus (GPa) = 23.77995 28.55284 26.16639
#
# Velocity S-wave (km/s) = 3.53013 3.86820 3.70303
# Velocity P-wave (km/s) = 6.27754 6.91533 6.60414
#
# Compressibility (1/GPa) = 0.02299275
#
# Stress axis : x y z
#
# Youngs Moduli (GPa) = 95.00006 47.09906 42.03268
#
# Poissons Ratio (x) = -0.02518 0.34987
# Poissons Ratio (y) = -0.05078 0.35682
# Poissons Ratio (z) = 0.79075 0.39983
#
# Static dielectric constant tensor:
#      x y z
#    x 3.658680 0.000000 -0.046260 
#    y 0.000000 3.405650 0.000000 
#    z -0.046260 0.000000 3.268750 
# 
# 
# High freq. dielectric constant tensor:
#      x y z
#    x 1.752930 0.000000 -0.003530 
#    y 0.000000 1.726740 0.000000 
#    z -0.003530 0.000000 1.728100 
# 
# From -- ./inp_files/9055.got.cif
#   From: 2010.06.25/outbox.cif.g09.slc.cpg/sg9_5_cif.got.tgz:9055.got - 2010.06.27 21:40:51.
