data_PCOD8054937
_publ_section_title
;
Structure prediction by ZEFSAII (Michael W. Deem and Ramdas Pophale) SiO2 
 PCOD8054937
Probable space group: C C
;
_chemical_formula_sum "Si O2"
_cell_formula_units_Z 32
_cell_length_a 12.960216
_cell_length_b 13.685433
_cell_length_c 13.753633
_cell_angle_alpha 90.000000
_cell_angle_beta 37.571811
_cell_angle_gamma 90.000000
_cell_volume 1487.454848
_symmetry_space_group_name_H-M "C C"
_symmetry_group_IT_number 9
_symmetry_cell_setting 'monoclinic'
loop_
_space_group_symop_operation_xyz
x,y,z
x,-y,1/2+z
1/2+x,1/2+y,z
1/2+x,1/2-y,1/2+z
loop_
_atom_site_type_symbol
_atom_site_label
_atom_site_fract_x
_atom_site_fract_y
_atom_site_fract_z
Si Si1 0.505070 0.567581 0.060270
Si Si2 0.430520 0.654007 0.312238
Si Si3 0.450139 0.452011 0.380133
Si Si4 0.360450 0.985207 0.828436
Si Si5 0.833387 0.128049 0.702336
Si Si6 0.637006 0.125446 0.030777
Si Si7 0.137810 0.828586 0.089673
Si Si8 0.126243 0.650833 0.668928
O O1 0.457421 0.651357 0.174100
O O2 0.404202 0.477453 0.180990
O O3 0.445330 0.582144 0.995243
O O4 0.706572 0.548735 0.901764
O O5 0.520343 0.561212 0.300964
O O6 0.230098 0.662102 0.489796
O O7 0.526476 0.751887 0.273520
O O8 0.259298 0.459010 0.481827
O O9 0.551278 0.365898 0.251875
O O10 0.496107 0.060150 0.772645
O O11 0.448058 0.918319 0.679752
O O12 0.290287 0.904167 0.955990
O O13 0.779025 0.134321 0.631691
O O14 0.999437 0.191657 0.604966
O O15 0.673786 0.150892 0.890742
O O16 0.693541 0.216401 0.058838
#
# Coordination Sequence:
#
# PCOD8054937 Si02
#       8
#     4   4   4   4   4   4   4   4
#     4  11  22  44  69  91 138 185 217 273 348 404
#     4  12  24  46  67  98 140 174 231 283 339 416
#     4  11  22  45  68  90 137 181 214 285 344 400
#     4  11  21  40  64  98 137 175 225 277 344 406
#     4  10  21  40  66  99 130 176 212 283 353 388
#     4  11  21  41  66  99 133 166 232 285 337 403
#     4  10  23  40  66  99 132 169 225 287 334 408
#     4  12  26  42  70 100 137 184 224 289 343 409
#
# _framework density 21.513259999999999
#
# number of rings (size 3 to 8) (size 9 to 14) (size 15 to 20)
#    0.000    1.000    6.250    2.250    1.750    2.000 
#    4.500    1.250    0.000    0.000    0.000    0.000 
#    0.000    0.000    0.000    0.000    0.000    0.000 
#
# Total GULP energy -198209.355308 kJ/mol
# GULP energy per Si atom -12388.084707 kJ/mol
# Density = 2.146430 g / cm^3
# Si number density = 21.513260 Si / 1000 Ang^3
#
#
#
# Elastic Constant Matrix: (Units=GPa)
#
#
# Indices 1 2 3 4 5 6 
#
# 1 70.4326 13.5507 38.9658 -0.0001 11.6276 0.0001
# 2 13.5507 87.0549 38.4591 0.0000 -6.0588 0.0000
# 3 38.9658 38.4591 147.2492 -0.0003 -1.5344 0.0001
# 4 -0.0001 0.0000 -0.0003 34.6246 0.0001 -3.2112
# 5 11.6276 -6.0588 -1.5344 0.0001 27.6647 -0.0001
# 6 0.0001 0.0000 0.0001 -3.2112 -0.0001 22.2860
#
#
#
# Elastic Compliance Matrix: (Units=1/GPa)
#
#
# Indices 1 2 3 4 5 6 
#
# 1 0.018371 -0.001413 -0.004578 0.000000 -0.008285 0.000000
# 2 -0.001413 0.013292 -0.003063 0.000000 0.003335 0.000000
# 3 -0.004578 -0.003063 0.008821 0.000000 0.001743 0.000000
# 4 0.000000 0.000000 0.000000 0.029272 0.000000 0.004218
# 5 -0.008285 0.003335 0.001743 0.000000 0.040456 0.000000
# 6 0.000000 0.000000 0.000000 0.004218 0.000000 0.045479
#
#
# Mechanical properties :
#
#
# Convention : Reuss Voigt Hill
#
# Bulk Modulus (GPa) = 44.69448 54.07641 49.38544
# Shear Modulus (GPa) = 27.58477 31.16579 29.37528
#
# Velocity S-wave (km/s) = 3.58470 3.81028 3.69921
# Velocity P-wave (km/s) = 6.16067 6.67447 6.42271
#
# Compressibility (1/GPa) = 0.02237413
#
# Stress axis : x y z
#
# Youngs Moduli (GPa) = 54.43478 75.23164 113.36661
#
# Poissons Ratio (x) = 0.10633 0.51905
# Poissons Ratio (y) = 0.07694 0.34724
# Poissons Ratio (z) = 0.24923 0.23043
#
# Static dielectric constant tensor:
#      x y z
#    x 3.509650 0.000000 -0.129360 
#    y 0.000000 4.029880 0.000000 
#    z -0.129360 0.000000 4.081020 
# 
# 
# High freq. dielectric constant tensor:
#      x y z
#    x 1.801590 0.000000 -0.001270 
#    y 0.000000 1.854160 0.000000 
#    z -0.001270 0.000000 1.864700 
# 
# From -- ./inp_files/26019.got.cif
#   From: 2010.06.25/outbox.cif.g09.slc.cpg/sg9_14_cif.got.tgz:26019.got - 2010.06.27 21:40:51.
