data_PCOD8054859
_publ_section_title
;
Structure prediction by ZEFSAII (Michael W. Deem and Ramdas Pophale) SiO2 
 PCOD8054859
Probable space group: C C
;
_chemical_formula_sum "Si O2"
_cell_formula_units_Z 32
_cell_length_a 5.041962
_cell_length_b 9.236453
_cell_length_c 28.697772
_cell_angle_alpha 90.000000
_cell_angle_beta 62.522135
_cell_angle_gamma 90.000000
_cell_volume 1185.684650
_symmetry_space_group_name_H-M "C C"
_symmetry_group_IT_number 9
_symmetry_cell_setting 'monoclinic'
loop_
_space_group_symop_operation_xyz
x,y,z
x,-y,1/2+z
1/2+x,1/2+y,z
1/2+x,1/2-y,1/2+z
loop_
_atom_site_type_symbol
_atom_site_label
_atom_site_fract_x
_atom_site_fract_y
_atom_site_fract_z
Si Si1 0.591000 0.008090 0.511220
Si Si2 0.101505 0.655254 0.247673
Si Si3 0.246864 0.381616 0.597132
Si Si4 0.722538 0.692920 0.992101
Si Si5 0.699490 0.481819 0.209799
Si Si6 0.061883 0.171804 0.904929
Si Si7 0.121384 0.918745 0.115130
Si Si8 0.666193 0.347090 0.868689
O O1 0.805641 0.137947 0.474934
O O2 0.272838 0.084656 0.551123
O O3 0.647785 0.945514 0.556841
O O4 0.530040 0.901096 0.471879
O O5 0.910384 0.584592 0.222112
O O6 0.904866 0.676413 0.309177
O O7 0.366283 0.545379 0.239675
O O8 0.216056 0.815213 0.224478
O O9 0.573818 0.313784 0.555566
O O10 0.047517 0.248890 0.633323
O O11 0.308987 0.494176 0.634548
O O12 0.509557 0.635960 0.965874
O O13 0.799126 0.489210 0.145914
O O14 0.373371 0.256934 0.878559
O O15 0.806420 0.274493 0.903957
O O16 0.091884 0.017703 0.877434
#
# Coordination Sequence:
#
# PCOD8054859 Si02
#       8
#     4   4   4   4   4   4   4   4
#     4  10  21  39  60  85 132 171 215 278 327 402
#     4  12  26  49  71 105 138 184 225 297 359 417
#     4  10  21  39  60  85 132 171 215 278 327 402
#     4  10  23  37  60  94 126 175 228 266 342 387
#     4  12  26  44  74 100 138 177 235 285 342 430
#     4  12  26  44  74 106 138 185 233 293 334 438
#     4  10  23  37  58  94 118 175 220 272 334 395
#     4  12  26  47  73 103 142 180 231 291 365 409
#
# _framework density 26.988627999999999
#
# number of rings (size 3 to 8) (size 9 to 14) (size 15 to 20)
#    0.000    1.000    0.000    6.000    7.000    0.000 
#    0.000    0.000    0.000    0.000    0.000    0.000 
#    0.000    0.000    0.000    0.000    0.000    0.000 
#
# Total GULP energy -198314.578776 kJ/mol
# GULP energy per Si atom -12394.661173 kJ/mol
# Density = 2.692720 g / cm^3
# Si number density = 26.988628 Si / 1000 Ang^3
#
#
#
# Elastic Constant Matrix: (Units=GPa)
#
#
# Indices 1 2 3 4 5 6 
#
# 1 106.1140 76.5867 -13.9130 0.0002 25.2324 -0.0003
# 2 76.5867 203.4360 28.5348 -0.0001 27.9849 0.0000
# 3 -13.9130 28.5348 97.9044 0.0002 5.8055 -0.0004
# 4 0.0002 -0.0001 0.0002 38.7015 -0.0001 2.1722
# 5 25.2324 27.9849 5.8055 -0.0001 29.8220 0.0002
# 6 -0.0003 0.0000 -0.0004 2.1722 0.0002 58.4616
#
#
#
# Elastic Compliance Matrix: (Units=1/GPa)
#
#
# Indices 1 2 3 4 5 6 
#
# 1 0.016152 -0.005401 0.004430 0.000000 -0.009461 0.000000
# 2 -0.005401 0.007631 -0.002871 0.000000 -0.002032 0.000000
# 3 0.004430 -0.002871 0.011880 0.000000 -0.003367 0.000000
# 4 0.000000 0.000000 0.000000 0.025893 0.000000 -0.000962
# 5 -0.009461 -0.002032 -0.003367 0.000000 0.044100 0.000000
# 6 0.000000 0.000000 0.000000 -0.000962 0.000000 0.017141
#
#
# Mechanical properties :
#
#
# Convention : Reuss Voigt Hill
#
# Bulk Modulus (GPa) = 35.73889 65.54127 50.64008
# Shear Modulus (GPa) = 35.76358 46.48006 41.12182
#
# Velocity S-wave (km/s) = 3.64419 4.15445 3.90766
# Velocity P-wave (km/s) = 5.56577 6.88114 6.25811
#
# Compressibility (1/GPa) = 0.02798073
#
# Stress axis : x y z
#
# Youngs Moduli (GPa) = 61.91041 131.04333 84.17425
#
# Poissons Ratio (x) = 0.70774 -0.37293
# Poissons Ratio (y) = 0.33437 0.24167
# Poissons Ratio (z) = -0.27429 0.37624
#
# Static dielectric constant tensor:
#      x y z
#    x 5.378590 0.000000 -0.575520 
#    y 0.000000 6.211500 0.000000 
#    z -0.575520 0.000000 6.840690 
# 
# 
# High freq. dielectric constant tensor:
#      x y z
#    x 2.105290 0.000000 -0.010390 
#    y 0.000000 2.114680 0.000000 
#    z -0.010390 0.000000 2.095770 
# 
# From -- ./inp_files/37080.got.cif
#   From: 2010.06.25/outbox.cif.g09.slc.cpg/sg9_19_cif.got.tgz:37080.got - 2010.06.27 21:40:51.
