data_PCOD8054361
_publ_section_title
;
Structure prediction by ZEFSAII (Michael W. Deem and Ramdas Pophale) SiO2 
 PCOD8054361
Probable space group: C C
;
_chemical_formula_sum "Si O2"
_cell_formula_units_Z 28
_cell_length_a 13.067687
_cell_length_b 14.879469
_cell_length_c 17.464456
_cell_angle_alpha 90.000000
_cell_angle_beta 155.248837
_cell_angle_gamma 90.000000
_cell_volume 1421.744436
_symmetry_space_group_name_H-M "C C"
_symmetry_group_IT_number 9
_symmetry_cell_setting 'monoclinic'
loop_
_space_group_symop_operation_xyz
x,y,z
x,-y,1/2+z
1/2+x,1/2+y,z
1/2+x,1/2-y,1/2+z
loop_
_atom_site_type_symbol
_atom_site_label
_atom_site_fract_x
_atom_site_fract_y
_atom_site_fract_z
Si Si1 0.191850 0.959709 0.628170
Si Si2 0.325067 0.870288 0.126147
Si Si3 0.142736 0.473710 0.232783
Si Si4 0.006703 0.697435 0.894399
Si Si5 0.441712 0.039677 0.945059
Si Si6 0.569630 0.677644 0.698597
Si Si7 0.066794 0.358420 0.785784
O O1 0.311320 0.976286 0.792839
O O2 0.341014 0.880739 0.687911
O O3 0.905765 0.933968 0.436230
O O4 0.187030 0.048863 0.573796
O O5 0.446751 0.901108 0.129777
O O6 0.533251 0.834357 0.325023
O O7 0.134487 0.791766 0.985166
O O8 0.089502 0.570832 0.232708
O O9 0.102689 0.481803 0.113708
O O10 0.114175 0.615709 0.020447
O O11 0.719629 0.710964 0.724544
O O12 0.226619 0.095844 0.843367
O O13 0.529670 0.758001 0.730450
O O14 0.312506 0.635787 0.501537
#
# Coordination Sequence:
#
# PCOD8054361 Si02
#       7
#     4   4   4   4   4   4   4
#     4  10  22  41  57  88 129 160 192 261 300 374
#     4  10  21  36  60  92 118 156 204 248 311 347
#     4  11  21  40  60  89 127 161 196 255 307 371
#     4   9  19  36  59  91 112 151 200 256 294 355
#     4   9  21  38  66  86 117 159 202 247 307 350
#     4  10  19  36  66  88 117 155 204 260 294 355
#     4  11  21  37  62  92 124 154 212 253 309 352
#
# _framework density 19.694116999999999
#
# number of rings (size 3 to 8) (size 9 to 14) (size 15 to 20)
#    0.857    1.143    1.429    2.571    4.000    0.000 
#   10.286    1.429    0.000    0.000    0.000    0.000 
#    0.000    0.000    0.000    0.000    0.000    0.000 
#
# Total GULP energy -173467.614784 kJ/mol
# GULP energy per Si atom -12390.543913 kJ/mol
# Density = 1.964929 g / cm^3
# Si number density = 19.694117 Si / 1000 Ang^3
#
#
#
# Elastic Constant Matrix: (Units=GPa)
#
#
# Indices 1 2 3 4 5 6 
#
# 1 67.1428 39.5430 30.0477 0.0063 1.4099 0.1028
# 2 39.5430 59.4771 23.2202 -0.0804 -2.0207 0.0899
# 3 30.0477 23.2202 85.0123 -0.0267 -0.2009 0.1014
# 4 0.0063 -0.0804 -0.0267 30.6285 0.0008 6.3432
# 5 1.4099 -2.0207 -0.2009 0.0008 22.5170 -0.0907
# 6 0.1028 0.0899 0.1014 6.3432 -0.0907 29.9436
#
#
#
# Elastic Compliance Matrix: (Units=1/GPa)
#
#
# Indices 1 2 3 4 5 6 
#
# 1 0.026503 -0.015745 -0.005074 -0.000046 -0.003118 -0.000026
# 2 -0.015745 0.028235 -0.002139 0.000082 0.003501 -0.000030
# 3 -0.005074 -0.002139 0.014141 0.000013 0.000252 -0.000026
# 4 -0.000046 0.000082 0.000013 0.034148 -0.000020 -0.007234
# 5 -0.003118 0.003501 0.000252 -0.000020 0.044923 0.000140
# 6 -0.000026 -0.000030 -0.000026 -0.007234 0.000140 0.034929
#
#
# Mechanical properties :
#
#
# Convention : Reuss Voigt Hill
#
# Bulk Modulus (GPa) = 43.54772 44.13932 43.84352
# Shear Modulus (GPa) = 21.14608 24.53925 22.84266
#
# Velocity S-wave (km/s) = 3.28033 3.53373 3.40938
# Velocity P-wave (km/s) = 6.04214 6.25386 6.14891
#
# Compressibility (1/GPa) = 0.02296332
#
# Stress axis : x y z
#
# Youngs Moduli (GPa) = 37.73161 35.41653 70.71496
#
# Poissons Ratio (x) = 0.55764 0.35882
# Poissons Ratio (y) = 0.59410 0.15123
# Poissons Ratio (z) = 0.19146 0.07574
#
# Static dielectric constant tensor:
#      x y z
#    x 3.503320 -0.000110 -0.064350 
#    y -0.000110 3.455300 -0.000140 
#    z -0.064350 -0.000140 3.418820 
# 
# 
# High freq. dielectric constant tensor:
#      x y z
#    x 1.748550 0.000000 -0.010560 
#    y 0.000000 1.754170 -0.000020 
#    z -0.010560 -0.000020 1.758430 
# 
# From -- ./inp_files/33811.got.cif
#   From: 2010.06.25/outbox.cif.g09.slc.cpg/sg9_17_cif.got.tgz:33811.got - 2010.06.27 21:40:51.
