data_PCOD8054661
_publ_section_title
;
Structure prediction by ZEFSAII (Michael W. Deem and Ramdas Pophale) SiO2 
 PCOD8054661
Probable space group: C C
;
_chemical_formula_sum "Si O2"
_cell_formula_units_Z 28
_cell_length_a 12.034049
_cell_length_b 9.037538
_cell_length_c 14.725249
_cell_angle_alpha 90.000000
_cell_angle_beta 64.525612
_cell_angle_gamma 90.000000
_cell_volume 1445.790452
_symmetry_space_group_name_H-M "C C"
_symmetry_group_IT_number 9
_symmetry_cell_setting 'monoclinic'
loop_
_space_group_symop_operation_xyz
x,y,z
x,-y,1/2+z
1/2+x,1/2+y,z
1/2+x,1/2-y,1/2+z
loop_
_atom_site_type_symbol
_atom_site_label
_atom_site_fract_x
_atom_site_fract_y
_atom_site_fract_z
Si Si1 0.122710 0.335033 0.580830
Si Si2 0.564939 0.622810 0.444747
Si Si3 0.773293 0.421611 0.300969
Si Si4 0.874835 0.874649 0.557462
Si Si5 0.973852 0.596832 0.883046
Si Si6 0.169292 0.638680 0.260254
Si Si7 0.432197 0.052394 0.574895
O O1 0.076902 0.197149 0.538805
O O2 0.270378 0.351336 0.516371
O O3 0.092839 0.304279 0.698023
O O4 0.058033 0.487068 0.572025
O O5 0.693927 0.554744 0.368642
O O6 0.462674 0.499336 0.490258
O O7 0.522701 0.738446 0.383356
O O8 0.690469 0.272875 0.323495
O O9 0.819133 0.466244 0.184416
O O10 0.891712 0.396729 0.322497
O O11 0.803247 0.918972 0.676578
O O12 0.952950 0.724959 0.545250
O O13 0.093967 0.492028 0.833747
O O14 0.895154 0.537284 0.996622
#
# Coordination Sequence:
#
# PCOD8054661 Si02
#       7
#     4   4   4   4   4   4   4
#     4   9  20  41  61  85 121 158 201 252 297 354
#     4  11  24  37  62  95 117 159 212 238 310 361
#     4  11  22  41  60  93 123 161 203 252 300 367
#     4   9  20  39  60  87 118 156 201 250 297 356
#     4  11  23  40  62  91 123 161 202 255 301 362
#     4   9  21  42  61  86 125 159 202 249 309 348
#     4  10  20  40  66  85 123 164 201 248 310 354
#
# _framework density 19.366568999999998
#
# number of rings (size 3 to 8) (size 9 to 14) (size 15 to 20)
#    0.857    1.143    1.429    1.714    0.000    5.714 
#    5.143    1.429    0.000    0.000    0.000    0.000 
#    0.000    0.000    0.000    0.000    0.000    0.000 
#
# Total GULP energy -173530.782652 kJ/mol
# GULP energy per Si atom -12395.055904 kJ/mol
# Density = 1.932249 g / cm^3
# Si number density = 19.366569 Si / 1000 Ang^3
#
#
#
# Elastic Constant Matrix: (Units=GPa)
#
#
# Indices 1 2 3 4 5 6 
#
# 1 82.3289 49.0866 15.8936 0.0000 1.5589 0.0000
# 2 49.0866 119.1802 31.2805 0.0000 -7.4347 0.0000
# 3 15.8936 31.2805 58.9643 0.0000 1.2413 0.0000
# 4 0.0000 0.0000 0.0000 31.0248 0.0000 -0.8049
# 5 1.5589 -7.4347 1.2413 0.0000 22.7062 0.0000
# 6 0.0000 0.0000 0.0000 -0.8049 0.0000 30.8445
#
#
#
# Elastic Compliance Matrix: (Units=1/GPa)
#
#
# Indices 1 2 3 4 5 6 
#
# 1 0.016382 -0.006752 -0.000764 0.000000 -0.003294 0.000000
# 2 -0.006752 0.012813 -0.005081 0.000000 0.004937 0.000000
# 3 -0.000764 -0.005081 0.019918 0.000000 -0.002700 0.000000
# 4 0.000000 0.000000 0.000000 0.032254 0.000000 0.000842
# 5 -0.003294 0.004937 -0.002700 0.000000 0.046031 0.000000
# 6 0.000000 0.000000 0.000000 0.000842 0.000000 0.032443
#
#
# Mechanical properties :
#
#
# Convention : Reuss Voigt Hill
#
# Bulk Modulus (GPa) = 41.81020 50.33274 46.07147
# Shear Modulus (GPa) = 25.90548 27.86263 26.88406
#
# Velocity S-wave (km/s) = 3.66134 3.79713 3.72986
# Velocity P-wave (km/s) = 6.28567 6.72831 6.51075
#
# Compressibility (1/GPa) = 0.02391761
#
# Stress axis : x y z
#
# Youngs Moduli (GPa) = 61.04209 78.04406 50.20596
#
# Poissons Ratio (x) = 0.52696 0.03838
# Poissons Ratio (y) = 0.41216 0.25511
# Poissons Ratio (z) = 0.04666 0.39657
#
# Static dielectric constant tensor:
#      x y z
#    x 3.462660 0.000000 0.076080 
#    y 0.000000 3.473890 0.000000 
#    z 0.076080 0.000000 3.550420 
# 
# 
# High freq. dielectric constant tensor:
#      x y z
#    x 1.747420 0.000000 0.004310 
#    y 0.000000 1.749910 0.000000 
#    z 0.004310 0.000000 1.754480 
# 
# From -- ./inp_files/24129.got.cif
#   From: 2010.06.25/outbox.cif.g09.slc.cpg/sg9_13_cif.got.tgz:24129.got - 2010.06.27 21:40:51.
