data_PCOD8054726
_publ_section_title
;
Structure prediction by ZEFSAII (Michael W. Deem and Ramdas Pophale) SiO2 
 PCOD8054726
Probable space group: C C
;
_chemical_formula_sum "Si O2"
_cell_formula_units_Z 28
_cell_length_a 6.660907
_cell_length_b 19.358935
_cell_length_c 11.559095
_cell_angle_alpha 90.000000
_cell_angle_beta 120.681884
_cell_angle_gamma 90.000000
_cell_volume 1281.870081
_symmetry_space_group_name_H-M "C C"
_symmetry_group_IT_number 9
_symmetry_cell_setting 'monoclinic'
loop_
_space_group_symop_operation_xyz
x,y,z
x,-y,1/2+z
1/2+x,1/2+y,z
1/2+x,1/2-y,1/2+z
loop_
_atom_site_type_symbol
_atom_site_label
_atom_site_fract_x
_atom_site_fract_y
_atom_site_fract_z
Si Si1 0.745860 0.386825 0.088990
Si Si2 0.471699 0.629434 0.066187
Si Si3 0.429471 0.318516 0.176479
Si Si4 0.966545 0.329036 0.753533
Si Si5 0.928933 0.721728 0.482278
Si Si6 0.744974 0.929787 0.292702
Si Si7 0.383086 0.579010 0.296981
O O1 0.574476 0.371816 0.143580
O O2 0.837925 0.314340 0.070258
O O3 0.962954 0.430423 0.202757
O O4 0.615320 0.424347 0.944163
O O5 0.354370 0.699771 0.983862
O O6 0.417557 0.616609 0.184852
O O7 0.750403 0.635421 0.121040
O O8 0.345112 0.569354 0.953836
O O9 0.564400 0.246806 0.244361
O O10 0.357923 0.362127 0.267834
O O11 0.203849 0.290405 0.043913
O O12 0.182565 0.381628 0.812424
O O13 0.833128 0.313378 0.836972
O O14 0.817255 0.000235 0.250830
#
# Coordination Sequence:
#
# PCOD8054726 Si02
#       7
#     4   4   4   4   4   4   4
#     4  11  24  44  70  96 134 179 227 287 340 410
#     4  11  25  46  69 101 142 177 228 289 340 414
#     4  10  22  43  67  96 133 176 226 279 341 410
#     4  11  22  42  71 103 133 174 230 284 343 410
#     4  10  20  42  71 101 134 172 225 286 349 398
#     4  11  28  44  66  99 140 187 227 280 350 413
#     4  12  27  43  70 102 136 185 233 281 349 415
#
# _framework density 21.843088999999999
#
# number of rings (size 3 to 8) (size 9 to 14) (size 15 to 20)
#    0.000    1.143    4.286    0.857    4.000    2.286 
#    0.000    0.000    0.000    0.000    0.000    0.000 
#    0.000    0.000    0.000    0.000    0.000    0.000 
#
# Total GULP energy -173483.918458 kJ/mol
# GULP energy per Si atom -12391.708461 kJ/mol
# Density = 2.179337 g / cm^3
# Si number density = 21.843089 Si / 1000 Ang^3
#
#
#
# Elastic Constant Matrix: (Units=GPa)
#
#
# Indices 1 2 3 4 5 6 
#
# 1 83.8297 29.4741 43.4710 0.0000 -0.1144 0.0000
# 2 29.4741 107.5372 33.7044 0.0000 9.4092 0.0000
# 3 43.4710 33.7044 124.6180 0.0000 4.2795 0.0000
# 4 0.0000 0.0000 0.0000 28.7857 0.0000 -2.8096
# 5 -0.1144 9.4092 4.2795 0.0000 34.8982 0.0000
# 6 0.0000 0.0000 0.0000 -2.8096 0.0000 26.9143
#
#
#
# Elastic Compliance Matrix: (Units=1/GPa)
#
#
# Indices 1 2 3 4 5 6 
#
# 1 0.015338 -0.002878 -0.004620 0.000000 0.001393 0.000000
# 2 -0.002878 0.010907 -0.001852 0.000000 -0.002723 0.000000
# 3 -0.004620 -0.001852 0.010163 0.000000 -0.000762 0.000000
# 4 0.000000 0.000000 0.000000 0.035097 0.000000 0.003664
# 5 0.001393 -0.002723 -0.000762 0.000000 0.029487 0.000000
# 6 0.000000 0.000000 0.000000 0.003664 0.000000 0.037537
#
#
# Mechanical properties :
#
#
# Convention : Reuss Voigt Hill
#
# Bulk Modulus (GPa) = 56.47222 58.80930 57.64076
# Shear Modulus (GPa) = 30.64977 32.07533 31.36255
#
# Velocity S-wave (km/s) = 3.74997 3.83618 3.79332
# Velocity P-wave (km/s) = 6.68277 6.82669 6.75511
#
# Compressibility (1/GPa) = 0.01770782
#
# Stress axis : x y z
#
# Youngs Moduli (GPa) = 65.19549 91.68656 98.39277
#
# Poissons Ratio (x) = 0.26386 0.45458
# Poissons Ratio (y) = 0.18762 0.18227
# Poissons Ratio (z) = 0.30121 0.16984
#
# Static dielectric constant tensor:
#      x y z
#    x 3.729000 0.000000 0.130480 
#    y 0.000000 3.791400 0.000000 
#    z 0.130480 0.000000 4.147730 
# 
# 
# High freq. dielectric constant tensor:
#      x y z
#    x 1.845190 0.000000 0.002800 
#    y 0.000000 1.856130 0.000000 
#    z 0.002800 0.000000 1.867650 
# 
# From -- ./inp_files/13229.got.cif
#   From: 2010.06.25/outbox.cif.g09.slc.cpg/sg9_7_cif.got.tgz:13229.got - 2010.06.27 21:40:51.
