data_PCOD8054158
_publ_section_title
;
Structure prediction by ZEFSAII (Michael W. Deem and Ramdas Pophale) SiO2 
 PCOD8054158
Probable space group: C M
;
_chemical_formula_sum "Si O2"
_cell_formula_units_Z 16
_cell_length_a 15.000000
_cell_length_b 18.000000
_cell_length_c 12.000000
_cell_angle_alpha 90.000000
_cell_angle_beta 30.000000
_cell_angle_gamma 90.000000
_cell_volume 1620.000000
_symmetry_space_group_name_H-M "C M"
_symmetry_group_IT_number 8
_symmetry_cell_setting 'monoclinic'
loop_
_space_group_symop_operation_xyz
x,y,z
x,-y,z
1/2+x,1/2+y,z
1/2+x,1/2-y,z
loop_
_atom_site_type_symbol
_atom_site_label
_atom_site_fract_x
_atom_site_fract_y
_atom_site_fract_z
Si Si1 0.675300 0.180206 0.489490
Si Si2 0.625881 0.915138 0.337019
Si Si3 0.482516 0.581434 0.568615
Si Si4 0.669817 0.127734 0.044153
Si Si5 0.438610 0.325341 0.394657
Si Si6 0.263869 0.207129 0.907575
Si Si7 0.801018 0.673962 0.626906
Si Si8 0.758899 0.345989 0.436094
O O1 0.727626 0.133006 0.322579
O O2 0.767622 0.148691 0.503886
O O3 0.459971 0.177542 0.728313
O O4 0.751803 0.263231 0.392721
O O5 0.706531 0.903398 0.127752
O O6 0.418407 0.892924 0.549408
O O7 0.639884 0.000000 0.360241
O O8 0.534133 0.500000 0.469809
O O9 0.458012 0.633021 0.488936
O O10 0.640012 0.604755 0.483127
O O11 0.289845 0.576822 0.835080
O O12 0.464515 0.125660 0.223170
O O13 0.759967 0.207926 0.945575
O O14 0.429015 0.237654 0.434544
O O15 0.618728 0.340836 0.130928
O O16 0.202086 0.204438 0.843456
O O17 0.680549 0.649962 0.649907
#
# Coordination Sequence:
#
# PCOD8054158 Si02
#       8
#     4   4   4   4   4   4   4   4
#     4  10  21  38  63  94 117 158 205 256 301 359
#     4  10  20  36  59  90 127 158 195 247 308 368
#     4  12  26  42  59  88 133 168 203 249 308 378
#     4  11  21  39  65  92 119 158 202 259 310 361
#     4  11  22  41  59  91 121 158 209 252 298 354
#     4  11  19  38  65  93 118 149 201 262 304 355
#     4   9  19  37  61  91 115 152 203 255 301 352
#     4  10  21  39  63  95 119 157 208 256 307 357
#
# _framework density 9.8765429999999999
#
# number of rings (size 3 to 8) (size 9 to 14) (size 15 to 20)
#    0.000    1.500    6.250    1.125    0.000    5.000 
#    0.000    2.500    0.000    0.000    0.000    0.000 
#    0.000    0.000    0.000    0.000    0.000    0.000 
#
# Total GULP energy -198227.979259 kJ/mol
# GULP energy per Si atom -12389.248704 kJ/mol
# Density = 0.985406 g / cm^3
# Si number density = 9.876543 Si / 1000 Ang^3
#
#
#
# Elastic Constant Matrix: (Units=GPa)
#
#
# Indices 1 2 3 4 5 6 
#
# 1 166.6647 35.1495 46.7099 -0.0067 -7.4845 0.0046
# 2 35.1495 68.0744 10.7120 0.0080 0.3796 -0.0058
# 3 46.7099 10.7120 92.3604 0.0148 0.8759 -0.0081
# 4 -0.0067 0.0080 0.0148 12.5001 -0.0070 -3.9388
# 5 -7.4845 0.3796 0.8759 -0.0070 33.1714 0.0064
# 6 0.0046 -0.0058 -0.0081 -3.9388 0.0064 12.5522
#
#
#
# Elastic Compliance Matrix: (Units=1/GPa)
#
#
# Indices 1 2 3 4 5 6 
#
# 1 0.007821 -0.003487 -0.003569 0.000010 0.001899 -0.000005
# 2 -0.003487 0.016518 -0.000143 -0.000011 -0.000972 0.000006
# 3 -0.003569 -0.000143 0.012659 -0.000016 -0.001138 0.000005
# 4 0.000010 -0.000011 -0.000016 0.088777 0.000016 0.027857
# 5 0.001899 -0.000972 -0.001138 0.000016 0.030616 -0.000012
# 6 -0.000005 0.000006 0.000005 0.027857 -0.000012 0.088409
#
#
# Mechanical properties :
#
#
# Convention : Reuss Voigt Hill
#
# Bulk Modulus (GPa) = 44.24674 56.91579 50.58127
# Shear Modulus (GPa) = 18.74536 27.27995 23.01265
#
# Velocity S-wave (km/s) = 3.08390 3.72028 3.41694
# Velocity P-wave (km/s) = 5.92698 6.87969 6.42103
#
# Compressibility (1/GPa) = 0.02260053
#
# Stress axis : x y z
#
# Youngs Moduli (GPa) = 127.86004 60.53869 78.99233
#
# Poissons Ratio (x) = 0.21112 0.28192
# Poissons Ratio (y) = 0.44589 0.01129
# Poissons Ratio (z) = 0.45632 0.00865
#
# Static dielectric constant tensor:
#      x y z
#    x 4.034240 -0.000010 0.084490 
#    y -0.000010 3.361110 0.000010 
#    z 0.084490 0.000010 3.629650 
# 
# 
# High freq. dielectric constant tensor:
#      x y z
#    x 1.799030 0.000000 0.005750 
#    y 0.000000 1.746290 0.000000 
#    z 0.005750 0.000000 1.754460 
# 
# From -- ./inp_files/22384.got.cif
#   From: 2010.03.12/outbox.ucp.g09.slc.cvg/sg8_12_cif.got.tgz:22384.got - 2010.06.21 13:25:46.
