data_PCOD8054436
_publ_section_title
;
Structure prediction by ZEFSAII (Michael W. Deem and Ramdas Pophale) SiO2 
 PCOD8054436
Probable space group: C C
;
_chemical_formula_sum "Si O2"
_cell_formula_units_Z 24
_cell_length_a 9.653667
_cell_length_b 11.700364
_cell_length_c 8.549678
_cell_angle_alpha 90.000000
_cell_angle_beta 70.888843
_cell_angle_gamma 90.000000
_cell_volume 912.473963
_symmetry_space_group_name_H-M "C C"
_symmetry_group_IT_number 9
_symmetry_cell_setting 'monoclinic'
loop_
_space_group_symop_operation_xyz
x,y,z
x,-y,1/2+z
1/2+x,1/2+y,z
1/2+x,1/2-y,1/2+z
loop_
_atom_site_type_symbol
_atom_site_label
_atom_site_fract_x
_atom_site_fract_y
_atom_site_fract_z
Si Si1 0.093640 0.579367 0.934390
Si Si2 0.875064 0.746851 0.905408
Si Si3 0.086287 0.350210 0.102633
Si Si4 0.565547 0.649790 0.834994
Si Si5 0.058194 0.079367 0.503237
Si Si6 0.776770 0.253148 0.032219
O O1 0.154691 0.591168 0.733854
O O2 0.214511 0.627762 0.010435
O O3 0.942580 0.654290 0.003358
O O4 0.054380 0.448965 0.988090
O O5 0.934357 0.713754 0.708755
O O6 0.937324 0.872237 0.927191
O O7 0.697802 0.753978 0.989771
O O8 0.497144 0.591168 0.703773
O O9 0.597455 0.551035 0.949536
O O10 0.717477 0.713755 0.728872
O O11 0.454032 0.746021 0.947856
O O12 0.209254 0.154291 0.434269
#
# Coordination Sequence:
#
# PCOD8054436 Si02
#       6
#     4   4   4   4   4   4
#     4   9  20  35  69  88 127 173 213 256 336 381
#     4   9  20  35  67  89 128 170 213 258 334 381
#     4  10  19  40  66  89 127 173 212 264 326 385
#     4  10  19  40  66  89 127 173 212 264 326 385
#     4   9  20  35  69  88 127 173 213 256 336 381
#     4   9  20  35  67  89 128 170 213 258 334 381
#
# _framework density 26.302119999999999
#
# number of rings (size 3 to 8) (size 9 to 14) (size 15 to 20)
#    2.000    0.667    0.000    2.000    0.000    0.000 
#    0.000    3.333   14.667    0.000    0.000    0.000 
#    0.000    0.000    0.000    0.000    0.000    0.000 
#
# Total GULP energy -148728.693556 kJ/mol
# GULP energy per Si atom -12394.057796 kJ/mol
# Density = 2.624225 g / cm^3
# Si number density = 26.302120 Si / 1000 Ang^3
#
#
#
# Elastic Constant Matrix: (Units=GPa)
#
#
# Indices 1 2 3 4 5 6 
#
# 1 107.1023 39.3662 62.0653 0.0000 -53.7451 0.0000
# 2 39.3662 156.5971 86.4771 0.0000 -9.9335 0.0000
# 3 62.0653 86.4771 190.7782 0.0000 -7.6421 0.0000
# 4 0.0000 0.0000 0.0000 56.5000 0.0000 13.9548
# 5 -53.7451 -9.9335 -7.6421 0.0000 50.7253 0.0000
# 6 0.0000 0.0000 0.0000 13.9548 0.0000 29.7937
#
#
#
# Elastic Compliance Matrix: (Units=1/GPa)
#
#
# Indices 1 2 3 4 5 6 
#
# 1 0.028891 -0.001154 -0.007705 0.000000 0.029225 0.000000
# 2 -0.001154 0.008625 -0.003537 0.000000 -0.000066 0.000000
# 3 -0.007705 -0.003537 0.009051 0.000000 -0.007493 0.000000
# 4 0.000000 0.000000 0.000000 0.020014 0.000000 -0.009374
# 5 0.029225 -0.000066 -0.007493 0.000000 0.049536 0.000000
# 6 0.000000 0.000000 0.000000 -0.009374 0.000000 0.037955
#
#
# Mechanical properties :
#
#
# Convention : Reuss Voigt Hill
#
# Bulk Modulus (GPa) = 45.92318 92.25496 69.08907
# Shear Modulus (GPa) = 26.86376 45.17507 36.01942
#
# Velocity S-wave (km/s) = 3.19933 4.14882 3.70462
# Velocity P-wave (km/s) = 5.58081 7.62244 6.68008
#
# Compressibility (1/GPa) = 0.02177550
#
# Stress axis : x y z
#
# Youngs Moduli (GPa) = 34.61227 115.94519 110.47914
#
# Poissons Ratio (x) = 0.13379 0.85129
# Poissons Ratio (y) = 0.03994 0.39074
# Poissons Ratio (z) = 0.26670 0.41007
#
# Static dielectric constant tensor:
#      x y z
#    x 4.643580 0.000000 0.121320 
#    y 0.000000 4.343480 0.000000 
#    z 0.121320 0.000000 4.534070 
# 
# 
# High freq. dielectric constant tensor:
#      x y z
#    x 2.076210 0.000000 0.018030 
#    y 0.000000 2.041250 0.000000 
#    z 0.018030 0.000000 2.056040 
# 
# From -- ./inp_files/16074.got.cif
#   From: 2010.06.25/outbox.cif.g09.slc.cpg/sg9_9_cif.got.tgz:16074.got - 2010.06.27 21:40:51.
