data_PCOD8054217
_publ_section_title
;
Structure prediction by ZEFSAII (Michael W. Deem and Ramdas Pophale) SiO2 
 PCOD8054217
Probable space group: C C
;
_chemical_formula_sum "Si O2"
_cell_formula_units_Z 28
_cell_length_a 22.400175
_cell_length_b 11.081153
_cell_length_c 17.467031
_cell_angle_alpha 90.000000
_cell_angle_beta 20.634236
_cell_angle_gamma 90.000000
_cell_volume 1527.891360
_symmetry_space_group_name_H-M "C C"
_symmetry_group_IT_number 9
_symmetry_cell_setting 'monoclinic'
loop_
_space_group_symop_operation_xyz
x,y,z
x,-y,1/2+z
1/2+x,1/2+y,z
1/2+x,1/2-y,1/2+z
loop_
_atom_site_type_symbol
_atom_site_label
_atom_site_fract_x
_atom_site_fract_y
_atom_site_fract_z
Si Si1 0.436650 0.919580 0.417260
Si Si2 0.227668 0.898050 0.264647
Si Si3 0.596247 0.607868 0.090785
Si Si4 0.992591 0.131819 0.761217
Si Si5 0.491466 0.704773 0.923938
Si Si6 0.251846 0.260524 0.031086
Si Si7 0.142460 0.362619 0.624957
O O1 0.299548 0.844421 0.533628
O O2 0.588110 0.830259 0.262778
O O3 0.342965 0.986629 0.600824
O O4 0.523921 0.020026 0.257338
O O5 0.139432 0.915000 0.451145
O O6 0.081566 0.881016 0.376886
O O7 0.332836 0.775018 0.149808
O O8 0.625279 0.476559 0.093113
O O9 0.401566 0.645710 0.336734
O O10 0.714258 0.703578 0.992637
O O11 0.929632 0.125514 0.925318
O O12 0.082242 0.261318 0.635700
O O13 0.841935 0.109741 0.880253
O O14 0.622203 0.805543 0.734703
#
# Coordination Sequence:
#
# PCOD8054217 Si02
#       7
#     4   4   4   4   4   4   4
#     4  10  20  38  60  79 107 149 192 217 264 341
#     4  11  20  34  56  86 115 138 180 239 274 313
#     4  11  22  35  54  86 116 142 180 234 282 312
#     4  10  18  33  56  84 103 140 186 228 262 323
#     4   9  17  32  56  81 107 142 185 218 268 323
#     4  10  22  38  57  77 113 155 183 214 273 345
#     4   9  17  32  57  83  97 134 192 226 251 313
#
# _framework density 18.325911000000001
#
# number of rings (size 3 to 8) (size 9 to 14) (size 15 to 20)
#    0.857    1.143    2.857    1.714    2.000    0.000 
#    0.000    1.429    0.000    0.000    0.000    0.000 
#    0.000    0.000    0.000    0.000    0.000    0.000 
#
# Total GULP energy -173433.190082 kJ/mol
# GULP energy per Si atom -12388.085006 kJ/mol
# Density = 1.828420 g / cm^3
# Si number density = 18.325911 Si / 1000 Ang^3
#
#
#
# Elastic Constant Matrix: (Units=GPa)
#
#
# Indices 1 2 3 4 5 6 
#
# 1 62.7906 34.6755 37.5925 -0.0012 -6.6224 0.0010
# 2 34.6755 108.9711 29.0346 -0.0006 -1.9457 0.0003
# 3 37.5925 29.0346 62.8418 -0.0007 -1.0878 0.0008
# 4 -0.0012 -0.0006 -0.0007 29.8549 0.0007 -8.4931
# 5 -6.6224 -1.9457 -1.0878 0.0007 27.0671 -0.0006
# 6 0.0010 0.0003 0.0008 -8.4931 -0.0006 28.4294
#
#
#
# Elastic Compliance Matrix: (Units=1/GPa)
#
#
# Indices 1 2 3 4 5 6 
#
# 1 0.027808 -0.004948 -0.014247 0.000001 0.005875 0.000000
# 2 -0.004948 0.011354 -0.002294 0.000000 -0.000487 0.000000
# 3 -0.014247 -0.002294 0.025450 0.000000 -0.002628 0.000000
# 4 0.000001 0.000000 0.000000 0.036606 -0.000001 0.010936
# 5 0.005875 -0.000487 -0.002628 -0.000001 0.038242 0.000001
# 6 0.000000 0.000000 0.000000 0.010936 0.000001 0.038442
#
#
# Mechanical properties :
#
#
# Convention : Reuss Voigt Hill
#
# Bulk Modulus (GPa) = 46.22501 48.57874 47.40187
# Shear Modulus (GPa) = 21.92104 25.95702 23.93903
#
# Velocity S-wave (km/s) = 3.46233 3.76761 3.61819
# Velocity P-wave (km/s) = 6.42357 6.74479 6.58614
#
# Compressibility (1/GPa) = 0.02163331
#
# Stress axis : x y z
#
# Youngs Moduli (GPa) = 35.96141 88.07637 39.29232
#
# Poissons Ratio (x) = 0.43577 0.55980
# Poissons Ratio (y) = 0.17793 0.09015
# Poissons Ratio (z) = 0.51234 0.20208
#
# Static dielectric constant tensor:
#      x y z
#    x 3.054680 0.000000 -0.216100 
#    y 0.000000 3.434110 0.000000 
#    z -0.216100 0.000000 3.194220 
# 
# 
# High freq. dielectric constant tensor:
#      x y z
#    x 1.684720 0.000000 -0.029220 
#    y 0.000000 1.719350 0.000000 
#    z -0.029220 0.000000 1.692610 
# 
# From -- ./inp_files/11643.got.cif
#   From: 2010.06.25/outbox.cif.g09.slc.cpg/sg9_6_cif.got.tgz:11643.got - 2010.06.27 21:40:51.
