data_PCOD8054233
_publ_section_title
;
Structure prediction by ZEFSAII (Michael W. Deem and Ramdas Pophale) SiO2 
 PCOD8054233
Probable space group: C C
;
_chemical_formula_sum "Si O2"
_cell_formula_units_Z 24
_cell_length_a 30.236462
_cell_length_b 7.836688
_cell_length_c 5.235464
_cell_angle_alpha 90.000000
_cell_angle_beta 69.662466
_cell_angle_gamma 90.000000
_cell_volume 1163.227798
_symmetry_space_group_name_H-M "C C"
_symmetry_group_IT_number 9
_symmetry_cell_setting 'monoclinic'
loop_
_space_group_symop_operation_xyz
x,y,z
x,-y,1/2+z
1/2+x,1/2+y,z
1/2+x,1/2-y,1/2+z
loop_
_atom_site_type_symbol
_atom_site_label
_atom_site_fract_x
_atom_site_fract_y
_atom_site_fract_z
Si Si1 0.714990 0.607458 0.539230
Si Si2 0.822404 0.609730 0.312050
Si Si3 0.584349 0.822479 0.236244
Si Si4 0.974572 0.604098 0.978974
Si Si5 0.400388 0.610159 0.669744
Si Si6 0.124538 0.696333 0.155331
O O1 0.705230 0.469816 0.337729
O O2 0.768450 0.674361 0.411201
O O3 0.680128 0.767499 0.571320
O O4 0.833719 0.513046 0.552009
O O5 0.854406 0.775050 0.226012
O O6 0.529952 0.864028 0.378464
O O7 0.603518 0.715756 0.440221
O O8 0.615089 0.995319 0.146390
O O9 0.595146 0.722028 0.951951
O O10 0.959192 0.509113 0.751469
O O11 0.948277 0.783432 0.042455
O O12 0.399686 0.466738 0.454373
#
# Coordination Sequence:
#
# PCOD8054233 Si02
#       6
#     4   4   4   4   4   4
#     4  10  21  37  59  87 122 158 199 242 302 363
#     4  10  21  43  68  90 119 170 214 244 299 393
#     4  10  19  35  59  80 116 148 212 238 277 355
#     4  12  21  41  69  87 117 171 216 250 295 382
#     4  12  26  43  61  97 132 151 201 273 327 357
#     4  10  18  35  54  87 114 148 194 257 274 340
#
# _framework density 20.632245000000001
#
# number of rings (size 3 to 8) (size 9 to 14) (size 15 to 20)
#    0.000    1.333    3.333    4.000    0.000    0.000 
#    6.000    5.000    0.000    0.000    0.000    0.000 
#    0.000    0.000    0.000    0.000    0.000    0.000 
#
# Total GULP energy -148785.255518 kJ/mol
# GULP energy per Si atom -12398.771293 kJ/mol
# Density = 2.058528 g / cm^3
# Si number density = 20.632245 Si / 1000 Ang^3
#
#
#
# Elastic Constant Matrix: (Units=GPa)
#
#
# Indices 1 2 3 4 5 6 
#
# 1 88.1832 37.5074 22.6592 0.0000 -17.0496 0.0000
# 2 37.5074 52.7204 9.8887 0.0000 -20.7487 0.0000
# 3 22.6592 9.8887 132.3500 0.0000 21.8344 0.0000
# 4 0.0000 0.0000 0.0000 27.3763 0.0000 3.2524
# 5 -17.0496 -20.7487 21.8344 0.0000 35.9561 0.0000
# 6 0.0000 0.0000 0.0000 3.2524 0.0000 23.8041
#
#
#
# Elastic Compliance Matrix: (Units=1/GPa)
#
#
# Indices 1 2 3 4 5 6 
#
# 1 0.017135 -0.010063 -0.002850 0.000000 0.004049 0.000000
# 2 -0.010063 0.033306 -0.003500 0.000000 0.016573 0.000000
# 3 -0.002850 -0.003500 0.009848 0.000000 -0.009351 0.000000
# 4 0.000000 0.000000 0.000000 0.037131 0.000000 -0.005073
# 5 0.004049 0.016573 -0.009351 0.000000 0.044974 0.000000
# 6 0.000000 0.000000 0.000000 -0.005073 0.000000 0.042703
#
#
# Mechanical properties :
#
#
# Convention : Reuss Voigt Hill
#
# Bulk Modulus (GPa) = 36.41077 45.92937 41.17007
# Shear Modulus (GPa) = 22.01914 30.97386 26.49650
#
# Velocity S-wave (km/s) = 3.27038 3.87878 3.58750
# Velocity P-wave (km/s) = 5.65211 6.50916 6.09572
#
# Compressibility (1/GPa) = 0.02746440
#
# Stress axis : x y z
#
# Youngs Moduli (GPa) = 58.35980 30.02468 101.54553
#
# Poissons Ratio (x) = 0.30212 0.28938
# Poissons Ratio (y) = 0.58725 0.35540
# Poissons Ratio (z) = 0.16631 0.10508
#
# Static dielectric constant tensor:
#      x y z
#    x 4.059110 0.000000 0.495970 
#    y 0.000000 3.648430 0.000000 
#    z 0.495970 0.000000 4.853050 
# 
# 
# High freq. dielectric constant tensor:
#      x y z
#    x 1.821700 0.000000 0.010920 
#    y 0.000000 1.767110 0.000000 
#    z 0.010920 0.000000 1.842870 
# 
# From -- ./inp_files/3362.got.cif
#   From: 2010.06.25/outbox.cif.g09.slc.cpg/sg9_2_cif.got.tgz:3362.got - 2010.06.27 21:40:51.
