data_PCOD8054829
_publ_section_title
;
Structure prediction by ZEFSAII (Michael W. Deem and Ramdas Pophale) SiO2 
 PCOD8054829
Probable space group: C C
;
_chemical_formula_sum "Si O2"
_cell_formula_units_Z 32
_cell_length_a 11.643659
_cell_length_b 21.677698
_cell_length_c 5.123672
_cell_angle_alpha 90.000000
_cell_angle_beta 92.991220
_cell_angle_gamma 90.000000
_cell_volume 1291.492382
_symmetry_space_group_name_H-M "C C"
_symmetry_group_IT_number 9
_symmetry_cell_setting 'monoclinic'
loop_
_space_group_symop_operation_xyz
x,y,z
x,-y,1/2+z
1/2+x,1/2+y,z
1/2+x,1/2-y,1/2+z
loop_
_atom_site_type_symbol
_atom_site_label
_atom_site_fract_x
_atom_site_fract_y
_atom_site_fract_z
Si Si1 0.173630 0.975097 0.752230
Si Si2 0.869310 0.843032 0.999781
Si Si3 0.217658 0.349635 0.472547
Si Si4 0.551368 0.043198 0.802298
Si Si5 0.422890 0.475087 0.896777
Si Si6 0.548971 0.248553 0.820956
Si Si7 0.380630 0.850151 0.170600
Si Si8 0.728377 0.656609 0.144272
O O1 0.160344 0.907720 0.626459
O O2 0.048253 0.001785 0.824437
O O3 0.238388 0.018641 0.541818
O O4 0.780452 0.854084 0.754976
O O5 0.936319 0.907603 0.021234
O O6 0.963340 0.790021 0.980458
O O7 0.805688 0.826920 0.260397
O O8 0.161993 0.413392 0.364431
O O9 0.123478 0.296343 0.514307
O O10 0.438215 0.086370 0.778110
O O11 0.552310 0.008001 0.527328
O O12 0.358019 0.481560 0.607508
O O13 0.474186 0.203540 0.628685
O O14 0.635036 0.289877 0.661519
O O15 0.292377 0.828226 0.383329
O O16 0.317363 0.854316 0.888696
#
# Coordination Sequence:
#
# PCOD8054829 Si02
#       8
#     4   4   4   4   4   4   4   4
#     4  10  21  38  60  92 129 164 206 259 320 389
#     4  12  24  44  69  98 131 179 219 275 333 394
#     4  11  27  43  69 101 131 170 231 271 325 400
#     4  11  24  46  72 100 138 175 214 274 334 387
#     4  10  21  38  60  92 129 164 206 259 320 389
#     4  11  26  48  66  96 134 179 218 284 330 387
#     4  11  27  43  69 101 131 170 231 271 325 400
#     4  12  24  44  69  98 131 179 219 275 333 394
#
# _framework density 24.777535
#
# number of rings (size 3 to 8) (size 9 to 14) (size 15 to 20)
#    0.000    1.000    1.250    4.500    0.000   12.000 
#    0.000    0.000    0.000    0.000    0.000    0.000 
#    0.000    0.000    0.000    0.000    0.000    0.000 
#
# Total GULP energy -198289.601155 kJ/mol
# GULP energy per Si atom -12393.100072 kJ/mol
# Density = 2.472114 g / cm^3
# Si number density = 24.777535 Si / 1000 Ang^3
#
#
#
# Elastic Constant Matrix: (Units=GPa)
#
#
# Indices 1 2 3 4 5 6 
#
# 1 71.1497 26.3335 -0.8044 0.0000 -3.5724 0.0000
# 2 26.3335 124.1415 9.1762 0.0000 -7.1604 0.0000
# 3 -0.8044 9.1762 116.4978 0.0000 -3.7744 0.0000
# 4 0.0000 0.0000 0.0000 37.1496 0.0000 -16.4915
# 5 -3.5724 -7.1604 -3.7744 0.0000 22.7794 0.0000
# 6 0.0000 0.0000 0.0000 -16.4915 0.0000 43.6987
#
#
#
# Elastic Compliance Matrix: (Units=1/GPa)
#
#
# Indices 1 2 3 4 5 6 
#
# 1 0.015315 -0.003194 0.000405 0.000000 0.001465 0.000000
# 2 -0.003194 0.008907 -0.000653 0.000000 0.002191 0.000000
# 3 0.000405 -0.000653 0.008680 0.000000 0.001297 0.000000
# 4 0.000000 0.000000 0.000000 0.032335 0.000000 0.012203
# 5 0.001465 0.002191 0.001297 0.000000 0.045033 0.000000
# 6 0.000000 0.000000 0.000000 0.012203 0.000000 0.027489
#
#
# Mechanical properties :
#
#
# Convention : Reuss Voigt Hill
#
# Bulk Modulus (GPa) = 38.43396 42.35552 40.39474
# Shear Modulus (GPa) = 32.61218 39.19780 35.90499
#
# Velocity S-wave (km/s) = 3.63188 3.98174 3.81083
# Velocity P-wave (km/s) = 5.75610 6.18631 5.97508
#
# Compressibility (1/GPa) = 0.02601866
#
# Stress axis : x y z
#
# Youngs Moduli (GPa) = 65.29465 112.26499 115.20648
#
# Poissons Ratio (x) = 0.35859 -0.04664
# Poissons Ratio (y) = 0.20856 0.07519
# Poissons Ratio (z) = -0.02643 0.07327
#
# Static dielectric constant tensor:
#      x y z
#    x 4.533800 0.000000 0.151950 
#    y 0.000000 4.674220 0.000000 
#    z 0.151950 0.000000 4.847840 
# 
# 
# High freq. dielectric constant tensor:
#      x y z
#    x 1.982590 0.000000 0.001890 
#    y 0.000000 2.002310 0.000000 
#    z 0.001890 0.000000 1.993570 
# 
# From -- ./inp_files/1794.got.cif
#   From: 2010.06.25/outbox.cif.g09.slc.cpg/sg9_1_cif.got.tgz:1794.got - 2010.06.27 21:40:51.
