data_PCOD8054443
_publ_section_title
;
Structure prediction by ZEFSAII (Michael W. Deem and Ramdas Pophale) SiO2 
 PCOD8054443
Probable space group: C C
;
_chemical_formula_sum "Si O2"
_cell_formula_units_Z 32
_cell_length_a 21.427419
_cell_length_b 9.268338
_cell_length_c 13.797660
_cell_angle_alpha 90.000000
_cell_angle_beta 142.630758
_cell_angle_gamma 90.000000
_cell_volume 1663.142917
_symmetry_space_group_name_H-M "C C"
_symmetry_group_IT_number 9
_symmetry_cell_setting 'monoclinic'
loop_
_space_group_symop_operation_xyz
x,y,z
x,-y,1/2+z
1/2+x,1/2+y,z
1/2+x,1/2-y,1/2+z
loop_
_atom_site_type_symbol
_atom_site_label
_atom_site_fract_x
_atom_site_fract_y
_atom_site_fract_z
Si Si1 0.816730 0.892259 0.481580
Si Si2 0.423843 0.313337 0.420325
Si Si3 0.965927 0.689149 0.778385
Si Si4 0.510792 0.615525 0.509017
Si Si5 0.947063 0.838345 0.132292
Si Si6 0.652199 0.462519 0.341335
Si Si7 0.872489 0.384550 0.682524
Si Si8 0.606152 0.784427 0.273801
O O1 0.840839 0.845366 0.401393
O O2 0.871455 0.781117 0.621366
O O3 0.694320 0.895178 0.348508
O O4 0.856751 0.052846 0.552868
O O5 0.458655 0.463521 0.413349
O O6 0.371983 0.209664 0.278702
O O7 0.522494 0.232568 0.586266
O O8 0.020851 0.775474 0.932944
O O9 0.921373 0.539609 0.764040
O O10 0.051988 0.657017 0.803915
O O11 0.441410 0.688516 0.509014
O O12 0.624112 0.582455 0.695123
O O13 0.938687 0.689536 0.179338
O O14 0.057208 0.913124 0.293067
O O15 0.756112 0.388970 0.502612
O O16 0.662464 0.633586 0.364216
#
# Coordination Sequence:
#
# PCOD8054443 Si02
#       8
#     4   4   4   4   4   4   4   4
#     4  10  19  41  64  85 119 170 205 243 304 369
#     4   9  21  38  62  91 122 157 208 255 301 362
#     4  11  21  37  61  93 124 153 207 256 299 360
#     4   8  19  43  63  81 122 170 195 245 308 367
#     4   9  21  41  64  83 130 160 203 251 302 366
#     4   9  20  42  62  86 119 168 203 240 315 357
#     4  12  23  37  63  99 120 159 204 260 308 356
#     4  10  20  41  63  90 120 167 205 250 303 367
#
# _framework density 19.240679
#
# number of rings (size 3 to 8) (size 9 to 14) (size 15 to 20)
#    0.750    1.500    3.750    0.750    0.000    4.000 
#    6.750    1.250    0.000    0.000    0.000    0.000 
#    0.000    0.000    0.000    0.000    0.000    0.000 
#
# Total GULP energy -198331.774399 kJ/mol
# GULP energy per Si atom -12395.735900 kJ/mol
# Density = 1.919689 g / cm^3
# Si number density = 19.240679 Si / 1000 Ang^3
#
#
#
# Elastic Constant Matrix: (Units=GPa)
#
#
# Indices 1 2 3 4 5 6 
#
# 1 71.5581 25.4964 44.7026 0.0000 5.8883 0.0000
# 2 25.4964 79.5207 39.8769 0.0000 -12.6383 0.0000
# 3 44.7026 39.8769 93.1971 0.0000 2.3678 0.0000
# 4 0.0000 0.0000 0.0000 29.2734 0.0000 0.6208
# 5 5.8883 -12.6383 2.3678 0.0000 31.9008 0.0000
# 6 0.0000 0.0000 0.0000 0.6208 0.0000 28.4550
#
#
#
# Elastic Compliance Matrix: (Units=1/GPa)
#
#
# Indices 1 2 3 4 5 6 
#
# 1 0.020765 -0.003084 -0.008528 0.000000 -0.004422 0.000000
# 2 -0.003084 0.018124 -0.006485 0.000000 0.008231 0.000000
# 3 -0.008528 -0.006485 0.017654 0.000000 -0.002305 0.000000
# 4 0.000000 0.000000 0.000000 0.034176 0.000000 -0.000746
# 5 -0.004422 0.008231 -0.002305 0.000000 0.035595 0.000000
# 6 0.000000 0.000000 0.000000 -0.000746 0.000000 0.035159
#
#
# Mechanical properties :
#
#
# Convention : Reuss Voigt Hill
#
# Bulk Modulus (GPa) = 49.14219 51.60308 50.37264
# Shear Modulus (GPa) = 24.45574 26.87250 25.66412
#
# Velocity S-wave (km/s) = 3.56904 3.74123 3.65615
# Velocity P-wave (km/s) = 6.52536 6.74837 6.63780
#
# Compressibility (1/GPa) = 0.02034911
#
# Stress axis : x y z
#
# Youngs Moduli (GPa) = 48.15825 55.17485 56.64502
#
# Poissons Ratio (x) = 0.17015 0.48308
# Poissons Ratio (y) = 0.14852 0.36733
# Poissons Ratio (z) = 0.41070 0.35780
#
# Static dielectric constant tensor:
#      x y z
#    x 3.350210 0.000000 -0.001070 
#    y 0.000000 3.375880 0.000000 
#    z -0.001070 0.000000 3.337970 
# 
# 
# High freq. dielectric constant tensor:
#      x y z
#    x 1.738780 0.000000 -0.001690 
#    y 0.000000 1.744070 0.000000 
#    z -0.001690 0.000000 1.738300 
# 
# From -- ./inp_files/27277.got.cif
#   From: 2010.06.25/outbox.cif.g09.slc.cpg/sg9_14_cif.got.tgz:27277.got - 2010.06.27 21:40:51.
