data_PCOD8054466
_publ_section_title
;
Structure prediction by ZEFSAII (Michael W. Deem and Ramdas Pophale) SiO2 
 PCOD8054466
Probable space group: C C
;
_chemical_formula_sum "Si O2"
_cell_formula_units_Z 32
_cell_length_a 17.730028
_cell_length_b 9.311242
_cell_length_c 10.588274
_cell_angle_alpha 90.000000
_cell_angle_beta 90.243796
_cell_angle_gamma 90.000000
_cell_volume 1747.987310
_symmetry_space_group_name_H-M "C C"
_symmetry_group_IT_number 9
_symmetry_cell_setting 'monoclinic'
loop_
_space_group_symop_operation_xyz
x,y,z
x,-y,1/2+z
1/2+x,1/2+y,z
1/2+x,1/2-y,1/2+z
loop_
_atom_site_type_symbol
_atom_site_label
_atom_site_fract_x
_atom_site_fract_y
_atom_site_fract_z
Si Si1 0.607210 0.879248 0.244320
Si Si2 0.127744 0.589046 0.025546
Si Si3 0.875871 0.164390 0.531594
Si Si4 0.353706 0.637041 0.265863
Si Si5 0.525877 0.410953 0.760228
Si Si6 0.046412 0.120752 0.541454
Si Si7 0.777751 0.835610 0.254182
Si Si8 0.299915 0.362959 0.519913
O O1 0.600953 0.954056 0.383131
O O2 0.545844 0.754163 0.232868
O O3 0.689897 0.808324 0.228544
O O4 0.588825 0.989980 0.131567
O O5 0.107779 0.754163 0.052907
O O6 0.217214 0.569090 0.037163
O O7 0.851376 0.231047 0.394573
O O8 0.826812 0.236566 0.642889
O O9 0.963725 0.191675 0.557230
O O10 0.859932 0.994176 0.518155
O O11 0.436408 0.569091 0.248613
O O12 0.293688 0.505825 0.267626
O O13 0.326811 0.730636 0.142888
O O14 0.564796 0.510020 0.654208
O O15 0.552669 0.454055 0.902643
O O16 0.802245 0.768953 0.391204
#
# Coordination Sequence:
#
# PCOD8054466 Si02
#       8
#     4   4   4   4   4   4   4   4
#     4  10  20  33  50  76 107 134 165 210 256 298
#     4  10  20  33  50  76 107 134 165 210 256 298
#     4   9  15  26  47  72  93 121 166 207 239 283
#     4   9  15  26  47  72  93 121 166 207 239 283
#     4  10  20  33  50  76 107 134 165 210 256 298
#     4  10  20  33  50  76 107 134 165 210 256 298
#     4   9  15  26  47  72  93 121 166 207 239 283
#     4   9  15  26  47  72  93 121 166 207 239 283
#
# _framework density 18.306767000000001
#
# number of rings (size 3 to 8) (size 9 to 14) (size 15 to 20)
#    0.000    2.500    5.000    0.000    0.000    1.000 
#    0.000    0.000    0.000    1.500    0.000   10.500 
#    0.000    0.000    0.000    0.000    0.000    0.000 
#
# Total GULP energy -198213.369532 kJ/mol
# GULP energy per Si atom -12388.335596 kJ/mol
# Density = 1.826510 g / cm^3
# Si number density = 18.306767 Si / 1000 Ang^3
#
#
#
# Elastic Constant Matrix: (Units=GPa)
#
#
# Indices 1 2 3 4 5 6 
#
# 1 42.6531 10.0925 14.7286 0.0000 -1.3503 0.0000
# 2 10.0925 29.0567 34.7038 0.0000 -1.4173 0.0000
# 3 14.7286 34.7038 189.3054 0.0000 -5.0703 0.0000
# 4 0.0000 0.0000 0.0000 20.2898 0.0000 -1.7762
# 5 -1.3503 -1.4173 -5.0703 0.0000 23.8756 0.0000
# 6 0.0000 0.0000 0.0000 -1.7762 0.0000 12.1845
#
#
#
# Elastic Compliance Matrix: (Units=1/GPa)
#
#
# Indices 1 2 3 4 5 6 
#
# 1 0.025594 -0.008318 -0.000443 0.000000 0.000860 0.000000
# 2 -0.008318 0.046786 -0.007913 0.000000 0.000626 0.000000
# 3 -0.000443 -0.007913 0.006793 0.000000 0.000948 0.000000
# 4 0.000000 0.000000 0.000000 0.049923 0.000000 0.007278
# 5 0.000860 0.000626 0.000948 0.000000 0.042171 0.000000
# 6 0.000000 0.000000 0.000000 0.007278 0.000000 0.083133
#
#
# Mechanical properties :
#
#
# Convention : Reuss Voigt Hill
#
# Bulk Modulus (GPa) = 21.82281 42.22945 32.02613
# Shear Modulus (GPa) = 16.50041 24.70264 20.60152
#
# Velocity S-wave (km/s) = 3.00547 3.67737 3.35826
# Velocity P-wave (km/s) = 4.89799 6.41470 5.70696
#
# Compressibility (1/GPa) = 0.04582361
#
# Stress axis : x y z
#
# Youngs Moduli (GPa) = 39.07237 21.37383 147.21111
#
# Poissons Ratio (x) = 0.17779 0.06526
# Poissons Ratio (y) = 0.32501 1.16488
# Poissons Ratio (z) = 0.01732 0.16913
#
# Static dielectric constant tensor:
#      x y z
#    x 3.251650 0.000000 -0.016840 
#    y 0.000000 2.595650 0.000000 
#    z -0.016840 0.000000 4.496010 
# 
# 
# High freq. dielectric constant tensor:
#      x y z
#    x 1.707700 0.000000 -0.001160 
#    y 0.000000 1.614310 0.000000 
#    z -0.001160 0.000000 1.752850 
# 
# From -- ./inp_files/19046.got.cif
#   From: 2010.06.25/outbox.cif.g09.slc.cpg/sg9_10_cif.got.tgz:19046.got - 2010.06.27 21:40:51.
