data_PCOD8054311
_publ_section_title
;
Structure prediction by ZEFSAII (Michael W. Deem and Ramdas Pophale) SiO2 
 PCOD8054311
Probable space group: C C
;
_chemical_formula_sum "Si O2"
_cell_formula_units_Z 24
_cell_length_a 5.191492
_cell_length_b 26.066998
_cell_length_c 7.999500
_cell_angle_alpha 90.000000
_cell_angle_beta 90.044167
_cell_angle_gamma 90.000000
_cell_volume 1082.544908
_symmetry_space_group_name_H-M "C C"
_symmetry_group_IT_number 9
_symmetry_cell_setting 'monoclinic'
loop_
_space_group_symop_operation_xyz
x,y,z
x,-y,1/2+z
1/2+x,1/2+y,z
1/2+x,1/2-y,1/2+z
loop_
_atom_site_type_symbol
_atom_site_label
_atom_site_fract_x
_atom_site_fract_y
_atom_site_fract_z
Si Si1 0.850810 0.759753 0.011750
Si Si2 0.838280 0.572350 0.670009
Si Si3 0.839837 0.128576 0.616864
Si Si4 0.336761 0.038770 0.288119
Si Si5 0.846363 0.207049 0.134957
Si Si6 0.336641 0.595125 0.233925
O O1 0.848410 0.809978 0.129721
O O2 0.629583 0.722016 0.074816
O O3 0.128087 0.732465 0.019605
O O4 0.792939 0.775257 0.822910
O O5 0.587296 0.605923 0.712321
O O6 0.837173 0.555154 0.479010
O O7 0.840400 0.522635 0.786886
O O8 0.085995 0.607432 0.708700
O O9 0.843643 0.111806 0.425476
O O10 0.586762 0.060954 0.193839
O O11 0.086890 0.060903 0.192519
O O12 0.829779 0.145563 0.118521
#
# Coordination Sequence:
#
# PCOD8054311 Si02
#       6
#     4   4   4   4   4   4
#     4  11  22  39  61  86 115 152 193 236 283 339
#     4  10  19  34  54  77 103 138 179 221 268 326
#     4   9  19  35  55  75 105 146 181 213 271 343
#     4  10  19  34  54  77 103 138 179 221 268 326
#     4  11  22  39  61  86 115 152 193 236 283 339
#     4   9  19  35  55  75 105 146 181 213 271 343
#
# _framework density 22.169979999999999
#
# number of rings (size 3 to 8) (size 9 to 14) (size 15 to 20)
#    0.000    2.000    0.000    4.000    0.000    5.333 
#    0.000   10.000    0.000    0.000    0.000    0.000 
#    0.000    0.000    0.000    0.000    0.000    0.000 
#
# Total GULP energy -148857.969733 kJ/mol
# GULP energy per Si atom -12404.830811 kJ/mol
# Density = 2.211952 g / cm^3
# Si number density = 22.169980 Si / 1000 Ang^3
#
#
#
# Elastic Constant Matrix: (Units=GPa)
#
#
# Indices 1 2 3 4 5 6 
#
# 1 172.7275 26.1024 2.8400 0.0000 5.5191 0.0000
# 2 26.1024 40.0646 0.2634 0.0000 5.3690 0.0000
# 3 2.8400 0.2634 13.8330 0.0000 -3.0324 0.0000
# 4 0.0000 0.0000 0.0000 27.7276 0.0000 -1.1002
# 5 5.5191 5.3690 -3.0324 0.0000 12.0442 0.0000
# 6 0.0000 0.0000 0.0000 -1.1002 0.0000 48.0838
#
#
#
# Elastic Compliance Matrix: (Units=1/GPa)
#
#
# Indices 1 2 3 4 5 6 
#
# 1 0.006470 -0.003992 -0.001600 0.000000 -0.001588 0.000000
# 2 -0.003992 0.029150 -0.002311 0.000000 -0.011747 0.000000
# 3 -0.001600 -0.002311 0.077317 0.000000 0.021230 0.000000
# 4 0.000000 0.000000 0.000000 0.036098 0.000000 0.000826
# 5 -0.001588 -0.011747 0.021230 0.000000 0.094337 0.000000
# 6 0.000000 0.000000 0.000000 0.000826 0.000000 0.020816
#
#
# Mechanical properties :
#
#
# Convention : Reuss Voigt Hill
#
# Bulk Modulus (GPa) = 10.29534 31.67075 20.98304
# Shear Modulus (GPa) = 16.00667 30.73242 23.36954
#
# Velocity S-wave (km/s) = 2.68992 3.72723 3.25022
# Velocity P-wave (km/s) = 3.78172 5.73057 4.85494
#
# Compressibility (1/GPa) = 0.09713135
#
# Stress axis : x y z
#
# Youngs Moduli (GPa) = 154.56535 34.30567 12.93370
#
# Poissons Ratio (x) = 0.13694 0.02070
# Poissons Ratio (y) = 0.61698 0.02988
# Poissons Ratio (z) = 0.24738 0.07926
#
# Static dielectric constant tensor:
#      x y z
#    x 4.219090 0.000000 0.016090 
#    y 0.000000 4.143950 0.000000 
#    z 0.016090 0.000000 3.516410 
# 
# 
# High freq. dielectric constant tensor:
#      x y z
#    x 1.888490 0.000000 -0.000340 
#    y 0.000000 1.883270 0.000000 
#    z -0.000340 0.000000 1.840950 
# 
# From -- ./inp_files/3827.got.cif
#   From: 2010.06.25/outbox.cif.g09.slc.cpg/sg9_2_cif.got.tgz:3827.got - 2010.06.27 21:40:51.
