data_PCOD8054531
_publ_section_title
;
Structure prediction by ZEFSAII (Michael W. Deem and Ramdas Pophale) SiO2 
 PCOD8054531
Probable space group: C C
;
_chemical_formula_sum "Si O2"
_cell_formula_units_Z 32
_cell_length_a 15.781501
_cell_length_b 22.265504
_cell_length_c 14.902338
_cell_angle_alpha 90.000000
_cell_angle_beta 161.100730
_cell_angle_gamma 90.000000
_cell_volume 1696.107549
_symmetry_space_group_name_H-M "C C"
_symmetry_group_IT_number 9
_symmetry_cell_setting 'monoclinic'
loop_
_space_group_symop_operation_xyz
x,y,z
x,-y,1/2+z
1/2+x,1/2+y,z
1/2+x,1/2-y,1/2+z
loop_
_atom_site_type_symbol
_atom_site_label
_atom_site_fract_x
_atom_site_fract_y
_atom_site_fract_z
Si Si1 0.647760 0.975675 0.625000
Si Si2 0.111187 0.722006 0.618540
Si Si3 0.988889 0.931841 0.671899
Si Si4 0.802017 0.596719 0.059454
Si Si5 0.323483 0.431647 0.977267
Si Si6 0.508612 0.096227 0.589051
Si Si7 0.656916 0.522903 0.518499
Si Si8 0.201945 0.225871 0.011240
O O1 0.721463 0.924701 0.772775
O O2 0.403172 0.951715 0.321500
O O3 0.561397 0.037173 0.584748
O O4 0.902588 0.989172 0.822455
O O5 0.034645 0.652368 0.548319
O O6 0.122982 0.742950 0.526972
O O7 0.884294 0.761497 0.439842
O O8 0.723559 0.895045 0.384221
O O9 0.913363 0.000203 0.578679
O O10 0.218697 0.908277 0.838139
O O11 0.084784 0.927120 0.871023
O O12 0.586745 0.605564 0.763974
O O13 0.785571 0.656446 0.103557
O O14 0.735867 0.540587 0.055313
O O15 0.091836 0.587318 0.311844
O O16 0.926700 0.236233 0.683567
#
# Coordination Sequence:
#
# PCOD8054531 Si02
#       8
#     4   4   4   4   4   4   4   4
#     4  11  21  31  53  79 108 137 189 227 273 330
#     4  10  22  35  51  76 113 140 193 229 252 317
#     4  10  20  37  51  76 106 146 192 226 270 342
#     4  11  21  35  56  71 113 159 179 219 285 318
#     4  10  20  37  51  76 106 146 192 226 270 342
#     4  11  21  35  56  71 113 159 179 219 285 318
#     4  11  21  31  53  79 108 137 189 227 273 330
#     4  10  22  35  51  76 113 140 193 229 252 317
#
# _framework density 18.866727999999998
#
# number of rings (size 3 to 8) (size 9 to 14) (size 15 to 20)
#    0.000    1.500    0.000    9.000    7.000    0.000 
#    0.000    0.000    0.000    0.000    0.000    0.000 
#    0.000   70.000    0.000    0.000    0.000    0.000 
#
# Total GULP energy -198237.875968 kJ/mol
# GULP energy per Si atom -12389.867248 kJ/mol
# Density = 1.882379 g / cm^3
# Si number density = 18.866728 Si / 1000 Ang^3
#
#
#
# Elastic Constant Matrix: (Units=GPa)
#
#
# Indices 1 2 3 4 5 6 
#
# 1 58.8617 15.8404 26.9276 -0.0005 -6.7142 -0.0010
# 2 15.8404 55.7183 11.0770 -0.0016 0.5320 0.0000
# 3 26.9276 11.0770 145.0872 -0.0093 8.0290 -0.0016
# 4 -0.0005 -0.0016 -0.0093 24.8661 -0.0046 6.5351
# 5 -6.7142 0.5320 8.0290 -0.0046 40.1510 0.0002
# 6 -0.0010 0.0000 -0.0016 6.5351 0.0002 26.2234
#
#
#
# Elastic Compliance Matrix: (Units=1/GPa)
#
#
# Indices 1 2 3 4 5 6 
#
# 1 0.020528 -0.005151 -0.003651 -0.000001 0.004231 0.000001
# 2 -0.005151 0.019516 -0.000477 0.000001 -0.001024 0.000000
# 3 -0.003651 -0.000477 0.007725 0.000002 -0.002149 0.000000
# 4 -0.000001 0.000001 0.000002 0.043034 0.000004 -0.010724
# 5 0.004231 -0.001024 -0.002149 0.000004 0.026057 -0.000001
# 6 0.000001 0.000000 0.000000 -0.010724 -0.000001 0.040807
#
#
# Mechanical properties :
#
#
# Convention : Reuss Voigt Hill
#
# Bulk Modulus (GPa) = 34.23245 40.81747 37.52496
# Shear Modulus (GPa) = 26.88726 31.96958 29.42842
#
# Velocity S-wave (km/s) = 3.77917 4.12089 3.95372
# Velocity P-wave (km/s) = 6.10135 6.65762 6.38555
#
# Compressibility (1/GPa) = 0.02921204
#
# Stress axis : x y z
#
# Youngs Moduli (GPa) = 48.71437 51.23897 129.44395
#
# Poissons Ratio (x) = 0.26391 0.47257
# Poissons Ratio (y) = 0.25091 0.06180
# Poissons Ratio (z) = 0.17785 0.02446
#
# Static dielectric constant tensor:
#      x y z
#    x 3.647690 0.000010 -0.208230 
#    y 0.000010 3.223870 -0.000030 
#    z -0.208230 -0.000030 5.360170 
# 
# 
# High freq. dielectric constant tensor:
#      x y z
#    x 1.706870 0.000000 0.011650 
#    y 0.000000 1.686920 0.000000 
#    z 0.011650 0.000000 1.778050 
# 
# From -- ./inp_files/26184.got.cif
#   From: 2010.06.25/outbox.cif.g09.slc.cpg/sg9_14_cif.got.tgz:26184.got - 2010.06.27 21:40:51.
