data_PCOD8054889
_publ_section_title
;
Structure prediction by ZEFSAII (Michael W. Deem and Ramdas Pophale) SiO2 
 PCOD8054889
Probable space group: C C
;
_chemical_formula_sum "Si O2"
_cell_formula_units_Z 32
_cell_length_a 7.386470
_cell_length_b 24.509559
_cell_length_c 8.872649
_cell_angle_alpha 90.000000
_cell_angle_beta 73.068256
_cell_angle_gamma 90.000000
_cell_volume 1536.667449
_symmetry_space_group_name_H-M "C C"
_symmetry_group_IT_number 9
_symmetry_cell_setting 'monoclinic'
loop_
_space_group_symop_operation_xyz
x,y,z
x,-y,1/2+z
1/2+x,1/2+y,z
1/2+x,1/2-y,1/2+z
loop_
_atom_site_type_symbol
_atom_site_label
_atom_site_fract_x
_atom_site_fract_y
_atom_site_fract_z
Si Si1 0.176430 0.928330 0.876940
Si Si2 0.027400 0.380193 0.678227
Si Si3 0.761926 0.359783 0.478371
Si Si4 0.411065 0.225987 0.372767
Si Si5 0.507636 0.481906 0.195660
Si Si6 0.406242 0.430940 0.506159
Si Si7 0.788969 0.274542 0.242174
Si Si8 0.567880 0.691093 0.287109
O O1 0.403923 0.923218 0.805097
O O2 0.069979 0.870444 0.860101
O O3 0.118496 0.976231 0.776959
O O4 0.140948 0.943330 0.060073
O O5 0.249632 0.389763 0.605415
O O6 0.938460 0.380639 0.532663
O O7 0.016861 0.324756 0.772018
O O8 0.619732 0.409457 0.477263
O O9 0.843382 0.331466 0.309034
O O10 0.649867 0.313598 0.599197
O O11 0.558304 0.274274 0.296674
O O12 0.383561 0.221428 0.557228
O O13 0.203861 0.232198 0.348782
O O14 0.379365 0.443945 0.335275
O O15 0.374743 0.514522 0.112301
O O16 0.866869 0.221945 0.319639
#
# Coordination Sequence:
#
# PCOD8054889 Si02
#       8
#     4   4   4   4   4   4   4   4
#     4   9  20  41  62  89 126 159 203 261 315 371
#     4  10  23  43  61  88 126 166 203 261 317 376
#     4  10  22  41  61  88 127 164 203 266 316 364
#     4  10  25  37  63  90 121 165 212 254 318 373
#     4  10  21  39  67  93 119 168 206 255 328 379
#     4  11  22  42  64  89 130 160 208 262 318 380
#     4  12  23  41  63  92 123 171 213 258 320 379
#     4  10  22  42  59  89 130 161 206 267 310 376
#
# _framework density 20.824283999999999
#
# number of rings (size 3 to 8) (size 9 to 14) (size 15 to 20)
#    0.000    2.000    3.750    0.750    7.000    1.000 
#    2.250    0.000    0.000    0.000    0.000    0.000 
#    0.000    0.000    0.000    0.000    0.000    0.000 
#
# Total GULP energy -198215.691142 kJ/mol
# GULP energy per Si atom -12388.480696 kJ/mol
# Density = 2.077689 g / cm^3
# Si number density = 20.824284 Si / 1000 Ang^3
#
#
#
# Elastic Constant Matrix: (Units=GPa)
#
#
# Indices 1 2 3 4 5 6 
#
# 1 67.4897 21.2771 28.1221 0.0000 4.2712 0.0000
# 2 21.2771 50.4103 29.9923 0.0000 8.3928 0.0000
# 3 28.1221 29.9923 135.2837 0.0000 11.8568 0.0000
# 4 0.0000 0.0000 0.0000 33.0280 0.0000 -2.7397
# 5 4.2712 8.3928 11.8568 0.0000 20.7021 0.0000
# 6 0.0000 0.0000 0.0000 -2.7397 0.0000 19.5437
#
#
#
# Elastic Compliance Matrix: (Units=1/GPa)
#
#
# Indices 1 2 3 4 5 6 
#
# 1 0.017708 -0.006109 -0.002341 0.000000 0.000164 0.000000
# 2 -0.006109 0.025876 -0.003851 0.000000 -0.007024 0.000000
# 3 -0.002341 -0.003851 0.009005 0.000000 -0.003113 0.000000
# 4 0.000000 0.000000 0.000000 0.030634 0.000000 0.004294
# 5 0.000164 -0.007024 -0.003113 0.000000 0.052901 0.000000
# 6 0.000000 0.000000 0.000000 0.004294 0.000000 0.051769
#
#
# Mechanical properties :
#
#
# Convention : Reuss Voigt Hill
#
# Bulk Modulus (GPa) = 35.73006 45.77407 40.75206
# Shear Modulus (GPa) = 22.54025 26.24090 24.39057
#
# Velocity S-wave (km/s) = 3.29356 3.55365 3.42607
# Velocity P-wave (km/s) = 5.62659 6.23432 5.93823
#
# Compressibility (1/GPa) = 0.02798764
#
# Stress axis : x y z
#
# Youngs Moduli (GPa) = 56.47144 38.64519 111.04660
#
# Poissons Ratio (x) = 0.23607 0.25998
# Poissons Ratio (y) = 0.34496 0.42768
# Poissons Ratio (z) = 0.13221 0.14883
#
# Static dielectric constant tensor:
#      x y z
#    x 3.694830 0.000000 0.161560 
#    y 0.000000 3.733650 0.000000 
#    z 0.161560 0.000000 3.913710 
# 
# 
# High freq. dielectric constant tensor:
#      x y z
#    x 1.798130 0.000000 0.010980 
#    y 0.000000 1.806160 0.000000 
#    z 0.010980 0.000000 1.824910 
# 
# From -- ./inp_files/6147.got.cif
#   From: 2010.06.25/outbox.cif.g09.slc.cpg/sg9_4_cif.got.tgz:6147.got - 2010.06.27 21:40:51.
