data_PCOD8054358
_publ_section_title
;
Structure prediction by ZEFSAII (Michael W. Deem and Ramdas Pophale) SiO2 
 PCOD8054358
Probable space group: C C
;
_chemical_formula_sum "Si O2"
_cell_formula_units_Z 32
_cell_length_a 17.161217
_cell_length_b 17.384859
_cell_length_c 9.941538
_cell_angle_alpha 90.000000
_cell_angle_beta 31.331386
_cell_angle_gamma 90.000000
_cell_volume 1542.287717
_symmetry_space_group_name_H-M "C C"
_symmetry_group_IT_number 9
_symmetry_cell_setting 'monoclinic'
loop_
_space_group_symop_operation_xyz
x,y,z
x,-y,1/2+z
1/2+x,1/2+y,z
1/2+x,1/2-y,1/2+z
loop_
_atom_site_type_symbol
_atom_site_label
_atom_site_fract_x
_atom_site_fract_y
_atom_site_fract_z
Si Si1 0.778390 0.768420 0.213740
Si Si2 0.933160 0.733075 0.497329
Si Si3 0.629782 0.637036 0.610738
Si Si4 0.647992 0.174958 0.398786
Si Si5 0.069752 0.311139 0.302440
Si Si6 0.733704 0.937991 0.364432
Si Si7 0.849750 0.955513 0.473464
Si Si8 0.938074 0.385374 0.752909
O O1 0.700902 0.693482 0.394503
O O2 0.719734 0.776609 0.147727
O O3 0.750097 0.845026 0.344159
O O4 0.956080 0.758666 0.940542
O O5 0.026568 0.812261 0.360339
O O6 0.997281 0.688865 0.533550
O O7 0.754686 0.750233 0.766996
O O8 0.959640 0.687628 0.319188
O O9 0.762009 0.594236 0.501349
O O10 0.524085 0.569690 0.708145
O O11 0.602485 0.144897 0.614128
O O12 0.743630 0.112041 0.180681
O O13 0.995123 0.368266 0.518496
O O14 0.803344 0.978332 0.391451
O O15 0.551655 0.953795 0.632008
O O16 0.823196 0.969764 0.103767
#
# Coordination Sequence:
#
# PCOD8054358 Si02
#       8
#     4   4   4   4   4   4   4   4
#     4  10  19  36  65  89 121 154 204 256 314 355
#     4  11  18  34  59  90 117 153 203 264 307 356
#     4  10  19  38  66  95 111 161 216 261 295 375
#     4  11  22  35  57  93 124 155 203 266 313 359
#     4  10  20  32  57  92 120 149 199 263 305 353
#     4  11  23  41  62  88 124 168 203 250 314 386
#     4  11  25  39  64  86 127 165 211 246 320 381
#     4  10  20  37  64  85 120 163 209 248 312 373
#
# _framework density 20.748398999999999
#
# number of rings (size 3 to 8) (size 9 to 14) (size 15 to 20)
#    0.000    1.500    5.000    1.500    7.000    0.000 
#    0.000    1.250    5.500    0.000    0.000    0.000 
#    0.000    0.000    0.000    0.000    0.000    0.000 
#
# Total GULP energy -198254.063240 kJ/mol
# GULP energy per Si atom -12390.878953 kJ/mol
# Density = 2.070118 g / cm^3
# Si number density = 20.748399 Si / 1000 Ang^3
#
#
#
# Elastic Constant Matrix: (Units=GPa)
#
#
# Indices 1 2 3 4 5 6 
#
# 1 150.3905 23.9201 56.0967 -0.0007 -13.2063 0.0006
# 2 23.9201 43.4008 20.7886 -0.0005 -9.0834 0.0004
# 3 56.0967 20.7886 67.0273 -0.0010 2.0482 0.0009
# 4 -0.0007 -0.0005 -0.0010 23.4404 0.0007 1.3180
# 5 -13.2063 -9.0834 2.0482 0.0007 37.9357 -0.0006
# 6 0.0006 0.0004 0.0009 1.3180 -0.0006 16.9144
#
#
#
# Elastic Compliance Matrix: (Units=1/GPa)
#
#
# Indices 1 2 3 4 5 6 
#
# 1 0.010272 -0.000803 -0.008465 0.000000 0.003841 0.000000
# 2 -0.000803 0.029082 -0.008567 0.000000 0.007147 0.000000
# 3 -0.008465 -0.008567 0.024855 0.000001 -0.006340 -0.000001
# 4 0.000000 0.000000 0.000001 0.042849 -0.000001 -0.003339
# 5 0.003841 0.007147 -0.006340 -0.000001 0.029751 0.000001
# 6 0.000000 0.000000 -0.000001 -0.003339 0.000001 0.059381
#
#
# Mechanical properties :
#
#
# Convention : Reuss Voigt Hill
#
# Bulk Modulus (GPa) = 35.03837 51.38104 43.20971
# Shear Modulus (GPa) = 20.71485 26.32565 23.52025
#
# Velocity S-wave (km/s) = 3.16315 3.56589 3.37054
# Velocity P-wave (km/s) = 5.50133 6.46311 6.00151
#
# Compressibility (1/GPa) = 0.02854014
#
# Stress axis : x y z
#
# Youngs Moduli (GPa) = 97.35328 34.38496 40.23392
#
# Poissons Ratio (x) = 0.02760 0.34059
# Poissons Ratio (y) = 0.07815 0.34467
# Poissons Ratio (z) = 0.82411 0.29456
#
# Static dielectric constant tensor:
#      x y z
#    x 4.226990 0.000000 -0.380770 
#    y 0.000000 3.342350 0.000000 
#    z -0.380770 0.000000 3.875870 
# 
# 
# High freq. dielectric constant tensor:
#      x y z
#    x 1.833940 0.000000 -0.012900 
#    y 0.000000 1.761070 0.000000 
#    z -0.012900 0.000000 1.806280 
# 
# From -- ./inp_files/9934.got.cif
#   From: 2010.06.25/outbox.cif.g09.slc.cpg/sg9_5_cif.got.tgz:9934.got - 2010.06.27 21:40:51.
