data_PCOD8054083
_publ_section_title
;
Structure prediction by ZEFSAII (Michael W. Deem and Ramdas Pophale) SiO2 
 PCOD8054083
Probable space group: C M
;
_chemical_formula_sum "Si O2"
_cell_formula_units_Z 28
_cell_length_a 10.956337
_cell_length_b 15.800444
_cell_length_c 7.095601
_cell_angle_alpha 90.000000
_cell_angle_beta 76.959266
_cell_angle_gamma 90.000000
_cell_volume 1196.675484
_symmetry_space_group_name_H-M "C M"
_symmetry_group_IT_number 8
_symmetry_cell_setting 'monoclinic'
loop_
_space_group_symop_operation_xyz
x,y,z
x,-y,z
1/2+x,1/2+y,z
1/2+x,1/2-y,z
loop_
_atom_site_type_symbol
_atom_site_label
_atom_site_fract_x
_atom_site_fract_y
_atom_site_fract_z
Si Si1 0.462390 0.405569 0.121710
Si Si2 0.524938 0.238406 0.496109
Si Si3 0.135578 0.593126 0.968554
Si Si4 0.396592 0.172664 0.173141
Si Si5 0.708382 0.906623 0.375607
Si Si6 0.653650 0.594225 0.362865
Si Si7 0.354200 0.710186 0.874335
O O1 0.429342 0.500000 0.065371
O O2 0.355335 0.379723 0.316137
O O3 0.597876 0.401115 0.170797
O O4 0.460427 0.349560 0.933248
O O5 0.470573 0.227855 0.303843
O O6 0.623582 0.163222 0.512976
O O7 0.592635 0.329280 0.502045
O O8 0.411558 0.235615 0.684292
O O9 0.145480 0.500000 0.871992
O O10 0.236681 0.656011 0.836237
O O11 0.162608 0.588312 0.178783
O O12 0.994824 0.627945 0.997710
O O13 0.303942 0.105623 0.303165
O O14 0.310788 0.230689 0.065381
O O15 0.690958 0.000000 0.476395
O O16 0.626502 0.500000 0.458647
#
# Coordination Sequence:
#
# PCOD8054083 Si02
#       7
#     4   4   4   4   4   4   4
#     4   9  18  37  65  92 125 171 215 260 317 377
#     4  11  24  39  66  95 129 164 214 262 324 378
#     4   9  19  38  64  87 116 165 209 253 311 365
#     4  11  22  42  63  87 127 164 211 265 308 376
#     4   8  16  36  64  90 121 165 214 262 311 370
#     4  11  23  40  64  96 132 172 209 258 326 384
#     4  11  22  38  66  91 124 161 213 262 318 368
#
# _framework density 23.398157999999999
#
# number of rings (size 3 to 8) (size 9 to 14) (size 15 to 20)
#    0.000    2.000    1.429    4.286    0.000    2.857 
#    0.000    1.429    0.000    0.000    0.000    0.000 
#    0.000    0.000    0.000    0.000    0.000    0.000 
#
# Total GULP energy -173513.619867 kJ/mol
# GULP energy per Si atom -12393.829990 kJ/mol
# Density = 2.334490 g / cm^3
# Si number density = 23.398158 Si / 1000 Ang^3
#
#
#
# Elastic Constant Matrix: (Units=GPa)
#
#
# Indices 1 2 3 4 5 6 
#
# 1 82.8179 34.6777 14.4698 0.0000 -24.4438 0.0000
# 2 34.6777 153.6800 30.8188 0.0000 -16.6620 0.0000
# 3 14.4698 30.8188 77.8159 0.0000 -14.7240 0.0000
# 4 0.0000 0.0000 0.0000 14.7903 0.0000 -16.9999
# 5 -24.4438 -16.6620 -14.7240 0.0000 21.0409 0.0000
# 6 0.0000 0.0000 0.0000 -16.9999 0.0000 28.8723
#
#
#
# Elastic Compliance Matrix: (Units=1/GPa)
#
#
# Indices 1 2 3 4 5 6 
#
# 1 0.019082 -0.002270 0.001389 0.000000 0.021342 0.000000
# 2 -0.002270 0.007675 -0.002267 0.000000 0.001854 0.000000
# 3 0.001389 -0.002267 0.015510 0.000000 0.010672 0.000000
# 4 0.000000 0.000000 0.000000 0.209168 0.000000 0.123157
# 5 0.021342 0.001854 0.010672 0.000000 0.081256 0.000000
# 6 0.000000 0.000000 0.000000 0.123157 0.000000 0.107149
#
#
# Mechanical properties :
#
#
# Convention : Reuss Voigt Hill
#
# Bulk Modulus (GPa) = 27.80055 52.69403 40.24729
# Shear Modulus (GPa) = 10.91403 28.56387 19.73895
#
# Velocity S-wave (km/s) = 2.16208 3.49775 2.90765
# Velocity P-wave (km/s) = 4.25912 6.23553 5.33957
#
# Compressibility (1/GPa) = 0.03597051
#
# Stress axis : x y z
#
# Youngs Moduli (GPa) = 52.40589 130.29486 64.47624
#
# Poissons Ratio (x) = 0.29583 -0.08957
# Poissons Ratio (y) = 0.11899 0.14615
# Poissons Ratio (z) = -0.07280 0.29534
#
# Static dielectric constant tensor:
#      x y z
#    x 4.262270 0.000000 -0.210000 
#    y 0.000000 4.694350 0.000000 
#    z -0.210000 0.000000 3.564160 
# 
# 
# High freq. dielectric constant tensor:
#      x y z
#    x 1.918870 0.000000 -0.009470 
#    y 0.000000 1.942400 0.000000 
#    z -0.009470 0.000000 1.879840 
# 
# From -- ./inp_files/10705.got.cif
#   From: 2010.03.12/outbox.cif.g09.slc.cpg/sg8_6_cif.got.tgz:10705.got - 2010.03.31 10:45:26.
