data_PCOD8054830
_publ_section_title
;
Structure prediction by ZEFSAII (Michael W. Deem and Ramdas Pophale) SiO2 
 PCOD8054830
Probable space group: C C
;
_chemical_formula_sum "Si O2"
_cell_formula_units_Z 32
_cell_length_a 9.155167
_cell_length_b 21.369445
_cell_length_c 12.646262
_cell_angle_alpha 90.000000
_cell_angle_beta 35.929269
_cell_angle_gamma 90.000000
_cell_volume 1451.782286
_symmetry_space_group_name_H-M "C C"
_symmetry_group_IT_number 9
_symmetry_cell_setting 'monoclinic'
loop_
_space_group_symop_operation_xyz
x,y,z
x,-y,1/2+z
1/2+x,1/2+y,z
1/2+x,1/2-y,1/2+z
loop_
_atom_site_type_symbol
_atom_site_label
_atom_site_fract_x
_atom_site_fract_y
_atom_site_fract_z
Si Si1 0.780990 0.472101 0.667070
Si Si2 0.774731 0.788449 0.266617
Si Si3 0.756210 0.636430 0.467206
Si Si4 0.030633 0.602204 0.517276
Si Si5 0.407275 0.463636 0.065120
Si Si6 0.484248 0.869457 0.274160
Si Si7 0.517756 0.426765 0.633269
Si Si8 0.969050 0.660338 0.131796
O O1 0.695253 0.472828 0.596389
O O2 0.902930 0.404256 0.613733
O O3 0.968576 0.529206 0.579376
O O4 0.531537 0.479172 0.880905
O O5 0.595026 0.814734 0.280831
O O6 0.752214 0.713645 0.259906
O O7 0.700741 0.812174 0.428684
O O8 0.064716 0.805457 0.080922
O O9 0.595505 0.577056 0.524975
O O10 0.988701 0.647045 0.247816
O O11 0.859679 0.627920 0.523863
O O12 0.320977 0.610653 0.319645
O O13 0.993498 0.644737 0.643354
O O14 0.356287 0.530200 0.149432
O O15 0.140143 0.432467 0.206041
O O16 0.193361 0.877856 0.470103
#
# Coordination Sequence:
#
# PCOD8054830 Si02
#       8
#     4   4   4   4   4   4   4   4
#     4  11  22  39  62 100 134 169 217 275 333 396
#     4  11  23  44  75  93 125 172 236 279 320 380
#     4  10  24  41  65  96 129 173 216 275 330 391
#     4  12  25  40  65 102 142 171 211 273 348 410
#     4  10  21  38  60  92 131 172 221 258 326 400
#     4  11  24  41  64  99 131 178 220 275 333 393
#     4  12  22  37  62  93 138 177 213 264 336 401
#     4  11  23  42  73  97 124 174 234 277 318 385
#
# _framework density 22.041872000000001
#
# number of rings (size 3 to 8) (size 9 to 14) (size 15 to 20)
#    0.000    1.000    6.250    0.750    1.750    1.000 
#    0.000    0.000    5.500    0.000    0.000    0.000 
#    0.000    0.000    0.000    0.000    0.000    0.000 
#
# Total GULP energy -198271.917505 kJ/mol
# GULP energy per Si atom -12391.994844 kJ/mol
# Density = 2.199170 g / cm^3
# Si number density = 22.041872 Si / 1000 Ang^3
#
#
#
# Elastic Constant Matrix: (Units=GPa)
#
#
# Indices 1 2 3 4 5 6 
#
# 1 96.1895 17.5655 24.9105 0.0000 19.1626 0.0001
# 2 17.5655 80.3005 13.7388 0.0000 7.1555 0.0000
# 3 24.9105 13.7388 132.5426 0.0000 9.2576 0.0003
# 4 0.0000 0.0000 0.0000 23.4873 0.0001 3.3442
# 5 19.1626 7.1555 9.2576 0.0001 34.8038 -0.0003
# 6 0.0001 0.0000 0.0003 3.3442 -0.0003 17.6024
#
#
#
# Elastic Compliance Matrix: (Units=1/GPa)
#
#
# Indices 1 2 3 4 5 6 
#
# 1 0.012373 -0.001881 -0.001713 0.000000 -0.005970 0.000000
# 2 -0.001881 0.013147 -0.000910 0.000000 -0.001425 0.000000
# 3 -0.001713 -0.000910 0.008031 0.000000 -0.001006 0.000000
# 4 0.000000 0.000000 0.000000 0.043760 0.000000 -0.008314
# 5 -0.005970 -0.001425 -0.001006 0.000000 0.032580 0.000001
# 6 0.000000 0.000000 0.000000 -0.008314 0.000001 0.058390
#
#
# Mechanical properties :
#
#
# Convention : Reuss Voigt Hill
#
# Bulk Modulus (GPa) = 40.74557 46.82913 43.78735
# Shear Modulus (GPa) = 26.95842 32.03323 29.49582
#
# Velocity S-wave (km/s) = 3.50101 3.81634 3.66207
# Velocity P-wave (km/s) = 5.90495 6.38051 6.14733
#
# Compressibility (1/GPa) = 0.02454254
#
# Stress axis : x y z
#
# Youngs Moduli (GPa) = 80.82300 76.06062 124.51265
#
# Poissons Ratio (x) = 0.14310 0.21334
# Poissons Ratio (y) = 0.15206 0.11326
# Poissons Ratio (z) = 0.13848 0.06919
#
# Static dielectric constant tensor:
#      x y z
#    x 3.778020 0.000000 0.310820 
#    y 0.000000 3.794240 0.000000 
#    z 0.310820 0.000000 4.249290 
# 
# 
# High freq. dielectric constant tensor:
#      x y z
#    x 1.846270 0.000000 0.023010 
#    y 0.000000 1.844820 0.000000 
#    z 0.023010 0.000000 1.889620 
# 
# From -- ./inp_files/15637.got.cif
#   From: 2010.06.25/outbox.cif.g09.slc.cpg/sg9_8_cif.got.tgz:15637.got - 2010.06.27 21:40:51.
