data_PCOD8054477
_publ_section_title
;
Structure prediction by ZEFSAII (Michael W. Deem and Ramdas Pophale) SiO2 
 PCOD8054477
Probable space group: C C
;
_chemical_formula_sum "Si O2"
_cell_formula_units_Z 32
_cell_length_a 15.220654
_cell_length_b 15.458035
_cell_length_c 12.653217
_cell_angle_alpha 90.000000
_cell_angle_beta 34.598229
_cell_angle_gamma 90.000000
_cell_volume 1690.432923
_symmetry_space_group_name_H-M "C C"
_symmetry_group_IT_number 9
_symmetry_cell_setting 'monoclinic'
loop_
_space_group_symop_operation_xyz
x,y,z
x,-y,1/2+z
1/2+x,1/2+y,z
1/2+x,1/2-y,1/2+z
loop_
_atom_site_type_symbol
_atom_site_label
_atom_site_fract_x
_atom_site_fract_y
_atom_site_fract_z
Si Si1 0.253460 0.682264 0.605240
Si Si2 0.581767 0.017412 0.785459
Si Si3 0.111949 0.144635 0.233749
Si Si4 0.223499 0.355369 0.557187
Si Si5 0.753666 0.517404 0.505488
Si Si6 0.747112 0.365567 0.825522
Si Si7 0.588329 0.134440 0.965425
Si Si8 0.581986 0.682262 0.685697
O O1 0.162599 0.599866 0.646418
O O2 0.205744 0.772041 0.596845
O O3 0.433495 0.667685 0.415179
O O4 0.200013 0.695722 0.782297
O O5 0.692327 0.933876 0.668289
O O6 0.565476 0.042750 0.925216
O O7 0.417719 0.000012 0.895463
O O8 0.170838 0.113247 0.289538
O O9 0.143082 0.066122 0.122688
O O10 0.164666 0.386753 0.501327
O O11 0.129699 0.272044 0.694082
O O12 0.401958 0.332328 0.375789
O O13 0.769940 0.542737 0.365745
O O14 0.672876 0.599871 0.644487
O O15 0.635395 0.304292 0.008670
O O16 0.917722 0.322576 0.645497
#
# Coordination Sequence:
#
# PCOD8054477 Si02
#       8
#     4   4   4   4   4   4   4   4
#     4  10  23  33  59  85 109 147 179 231 279 318
#     4  10  21  35  54  82 109 149 177 224 279 324
#     4  12  19  39  55  82 119 136 188 227 272 329
#     4  12  19  39  55  82 119 136 188 227 272 329
#     4  10  21  35  54  82 109 149 177 224 279 324
#     4  10  20  34  55  83 108 144 179 223 280 317
#     4  10  20  34  55  83 108 144 179 223 280 317
#     4  10  23  33  59  85 109 147 179 231 279 318
#
# _framework density 18.930060999999998
#
# number of rings (size 3 to 8) (size 9 to 14) (size 15 to 20)
#    1.500    0.000    2.500    5.250    0.000    0.000 
#    0.000    0.000    0.000    1.500    0.000    0.000 
#    0.000    0.000    0.000    0.000    0.000    0.000 
#
# Total GULP energy -198292.871559 kJ/mol
# GULP energy per Si atom -12393.304472 kJ/mol
# Density = 1.888698 g / cm^3
# Si number density = 18.930061 Si / 1000 Ang^3
#
#
#
# Elastic Constant Matrix: (Units=GPa)
#
#
# Indices 1 2 3 4 5 6 
#
# 1 44.2793 27.1637 23.3797 0.0002 -24.1240 -0.0001
# 2 27.1637 139.0870 48.2280 0.0005 -12.8097 -0.0002
# 3 23.3797 48.2280 137.7129 0.0013 -30.0977 -0.0006
# 4 0.0002 0.0005 0.0013 35.8038 -0.0005 -8.4606
# 5 -24.1240 -12.8097 -30.0977 -0.0005 26.9577 0.0002
# 6 -0.0001 -0.0002 -0.0006 -8.4606 0.0002 19.8090
#
#
#
# Elastic Compliance Matrix: (Units=1/GPa)
#
#
# Indices 1 2 3 4 5 6 
#
# 1 0.049409 -0.006831 0.003913 0.000000 0.045338 0.000000
# 2 -0.006831 0.009145 -0.003213 0.000000 -0.005355 0.000000
# 3 0.003913 -0.003213 0.010786 0.000000 0.014017 0.000000
# 4 0.000000 0.000000 0.000000 0.031065 0.000001 0.013268
# 5 0.045338 -0.005355 0.014017 0.000001 0.090773 0.000000
# 6 0.000000 0.000000 0.000000 0.013268 0.000000 0.056149
#
#
# Mechanical properties :
#
#
# Convention : Reuss Voigt Hill
#
# Bulk Modulus (GPa) = 17.51999 57.62467 37.57233
# Shear Modulus (GPa) = 17.94588 31.33465 24.64026
#
# Velocity S-wave (km/s) = 3.08232 4.07293 3.61175
# Velocity P-wave (km/s) = 4.68431 7.25433 6.10607
#
# Compressibility (1/GPa) = 0.05707765
#
# Stress axis : x y z
#
# Youngs Moduli (GPa) = 20.23906 109.35169 92.71318
#
# Poissons Ratio (x) = 0.74696 -0.36277
# Poissons Ratio (y) = 0.13825 0.29791
# Poissons Ratio (z) = -0.07919 0.35137
#
# Static dielectric constant tensor:
#      x y z
#    x 3.099250 0.000000 -0.102340 
#    y 0.000000 3.783440 0.000000 
#    z -0.102340 0.000000 3.544240 
# 
# 
# High freq. dielectric constant tensor:
#      x y z
#    x 1.686730 0.000000 -0.024640 
#    y 0.000000 1.745810 0.000000 
#    z -0.024640 0.000000 1.749110 
# 
# From -- ./inp_files/26086.got.cif
#   From: 2010.06.25/outbox.cif.g09.slc.cpg/sg9_14_cif.got.tgz:26086.got - 2010.06.27 21:40:51.
