data_PCOD8054995
_publ_section_title
;
Structure prediction by ZEFSAII (Michael W. Deem and Ramdas Pophale) SiO2 
 PCOD8054995
Probable space group: C C
;
_chemical_formula_sum "Si O2"
_cell_formula_units_Z 32
_cell_length_a 13.945521
_cell_length_b 6.667362
_cell_length_c 16.493029
_cell_angle_alpha 90.000000
_cell_angle_beta 69.604622
_cell_angle_gamma 90.000000
_cell_volume 1437.382991
_symmetry_space_group_name_H-M "C C"
_symmetry_group_IT_number 9
_symmetry_cell_setting 'monoclinic'
loop_
_space_group_symop_operation_xyz
x,y,z
x,-y,1/2+z
1/2+x,1/2+y,z
1/2+x,1/2-y,1/2+z
loop_
_atom_site_type_symbol
_atom_site_label
_atom_site_fract_x
_atom_site_fract_y
_atom_site_fract_z
Si Si1 0.450210 0.881552 0.399180
Si Si2 0.104625 0.940574 0.503760
Si Si3 0.812010 0.366669 0.688067
Si Si4 0.274432 0.681688 0.531006
Si Si5 0.953277 0.369792 0.056195
Si Si6 0.098286 0.966126 0.830007
Si Si7 0.981516 0.288246 0.761254
Si Si8 0.123034 0.361930 0.576111
O O1 0.357577 0.721280 0.435826
O O2 0.552264 0.747727 0.371650
O O3 0.430441 0.047918 0.473747
O O4 0.452077 0.007898 0.316438
O O5 0.178996 0.825837 0.542347
O O6 0.985338 0.865743 0.547050
O O7 0.134643 0.915145 0.399855
O O8 0.112407 0.169414 0.524429
O O9 0.816803 0.225582 0.608050
O O10 0.863745 0.579845 0.646675
O O11 0.697272 0.416027 0.747554
O O12 0.880934 0.250176 0.735032
O O13 0.239637 0.447100 0.541987
O O14 0.058241 0.471100 0.051135
O O15 0.012409 0.097183 0.807458
O O16 0.083223 0.326845 0.678658
#
# Coordination Sequence:
#
# PCOD8054995 Si02
#       8
#     4   4   4   4   4   4   4   4
#     4  11  22  42  64  96 139 176 229 287 353 423
#     4  11  21  41  70  96 132 177 240 286 352 430
#     4  10  23  44  65  97 141 180 238 293 357 431
#     4  10  23  42  66  96 132 184 231 289 355 423
#     4   9  20  42  66  93 134 179 221 289 345 421
#     4  12  24  41  67 103 134 182 233 293 358 426
#     4  11  24  43  66  99 143 178 231 300 355 421
#     4  10  21  41  68 100 131 180 231 285 355 425
#
# _framework density 22.262681000000001
#
# number of rings (size 3 to 8) (size 9 to 14) (size 15 to 20)
#    0.000    1.500    2.500    2.250    0.000    4.000 
#    2.250    5.000    0.000    0.000    0.000    0.000 
#    0.000    0.000    0.000    0.000    0.000    0.000 
#
# Total GULP energy -198276.239291 kJ/mol
# GULP energy per Si atom -12392.264956 kJ/mol
# Density = 2.221201 g / cm^3
# Si number density = 22.262681 Si / 1000 Ang^3
#
#
#
# Elastic Constant Matrix: (Units=GPa)
#
#
# Indices 1 2 3 4 5 6 
#
# 1 101.5784 44.8883 48.9659 0.0000 -5.8886 0.0000
# 2 44.8883 94.9874 38.8548 0.0000 -3.8062 0.0000
# 3 48.9659 38.8548 105.3268 0.0000 0.7954 0.0000
# 4 0.0000 0.0000 0.0000 25.9238 0.0000 0.0881
# 5 -5.8886 -3.8062 0.7954 0.0000 51.1422 0.0000
# 6 0.0000 0.0000 0.0000 0.0881 0.0000 37.5535
#
#
#
# Elastic Compliance Matrix: (Units=1/GPa)
#
#
# Indices 1 2 3 4 5 6 
#
# 1 0.014405 -0.004721 -0.004966 0.000000 0.001384 0.000000
# 2 -0.004721 0.013996 -0.002973 0.000000 0.000544 0.000000
# 3 -0.004966 -0.002973 0.012907 0.000000 -0.000994 0.000000
# 4 0.000000 0.000000 0.000000 0.038575 0.000000 -0.000091
# 5 0.001384 0.000544 -0.000994 0.000000 0.019769 0.000000
# 6 0.000000 0.000000 0.000000 -0.000091 0.000000 0.026629
#
#
# Mechanical properties :
#
#
# Convention : Reuss Voigt Hill
#
# Bulk Modulus (GPa) = 62.53944 63.03451 62.78698
# Shear Modulus (GPa) = 31.86168 34.20282 33.03225
#
# Velocity S-wave (km/s) = 3.78718 3.92386 3.85613
# Velocity P-wave (km/s) = 6.87577 6.99316 6.93472
#
# Compressibility (1/GPa) = 0.01598991
#
# Stress axis : x y z
#
# Youngs Moduli (GPa) = 69.42217 71.44733 77.47767
#
# Poissons Ratio (x) = 0.33727 0.38473
# Poissons Ratio (y) = 0.32771 0.23032
# Poissons Ratio (z) = 0.34473 0.21240
#
# Static dielectric constant tensor:
#      x y z
#    x 4.123710 0.000000 0.005440 
#    y 0.000000 4.341410 0.000000 
#    z 0.005440 0.000000 4.092640 
# 
# 
# High freq. dielectric constant tensor:
#      x y z
#    x 1.878260 0.000000 0.004930 
#    y 0.000000 1.869300 0.000000 
#    z 0.004930 0.000000 1.882410 
# 
# From -- ./inp_files/30358.got.cif
#   From: 2010.06.25/outbox.cif.g09.slc.cpg/sg9_16_cif.got.tgz:30358.got - 2010.06.27 21:40:51.
