data_PCOD8054074
_publ_section_title
;
Structure prediction by ZEFSAII (Michael W. Deem and Ramdas Pophale) SiO2 
 PCOD8054074
Probable space group: C M
;
_chemical_formula_sum "Si O2"
_cell_formula_units_Z 32
_cell_length_a 24.630106
_cell_length_b 8.731499
_cell_length_c 20.423127
_cell_angle_alpha 90.000000
_cell_angle_beta 23.510458
_cell_angle_gamma 90.000000
_cell_volume 1752.101547
_symmetry_space_group_name_H-M "C M"
_symmetry_group_IT_number 8
_symmetry_cell_setting 'monoclinic'
loop_
_space_group_symop_operation_xyz
x,y,z
x,-y,z
1/2+x,1/2+y,z
1/2+x,1/2-y,z
loop_
_atom_site_type_symbol
_atom_site_label
_atom_site_fract_x
_atom_site_fract_y
_atom_site_fract_z
Si Si1 0.161390 0.680699 0.878930
Si Si2 0.388076 0.181495 0.120999
Si Si3 0.804323 0.818516 0.589905
Si Si4 0.357827 0.680922 0.771447
Si Si5 0.834550 0.680922 0.939477
Si Si6 0.086325 0.679572 0.290680
Si Si7 0.530972 0.819311 0.832015
Si Si8 0.606064 0.179573 0.420230
O O1 0.169776 0.500000 0.864914
O O2 0.250449 0.742081 0.719617
O O3 0.227650 0.740220 0.873179
O O4 0.002828 0.728595 0.047984
O O5 0.251426 0.272345 0.289138
O O6 0.359597 0.000000 0.152717
O O7 0.441954 0.242121 0.991285
O O8 0.689557 0.771506 0.662931
O O9 0.940947 0.727608 0.421792
O O10 0.832853 0.000000 0.558133
O O11 0.357195 0.500000 0.777966
O O12 0.346162 0.749935 0.855502
O O13 0.494822 0.731628 0.584794
O O14 0.835224 0.500000 0.932851
O O15 0.964725 0.740224 0.837748
O O16 0.697550 0.731544 0.126156
O O17 0.109477 0.500000 0.256446
O O18 0.096177 0.730418 0.355475
O O19 0.522424 0.000000 0.846202
O O20 0.582974 0.000000 0.454388
#
# Coordination Sequence:
#
# PCOD8054074 Si02
#       8
#     4   4   4   4   4   4   4   4
#     4   8  16  31  55  82 108 138 179 225 272 324
#     4   9  16  32  57  83 106 137 181 227 274 322
#     4   9  16  32  57  83 106 137 181 227 274 322
#     4  11  22  38  58  81 111 148 183 222 273 328
#     4  11  22  38  58  81 111 148 183 222 273 328
#     4  11  22  35  53  83 116 144 181 227 269 319
#     4   8  16  31  55  82 108 138 179 225 272 324
#     4  11  22  35  53  83 116 144 181 227 269 319
#
# _framework density 18.263781000000002
#
# number of rings (size 3 to 8) (size 9 to 14) (size 15 to 20)
#    0.000    2.250    2.500    3.000    0.000    1.000 
#    0.000    6.250    0.000    0.000    0.000    0.000 
#    0.000    0.000    0.000    0.000    0.000    0.000 
#
# Total GULP energy -198351.566494 kJ/mol
# GULP energy per Si atom -12396.972906 kJ/mol
# Density = 1.822221 g / cm^3
# Si number density = 18.263781 Si / 1000 Ang^3
#
#
#
# Elastic Constant Matrix: (Units=GPa)
#
#
# Indices 1 2 3 4 5 6 
#
# 1 164.4880 38.6274 80.1830 0.0016 -13.9322 -0.0002
# 2 38.6274 45.7304 28.5539 0.0121 -1.8753 -0.0045
# 3 80.1830 28.5539 103.2557 0.0046 -14.4460 -0.0021
# 4 0.0016 0.0121 0.0046 14.5912 -0.0019 4.8051
# 5 -13.9322 -1.8753 -14.4460 -0.0019 34.6536 0.0005
# 6 -0.0002 -0.0045 -0.0021 4.8051 0.0005 23.7671
#
#
#
# Elastic Compliance Matrix: (Units=1/GPa)
#
#
# Indices 1 2 3 4 5 6 
#
# 1 0.010564 -0.004661 -0.006749 0.000006 0.001181 -0.000003
# 2 -0.004661 0.028584 -0.004599 -0.000025 -0.002244 0.000010
# 3 -0.006749 -0.004599 0.016761 0.000000 0.004025 0.000001
# 4 0.000006 -0.000025 0.000000 0.073423 0.000005 -0.014844
# 5 0.001181 -0.002244 0.004025 0.000005 0.030888 -0.000002
# 6 -0.000003 0.000010 0.000001 -0.014844 -0.000002 0.045076
#
#
# Mechanical properties :
#
#
# Convention : Reuss Voigt Hill
#
# Bulk Modulus (GPa) = 41.85813 67.57807 54.71810
# Shear Modulus (GPa) = 20.38505 25.67637 23.03071
#
# Velocity S-wave (km/s) = 3.34450 3.75355 3.55492
# Velocity P-wave (km/s) = 6.15489 7.47442 6.84652
#
# Compressibility (1/GPa) = 0.02389022
#
# Stress axis : x y z
#
# Youngs Moduli (GPa) = 94.65972 34.98499 59.66259
#
# Poissons Ratio (x) = 0.16305 0.40269
# Poissons Ratio (y) = 0.44116 0.27440
# Poissons Ratio (z) = 0.63891 0.16091
#
# Static dielectric constant tensor:
#      x y z
#    x 3.762130 0.000000 -0.376380 
#    y 0.000000 3.130120 0.000000 
#    z -0.376380 0.000000 3.210590 
# 
# 
# High freq. dielectric constant tensor:
#      x y z
#    x 1.708870 0.000000 -0.024650 
#    y 0.000000 1.689410 0.000000 
#    z -0.024650 0.000000 1.699970 
# 
# From -- ./inp_files/31638.got.cif
#   From: 2010.03.12/outbox.cif.g09.slc.cpg/sg8_16_cif.got.tgz:31638.got - 2010.03.31 10:45:26.
