data_PCOD8054157
_publ_section_title
;
Structure prediction by ZEFSAII (Michael W. Deem and Ramdas Pophale) SiO2 
 PCOD8054157
Probable space group: C M
;
_chemical_formula_sum "Si O2"
_cell_formula_units_Z 16
_cell_length_a 30.000000
_cell_length_b 9.000000
_cell_length_c 12.000000
_cell_angle_alpha 90.000000
_cell_angle_beta 150.000000
_cell_angle_gamma 90.000000
_cell_volume 1620.000000
_symmetry_space_group_name_H-M "C M"
_symmetry_group_IT_number 8
_symmetry_cell_setting 'monoclinic'
loop_
_space_group_symop_operation_xyz
x,y,z
x,-y,z
1/2+x,1/2+y,z
1/2+x,1/2-y,z
loop_
_atom_site_type_symbol
_atom_site_label
_atom_site_fract_x
_atom_site_fract_y
_atom_site_fract_z
Si Si1 0.674630 0.323433 0.591640
Si Si2 0.664024 0.324157 0.018152
Si Si3 0.815694 0.175608 0.471719
Si Si4 0.460220 0.325367 0.601786
Si Si5 0.990323 0.668961 0.210425
Si Si6 0.813024 0.331536 0.695814
Si Si7 0.676965 0.167759 0.826318
Si Si8 0.965819 0.665487 0.395081
O O1 0.674902 0.500000 0.608546
O O2 0.573532 0.268505 0.348868
O O3 0.740450 0.278609 0.631745
O O4 0.707705 0.248146 0.778680
O O5 0.666685 0.500000 0.014456
O O6 0.726167 0.263561 0.249317
O O7 0.563373 0.271709 0.833326
O O8 0.709698 0.257802 0.005101
O O9 0.823728 0.216513 0.618295
O O10 0.900300 0.229079 0.577774
O O11 0.802520 0.000000 0.429686
O O12 0.454438 0.500000 0.581929
O O13 0.424246 0.263444 0.404953
O O14 0.026448 0.500000 0.309220
O O15 0.941150 0.726015 0.218185
O O16 0.913938 0.670603 0.955236
O O17 0.788151 0.500000 0.604060
O O18 0.571990 0.168885 0.617347
O O19 0.715494 0.000000 0.910592
O O20 0.928942 0.500000 0.335528
#
# Coordination Sequence:
#
# PCOD8054157 Si02
#       8
#     4   4   4   4   4   4   4   4
#     4  10  20  35  57  85 114 144 181 227 277 326
#     4  10  20  37  60  84 112 146 182 223 274 327
#     4  11  24  40  56  79 110 144 187 233 276 325
#     4   9  20  37  56  80 111 143 177 222 271 321
#     4   9  19  37  58  81 111 145 180 222 274 330
#     4  10  23  41  57  77 108 146 190 233 273 325
#     4   9  17  32  55  85 117 145 178 221 271 328
#     4   8  15  29  53  83 111 139 173 215 266 326
#
# _framework density 9.8765429999999999
#
# number of rings (size 3 to 8) (size 9 to 14) (size 15 to 20)
#    0.000    2.500    0.000    2.250    0.000    8.000 
#    0.000    5.000    0.000    0.000    0.000    0.000 
#    0.000    0.000    0.000    0.000    0.000    0.000 
#
# Total GULP energy -198247.348619 kJ/mol
# GULP energy per Si atom -12390.459289 kJ/mol
# Density = 0.985406 g / cm^3
# Si number density = 9.876543 Si / 1000 Ang^3
#
#
#
# Elastic Constant Matrix: (Units=GPa)
#
#
# Indices 1 2 3 4 5 6 
#
# 1 162.6522 46.4617 27.3704 0.0000 2.1926 0.0000
# 2 46.4617 73.3417 19.2942 0.0000 1.7022 0.0000
# 3 27.3704 19.2942 51.2838 0.0000 -3.8151 0.0000
# 4 0.0000 0.0000 0.0000 25.8523 0.0000 -3.4851
# 5 2.1926 1.7022 -3.8151 0.0000 26.5985 0.0000
# 6 0.0000 0.0000 0.0000 -3.4851 0.0000 40.4207
#
#
#
# Elastic Compliance Matrix: (Units=1/GPa)
#
#
# Indices 1 2 3 4 5 6 
#
# 1 0.007812 -0.004239 -0.002630 0.000000 -0.000750 0.000000
# 2 -0.004239 0.017519 -0.004433 0.000000 -0.001408 0.000000
# 3 -0.002630 -0.004433 0.022852 0.000000 0.003778 0.000000
# 4 0.000000 0.000000 0.000000 0.039136 0.000000 0.003374
# 5 -0.000750 -0.001408 0.003778 0.000000 0.038290 0.000000
# 6 0.000000 0.000000 0.000000 0.003374 0.000000 0.025031
#
#
# Mechanical properties :
#
#
# Convention : Reuss Voigt Hill
#
# Bulk Modulus (GPa) = 39.09661 52.61448 45.85554
# Shear Modulus (GPa) = 27.50709 31.51773 29.51241
#
# Velocity S-wave (km/s) = 3.73573 3.99881 3.86951
# Velocity P-wave (km/s) = 6.20026 6.92925 6.57487
#
# Compressibility (1/GPa) = 0.02557767
#
# Stress axis : x y z
#
# Youngs Moduli (GPa) = 128.01217 57.07950 43.75990
#
# Poissons Ratio (x) = 0.24199 0.11509
# Poissons Ratio (y) = 0.54270 0.19400
# Poissons Ratio (z) = 0.33667 0.25305
#
# Static dielectric constant tensor:
#      x y z
#    x 3.997810 0.000000 -0.053970 
#    y 0.000000 3.681730 0.000000 
#    z -0.053970 0.000000 3.534690 
# 
# 
# High freq. dielectric constant tensor:
#      x y z
#    x 1.788270 0.000000 0.002850 
#    y 0.000000 1.768700 0.000000 
#    z 0.002850 0.000000 1.759220 
# 
# From -- ./inp_files/21561.got.cif
#   From: 2010.03.12/outbox.ucp.g09.slc.cvg/sg8_11_cif.got.tgz:21561.got - 2010.06.21 13:25:46.
