data_PCOD8054897
_publ_section_title
;
Structure prediction by ZEFSAII (Michael W. Deem and Ramdas Pophale) SiO2 
 PCOD8054897
Probable space group: C C
;
_chemical_formula_sum "Si O2"
_cell_formula_units_Z 32
_cell_length_a 10.789323
_cell_length_b 15.281866
_cell_length_c 13.953321
_cell_angle_alpha 90.000000
_cell_angle_beta 141.058889
_cell_angle_gamma 90.000000
_cell_volume 1445.999589
_symmetry_space_group_name_H-M "C C"
_symmetry_group_IT_number 9
_symmetry_cell_setting 'monoclinic'
loop_
_space_group_symop_operation_xyz
x,y,z
x,-y,1/2+z
1/2+x,1/2+y,z
1/2+x,1/2-y,1/2+z
loop_
_atom_site_type_symbol
_atom_site_label
_atom_site_fract_x
_atom_site_fract_y
_atom_site_fract_z
Si Si1 0.929080 0.116844 0.363180
Si Si2 0.642866 0.923790 0.859607
Si Si3 0.272420 0.848026 0.707511
Si Si4 0.749503 0.484618 0.551434
Si Si5 0.625952 0.774659 0.385531
Si Si6 0.522959 0.811141 0.116208
Si Si7 0.211519 0.442948 0.549824
Si Si8 0.864713 0.532146 0.425249
O O1 0.776483 0.121716 0.359421
O O2 0.842842 0.058791 0.224249
O O3 0.975975 0.215442 0.357627
O O4 0.128167 0.068146 0.518091
O O5 0.512177 0.848036 0.835262
O O6 0.482998 0.992149 0.718121
O O7 0.776487 0.979082 0.015497
O O8 0.167999 0.894762 0.551780
O O9 0.191168 0.750881 0.672385
O O10 0.225490 0.910313 0.771198
O O11 0.729334 0.484813 0.423572
O O12 0.518633 0.815187 0.228707
O O13 0.725628 0.848677 0.509938
O O14 0.806198 0.718616 0.451815
O O15 0.535870 0.907757 0.079046
O O16 0.980959 0.458778 0.435834
#
# Coordination Sequence:
#
# PCOD8054897 Si02
#       8
#     4   4   4   4   4   4   4   4
#     4  12  23  42  66 101 135 168 225 273 326 395
#     4   9  23  42  66  94 137 173 212 268 333 389
#     4   9  22  41  63  96 134 167 216 269 326 382
#     4  10  21  39  68  97 130 176 213 267 329 392
#     4  12  26  38  67  99 129 173 223 272 329 382
#     4  12  22  42  68  97 128 168 227 277 315 393
#     4  11  24  42  67  95 133 175 217 272 328 391
#     4  11  21  42  67  97 130 170 217 270 324 390
#
# _framework density 22.130020999999999
#
# number of rings (size 3 to 8) (size 9 to 14) (size 15 to 20)
#    0.750    0.500    5.000    0.750    1.750    0.000 
#    0.000    5.000    0.000    0.000    0.000    0.000 
#    0.000    0.000    0.000    0.000    0.000    0.000 
#
# Total GULP energy -198256.432119 kJ/mol
# GULP energy per Si atom -12391.027007 kJ/mol
# Density = 2.207965 g / cm^3
# Si number density = 22.130021 Si / 1000 Ang^3
#
#
#
# Elastic Constant Matrix: (Units=GPa)
#
#
# Indices 1 2 3 4 5 6 
#
# 1 121.0503 34.2465 21.5467 -0.0001 -17.3520 0.0000
# 2 34.2465 68.1122 8.7344 0.0001 -5.0792 0.0001
# 3 21.5467 8.7344 48.2062 0.0000 -7.3822 0.0001
# 4 -0.0001 0.0001 0.0000 27.1864 0.0000 -1.7500
# 5 -17.3520 -5.0792 -7.3822 0.0000 30.5802 0.0000
# 6 0.0000 0.0001 0.0001 -1.7500 0.0000 34.8678
#
#
#
# Elastic Compliance Matrix: (Units=1/GPa)
#
#
# Indices 1 2 3 4 5 6 
#
# 1 0.010826 -0.004680 -0.003291 0.000000 0.004571 0.000000
# 2 -0.004680 0.017163 -0.001026 0.000000 -0.000053 0.000000
# 3 -0.003291 -0.001026 0.022937 0.000000 0.003499 0.000000
# 4 0.000000 0.000000 0.000000 0.036902 0.000000 0.001852
# 5 0.004571 -0.000053 0.003499 0.000000 0.036131 0.000000
# 6 0.000000 0.000000 0.000000 0.001852 0.000000 0.028773
#
#
# Mechanical properties :
#
#
# Convention : Reuss Voigt Hill
#
# Bulk Modulus (GPa) = 30.36610 40.71378 35.53994
# Shear Modulus (GPa) = 27.51745 30.04962 28.78353
#
# Velocity S-wave (km/s) = 3.53008 3.68892 3.61037
# Velocity P-wave (km/s) = 5.51060 6.04828 5.78569
#
# Compressibility (1/GPa) = 0.03293145
#
# Stress axis : x y z
#
# Youngs Moduli (GPa) = 92.36820 58.26634 43.59790
#
# Poissons Ratio (x) = 0.27271 0.14348
# Poissons Ratio (y) = 0.43233 0.04472
# Poissons Ratio (z) = 0.30398 0.05976
#
# Static dielectric constant tensor:
#      x y z
#    x 3.995800 0.000000 -0.234000 
#    y 0.000000 3.638040 0.000000 
#    z -0.234000 0.000000 3.851960 
# 
# 
# High freq. dielectric constant tensor:
#      x y z
#    x 1.873870 0.000000 -0.019210 
#    y 0.000000 1.846510 0.000000 
#    z -0.019210 0.000000 1.860520 
# 
# From -- ./inp_files/24861.got.cif
#   From: 2010.06.25/outbox.cif.g09.slc.cpg/sg9_13_cif.got.tgz:24861.got - 2010.06.27 21:40:51.
