data_PCOD8054738
_publ_section_title
;
Structure prediction by ZEFSAII (Michael W. Deem and Ramdas Pophale) SiO2 
 PCOD8054738
Probable space group: C C
;
_chemical_formula_sum "Si O2"
_cell_formula_units_Z 32
_cell_length_a 10.064595
_cell_length_b 16.641093
_cell_length_c 22.361937
_cell_angle_alpha 90.000000
_cell_angle_beta 153.536149
_cell_angle_gamma 90.000000
_cell_volume 1669.033314
_symmetry_space_group_name_H-M "C C"
_symmetry_group_IT_number 9
_symmetry_cell_setting 'monoclinic'
loop_
_space_group_symop_operation_xyz
x,y,z
x,-y,1/2+z
1/2+x,1/2+y,z
1/2+x,1/2-y,1/2+z
loop_
_atom_site_type_symbol
_atom_site_label
_atom_site_fract_x
_atom_site_fract_y
_atom_site_fract_z
Si Si1 0.326010 0.342726 0.735850
Si Si2 0.187578 0.727380 0.967431
Si Si3 0.631954 0.046614 0.955997
Si Si4 0.527636 0.548110 0.521678
Si Si5 0.611559 0.426824 0.741891
Si Si6 0.834696 0.312110 0.729745
Si Si7 0.468384 0.268188 0.007639
Si Si8 0.573748 0.938479 0.737168
O O1 0.511927 0.289786 0.856940
O O2 0.553853 0.380536 0.780264
O O3 0.162696 0.414049 0.705784
O O4 0.075993 0.286995 0.605141
O O5 0.081953 0.636644 0.910962
O O6 0.540334 0.739333 0.097250
O O7 0.144156 0.743391 0.019589
O O8 0.312670 0.004998 0.835180
O O9 0.846385 0.002884 0.996264
O O10 0.795318 0.047197 0.086196
O O11 0.538134 0.638993 0.549829
O O12 0.370271 0.541026 0.393933
O O13 0.863527 0.516408 0.650319
O O14 0.789355 0.370042 0.768108
O O15 0.901947 0.364479 0.698277
O O16 0.113613 0.253983 0.855985
#
# Coordination Sequence:
#
# PCOD8054738 Si02
#       8
#     4   4   4   4   4   4   4   4
#     4  12  26  43  65  96 140 162 208 282 324 367
#     4  11  23  44  66  96 131 169 215 270 323 377
#     4  11  21  42  69  89 123 173 220 253 310 394
#     4  11  21  42  69  89 123 173 220 253 310 394
#     4  11  23  42  65  96 128 166 215 267 315 381
#     4  10  20  43  65  92 130 164 224 258 308 393
#     4  11  23  44  66  96 131 169 215 270 323 377
#     4  11  23  42  65  96 128 166 215 267 315 381
#
# _framework density 19.172775000000001
#
# number of rings (size 3 to 8) (size 9 to 14) (size 15 to 20)
#    0.000    1.000   10.000    0.000    3.500    2.000 
#    4.500    0.000    0.000    0.000    0.000    0.000 
#    0.000    0.000    0.000    0.000    0.000    0.000 
#
# Total GULP energy -198439.448486 kJ/mol
# GULP energy per Si atom -12402.465530 kJ/mol
# Density = 1.912914 g / cm^3
# Si number density = 19.172775 Si / 1000 Ang^3
#
#
#
# Elastic Constant Matrix: (Units=GPa)
#
#
# Indices 1 2 3 4 5 6 
#
# 1 72.9555 15.3051 4.8158 -0.0051 -7.4476 0.0010
# 2 15.3051 73.0284 13.0029 -0.0070 0.7746 0.0023
# 3 4.8158 13.0029 93.6070 -0.0101 3.9699 0.0063
# 4 -0.0051 -0.0070 -0.0101 27.5985 -0.0033 6.1337
# 5 -7.4476 0.7746 3.9699 -0.0033 31.0716 -0.0006
# 6 0.0010 0.0023 0.0063 6.1337 -0.0006 31.5931
#
#
#
# Elastic Compliance Matrix: (Units=1/GPa)
#
#
# Indices 1 2 3 4 5 6 
#
# 1 0.014753 -0.003043 -0.000492 0.000002 0.003675 -0.000001
# 2 -0.003043 0.014669 -0.001845 0.000003 -0.000859 -0.000001
# 3 -0.000492 -0.001845 0.011027 0.000004 -0.001481 -0.000003
# 4 0.000002 0.000003 0.000004 0.037868 0.000004 -0.007352
# 5 0.003675 -0.000859 -0.001481 0.000004 0.033275 0.000000
# 6 -0.000001 -0.000001 -0.000003 -0.007352 0.000000 0.033080
#
#
# Mechanical properties :
#
#
# Convention : Reuss Voigt Hill
#
# Bulk Modulus (GPa) = 33.68242 33.98205 33.83223
# Shear Modulus (GPa) = 30.24288 31.81713 31.03001
#
# Velocity S-wave (km/s) = 3.97594 4.07811 4.02735
# Velocity P-wave (km/s) = 6.21960 6.31959 6.26980
#
# Compressibility (1/GPa) = 0.02968908
#
# Stress axis : x y z
#
# Youngs Moduli (GPa) = 67.78253 68.17259 90.68392
#
# Poissons Ratio (x) = 0.20747 0.04463
# Poissons Ratio (y) = 0.20628 0.16727
# Poissons Ratio (z) = 0.03336 0.12575
#
# Static dielectric constant tensor:
#      x y z
#    x 3.499780 -0.000040 0.051760 
#    y -0.000040 4.208450 -0.000170 
#    z 0.051760 -0.000170 3.860740 
# 
# 
# High freq. dielectric constant tensor:
#      x y z
#    x 1.744230 0.000000 0.001710 
#    y 0.000000 1.739610 0.000000 
#    z 0.001710 0.000000 1.753610 
# 
# From -- ./inp_files/11843.got.cif
#   From: 2010.06.25/outbox.cif.g09.slc.cpg/sg9_6_cif.got.tgz:11843.got - 2010.06.27 21:40:51.
