data_PCOD8054799
_publ_section_title
;
Structure prediction by ZEFSAII (Michael W. Deem and Ramdas Pophale) SiO2 
 PCOD8054799
Probable space group: C C
;
_chemical_formula_sum "Si O2"
_cell_formula_units_Z 32
_cell_length_a 21.702636
_cell_length_b 12.948975
_cell_length_c 15.559197
_cell_angle_alpha 90.000000
_cell_angle_beta 160.285682
_cell_angle_gamma 90.000000
_cell_volume 1474.995487
_symmetry_space_group_name_H-M "C C"
_symmetry_group_IT_number 9
_symmetry_cell_setting 'monoclinic'
loop_
_space_group_symop_operation_xyz
x,y,z
x,-y,1/2+z
1/2+x,1/2+y,z
1/2+x,1/2-y,1/2+z
loop_
_atom_site_type_symbol
_atom_site_label
_atom_site_fract_x
_atom_site_fract_y
_atom_site_fract_z
Si Si1 0.491810 0.003710 0.530930
Si Si2 0.540001 0.768756 0.050982
Si Si3 0.645960 0.412184 0.814442
Si Si4 0.798750 0.975396 0.802156
Si Si5 0.373838 0.097765 0.044375
Si Si6 0.231557 0.865297 0.117308
Si Si7 0.019729 0.193549 0.499572
Si Si8 0.184262 0.665528 0.565745
O O1 0.508439 0.127054 0.565126
O O2 0.642789 0.953306 0.666721
O O3 0.498026 0.944544 0.629808
O O4 0.291265 0.980970 0.225008
O O5 0.639222 0.680656 0.236857
O O6 0.674196 0.795834 0.150544
O O7 0.356792 0.731279 0.759616
O O8 0.457456 0.472405 0.565884
O O9 0.804588 0.495498 0.003312
O O10 0.668178 0.360674 0.936365
O O11 0.861857 0.874560 0.835231
O O12 0.731023 0.044843 0.633572
O O13 0.502240 0.173473 0.269622
O O14 0.209572 0.173662 0.799612
O O15 0.424837 0.804449 0.383530
O O16 0.062743 0.828275 0.955346
#
# Coordination Sequence:
#
# PCOD8054799 Si02
#       8
#     4   4   4   4   4   4   4   4
#     4  10  21  39  60  86 119 155 196 247 301 355
#     4  10  21  38  60  88 119 152 196 247 293 349
#     4  10  21  38  61  89 120 155 198 244 296 354
#     4   9  20  39  58  85 120 151 194 251 300 355
#     4  10  22  40  61  87 121 160 198 244 299 357
#     4  11  23  39  61  88 118 159 200 248 303 357
#     4  10  23  40  59  86 122 156 198 251 302 359
#     4  10  21  37  60  87 117 156 196 242 296 352
#
# _framework density 21.694980000000001
#
# number of rings (size 3 to 8) (size 9 to 14) (size 15 to 20)
#    0.000    2.000    0.000    3.000    0.000    9.000 
#    0.000    3.750    0.000    0.000    0.000    0.000 
#    0.000    0.000    0.000    0.000    0.000    0.000 
#
# Total GULP energy -198265.455472 kJ/mol
# GULP energy per Si atom -12391.590967 kJ/mol
# Density = 2.164560 g / cm^3
# Si number density = 21.694980 Si / 1000 Ang^3
#
#
#
# Elastic Constant Matrix: (Units=GPa)
#
#
# Indices 1 2 3 4 5 6 
#
# 1 90.9280 20.2728 22.8365 0.0017 -0.8399 0.0016
# 2 20.2728 66.0243 20.9845 0.0009 -4.9743 -0.0003
# 3 22.8365 20.9845 71.7786 0.0015 -9.0942 0.0010
# 4 0.0017 0.0009 0.0015 20.5820 0.0010 -0.2704
# 5 -0.8399 -4.9743 -9.0942 0.0010 39.3175 0.0001
# 6 0.0016 -0.0003 0.0010 -0.2704 0.0001 25.0146
#
#
#
# Elastic Compliance Matrix: (Units=1/GPa)
#
#
# Indices 1 2 3 4 5 6 
#
# 1 0.012438 -0.002856 -0.003229 -0.000001 -0.000843 -0.000001
# 2 -0.002856 0.017393 -0.004023 0.000000 0.001209 0.000001
# 3 -0.003229 -0.004023 0.016547 -0.000001 0.003249 -0.000001
# 4 -0.000001 0.000000 -0.000001 0.048593 -0.000001 0.000525
# 5 -0.000843 0.001209 0.003249 -0.000001 0.026320 0.000000
# 6 -0.000001 0.000001 -0.000001 0.000525 0.000000 0.039982
#
#
# Mechanical properties :
#
#
# Convention : Reuss Voigt Hill
#
# Bulk Modulus (GPa) = 38.22447 39.65760 38.94103
# Shear Modulus (GPa) = 26.28688 27.95864 27.12276
#
# Velocity S-wave (km/s) = 3.48466 3.59376 3.53963
# Velocity P-wave (km/s) = 5.81789 5.96150 5.89013
#
# Compressibility (1/GPa) = 0.02616125
#
# Stress axis : x y z
#
# Youngs Moduli (GPa) = 80.40104 57.49570 60.43486
#
# Poissons Ratio (x) = 0.16422 0.19513
# Poissons Ratio (y) = 0.22965 0.24312
# Poissons Ratio (z) = 0.25960 0.23130
#
# Static dielectric constant tensor:
#      x y z
#    x 3.870280 0.000000 0.184040 
#    y 0.000000 4.156330 0.000000 
#    z 0.184040 0.000000 3.766760 
# 
# 
# High freq. dielectric constant tensor:
#      x y z
#    x 1.855090 0.000000 0.014360 
#    y 0.000000 1.856720 0.000000 
#    z 0.014360 0.000000 1.845160 
# 
# From -- ./inp_files/24842.got.cif
#   From: 2010.06.25/outbox.cif.g09.slc.cpg/sg9_13_cif.got.tgz:24842.got - 2010.06.27 21:40:51.
