data_PCOD8054683
_publ_section_title
;
Structure prediction by ZEFSAII (Michael W. Deem and Ramdas Pophale) SiO2 
 PCOD8054683
Probable space group: C C
;
_chemical_formula_sum "Si O2"
_cell_formula_units_Z 32
_cell_length_a 24.761524
_cell_length_b 8.853018
_cell_length_c 18.596664
_cell_angle_alpha 90.000000
_cell_angle_beta 160.250465
_cell_angle_gamma 90.000000
_cell_volume 1377.538114
_symmetry_space_group_name_H-M "C C"
_symmetry_group_IT_number 9
_symmetry_cell_setting 'monoclinic'
loop_
_space_group_symop_operation_xyz
x,y,z
x,-y,1/2+z
1/2+x,1/2+y,z
1/2+x,1/2-y,1/2+z
loop_
_atom_site_type_symbol
_atom_site_label
_atom_site_fract_x
_atom_site_fract_y
_atom_site_fract_z
Si Si1 0.988080 0.319994 0.756600
Si Si2 0.924409 0.902154 0.972524
Si Si3 0.156008 0.442021 0.208416
Si Si4 0.625227 0.399221 0.636062
Si Si5 0.936328 0.573336 0.036734
Si Si6 0.835274 0.104732 0.661025
Si Si7 0.232219 0.683961 0.092988
Si Si8 0.952212 0.432601 0.323700
O O1 0.924204 0.409546 0.607105
O O2 0.896639 0.161129 0.658979
O O3 0.925626 0.414949 0.746851
O O4 0.181036 0.297913 0.996679
O O5 0.831321 0.890767 0.781436
O O6 0.822897 0.970205 0.910981
O O7 0.985920 0.737546 0.069696
O O8 0.065887 0.020525 0.134900
O O9 0.188622 0.267005 0.233623
O O10 0.081631 0.463913 0.194738
O O11 0.036509 0.524225 0.003411
O O12 0.488865 0.383048 0.405417
O O13 0.774209 0.505129 0.798264
O O14 0.764558 0.933977 0.567939
O O15 0.285995 0.850462 0.136281
O O16 0.051469 0.684718 0.896747
#
# Coordination Sequence:
#
# PCOD8054683 Si02
#       8
#     4   4   4   4   4   4   4   4
#     4  11  26  45  66 102 141 183 224 292 365 417
#     4  10  22  39  65 100 134 172 235 287 346 415
#     4  11  22  41  68  98 143 178 235 296 340 423
#     4  11  24  43  72 103 130 188 243 287 347 425
#     4  12  26  42  71 102 141 185 236 295 361 413
#     4  10  24  43  69  96 141 176 235 280 345 428
#     4   9  20  36  64  96 121 172 228 278 324 399
#     4  10  20  41  63  95 131 178 228 281 336 420
#
# _framework density 23.229849000000002
#
# number of rings (size 3 to 8) (size 9 to 14) (size 15 to 20)
#    0.000    1.500    2.500    2.250   10.500    1.000 
#    4.500    1.250    0.000    0.000    0.000    0.000 
#    0.000    0.000    0.000    0.000    0.000    0.000 
#
# Total GULP energy -198251.010502 kJ/mol
# GULP energy per Si atom -12390.688156 kJ/mol
# Density = 2.317698 g / cm^3
# Si number density = 23.229849 Si / 1000 Ang^3
#
#
#
# Elastic Constant Matrix: (Units=GPa)
#
#
# Indices 1 2 3 4 5 6 
#
# 1 93.0692 28.3256 20.8746 0.0000 15.4101 0.0000
# 2 28.3256 84.3301 17.0508 0.0000 9.9497 0.0000
# 3 20.8746 17.0508 58.5484 0.0000 13.5973 0.0000
# 4 0.0000 0.0000 0.0000 22.3499 0.0000 14.7771
# 5 15.4101 9.9497 13.5973 0.0000 27.3027 0.0000
# 6 0.0000 0.0000 0.0000 14.7771 0.0000 49.5459
#
#
#
# Elastic Compliance Matrix: (Units=1/GPa)
#
#
# Indices 1 2 3 4 5 6 
#
# 1 0.013147 -0.003313 -0.002578 0.000000 -0.004929 0.000000
# 2 -0.003313 0.013675 -0.002350 0.000000 -0.001943 0.000000
# 3 -0.002578 -0.002350 0.020520 0.000000 -0.007908 0.000000
# 4 0.000000 0.000000 0.000000 0.055733 0.000000 -0.016622
# 5 -0.004929 -0.001943 -0.007908 0.000000 0.044055 0.000000
# 6 0.000000 0.000000 0.000000 -0.016622 0.000000 0.025141
#
#
# Mechanical properties :
#
#
# Convention : Reuss Voigt Hill
#
# Bulk Modulus (GPa) = 32.40386 40.93885 36.67136
# Shear Modulus (GPa) = 25.12042 31.15282 28.13662
#
# Velocity S-wave (km/s) = 3.29201 3.66603 3.48404
# Velocity P-wave (km/s) = 5.33191 5.96501 5.65733
#
# Compressibility (1/GPa) = 0.03086052
#
# Stress axis : x y z
#
# Youngs Moduli (GPa) = 76.06027 73.12351 48.73316
#
# Poissons Ratio (x) = 0.24228 0.12563
# Poissons Ratio (y) = 0.25201 0.11453
# Poissons Ratio (z) = 0.19607 0.17184
#
# Static dielectric constant tensor:
#      x y z
#    x 4.312940 0.000000 0.215970 
#    y 0.000000 4.113050 0.000000 
#    z 0.215970 0.000000 4.048520 
# 
# 
# High freq. dielectric constant tensor:
#      x y z
#    x 1.917490 0.000000 0.026480 
#    y 0.000000 1.917350 0.000000 
#    z 0.026480 0.000000 1.892180 
# 
# From -- ./inp_files/11324.got.cif
#   From: 2010.06.25/outbox.cif.g09.slc.cpg/sg9_6_cif.got.tgz:11324.got - 2010.06.27 21:40:51.
