data_PCOD8054981
_publ_section_title
;
Structure prediction by ZEFSAII (Michael W. Deem and Ramdas Pophale) SiO2 
 PCOD8054981
Probable space group: C C
;
_chemical_formula_sum "Si O2"
_cell_formula_units_Z 32
_cell_length_a 16.633885
_cell_length_b 9.025331
_cell_length_c 13.627597
_cell_angle_alpha 90.000000
_cell_angle_beta 52.709706
_cell_angle_gamma 90.000000
_cell_volume 1627.638135
_symmetry_space_group_name_H-M "C C"
_symmetry_group_IT_number 9
_symmetry_cell_setting 'monoclinic'
loop_
_space_group_symop_operation_xyz
x,y,z
x,-y,1/2+z
1/2+x,1/2+y,z
1/2+x,1/2-y,1/2+z
loop_
_atom_site_type_symbol
_atom_site_label
_atom_site_fract_x
_atom_site_fract_y
_atom_site_fract_z
Si Si1 0.904320 0.834667 0.194330
Si Si2 0.278444 0.184485 0.445027
Si Si3 0.058680 0.657139 0.540124
Si Si4 0.585663 0.859530 0.626269
Si Si5 0.183131 0.118203 0.048708
Si Si6 0.963205 0.128857 0.246081
Si Si7 0.375911 0.766583 0.500474
Si Si8 0.472457 0.921313 0.903106
O O1 0.814883 0.743897 0.312938
O O2 0.885471 0.827416 0.092369
O O3 0.012983 0.768575 0.140819
O O4 0.901859 0.004307 0.231722
O O5 0.198125 0.294846 0.553543
O O6 0.372779 0.171497 0.448972
O O7 0.231088 0.023392 0.459896
O O8 0.085582 0.490199 0.547416
O O9 0.157618 0.761252 0.482380
O O10 0.967667 0.720919 0.676594
O O11 0.024743 0.665224 0.453103
O O12 0.551524 0.925053 0.755627
O O13 0.259750 0.186111 0.071611
O O14 0.078940 0.075424 0.182079
O O15 0.907827 0.158911 0.388756
O O16 0.446978 0.910865 0.452385
#
# Coordination Sequence:
#
# PCOD8054981 Si02
#       8
#     4   4   4   4   4   4   4   4
#     4  11  24  40  68  93 127 173 211 265 320 375
#     4  10  23  42  63  94 132 164 217 260 313 385
#     4  10  21  42  64  90 129 166 209 264 320 368
#     4  11  20  42  62  95 130 163 213 266 309 384
#     4   9  22  44  61  93 132 170 207 263 319 373
#     4  10  23  44  62  93 132 166 211 272 313 377
#     4  11  22  43  68  91 128 171 213 260 324 380
#     4  10  21  41  66  93 122 175 209 258 324 372
#
# _framework density 19.660388999999999
#
# number of rings (size 3 to 8) (size 9 to 14) (size 15 to 20)
#    0.750    1.000    3.750    0.000    1.750    3.000 
#    9.000    0.000    0.000    0.000    0.000    0.000 
#    0.000    0.000    0.000    0.000    0.000    0.000 
#
# Total GULP energy -198391.937602 kJ/mol
# GULP energy per Si atom -12399.496100 kJ/mol
# Density = 1.961564 g / cm^3
# Si number density = 19.660389 Si / 1000 Ang^3
#
#
#
# Elastic Constant Matrix: (Units=GPa)
#
#
# Indices 1 2 3 4 5 6 
#
# 1 86.4248 38.5254 58.9065 0.0000 10.1890 0.0000
# 2 38.5254 95.2735 32.1734 0.0000 7.2692 0.0000
# 3 58.9065 32.1734 102.9899 0.0000 10.4514 0.0000
# 4 0.0000 0.0000 0.0000 30.9166 0.0000 -3.6850
# 5 10.1890 7.2692 10.4514 0.0000 36.8729 0.0000
# 6 0.0000 0.0000 0.0000 -3.6850 0.0000 35.2160
#
#
#
# Elastic Compliance Matrix: (Units=1/GPa)
#
#
# Indices 1 2 3 4 5 6 
#
# 1 0.020973 -0.004862 -0.010282 0.000000 -0.001923 0.000000
# 2 -0.004862 0.012923 -0.001168 0.000000 -0.000873 0.000000
# 3 -0.010282 -0.001168 0.016107 0.000000 -0.001494 0.000000
# 4 0.000000 0.000000 0.000000 0.032754 0.000000 0.003427
# 5 -0.001923 -0.000873 -0.001494 0.000000 0.028247 0.000000
# 6 0.000000 0.000000 0.000000 0.003427 0.000000 0.028755
#
#
# Mechanical properties :
#
#
# Convention : Reuss Voigt Hill
#
# Bulk Modulus (GPa) = 57.53707 60.43319 58.98513
# Shear Modulus (GPa) = 28.06253 30.93995 29.50124
#
# Velocity S-wave (km/s) = 3.78215 3.97132 3.87789
# Velocity P-wave (km/s) = 6.95714 7.19957 7.07939
#
# Compressibility (1/GPa) = 0.01738010
#
# Stress axis : x y z
#
# Youngs Moduli (GPa) = 47.68137 77.38139 62.08562
#
# Poissons Ratio (x) = 0.37622 0.63834
# Poissons Ratio (y) = 0.23182 0.07249
# Poissons Ratio (z) = 0.49024 0.09035
#
# Static dielectric constant tensor:
#      x y z
#    x 3.525300 0.000000 -0.135130 
#    y 0.000000 3.579030 0.000000 
#    z -0.135130 0.000000 3.383850 
# 
# 
# High freq. dielectric constant tensor:
#      x y z
#    x 1.761840 0.000000 -0.007520 
#    y 0.000000 1.773450 0.000000 
#    z -0.007520 0.000000 1.752500 
# 
# From -- ./inp_files/19145.got.cif
#   From: 2010.06.25/outbox.cif.g09.slc.cpg/sg9_10_cif.got.tgz:19145.got - 2010.06.27 21:40:51.
