data_PCOD8054653
_publ_section_title
;
Structure prediction by ZEFSAII (Michael W. Deem and Ramdas Pophale) SiO2 
 PCOD8054653
Probable space group: C C
;
_chemical_formula_sum "Si O2"
_cell_formula_units_Z 32
_cell_length_a 11.422611
_cell_length_b 8.769764
_cell_length_c 20.214586
_cell_angle_alpha 90.000000
_cell_angle_beta 130.562606
_cell_angle_gamma 90.000000
_cell_volume 1538.359761
_symmetry_space_group_name_H-M "C C"
_symmetry_group_IT_number 9
_symmetry_cell_setting 'monoclinic'
loop_
_space_group_symop_operation_xyz
x,y,z
x,-y,1/2+z
1/2+x,1/2+y,z
1/2+x,1/2-y,1/2+z
loop_
_atom_site_type_symbol
_atom_site_label
_atom_site_fract_x
_atom_site_fract_y
_atom_site_fract_z
Si Si1 0.773620 0.688161 0.963990
Si Si2 0.727000 0.555480 0.547756
Si Si3 0.997846 0.083954 0.068153
Si Si4 0.661679 0.105307 0.623855
Si Si5 0.045733 0.636414 0.975872
Si Si6 0.067634 0.471958 0.716810
Si Si7 0.952620 0.166747 0.649286
Si Si8 0.660264 0.997278 0.895338
O O1 0.643887 0.814624 0.901642
O O2 0.872777 0.679598 0.932877
O O3 0.707092 0.528311 0.968162
O O4 0.887918 0.749971 0.061329
O O5 0.619193 0.475084 0.560533
O O6 0.673235 0.729634 0.522754
O O7 0.899909 0.540624 0.638220
O O8 0.035773 0.261756 0.090894
O O9 0.016352 0.996542 0.146496
O O10 0.827873 0.060127 0.976864
O O11 0.828557 0.159131 0.662233
O O12 0.599399 0.995001 0.544722
O O13 0.685275 0.021422 0.702446
O O14 0.034804 0.574402 0.897126
O O15 0.123614 0.541446 0.806725
O O16 0.077441 0.286267 0.723633
#
# Coordination Sequence:
#
# PCOD8054653 Si02
#       8
#     4   4   4   4   4   4   4   4
#     4  10  20  40  63  90 119 166 212 246 311 374
#     4  11  20  40  68  90 120 167 215 249 301 386
#     4  11  20  40  68  90 120 167 215 249 301 386
#     4  12  21  40  68  92 121 170 218 250 305 388
#     4  12  21  40  68  92 121 170 218 250 305 388
#     4  11  24  43  60  94 134 155 204 273 319 359
#     4  10  20  40  63  90 119 166 212 246 311 374
#     4  11  24  43  60  94 134 155 204 273 319 359
#
# _framework density 20.801376000000001
#
# number of rings (size 3 to 8) (size 9 to 14) (size 15 to 20)
#    0.000    1.000   10.000    0.750    0.000    0.000 
#    9.000    1.250    0.000    0.000    0.000    0.000 
#    0.000    0.000    0.000    0.000    0.000    0.000 
#
# Total GULP energy -198287.170465 kJ/mol
# GULP energy per Si atom -12392.948154 kJ/mol
# Density = 2.075403 g / cm^3
# Si number density = 20.801376 Si / 1000 Ang^3
#
#
#
# Elastic Constant Matrix: (Units=GPa)
#
#
# Indices 1 2 3 4 5 6 
#
# 1 129.5672 39.4205 29.1556 0.0000 -14.6235 0.0000
# 2 39.4205 132.3537 23.2721 0.0000 -1.2218 0.0000
# 3 29.1556 23.2721 52.7673 0.0000 -19.4170 0.0000
# 4 0.0000 0.0000 0.0000 14.4631 0.0000 -8.1261
# 5 -14.6235 -1.2218 -19.4170 0.0000 22.7632 0.0000
# 6 0.0000 0.0000 0.0000 -8.1261 0.0000 48.8731
#
#
#
# Elastic Compliance Matrix: (Units=1/GPa)
#
#
# Indices 1 2 3 4 5 6 
#
# 1 0.009462 -0.002264 -0.002969 0.000000 0.003424 0.000000
# 2 -0.002264 0.008971 -0.004465 0.000000 -0.004782 0.000000
# 3 -0.002969 -0.004465 0.031730 0.000000 0.024919 0.000000
# 4 0.000000 0.000000 0.000000 0.076266 0.000000 0.012681
# 5 0.003424 -0.004782 0.024919 0.000000 0.067129 0.000000
# 6 0.000000 0.000000 0.000000 0.012681 0.000000 0.022570
#
#
# Mechanical properties :
#
#
# Convention : Reuss Voigt Hill
#
# Bulk Modulus (GPa) = 32.50353 55.37606 43.93979
# Shear Modulus (GPa) = 20.34343 32.07589 26.20966
#
# Velocity S-wave (km/s) = 3.13067 3.93110 3.55349
# Velocity P-wave (km/s) = 5.35982 6.87633 6.16488
#
# Compressibility (1/GPa) = 0.03076589
#
# Stress axis : x y z
#
# Youngs Moduli (GPa) = 105.69138 111.47205 31.51563
#
# Poissons Ratio (x) = 0.25241 0.09358
# Poissons Ratio (y) = 0.23932 0.14071
# Poissons Ratio (z) = 0.31382 0.49771
#
# Static dielectric constant tensor:
#      x y z
#    x 4.683130 0.000000 -0.369500 
#    y 0.000000 4.414010 0.000000 
#    z -0.369500 0.000000 3.429790 
# 
# 
# High freq. dielectric constant tensor:
#      x y z
#    x 1.835670 0.000000 -0.021460 
#    y 0.000000 1.829060 0.000000 
#    z -0.021460 0.000000 1.761680 
# 
# From -- ./inp_files/24242.got.cif
#   From: 2010.06.25/outbox.cif.g09.slc.cpg/sg9_13_cif.got.tgz:24242.got - 2010.06.27 21:40:51.
