data_PCOD8054999
_publ_section_title
;
Structure prediction by ZEFSAII (Michael W. Deem and Ramdas Pophale) SiO2 
 PCOD8054999
Probable space group: C C
;
_chemical_formula_sum "Si O2"
_cell_formula_units_Z 32
_cell_length_a 13.722883
_cell_length_b 11.813597
_cell_length_c 16.162970
_cell_angle_alpha 90.000000
_cell_angle_beta 148.195009
_cell_angle_gamma 90.000000
_cell_volume 1380.968822
_symmetry_space_group_name_H-M "C C"
_symmetry_group_IT_number 9
_symmetry_cell_setting 'monoclinic'
loop_
_space_group_symop_operation_xyz
x,y,z
x,-y,1/2+z
1/2+x,1/2+y,z
1/2+x,1/2-y,1/2+z
loop_
_atom_site_type_symbol
_atom_site_label
_atom_site_fract_x
_atom_site_fract_y
_atom_site_fract_z
Si Si1 0.486160 0.261705 0.896170
Si Si2 0.386510 0.956279 0.408443
Si Si3 0.901334 0.340291 0.589789
Si Si4 0.567650 0.686251 0.954086
Si Si5 0.851106 0.138853 0.135115
Si Si6 0.538236 0.405852 0.612889
Si Si7 0.225683 0.586042 0.604602
Si Si8 0.828516 0.871723 0.940815
O O1 0.378723 0.142784 0.833056
O O2 0.429690 0.345501 0.783166
O O3 0.461753 0.332244 0.962281
O O4 0.691287 0.230806 0.017531
O O5 0.336302 0.905964 0.461165
O O6 0.241397 0.048207 0.274972
O O7 0.588937 0.012532 0.564389
O O8 0.753554 0.376107 0.554027
O O9 0.881461 0.205270 0.558353
O O10 0.110497 0.365353 0.765508
O O11 0.387433 0.647416 0.773422
O O12 0.539264 0.667384 0.030835
O O13 0.601320 0.820840 0.967063
O O14 0.985194 0.170056 0.155061
O O15 0.801866 0.004557 0.092634
O O16 0.378918 0.499262 0.492265
#
# Coordination Sequence:
#
# PCOD8054999 Si02
#       8
#     4   4   4   4   4   4   4   4
#     4  10  21  41  68  94 123 162 216 276 327 378
#     4  10  22  42  67  95 126 167 221 280 332 389
#     4  11  22  39  67  96 126 166 222 285 336 387
#     4  12  25  42  63  93 133 178 217 269 329 396
#     4  11  24  43  66  95 129 169 214 268 326 391
#     4  12  25  40  62  94 136 178 217 263 327 399
#     4  11  24  44  66  92 130 172 221 272 330 394
#     4  11  21  41  67  97 127 168 224 281 333 388
#
# _framework density 23.172136999999999
#
# number of rings (size 3 to 8) (size 9 to 14) (size 15 to 20)
#    0.000    1.000    0.000    9.000    0.000    4.000 
#    0.000    2.500    0.000    0.000    0.000    0.000 
#    0.000    0.000    0.000    0.000    0.000    0.000 
#
# Total GULP energy -198322.331978 kJ/mol
# GULP energy per Si atom -12395.145749 kJ/mol
# Density = 2.311940 g / cm^3
# Si number density = 23.172137 Si / 1000 Ang^3
#
#
#
# Elastic Constant Matrix: (Units=GPa)
#
#
# Indices 1 2 3 4 5 6 
#
# 1 156.8945 23.4710 21.0011 0.0007 6.4779 0.0002
# 2 23.4710 70.8576 23.8156 0.0006 5.9774 0.0002
# 3 21.0011 23.8156 91.1261 0.0005 12.4076 0.0000
# 4 0.0007 0.0006 0.0005 37.0891 0.0004 0.5292
# 5 6.4779 5.9774 12.4076 0.0004 29.1056 0.0001
# 6 0.0002 0.0002 0.0000 0.5292 0.0001 22.0562
#
#
#
# Elastic Compliance Matrix: (Units=1/GPa)
#
#
# Indices 1 2 3 4 5 6 
#
# 1 0.006814 -0.001866 -0.000986 0.000000 -0.000713 0.000000
# 2 -0.001866 0.016048 -0.003580 0.000000 -0.001355 0.000000
# 3 -0.000986 -0.003580 0.012746 0.000000 -0.004479 0.000000
# 4 0.000000 0.000000 0.000000 0.026971 0.000000 -0.000647
# 5 -0.000713 -0.001355 -0.004479 0.000000 0.036704 0.000000
# 6 0.000000 0.000000 0.000000 -0.000647 0.000000 0.045354
#
#
# Mechanical properties :
#
#
# Convention : Reuss Voigt Hill
#
# Bulk Modulus (GPa) = 43.96271 50.60596 47.28434
# Shear Modulus (GPa) = 30.28782 34.35622 32.32202
#
# Velocity S-wave (km/s) = 3.61928 3.85470 3.73884
# Velocity P-wave (km/s) = 6.03978 6.45741 6.25209
#
# Compressibility (1/GPa) = 0.02274655
#
# Stress axis : x y z
#
# Youngs Moduli (GPa) = 146.75233 62.31215 78.45351
#
# Poissons Ratio (x) = 0.11625 0.07733
# Poissons Ratio (y) = 0.27379 0.28084
# Poissons Ratio (z) = 0.14466 0.22306
#
# Static dielectric constant tensor:
#      x y z
#    x 4.406930 0.000000 0.149370 
#    y 0.000000 4.150330 0.000000 
#    z 0.149370 0.000000 3.893800 
# 
# 
# High freq. dielectric constant tensor:
#      x y z
#    x 1.936300 0.000000 0.009000 
#    y 0.000000 1.908130 0.000000 
#    z 0.009000 0.000000 1.909560 
# 
# From -- ./inp_files/9100.got.cif
#   From: 2010.06.25/outbox.cif.g09.slc.cpg/sg9_5_cif.got.tgz:9100.got - 2010.06.27 21:40:51.
