data_PCOD8054781
_publ_section_title
;
Structure prediction by ZEFSAII (Michael W. Deem and Ramdas Pophale) SiO2 
 PCOD8054781
Probable space group: C C
;
_chemical_formula_sum "Si O2"
_cell_formula_units_Z 32
_cell_length_a 5.069095
_cell_length_b 36.335447
_cell_length_c 10.990477
_cell_angle_alpha 90.000000
_cell_angle_beta 125.127039
_cell_angle_gamma 90.000000
_cell_volume 1655.640910
_symmetry_space_group_name_H-M "C C"
_symmetry_group_IT_number 9
_symmetry_cell_setting 'monoclinic'
loop_
_space_group_symop_operation_xyz
x,y,z
x,-y,1/2+z
1/2+x,1/2+y,z
1/2+x,1/2-y,1/2+z
loop_
_atom_site_type_symbol
_atom_site_label
_atom_site_fract_x
_atom_site_fract_y
_atom_site_fract_z
Si Si1 0.311160 0.333023 0.746870
Si Si2 0.755266 0.788212 0.093965
Si Si3 0.759472 0.665795 0.593566
Si Si4 0.625528 0.894272 0.327447
Si Si5 0.874545 0.521277 0.031897
Si Si6 0.138436 0.520228 0.835862
Si Si7 0.829598 0.286558 0.748185
Si Si8 0.379297 0.893149 0.521002
O O1 0.540636 0.315231 0.703919
O O2 0.036674 0.302952 0.693900
O O3 0.121916 0.370629 0.670674
O O4 0.499992 0.341983 0.920372
O O5 0.590072 0.819428 0.128411
O O6 0.729416 0.752842 0.172540
O O7 0.106271 0.804956 0.150155
O O8 0.548515 0.778440 0.921804
O O9 0.879283 0.626609 0.673725
O O10 0.576733 0.937257 0.288456
O O11 0.495306 0.881878 0.420859
O O12 0.001593 0.882758 0.426506
O O13 0.943433 0.564319 0.066787
O O14 0.050615 0.501544 0.190341
O O15 0.507445 0.511645 0.957225
O O16 0.967738 0.508420 0.918462
#
# Coordination Sequence:
#
# PCOD8054781 Si02
#       8
#     4   4   4   4   4   4   4   4
#     4  10  21  37  55  79 109 141 180 226 275 330
#     4  10  21  36  54  78 107 138 178 225 272 328
#     4  10  21  37  55  79 109 141 180 226 275 330
#     4  10  21  37  57  83 113 146 188 234 279 334
#     4  10  21  38  59  86 119 153 194 241 287 342
#     4  10  21  38  59  86 119 153 194 241 287 342
#     4  10  21  36  54  78 107 138 178 225 272 328
#     4  10  21  37  57  83 113 146 188 234 279 334
#
# _framework density 19.327863000000001
#
# number of rings (size 3 to 8) (size 9 to 14) (size 15 to 20)
#    0.000    2.000    0.000    3.000    0.000    4.000 
#    0.000    3.750    0.000    0.000    0.000    0.000 
#    0.000    0.000    0.000    0.000    0.000    0.000 
#
# Total GULP energy -198241.306155 kJ/mol
# GULP energy per Si atom -12390.081635 kJ/mol
# Density = 1.928387 g / cm^3
# Si number density = 19.327863 Si / 1000 Ang^3
#
#
#
# Elastic Constant Matrix: (Units=GPa)
#
#
# Indices 1 2 3 4 5 6 
#
# 1 112.7127 19.0450 28.4128 0.0000 -8.0032 0.0000
# 2 19.0450 74.0280 56.5009 0.0000 -4.3752 0.0000
# 3 28.4128 56.5009 67.6654 0.0000 -7.0795 0.0000
# 4 0.0000 0.0000 0.0000 38.5850 0.0000 -4.1072
# 5 -8.0032 -4.3752 -7.0795 0.0000 20.9019 0.0000
# 6 0.0000 0.0000 0.0000 -4.1072 0.0000 17.6843
#
#
#
# Elastic Compliance Matrix: (Units=1/GPa)
#
#
# Indices 1 2 3 4 5 6 
#
# 1 0.010118 0.001626 -0.005355 0.000000 0.002401 0.000000
# 2 0.001626 0.037669 -0.032394 0.000000 -0.002465 0.000000
# 3 -0.005355 -0.032394 0.044738 0.000000 0.006322 0.000000
# 4 0.000000 0.000000 0.000000 0.026574 0.000000 0.006172
# 5 0.002401 -0.002465 0.006322 0.000000 0.050387 0.000000
# 6 0.000000 0.000000 0.000000 0.006172 0.000000 0.057981
#
#
# Mechanical properties :
#
#
# Convention : Reuss Voigt Hill
#
# Bulk Modulus (GPa) = 49.31450 51.36927 50.34189
# Shear Modulus (GPa) = 16.31469 25.46409 20.88939
#
# Velocity S-wave (km/s) = 2.90850 3.63365 3.29111
# Velocity P-wave (km/s) = 6.07036 6.65132 6.36747
#
# Compressibility (1/GPa) = 0.02027801
#
# Stress axis : x y z
#
# Youngs Moduli (GPa) = 98.83648 26.54703 22.35232
#
# Poissons Ratio (x) = -0.04317 0.11970
# Poissons Ratio (y) = -0.16072 0.72409
# Poissons Ratio (z) = 0.52928 0.85998
#
# Static dielectric constant tensor:
#      x y z
#    x 3.940450 0.000000 -0.061780 
#    y 0.000000 3.484380 0.000000 
#    z -0.061780 0.000000 3.474170 
# 
# 
# High freq. dielectric constant tensor:
#      x y z
#    x 1.775900 0.000000 -0.000630 
#    y 0.000000 1.748210 0.000000 
#    z -0.000630 0.000000 1.749360 
# 
# From -- ./inp_files/4338.got.cif
#   From: 2010.06.25/outbox.cif.g09.slc.cpg/sg9_3_cif.got.tgz:4338.got - 2010.06.27 21:40:51.
