data_PCOD8054691
_publ_section_title
;
Structure prediction by ZEFSAII (Michael W. Deem and Ramdas Pophale) SiO2 
 PCOD8054691
Probable space group: C C
;
_chemical_formula_sum "Si O2"
_cell_formula_units_Z 24
_cell_length_a 15.083468
_cell_length_b 9.174785
_cell_length_c 8.517921
_cell_angle_alpha 90.000000
_cell_angle_beta 70.798529
_cell_angle_gamma 90.000000
_cell_volume 1113.196773
_symmetry_space_group_name_H-M "C C"
_symmetry_group_IT_number 9
_symmetry_cell_setting 'monoclinic'
loop_
_space_group_symop_operation_xyz
x,y,z
x,-y,1/2+z
1/2+x,1/2+y,z
1/2+x,1/2-y,1/2+z
loop_
_atom_site_type_symbol
_atom_site_label
_atom_site_fract_x
_atom_site_fract_y
_atom_site_fract_z
Si Si1 0.397700 0.324165 0.158570
Si Si2 0.990185 0.395947 0.119207
Si Si3 0.305003 0.068637 0.346586
Si Si4 0.555031 0.848585 0.735530
Si Si5 0.740470 0.324431 0.210979
Si Si6 0.893085 0.859754 0.795064
O O1 0.307804 0.226610 0.261803
O O2 0.492763 0.239838 0.147187
O O3 0.402326 0.472645 0.250301
O O4 0.384641 0.350768 0.984709
O O5 0.896976 0.475983 0.241202
O O6 0.986008 0.230724 0.187555
O O7 0.076286 0.493429 0.139972
O O8 0.997425 0.382379 0.927742
O O9 0.297433 0.101030 0.534988
O O10 0.219358 0.962762 0.339490
O O11 0.646890 0.754695 0.711100
O O12 0.801807 0.201851 0.260401
#
# Coordination Sequence:
#
# PCOD8054691 Si02
#       6
#     4   4   4   4   4   4
#     4  11  22  40  64  92 125 171 220 265 322 403
#     4  10  20  41  66  89 125 177 219 259 326 407
#     4  10  20  41  66  89 125 177 219 259 326 407
#     4  11  24  41  64  97 129 166 218 278 330 380
#     4  11  24  41  64  97 129 166 218 278 330 380
#     4  11  22  40  64  92 125 171 220 265 322 403
#
# _framework density 21.559532000000001
#
# number of rings (size 3 to 8) (size 9 to 14) (size 15 to 20)
#    0.000    1.333    0.000   10.000    0.000    5.333 
#    0.000    5.000    0.000    0.000    0.000    0.000 
#    0.000    0.000    0.000    0.000    0.000    0.000 
#
# Total GULP energy -148668.463988 kJ/mol
# GULP energy per Si atom -12389.038666 kJ/mol
# Density = 2.151046 g / cm^3
# Si number density = 21.559532 Si / 1000 Ang^3
#
#
#
# Elastic Constant Matrix: (Units=GPa)
#
#
# Indices 1 2 3 4 5 6 
#
# 1 84.5818 24.6164 7.8918 0.0000 11.9898 0.0000
# 2 24.6164 126.4401 -9.6762 0.0000 2.1145 0.0000
# 3 7.8918 -9.6762 93.9314 0.0000 3.8876 0.0000
# 4 0.0000 0.0000 0.0000 16.5503 0.0000 -6.6521
# 5 11.9898 2.1145 3.8876 0.0000 23.2066 0.0000
# 6 0.0000 0.0000 0.0000 -6.6521 0.0000 38.3051
#
#
#
# Elastic Compliance Matrix: (Units=1/GPa)
#
#
# Indices 1 2 3 4 5 6 
#
# 1 0.013632 -0.002631 -0.001143 0.000000 -0.006612 0.000000
# 2 -0.002631 0.008497 0.001080 0.000000 0.000404 0.000000
# 3 -0.001143 0.001080 0.010909 0.000000 -0.001335 0.000000
# 4 0.000000 0.000000 0.000000 0.064956 0.000000 0.011280
# 5 -0.006612 0.000404 -0.001335 0.000000 0.046694 0.000000
# 6 0.000000 0.000000 0.000000 0.011280 0.000000 0.028065
#
#
# Mechanical properties :
#
#
# Convention : Reuss Voigt Hill
#
# Bulk Modulus (GPa) = 36.16651 38.95747 37.56199
# Shear Modulus (GPa) = 26.68687 34.42050 30.55368
#
# Velocity S-wave (km/s) = 3.52209 4.00000 3.76863
# Velocity P-wave (km/s) = 5.77510 6.28031 6.03299
#
# Compressibility (1/GPa) = 0.02764989
#
# Stress axis : x y z
#
# Youngs Moduli (GPa) = 73.35419 117.68913 91.67113
#
# Poissons Ratio (x) = 0.30964 0.10475
# Poissons Ratio (y) = 0.19299 -0.09897
# Poissons Ratio (z) = 0.08382 -0.12706
#
# Static dielectric constant tensor:
#      x y z
#    x 3.725720 0.000000 0.252910 
#    y 0.000000 5.582980 0.000000 
#    z 0.252910 0.000000 4.046810 
# 
# 
# High freq. dielectric constant tensor:
#      x y z
#    x 1.804450 0.000000 0.021370 
#    y 0.000000 1.875780 0.000000 
#    z 0.021370 0.000000 1.863940 
# 
# From -- ./inp_files/8733.got.cif
#   From: 2010.06.25/outbox.cif.g09.slc.cpg/sg9_5_cif.got.tgz:8733.got - 2010.06.27 21:40:51.
