data_PCOD8054563
_publ_section_title
;
Structure prediction by ZEFSAII (Michael W. Deem and Ramdas Pophale) SiO2 
 PCOD8054563
Probable space group: C C
;
_chemical_formula_sum "Si O2"
_cell_formula_units_Z 32
_cell_length_a 15.823888
_cell_length_b 20.533156
_cell_length_c 9.261808
_cell_angle_alpha 90.000000
_cell_angle_beta 32.904847
_cell_angle_gamma 90.000000
_cell_volume 1634.785585
_symmetry_space_group_name_H-M "C C"
_symmetry_group_IT_number 9
_symmetry_cell_setting 'monoclinic'
loop_
_space_group_symop_operation_xyz
x,y,z
x,-y,1/2+z
1/2+x,1/2+y,z
1/2+x,1/2-y,1/2+z
loop_
_atom_site_type_symbol
_atom_site_label
_atom_site_fract_x
_atom_site_fract_y
_atom_site_fract_z
Si Si1 0.170980 0.946768 0.358960
Si Si2 0.024801 0.059280 0.381779
Si Si3 0.665426 0.948836 0.401685
Si Si4 0.645196 0.332889 0.182162
Si Si5 0.486779 0.176213 0.135598
Si Si6 0.629926 0.189791 0.219932
Si Si7 0.531696 0.058959 0.403702
Si Si8 0.972914 0.819223 0.138430
O O1 0.108703 0.942225 0.609186
O O2 0.108207 0.886401 0.355049
O O3 0.109877 0.011754 0.371240
O O4 0.356271 0.946251 0.100237
O O5 0.846169 0.039927 0.610850
O O6 0.042286 0.131222 0.422812
O O7 0.603270 0.881216 0.418232
O O8 0.640859 0.951459 0.608071
O O9 0.565356 0.006788 0.477253
O O10 0.638343 0.262297 0.274629
O O11 0.519516 0.336812 0.235410
O O12 0.808316 0.344196 0.864359
O O13 0.492476 0.187078 0.299474
O O14 0.527226 0.246832 0.007860
O O15 0.580784 0.130830 0.398802
O O16 0.786787 0.175049 0.904625
#
# Coordination Sequence:
#
# PCOD8054563 Si02
#       8
#     4   4   4   4   4   4   4   4
#     4  12  25  40  59  92 126 157 201 254 302 355
#     4  12  25  40  59  92 126 157 201 254 302 355
#     4  11  22  41  61  85 119 161 202 243 295 362
#     4  10  20  37  66  91 116 158 206 247 299 362
#     4   9  18  38  65  87 114 160 209 239 293 360
#     4   9  18  38  65  87 114 160 209 239 293 360
#     4  11  22  41  61  85 119 161 202 243 295 362
#     4  10  20  37  66  91 116 158 206 247 299 362
#
# _framework density 19.574431000000001
#
# number of rings (size 3 to 8) (size 9 to 14) (size 15 to 20)
#    0.000    1.500    5.000    2.250    3.500    0.000 
#    0.000    2.500    0.000    0.000    0.000    0.000 
#    0.000    0.000    0.000    0.000    0.000    0.000 
#
# Total GULP energy -198310.510745 kJ/mol
# GULP energy per Si atom -12394.406922 kJ/mol
# Density = 1.952988 g / cm^3
# Si number density = 19.574431 Si / 1000 Ang^3
#
#
#
# Elastic Constant Matrix: (Units=GPa)
#
#
# Indices 1 2 3 4 5 6 
#
# 1 53.5464 25.1612 14.2118 0.0011 0.8021 0.0012
# 2 25.1612 97.1655 42.6811 -0.0070 12.2512 0.0040
# 3 14.2118 42.6811 44.7486 0.0054 1.7061 -0.0058
# 4 0.0011 -0.0070 0.0054 30.4321 0.0028 0.2382
# 5 0.8021 12.2512 1.7061 0.0028 33.1082 -0.0025
# 6 0.0012 0.0040 -0.0058 0.2382 -0.0025 36.0865
#
#
#
# Elastic Compliance Matrix: (Units=1/GPa)
#
#
# Indices 1 2 3 4 5 6 
#
# 1 0.021493 -0.004669 -0.002423 -0.000002 0.001332 0.000000
# 2 -0.004669 0.019868 -0.017225 0.000008 -0.006351 -0.000005
# 3 -0.002423 -0.017225 0.039378 -0.000011 0.004403 0.000009
# 4 -0.000002 0.000008 -0.000011 0.032862 -0.000005 -0.000217
# 5 0.001332 -0.006351 0.004403 -0.000005 0.032295 0.000004
# 6 0.000000 -0.000005 0.000009 -0.000217 0.000004 0.027713
#
#
# Mechanical properties :
#
#
# Convention : Reuss Voigt Hill
#
# Bulk Modulus (GPa) = 31.14902 39.95209 35.55055
# Shear Modulus (GPa) = 21.46447 27.48579 24.47513
#
# Velocity S-wave (km/s) = 3.31502 3.75129 3.53988
# Velocity P-wave (km/s) = 5.53174 6.26239 5.90837
#
# Compressibility (1/GPa) = 0.03210374
#
# Stress axis : x y z
#
# Youngs Moduli (GPa) = 46.52773 50.33283 25.39499
#
# Poissons Ratio (x) = 0.23500 0.06154
# Poissons Ratio (y) = 0.21724 0.43742
# Poissons Ratio (z) = 0.11276 0.86698
#
# Static dielectric constant tensor:
#      x y z
#    x 3.540450 0.000000 -0.269860 
#    y 0.000000 4.131040 0.000000 
#    z -0.269860 0.000000 3.216320 
# 
# 
# High freq. dielectric constant tensor:
#      x y z
#    x 1.764260 0.000000 -0.033270 
#    y 0.000000 1.788130 0.000000 
#    z -0.033270 0.000000 1.725370 
# 
# From -- ./inp_files/11042.got.cif
#   From: 2010.06.25/outbox.cif.g09.slc.cpg/sg9_6_cif.got.tgz:11042.got - 2010.06.27 21:40:51.
