data_PCOD8054652
_publ_section_title
;
Structure prediction by ZEFSAII (Michael W. Deem and Ramdas Pophale) SiO2 
 PCOD8054652
Probable space group: C C
;
_chemical_formula_sum "Si O2"
_cell_formula_units_Z 28
_cell_length_a 7.739196
_cell_length_b 12.233365
_cell_length_c 23.692676
_cell_angle_alpha 90.000000
_cell_angle_beta 146.860927
_cell_angle_gamma 90.000000
_cell_volume 1226.262969
_symmetry_space_group_name_H-M "C C"
_symmetry_group_IT_number 9
_symmetry_cell_setting 'monoclinic'
loop_
_space_group_symop_operation_xyz
x,y,z
x,-y,1/2+z
1/2+x,1/2+y,z
1/2+x,1/2-y,1/2+z
loop_
_atom_site_type_symbol
_atom_site_label
_atom_site_fract_x
_atom_site_fract_y
_atom_site_fract_z
Si Si1 0.789980 0.227303 0.203690
Si Si2 0.678129 0.901831 0.362253
Si Si3 0.348751 0.365612 0.904390
Si Si4 0.446801 0.808419 0.128552
Si Si5 0.044852 0.865611 0.352714
Si Si6 0.603624 0.727304 0.053414
Si Si7 0.715476 0.401832 0.894852
O O1 0.446801 0.184277 0.128552
O O2 0.854317 0.344350 0.252833
O O3 0.805254 0.234033 0.140108
O O4 0.078608 0.146748 0.299151
O O5 0.957237 0.871886 0.394341
O O6 0.814995 0.853251 0.457953
O O7 0.618228 0.031638 0.354068
O O8 0.196801 0.250001 0.878552
O O9 0.436370 0.371887 0.862765
O O10 0.666903 0.384127 0.028017
O O11 0.588349 0.734035 0.116996
O O12 0.726699 0.884126 0.229088
O O13 0.275375 0.968361 0.403036
O O14 0.539289 0.844351 0.004271
#
# Coordination Sequence:
#
# PCOD8054652 Si02
#       7
#     4   4   4   4   4   4   4
#     4  10  20  40  64  90 124 160 205 259 307 373
#     4   9  21  39  63  89 124 167 205 255 323 365
#     4  10  20  40  63  89 125 165 206 260 310 376
#     4  10  22  38  60  92 118 162 208 244 314 370
#     4  10  20  40  63  89 125 165 206 260 310 376
#     4  10  20  40  64  90 124 160 205 259 307 373
#     4   9  21  39  63  89 124 167 205 255 323 365
#
# _framework density 22.833600000000001
#
# number of rings (size 3 to 8) (size 9 to 14) (size 15 to 20)
#    0.000    2.286    0.000    1.714    2.000    0.000 
#    7.714   20.000    0.000    0.000    0.000    0.000 
#    0.000    0.000    0.000    0.000    0.000    0.000 
#
# Total GULP energy -173525.806908 kJ/mol
# GULP energy per Si atom -12394.700493 kJ/mol
# Density = 2.278163 g / cm^3
# Si number density = 22.833600 Si / 1000 Ang^3
#
#
#
# Elastic Constant Matrix: (Units=GPa)
#
#
# Indices 1 2 3 4 5 6 
#
# 1 75.7591 9.7733 19.4491 -0.0001 -16.9656 0.0001
# 2 9.7733 148.1739 11.9629 -0.0005 -1.0886 0.0000
# 3 19.4491 11.9629 84.5495 -0.0016 -9.7185 -0.0001
# 4 -0.0001 -0.0005 -0.0016 22.4674 -0.0003 1.9490
# 5 -16.9656 -1.0886 -9.7185 -0.0003 36.8559 0.0000
# 6 0.0001 0.0000 -0.0001 1.9490 0.0000 22.7448
#
#
#
# Elastic Compliance Matrix: (Units=1/GPa)
#
#
# Indices 1 2 3 4 5 6 
#
# 1 0.015416 -0.000751 -0.002709 0.000000 0.006360 0.000000
# 2 -0.000751 0.006864 -0.000840 0.000000 -0.000365 0.000000
# 3 -0.002709 -0.000840 0.012812 0.000001 0.002106 0.000000
# 4 0.000000 0.000000 0.000001 0.044842 0.000001 -0.003843
# 5 0.006360 -0.000365 0.002106 0.000001 0.030605 0.000000
# 6 0.000000 0.000000 0.000000 -0.003843 0.000000 0.044295
#
#
# Mechanical properties :
#
#
# Convention : Reuss Voigt Hill
#
# Bulk Modulus (GPa) = 37.74945 43.42811 40.58878
# Shear Modulus (GPa) = 29.02502 34.23344 31.62923
#
# Velocity S-wave (km/s) = 3.56919 3.87623 3.72587
# Velocity P-wave (km/s) = 5.79257 6.25253 6.02694
#
# Compressibility (1/GPa) = 0.02649046
#
# Stress axis : x y z
#
# Youngs Moduli (GPa) = 64.86606 145.69732 78.05466
#
# Poissons Ratio (x) = 0.10948 0.21144
# Poissons Ratio (y) = 0.04874 0.06558
# Poissons Ratio (z) = 0.17572 0.12241
#
# Static dielectric constant tensor:
#      x y z
#    x 3.962700 0.000000 -0.184520 
#    y 0.000000 3.962100 0.000000 
#    z -0.184520 0.000000 4.170440 
# 
# 
# High freq. dielectric constant tensor:
#      x y z
#    x 1.887610 0.000000 -0.018510 
#    y 0.000000 1.881950 0.000000 
#    z -0.018510 0.000000 1.908190 
# 
# From -- ./inp_files/32611.got.cif
#   From: 2010.06.25/outbox.cif.g09.slc.cpg/sg9_17_cif.got.tgz:32611.got - 2010.06.27 21:40:51.
