data_PCOD8054883
_publ_section_title
;
Structure prediction by ZEFSAII (Michael W. Deem and Ramdas Pophale) SiO2 
 PCOD8054883
Probable space group: C C
;
_chemical_formula_sum "Si O2"
_cell_formula_units_Z 24
_cell_length_a 27.889467
_cell_length_b 7.599252
_cell_length_c 9.930375
_cell_angle_alpha 90.000000
_cell_angle_beta 27.812113
_cell_angle_gamma 90.000000
_cell_volume 981.967037
_symmetry_space_group_name_H-M "C C"
_symmetry_group_IT_number 9
_symmetry_cell_setting 'monoclinic'
loop_
_space_group_symop_operation_xyz
x,y,z
x,-y,1/2+z
1/2+x,1/2+y,z
1/2+x,1/2-y,1/2+z
loop_
_atom_site_type_symbol
_atom_site_label
_atom_site_fract_x
_atom_site_fract_y
_atom_site_fract_z
Si Si1 0.127910 0.022595 0.382710
Si Si2 0.339778 0.146967 0.798810
Si Si3 0.623439 0.022857 0.740364
Si Si4 0.022271 0.845798 0.412268
Si Si5 0.729081 0.153924 0.210747
Si Si6 0.411604 0.852580 0.823559
O O1 0.046298 0.990741 0.465560
O O2 0.181871 0.840614 0.286656
O O3 0.068228 0.099477 0.655994
O O4 0.215427 0.162401 0.114360
O O5 0.398704 0.325763 0.698408
O O6 0.375489 0.089400 0.561548
O O7 0.375924 0.999504 0.810233
O O8 0.569553 0.840832 0.836196
O O9 0.704879 0.991187 0.658132
O O10 0.683326 0.099606 0.466710
O O11 0.535971 0.162840 0.008476
O O12 0.852701 0.173684 0.924127
#
# Coordination Sequence:
#
# PCOD8054883 Si02
#       6
#     4   4   4   4   4   4
#     4  10  21  41  64  94 131 169 216 268 325 386
#     4  10  21  39  65  93 125 170 214 261 324 385
#     4  10  21  41  64  94 131 169 216 268 325 386
#     4  10  22  40  67  95 129 173 215 268 326 386
#     4  10  22  40  67  95 129 173 215 268 326 386
#     4  10  21  39  65  93 125 170 214 261 324 385
#
# _framework density 24.440740000000002
#
# number of rings (size 3 to 8) (size 9 to 14) (size 15 to 20)
#    0.000    2.000    0.000    4.000    0.000    5.333 
#    0.000    6.667    0.000    0.000    0.000    0.000 
#    0.000    0.000    0.000    0.000    0.000    0.000 
#
# Total GULP energy -148781.133517 kJ/mol
# GULP energy per Si atom -12398.427793 kJ/mol
# Density = 2.438511 g / cm^3
# Si number density = 24.440740 Si / 1000 Ang^3
#
#
#
# Elastic Constant Matrix: (Units=GPa)
#
#
# Indices 1 2 3 4 5 6 
#
# 1 198.1993 43.7719 109.3861 0.0000 7.3987 0.0000
# 2 43.7719 49.0469 25.2561 0.0000 -3.3997 0.0000
# 3 109.3861 25.2561 129.1363 0.0000 -7.8546 0.0000
# 4 0.0000 0.0000 0.0000 35.4762 0.0000 4.1725
# 5 7.3987 -3.3997 -7.8546 0.0000 57.7240 0.0000
# 6 0.0000 0.0000 0.0000 4.1725 0.0000 11.6968
#
#
#
# Elastic Compliance Matrix: (Units=1/GPa)
#
#
# Indices 1 2 3 4 5 6 
#
# 1 0.011080 -0.005744 -0.008439 0.000000 -0.002907 0.000000
# 2 -0.005744 0.025681 -0.000020 0.000000 0.002246 0.000000
# 3 -0.008439 -0.000020 0.015086 0.000000 0.003133 0.000000
# 4 0.000000 0.000000 0.000000 0.029422 0.000000 -0.010495
# 5 -0.002907 0.002246 0.003133 0.000000 0.018255 0.000000
# 6 0.000000 0.000000 0.000000 -0.010495 0.000000 0.089237
#
#
# Mechanical properties :
#
#
# Convention : Reuss Voigt Hill
#
# Bulk Modulus (GPa) = 42.66026 81.46784 62.06405
# Shear Modulus (GPa) = 22.22399 34.17729 28.20064
#
# Velocity S-wave (km/s) = 3.01873 3.74354 3.40050
# Velocity P-wave (km/s) = 5.44452 7.21738 6.39271
#
# Compressibility (1/GPa) = 0.02344102
#
# Stress axis : x y z
#
# Youngs Moduli (GPa) = 90.25421 38.93884 66.28528
#
# Poissons Ratio (x) = 0.22368 0.55936
# Poissons Ratio (y) = 0.51845 0.00134
# Poissons Ratio (z) = 0.76162 0.00079
#
# Static dielectric constant tensor:
#      x y z
#    x 5.790640 0.000000 -1.338970 
#    y 0.000000 4.701030 0.000000 
#    z -1.338970 0.000000 5.827960 
# 
# 
# High freq. dielectric constant tensor:
#      x y z
#    x 2.001290 0.000000 -0.006900 
#    y 0.000000 1.975600 0.000000 
#    z -0.006900 0.000000 1.971760 
# 
# From -- ./inp_files/10464.got.cif
#   From: 2010.06.25/outbox.cif.g09.slc.cpg/sg9_6_cif.got.tgz:10464.got - 2010.06.27 21:40:51.
