data_PCOD8054167
_publ_section_title
;
Structure prediction by ZEFSAII (Michael W. Deem and Ramdas Pophale) SiO2 
 PCOD8054167
Probable space group: C C
;
_chemical_formula_sum "Si O2"
_cell_formula_units_Z 32
_cell_length_a 15.508694
_cell_length_b 25.480826
_cell_length_c 14.555139
_cell_angle_alpha 90.000000
_cell_angle_beta 160.189256
_cell_angle_gamma 90.000000
_cell_volume 1949.373419
_symmetry_space_group_name_H-M "C C"
_symmetry_group_IT_number 9
_symmetry_cell_setting 'monoclinic'
loop_
_space_group_symop_operation_xyz
x,y,z
x,-y,1/2+z
1/2+x,1/2+y,z
1/2+x,1/2-y,1/2+z
loop_
_atom_site_type_symbol
_atom_site_label
_atom_site_fract_x
_atom_site_fract_y
_atom_site_fract_z
Si Si1 0.609230 0.282499 0.174690
Si Si2 0.139213 0.897195 0.482466
Si Si3 0.121415 0.502648 0.729481
Si Si4 0.119806 0.894767 0.097463
Si Si5 0.640430 0.944059 0.068085
Si Si6 0.122464 0.037606 0.784080
Si Si7 0.118590 0.782522 0.397900
Si Si8 0.119049 0.439842 0.555698
O O1 0.627355 0.334678 0.133654
O O2 0.616899 0.297621 0.289208
O O3 0.846631 0.246025 0.386333
O O4 0.125531 0.919611 0.366591
O O5 0.111918 0.834862 0.451374
O O6 0.912092 0.919757 0.316036
O O7 0.410582 0.909676 0.799445
O O8 0.122801 0.552984 0.662119
O O9 0.119913 0.449330 0.666905
O O10 0.868278 0.500747 0.538431
O O11 0.374701 0.499971 0.046039
O O12 0.119531 0.933971 0.183202
O O13 0.363477 0.907235 0.276757
O O14 0.870452 0.905878 0.784742
O O15 0.622330 0.003350 0.007997
O O16 0.372635 0.751125 0.678188
#
# Coordination Sequence:
#
# PCOD8054167 Si02
#       8
#     4   4   4   4   4   4   4   4
#     4  10  19  28  40  60  85 112 153 196 216 234
#     4  12  20  30  47  67  87 113 161 199 209 249
#     4   8  17  30  42  57  86 109 141 182 222 272
#     4  10  15  29  43  58  77 116 150 179 217 254
#     4  10  20  30  44  66  86 108 147 202 218 264
#     4  10  17  28  44  63  80 115 152 185 214 256
#     4  10  21  32  40  55  84 119 149 185 225 247
#     4   8  17  27  44  56  79 106 143 180 215 276
#
# _framework density 16.415531000000001
#
# number of rings (size 3 to 8) (size 9 to 14) (size 15 to 20)
#    0.750    1.500    1.250    3.750    0.000    0.000 
#    0.000    0.000    0.000    0.000    0.000    0.000 
#    0.000    0.000    0.000    0.000    0.000  315.000 
#
# Total GULP energy -198278.026553 kJ/mol
# GULP energy per Si atom -12392.376660 kJ/mol
# Density = 1.637817 g / cm^3
# Si number density = 16.415531 Si / 1000 Ang^3
#
#
#
# Elastic Constant Matrix: (Units=GPa)
#
#
# Indices 1 2 3 4 5 6 
#
# 1 22.3086 22.4342 22.1105 0.0160 8.4925 0.0055
# 2 22.4342 87.4095 27.4576 -0.0109 10.4849 -0.0013
# 3 22.1105 27.4576 116.0134 0.0158 28.5824 0.0044
# 4 0.0160 -0.0109 0.0158 22.5773 0.0283 0.2696
# 5 8.4925 10.4849 28.5824 0.0283 19.2796 0.0129
# 6 0.0055 -0.0013 0.0044 0.2696 0.0129 22.1968
#
#
#
# Elastic Compliance Matrix: (Units=1/GPa)
#
#
# Indices 1 2 3 4 5 6 
#
# 1 0.071344 -0.014554 -0.006869 -0.000036 -0.013328 -0.000009
# 2 -0.014554 0.015504 -0.000627 0.000020 -0.001091 0.000005
# 3 -0.006869 -0.000627 0.014569 0.000017 -0.018233 0.000009
# 4 -0.000036 0.000020 0.000017 0.044299 -0.000085 -0.000538
# 5 -0.013328 -0.001091 -0.018233 -0.000085 0.085363 -0.000042
# 6 -0.000009 0.000005 0.000009 -0.000538 -0.000042 0.045058
#
#
# Mechanical properties :
#
#
# Convention : Reuss Voigt Hill
#
# Bulk Modulus (GPa) = 17.44687 41.08178 29.26432
# Shear Modulus (GPa) = 14.73440 23.05934 18.89687
#
# Velocity S-wave (km/s) = 2.99923 3.75204 3.39655
# Velocity P-wave (km/s) = 4.75870 6.62200 5.76611
#
# Compressibility (1/GPa) = 0.05731688
#
# Stress axis : x y z
#
# Youngs Moduli (GPa) = 14.01664 64.50101 68.63843
#
# Poissons Ratio (x) = 0.93878 0.47146
# Poissons Ratio (y) = 0.20400 0.04301
# Poissons Ratio (z) = 0.09628 0.04042
#
# Static dielectric constant tensor:
#      x y z
#    x 2.656630 -0.000020 0.246500 
#    y -0.000020 2.845180 0.000010 
#    z 0.246500 0.000010 3.477260 
# 
# 
# High freq. dielectric constant tensor:
#      x y z
#    x 1.578480 0.000000 0.024440 
#    y 0.000000 1.605230 0.000000 
#    z 0.024440 0.000000 1.658640 
# 
# From -- ./inp_files/26187.got.cif
#   From: 2010.06.25/outbox.cif.g09.slc.cpg/sg9_14_cif.got.tgz:26187.got - 2010.06.27 21:40:51.
