data_PCOD8054037
_publ_section_title
;
Structure prediction by ZEFSAII (Michael W. Deem and Ramdas Pophale) SiO2 
 PCOD8054037
Probable space group: C M
;
_chemical_formula_sum "Si O2"
_cell_formula_units_Z 32
_cell_length_a 9.200260
_cell_length_b 15.140588
_cell_length_c 23.169529
_cell_angle_alpha 90.000000
_cell_angle_beta 152.206010
_cell_angle_gamma 90.000000
_cell_volume 1504.941906
_symmetry_space_group_name_H-M "C M"
_symmetry_group_IT_number 8
_symmetry_cell_setting 'monoclinic'
loop_
_space_group_symop_operation_xyz
x,y,z
x,-y,z
1/2+x,1/2+y,z
1/2+x,1/2-y,z
loop_
_atom_site_type_symbol
_atom_site_label
_atom_site_fract_x
_atom_site_fract_y
_atom_site_fract_z
Si Si1 0.253820 0.660806 0.881760
Si Si2 0.658707 0.240415 0.330227
Si Si3 0.288238 0.244813 0.502226
Si Si4 0.438568 0.660803 0.738313
Si Si5 0.106833 0.901771 0.672186
Si Si6 0.883114 0.102542 0.162497
Si Si7 0.676626 0.403093 0.931903
Si Si8 0.641662 0.602925 0.126649
O O1 0.482662 0.656766 0.907617
O O2 0.099596 0.756520 0.826292
O O3 0.966222 0.592151 0.778070
O O4 0.434259 0.645124 0.004092
O O5 0.595027 0.255766 0.375043
O O6 0.595561 0.332263 0.274767
O O7 0.462946 0.157301 0.238862
O O8 0.026726 0.216235 0.456486
O O9 0.568700 0.174690 0.601059
O O10 0.409985 0.343092 0.558738
O O11 0.592092 0.638615 0.731269
O O12 0.505097 0.586291 0.809459
O O13 0.963548 0.000000 0.621445
O O14 0.956944 0.115424 0.121177
O O15 0.941265 0.000000 0.200824
O O16 0.527702 0.132840 0.047975
O O17 0.690820 0.500000 0.964841
O O18 0.715664 0.500000 0.140458
#
# Coordination Sequence:
#
# PCOD8054037 Si02
#       8
#     4   4   4   4   4   4   4   4
#     4  11  23  40  64  96 130 160 205 263 324 380
#     4  12  24  45  66  92 130 170 217 271 318 379
#     4  11  25  43  64  92 126 167 216 261 319 379
#     4  11  23  42  65  91 125 170 207 255 318 387
#     4  11  23  42  68  94 126 168 215 263 317 389
#     4  10  24  44  67  93 127 172 217 263 321 390
#     4  11  23  39  62  96 128 154 202 264 319 372
#     4  11  24  43  67  94 128 173 218 262 322 388
#
# _framework density 21.263279000000001
#
# number of rings (size 3 to 8) (size 9 to 14) (size 15 to 20)
#    0.000    1.000    2.500    4.500    3.500    4.000 
#    0.000    1.250    0.000    0.000    0.000    0.000 
#    0.000    0.000    0.000    0.000    0.000    0.000 
#
# Total GULP energy -198420.063448 kJ/mol
# GULP energy per Si atom -12401.253965 kJ/mol
# Density = 2.121488 g / cm^3
# Si number density = 21.263279 Si / 1000 Ang^3
#
#
#
# Elastic Constant Matrix: (Units=GPa)
#
#
# Indices 1 2 3 4 5 6 
#
# 1 105.9703 28.7164 40.8870 0.0007 5.1505 -0.0005
# 2 28.7164 76.0956 35.2619 0.0031 4.5398 0.0002
# 3 40.8870 35.2619 113.3778 0.0051 9.8561 0.0025
# 4 0.0007 0.0031 0.0051 19.0504 0.0015 -3.3220
# 5 5.1505 4.5398 9.8561 0.0015 50.0581 0.0003
# 6 -0.0005 0.0002 0.0025 -3.3220 0.0003 29.0096
#
#
#
# Elastic Compliance Matrix: (Units=1/GPa)
#
#
# Indices 1 2 3 4 5 6 
#
# 1 0.011460 -0.002809 -0.003234 0.000001 -0.000288 0.000001
# 2 -0.002809 0.016053 -0.003946 -0.000001 -0.000390 0.000000
# 3 -0.003234 -0.003946 0.011348 -0.000002 -0.001544 -0.000001
# 4 0.000001 -0.000001 -0.000002 0.053562 -0.000001 0.006134
# 5 -0.000288 -0.000390 -0.001544 -0.000001 0.020346 0.000000
# 6 0.000001 0.000000 -0.000001 0.006134 0.000000 0.035174
#
#
# Mechanical properties :
#
#
# Convention : Reuss Voigt Hill
#
# Bulk Modulus (GPa) = 52.95775 56.13049 54.54412
# Shear Modulus (GPa) = 28.70044 32.32885 30.51464
#
# Velocity S-wave (km/s) = 3.67790 3.90347 3.79236
# Velocity P-wave (km/s) = 6.55711 6.83895 6.69952
#
# Compressibility (1/GPa) = 0.01888298
#
# Stress axis : x y z
#
# Youngs Moduli (GPa) = 87.26371 62.29347 88.12307
#
# Poissons Ratio (x) = 0.17497 0.28499
# Poissons Ratio (y) = 0.24510 0.34772
# Poissons Ratio (z) = 0.28222 0.24580
#
# Static dielectric constant tensor:
#      x y z
#    x 3.870040 0.000000 0.102880 
#    y 0.000000 3.789290 -0.000010 
#    z 0.102880 -0.000010 3.832270 
# 
# 
# High freq. dielectric constant tensor:
#      x y z
#    x 1.846620 0.000000 0.003530 
#    y 0.000000 1.830850 0.000000 
#    z 0.003530 0.000000 1.837180 
# 
# From -- ./inp_files/31777.got.cif
#   From: 2010.03.12/outbox.cif.g09.slc.cpg/sg8_16_cif.got.tgz:31777.got - 2010.03.31 10:45:26.
