data_PCOD8054000
_publ_section_title
;
Structure prediction by ZEFSAII (Michael W. Deem and Ramdas Pophale) SiO2 
 PCOD8054000
Probable space group: C M
;
_chemical_formula_sum "Si O2"
_cell_formula_units_Z 24
_cell_length_a 9.465067
_cell_length_b 21.161070
_cell_length_c 7.643260
_cell_angle_alpha 90.000000
_cell_angle_beta 50.270243
_cell_angle_gamma 90.000000
_cell_volume 1177.347112
_symmetry_space_group_name_H-M "C M"
_symmetry_group_IT_number 8
_symmetry_cell_setting 'monoclinic'
loop_
_space_group_symop_operation_xyz
x,y,z
x,-y,z
1/2+x,1/2+y,z
1/2+x,1/2-y,z
loop_
_atom_site_type_symbol
_atom_site_label
_atom_site_fract_x
_atom_site_fract_y
_atom_site_fract_z
Si Si1 0.411030 0.679561 0.925230
Si Si2 0.770157 0.744158 0.719086
Si Si3 0.494527 0.428408 0.589199
Si Si4 0.903589 0.573270 0.185757
Si Si5 0.155539 0.623839 0.688349
Si Si6 0.552268 0.857443 0.394965
O O1 0.588776 0.701981 0.891140
O O2 0.345316 0.735002 0.847688
O O3 0.456989 0.616077 0.783426
O O4 0.255687 0.665437 0.188551
O O5 0.724032 0.804012 0.634965
O O6 0.921051 0.703395 0.497345
O O7 0.500664 0.500000 0.654780
O O8 0.687368 0.411161 0.344717
O O9 0.331583 0.421315 0.576633
O O10 0.945345 0.500000 0.117431
O O11 0.978328 0.590991 0.317818
O O12 0.006744 0.614813 0.959612
O O13 0.059626 0.609189 0.579277
#
# Coordination Sequence:
#
# PCOD8054000 Si02
#       6
#     4   4   4   4   4   4
#     4  11  24  40  67  97 134 176 215 275 328 397
#     4  11  23  41  59 101 135 168 216 269 329 397
#     4  10  22  44  68  93 133 177 220 275 331 386
#     4  11  24  45  70  95 134 177 222 277 328 392
#     4  11  25  41  66  98 133 178 217 272 331 397
#     4  12  25  41  68 100 130 176 220 272 335 393
#
# _framework density 20.384812
#
# number of rings (size 3 to 8) (size 9 to 14) (size 15 to 20)
#    0.000    1.000    6.667    0.500    2.333    5.333 
#    0.000    0.000    0.000    0.000    0.000    0.000 
#    0.000    0.000    0.000    0.000    0.000    0.000 
#
# Total GULP energy -148858.308456 kJ/mol
# GULP energy per Si atom -12404.859038 kJ/mol
# Density = 2.033842 g / cm^3
# Si number density = 20.384812 Si / 1000 Ang^3
#
#
#
# Elastic Constant Matrix: (Units=GPa)
#
#
# Indices 1 2 3 4 5 6 
#
# 1 108.6612 38.9145 71.1394 0.0000 -7.8197 0.0000
# 2 38.9145 85.7042 44.6504 0.0000 -13.9223 0.0000
# 3 71.1394 44.6504 118.0375 0.0000 -17.0189 0.0000
# 4 0.0000 0.0000 0.0000 18.1630 0.0000 -6.8654
# 5 -7.8197 -13.9223 -17.0189 0.0000 45.4619 0.0000
# 6 0.0000 0.0000 0.0000 -6.8654 0.0000 27.7310
#
#
#
# Elastic Compliance Matrix: (Units=1/GPa)
#
#
# Indices 1 2 3 4 5 6 
#
# 1 0.015783 -0.002906 -0.008615 0.000000 -0.001400 0.000000
# 2 -0.002906 0.015347 -0.003645 0.000000 0.002835 0.000000
# 3 -0.008615 -0.003645 0.015505 0.000000 0.003206 0.000000
# 4 0.000000 0.000000 0.000000 0.060741 0.000000 0.015038
# 5 -0.001400 0.002835 0.003206 0.000000 0.023824 0.000000
# 6 0.000000 0.000000 0.000000 0.015038 0.000000 0.039784
#
#
# Mechanical properties :
#
#
# Convention : Reuss Voigt Hill
#
# Bulk Modulus (GPa) = 61.33668 69.09016 65.21342
# Shear Modulus (GPa) = 24.18378 28.78442 26.48410
#
# Velocity S-wave (km/s) = 3.44810 3.76181 3.60836
# Velocity P-wave (km/s) = 6.78286 7.26875 7.03001
#
# Compressibility (1/GPa) = 0.01630346
#
# Stress axis : x y z
#
# Youngs Moduli (GPa) = 63.36032 65.15869 64.49460
#
# Poissons Ratio (x) = 0.18932 0.55561
# Poissons Ratio (y) = 0.18409 0.23511
# Poissons Ratio (z) = 0.54584 0.23753
#
# Static dielectric constant tensor:
#      x y z
#    x 3.867530 0.000000 -0.296310 
#    y 0.000000 3.681280 0.000000 
#    z -0.296310 0.000000 3.638740 
# 
# 
# High freq. dielectric constant tensor:
#      x y z
#    x 1.803360 0.000000 -0.021030 
#    y 0.000000 1.797480 0.000000 
#    z -0.021030 0.000000 1.796730 
# 
# From -- ./inp_files/8916.got.cif
#   From: 2010.03.12/outbox.cif.g09.slc.cpg/sg8_5_cif.got.tgz:8916.got - 2010.03.31 10:45:26.
