data_PCOD8054143
_publ_section_title
;
Structure prediction by ZEFSAII (Michael W. Deem and Ramdas Pophale) SiO2 
 PCOD8054143
Probable space group: C M
;
_chemical_formula_sum "Si O2"
_cell_formula_units_Z 18
_cell_length_a 9.854130
_cell_length_b 10.538786
_cell_length_c 7.313572
_cell_angle_alpha 90.000000
_cell_angle_beta 106.637062
_cell_angle_gamma 90.000000
_cell_volume 727.723311
_symmetry_space_group_name_H-M "C M"
_symmetry_group_IT_number 8
_symmetry_cell_setting 'monoclinic'
loop_
_space_group_symop_operation_xyz
x,y,z
x,-y,z
1/2+x,1/2+y,z
1/2+x,1/2-y,z
loop_
_atom_site_type_symbol
_atom_site_label
_atom_site_fract_x
_atom_site_fract_y
_atom_site_fract_z
Si Si1 0.252550 0.226755 0.383510
Si Si2 0.772179 0.747825 0.808437
Si Si3 0.122908 0.500000 0.864776
Si Si4 0.451022 0.000000 0.466923
Si Si5 0.564642 0.644057 0.002494
Si Si6 0.701190 0.000000 0.294591
O O1 0.222784 0.212268 0.586403
O O2 0.296849 0.371614 0.343691
O O3 0.373342 0.127560 0.371729
O O4 0.109458 0.188593 0.222359
O O5 0.715574 0.882523 0.843449
O O6 0.701034 0.647868 0.920118
O O7 0.943639 0.756931 0.887827
O O8 0.972444 0.500000 0.697419
O O9 0.102617 0.500000 0.075916
O O10 0.604219 0.000000 0.435949
O O11 0.507508 0.500000 0.987126
#
# Coordination Sequence:
#
# PCOD8054143 Si02
#       6
#     4   4   2   2   4   2
#     4  12  28  48  79 114 151 203 263 315 388 461
#     4  12  27  51  78 114 157 206 252 326 390 464
#     4  12  24  51  78 108 156 208 253 316 397 454
#     4  12  28  51  77 116 155 202 268 319 387 467
#     4  12  29  50  78 114 155 202 264 318 387 465
#     4  12  28  50  75 112 155 210 249 327 380 469
#
# _framework density 24.734673999999998
#
# number of rings (size 3 to 8) (size 9 to 14) (size 15 to 20)
#    0.000    0.000    6.667    1.333    4.667    0.000 
#    2.000    1.111    0.000    0.000    0.000    0.000 
#    0.000    0.000    0.000    0.000    0.000    0.000 
#
# Total GULP energy -111606.021367 kJ/mol
# GULP energy per Si atom -12400.669041 kJ/mol
# Density = 2.467838 g / cm^3
# Si number density = 24.734674 Si / 1000 Ang^3
#
#
#
# Elastic Constant Matrix: (Units=GPa)
#
#
# Indices 1 2 3 4 5 6 
#
# 1 78.7247 30.3166 44.4817 0.0000 3.5737 0.0000
# 2 30.3166 158.2810 32.0095 0.0000 9.2387 0.0000
# 3 44.4817 32.0095 201.9031 0.0000 -2.2357 0.0000
# 4 0.0000 0.0000 0.0000 39.8313 0.0000 3.9449
# 5 3.5737 9.2387 -2.2357 0.0000 30.6991 0.0000
# 6 0.0000 0.0000 0.0000 3.9449 0.0000 35.1424
#
#
#
# Elastic Compliance Matrix: (Units=1/GPa)
#
#
# Indices 1 2 3 4 5 6 
#
# 1 0.015346 -0.002247 -0.003039 0.000000 -0.001332 0.000000
# 2 -0.002247 0.006986 -0.000634 0.000000 -0.001887 0.000000
# 3 -0.003039 -0.000634 0.005734 0.000000 0.000962 0.000000
# 4 0.000000 0.000000 0.000000 0.025388 0.000000 -0.002850
# 5 -0.001332 -0.001887 0.000962 0.000000 0.033367 0.000000
# 6 0.000000 0.000000 0.000000 -0.002850 0.000000 0.028776
#
#
# Mechanical properties :
#
#
# Convention : Reuss Voigt Hill
#
# Bulk Modulus (GPa) = 61.62886 72.50270 67.06578
# Shear Modulus (GPa) = 37.63793 43.27461 40.45627
#
# Velocity S-wave (km/s) = 3.90509 4.18730 4.04865
# Velocity P-wave (km/s) = 6.73075 7.26318 7.00203
#
# Compressibility (1/GPa) = 0.01622616
#
# Stress axis : x y z
#
# Youngs Moduli (GPa) = 65.16563 143.13322 174.41157
#
# Poissons Ratio (x) = 0.32160 0.53010
# Poissons Ratio (y) = 0.14642 0.11049
# Poissons Ratio (z) = 0.19806 0.09068
#
# Static dielectric constant tensor:
#      x y z
#    x 4.177650 0.000000 -0.034470 
#    y 0.000000 4.881160 0.000000 
#    z -0.034470 0.000000 4.844140 
# 
# 
# High freq. dielectric constant tensor:
#      x y z
#    x 1.951890 0.000000 -0.003810 
#    y 0.000000 2.003820 0.000000 
#    z -0.003810 0.000000 2.004710 
# 
# From -- ./inp_files/10081.got.cif
#   From: 2010.03.12/outbox.cif.g09.slc.cpg/sg8_6_cif.got.tgz:10081.got - 2010.03.31 10:45:26.
