data_PCOD8054644
_publ_section_title
;
Structure prediction by ZEFSAII (Michael W. Deem and Ramdas Pophale) SiO2 
 PCOD8054644
Probable space group: C C
;
_chemical_formula_sum "Si O2"
_cell_formula_units_Z 28
_cell_length_a 8.828434
_cell_length_b 11.291728
_cell_length_c 21.647731
_cell_angle_alpha 90.000000
_cell_angle_beta 38.557512
_cell_angle_gamma 90.000000
_cell_volume 1345.096714
_symmetry_space_group_name_H-M "C C"
_symmetry_group_IT_number 9
_symmetry_cell_setting 'monoclinic'
loop_
_space_group_symop_operation_xyz
x,y,z
x,-y,1/2+z
1/2+x,1/2+y,z
1/2+x,1/2-y,1/2+z
loop_
_atom_site_type_symbol
_atom_site_label
_atom_site_fract_x
_atom_site_fract_y
_atom_site_fract_z
Si Si1 0.363480 0.935147 0.127000
Si Si2 0.667603 0.402605 0.794048
Si Si3 0.233075 0.358594 0.097464
Si Si4 0.102119 0.641408 0.990635
Si Si5 0.854753 0.823841 0.283377
Si Si6 0.971720 0.935146 0.461097
Si Si7 0.480444 0.823841 0.304721
O O1 0.571689 0.844723 0.085889
O O2 0.125860 0.865813 0.181490
O O3 0.325010 0.019817 0.198028
O O4 0.454318 0.017161 0.041456
O O5 0.846617 0.318760 0.778009
O O6 0.510196 0.480183 0.890067
O O7 0.488587 0.318761 0.810086
O O8 0.053247 0.362992 0.213018
O O9 0.417595 0.250000 0.044051
O O10 0.380877 0.482839 0.046642
O O11 0.281945 0.637010 0.875081
O O12 0.263509 0.655277 0.002209
O O13 0.667597 0.883508 0.294050
O O14 0.209333 0.865809 0.406609
#
# Coordination Sequence:
#
# PCOD8054644 Si02
#       7
#     4   4   4   4   4   4   4
#     4  11  22  41  64  84 127 162 191 256 300 345
#     4  10  20  40  60  86 124 154 196 244 300 350
#     4  11  21  39  64  92 117 162 207 237 303 364
#     4  11  21  39  64  92 117 162 207 237 303 364
#     4  10  22  40  60  92 122 154 204 248 295 359
#     4  11  22  41  64  84 127 162 191 256 300 345
#     4  10  22  40  60  92 122 154 204 248 295 359
#
# _framework density 20.816348000000001
#
# number of rings (size 3 to 8) (size 9 to 14) (size 15 to 20)
#    0.857    0.571    5.714    0.000    0.000    1.143 
#    5.143   12.857    0.000    0.000    0.000    0.000 
#    0.000    0.000    0.000    0.000    0.000    0.000 
#
# Total GULP energy -173516.658316 kJ/mol
# GULP energy per Si atom -12394.047023 kJ/mol
# Density = 2.076897 g / cm^3
# Si number density = 20.816348 Si / 1000 Ang^3
#
#
#
# Elastic Constant Matrix: (Units=GPa)
#
#
# Indices 1 2 3 4 5 6 
#
# 1 99.9275 40.2930 7.7112 0.0023 -33.6887 -0.0017
# 2 40.2930 74.6801 9.6838 0.0027 -14.0999 -0.0012
# 3 7.7112 9.6838 34.6465 0.0052 -20.3338 -0.0040
# 4 0.0023 0.0027 0.0052 36.2190 -0.0014 -1.8652
# 5 -33.6887 -14.0999 -20.3338 -0.0014 48.3577 0.0012
# 6 -0.0017 -0.0012 -0.0040 -1.8652 0.0012 43.4667
#
#
#
# Elastic Compliance Matrix: (Units=1/GPa)
#
#
# Indices 1 2 3 4 5 6 
#
# 1 0.016452 -0.007377 0.005130 -0.000001 0.011468 0.000001
# 2 -0.007377 0.017587 -0.004355 0.000000 -0.001842 0.000000
# 3 0.005130 -0.004355 0.040215 -0.000005 0.019214 0.000003
# 4 -0.000001 0.000000 -0.000005 0.027671 -0.000002 0.001187
# 5 0.011468 -0.001842 0.019214 -0.000002 0.036211 0.000001
# 6 0.000001 0.000000 0.000003 0.001187 0.000001 0.023057
#
#
# Mechanical properties :
#
#
# Convention : Reuss Voigt Hill
#
# Bulk Modulus (GPa) = 16.37948 36.07001 26.22475
# Shear Modulus (GPa) = 25.67449 35.71312 30.69380
#
# Velocity S-wave (km/s) = 3.51576 4.14651 3.84409
# Velocity P-wave (km/s) = 4.93624 6.34744 5.68579
#
# Compressibility (1/GPa) = 0.06105199
#
# Stress axis : x y z
#
# Youngs Moduli (GPa) = 60.78330 56.85914 24.86628
#
# Poissons Ratio (x) = 0.41943 -0.12758
# Poissons Ratio (y) = 0.44837 0.10829
# Poissons Ratio (z) = -0.31185 0.24763
#
# Static dielectric constant tensor:
#      x y z
#    x 3.664340 0.000000 -0.021210 
#    y 0.000000 3.627740 0.000000 
#    z -0.021210 0.000000 3.886540 
# 
# 
# High freq. dielectric constant tensor:
#      x y z
#    x 1.802480 0.000000 -0.007560 
#    y 0.000000 1.800170 0.000000 
#    z -0.007560 0.000000 1.830520 
# 
# From -- ./inp_files/34971.got.cif
#   From: 2010.06.25/outbox.cif.g09.slc.cpg/sg9_18_cif.got.tgz:34971.got - 2010.06.27 21:40:51.
