data_PCOD8054130
_publ_section_title
;
Structure prediction by ZEFSAII (Michael W. Deem and Ramdas Pophale) SiO2 
 PCOD8054130
Probable space group: C M
;
_chemical_formula_sum "Si O2"
_cell_formula_units_Z 12
_cell_length_a 5.162005
_cell_length_b 19.797368
_cell_length_c 6.709250
_cell_angle_alpha 90.000000
_cell_angle_beta 46.306031
_cell_angle_gamma 90.000000
_cell_volume 495.749283
_symmetry_space_group_name_H-M "C M"
_symmetry_group_IT_number 8
_symmetry_cell_setting 'monoclinic'
loop_
_space_group_symop_operation_xyz
x,y,z
x,-y,z
1/2+x,1/2+y,z
1/2+x,1/2-y,z
loop_
_atom_site_type_symbol
_atom_site_label
_atom_site_fract_x
_atom_site_fract_y
_atom_site_fract_z
Si Si1 0.727811 0.500000 0.893270
Si Si2 0.380405 0.293729 0.045795
Si Si3 0.884586 0.500000 0.260944
Si Si4 0.390099 0.885153 0.540899
O O1 0.947137 0.434047 0.701106
O O2 0.318244 0.500000 0.032450
O O3 0.719085 0.500000 0.132849
O O4 0.555975 0.237335 0.092077
O O5 0.255233 0.353541 0.259957
O O6 0.640108 0.323110 0.737848
O O7 0.728300 0.433281 0.453590
#
# Coordination Sequence:
#
# PCOD8054130 Si02
#       4
#     2   4   2   4
#     4  11  26  46  77 107 141 186 232 308 355 417
#     4  12  28  47  74 103 146 194 236 290 350 426
#     4  11  26  46  77 107 141 186 232 308 355 417
#     4  11  26  50  74 108 144 185 244 292 360 421
#
# _framework density 24.205784999999999
#
# number of rings (size 3 to 8) (size 9 to 14) (size 15 to 20)
#    0.000    0.667    3.333    2.000    4.667   10.667 
#    0.000    0.000    0.000    0.000    0.000    0.000 
#    0.000    0.000    0.000    0.000    0.000    0.000 
#
# Total GULP energy -74385.725365 kJ/mol
# GULP energy per Si atom -12397.620894 kJ/mol
# Density = 2.415069 g / cm^3
# Si number density = 24.205785 Si / 1000 Ang^3
#
#
#
# Elastic Constant Matrix: (Units=GPa)
#
#
# Indices 1 2 3 4 5 6 
#
# 1 67.2416 14.2786 21.4096 0.0000 11.7741 0.0000
# 2 14.2786 108.6829 32.1011 0.0000 10.4513 0.0000
# 3 21.4096 32.1011 131.0365 0.0000 14.6875 0.0000
# 4 0.0000 0.0000 0.0000 84.7519 0.0000 -4.1713
# 5 11.7741 10.4513 14.6875 0.0000 37.5103 0.0000
# 6 0.0000 0.0000 0.0000 -4.1713 0.0000 6.5886
#
#
#
# Elastic Compliance Matrix: (Units=1/GPa)
#
#
# Indices 1 2 3 4 5 6 
#
# 1 0.016457 -0.001198 -0.001939 0.000000 -0.004073 0.000000
# 2 -0.001198 0.010136 -0.002106 0.000000 -0.001624 0.000000
# 3 -0.001939 -0.002106 0.008712 0.000000 -0.002216 0.000000
# 4 0.000000 0.000000 0.000000 0.012179 0.000000 0.007711
# 5 -0.004073 -0.001624 -0.002216 0.000000 0.029258 0.000000
# 6 0.000000 0.000000 0.000000 0.007711 0.000000 0.156660
#
#
# Mechanical properties :
#
#
# Convention : Reuss Voigt Hill
#
# Bulk Modulus (GPa) = 40.28800 49.17107 44.72954
# Shear Modulus (GPa) = 19.82868 41.71492 30.77180
#
# Velocity S-wave (km/s) = 2.86522 4.15582 3.56934
# Velocity P-wave (km/s) = 5.25605 6.58678 5.95868
#
# Compressibility (1/GPa) = 0.02482129
#
# Stress axis : x y z
#
# Youngs Moduli (GPa) = 60.76606 98.65343 114.77812
#
# Poissons Ratio (x) = 0.11816 0.22254
# Poissons Ratio (y) = 0.07278 0.24167
# Poissons Ratio (z) = 0.11782 0.20772
#
# Static dielectric constant tensor:
#      x y z
#    x 3.704500 0.000000 0.033220 
#    y 0.000000 4.730000 0.000000 
#    z 0.033220 0.000000 4.793960 
# 
# 
# High freq. dielectric constant tensor:
#      x y z
#    x 1.919320 0.000000 0.004060 
#    y 0.000000 1.981590 0.000000 
#    z 0.004060 0.000000 1.995740 
# 
# From -- ./inp_files/173.got.cif
#   From: 2010.03.12/outbox.cif.g09.slc.cpg/sg8_1_cif.got.tgz:173.got - 2010.03.31 10:45:26.
