data_PCOD8054845
_publ_section_title
;
Structure prediction by ZEFSAII (Michael W. Deem and Ramdas Pophale) SiO2 
 PCOD8054845
Probable space group: C C
;
_chemical_formula_sum "Si O2"
_cell_formula_units_Z 32
_cell_length_a 8.889251
_cell_length_b 20.597587
_cell_length_c 9.129788
_cell_angle_alpha 90.000000
_cell_angle_beta 121.979619
_cell_angle_gamma 90.000000
_cell_volume 1417.944351
_symmetry_space_group_name_H-M "C C"
_symmetry_group_IT_number 9
_symmetry_cell_setting 'monoclinic'
loop_
_space_group_symop_operation_xyz
x,y,z
x,-y,1/2+z
1/2+x,1/2+y,z
1/2+x,1/2-y,1/2+z
loop_
_atom_site_type_symbol
_atom_site_label
_atom_site_fract_x
_atom_site_fract_y
_atom_site_fract_z
Si Si1 0.810810 0.029050 0.316420
Si Si2 0.382890 0.161564 0.780789
Si Si3 0.661429 0.783070 0.654572
Si Si4 0.291222 0.917851 0.844358
Si Si5 0.415110 0.375606 0.641598
Si Si6 0.712018 0.464031 0.115117
Si Si7 0.206390 0.617730 0.756218
Si Si8 0.639715 0.860889 0.915703
O O1 0.843361 0.054666 0.166025
O O2 0.684500 0.078107 0.337667
O O3 0.999246 0.028529 0.497523
O O4 0.708202 0.961012 0.251292
O O5 0.217851 0.208874 0.653148
O O6 0.277719 0.094132 0.757729
O O7 0.519659 0.147344 0.718749
O O8 0.491245 0.191133 0.975078
O O9 0.840485 0.821189 0.709759
O O10 0.628797 0.795956 0.811530
O O11 0.456740 0.872148 0.905947
O O12 0.124771 0.869674 0.758506
O O13 0.285226 0.968794 0.710859
O O14 0.300898 0.954843 0.003118
O O15 0.359093 0.361766 0.446875
O O16 0.263703 0.646094 0.625314
#
# Coordination Sequence:
#
# PCOD8054845 Si02
#       8
#     4   4   4   4   4   4   4   4
#     4  10  21  38  66 102 147 176 223 273 350 410
#     4  11  25  47  73  96 133 191 235 280 352 405
#     4  10  26  47  71  94 135 185 243 287 334 408
#     4  11  23  41  67 102 143 173 226 278 356 410
#     4   9  21  41  67  96 139 184 220 277 338 412
#     4  11  24  40  70 102 142 183 220 283 346 423
#     4  11  20  41  67 103 132 181 223 284 345 409
#     4  11  24  39  65 101 139 173 230 286 341 399
#
# _framework density 22.567882000000001
#
# number of rings (size 3 to 8) (size 9 to 14) (size 15 to 20)
#    0.000    1.500    2.500    1.500    8.750    1.000 
#    0.000    3.750    0.000    0.000    0.000    0.000 
#    0.000    0.000    0.000    0.000    0.000    0.000 
#
# Total GULP energy -198274.219280 kJ/mol
# GULP energy per Si atom -12392.138705 kJ/mol
# Density = 2.251652 g / cm^3
# Si number density = 22.567882 Si / 1000 Ang^3
#
#
#
# Elastic Constant Matrix: (Units=GPa)
#
#
# Indices 1 2 3 4 5 6 
#
# 1 85.8346 16.0235 34.2199 0.0000 -5.7600 0.0000
# 2 16.0235 52.4004 10.8696 0.0000 1.6949 0.0000
# 3 34.2199 10.8696 124.5165 0.0000 -10.3324 0.0000
# 4 0.0000 0.0000 0.0000 29.0165 0.0000 6.4771
# 5 -5.7600 1.6949 -10.3324 0.0000 28.8709 0.0000
# 6 0.0000 0.0000 0.0000 6.4771 0.0000 37.6466
#
#
#
# Elastic Compliance Matrix: (Units=1/GPa)
#
#
# Indices 1 2 3 4 5 6 
#
# 1 0.013761 -0.003576 -0.003323 0.000000 0.001766 0.000000
# 2 -0.003576 0.020456 -0.000991 0.000000 -0.002269 0.000000
# 3 -0.003323 -0.000991 0.009256 0.000000 0.002708 0.000000
# 4 0.000000 0.000000 0.000000 0.035840 0.000000 -0.006166
# 5 0.001766 -0.002269 0.002708 0.000000 0.036092 0.000000
# 6 0.000000 0.000000 0.000000 -0.006166 0.000000 0.027624
#
#
# Mechanical properties :
#
#
# Convention : Reuss Voigt Hill
#
# Bulk Modulus (GPa) = 36.11091 42.77529 39.44310
# Shear Modulus (GPa) = 29.75495 32.54938 31.15216
#
# Velocity S-wave (km/s) = 3.63501 3.80187 3.71937
# Velocity P-wave (km/s) = 5.80116 6.18607 5.99670
#
# Compressibility (1/GPa) = 0.02769246
#
# Stress axis : x y z
#
# Youngs Moduli (GPa) = 72.66799 48.88469 108.04318
#
# Poissons Ratio (x) = 0.17480 0.35905
# Poissons Ratio (y) = 0.25985 0.10710
# Poissons Ratio (z) = 0.24149 0.04846
#
# Static dielectric constant tensor:
#      x y z
#    x 4.058220 0.000000 -0.014660 
#    y 0.000000 3.952910 0.000000 
#    z -0.014660 0.000000 4.305130 
# 
# 
# High freq. dielectric constant tensor:
#      x y z
#    x 1.886530 0.000000 0.001210 
#    y 0.000000 1.865770 0.000000 
#    z 0.001210 0.000000 1.903480 
# 
# From -- ./inp_files/6186.got.cif
#   From: 2010.06.25/outbox.cif.g09.slc.cpg/sg9_4_cif.got.tgz:6186.got - 2010.06.27 21:40:51.
