data_PCOD8054321
_publ_section_title
;
Structure prediction by ZEFSAII (Michael W. Deem and Ramdas Pophale) SiO2 
 PCOD8054321
Probable space group: C C
;
_chemical_formula_sum "Si O2"
_cell_formula_units_Z 32
_cell_length_a 8.661614
_cell_length_b 23.844824
_cell_length_c 14.033704
_cell_angle_alpha 90.000000
_cell_angle_beta 147.459818
_cell_angle_gamma 90.000000
_cell_volume 1559.048046
_symmetry_space_group_name_H-M "C C"
_symmetry_group_IT_number 9
_symmetry_cell_setting 'monoclinic'
loop_
_space_group_symop_operation_xyz
x,y,z
x,-y,1/2+z
1/2+x,1/2+y,z
1/2+x,1/2-y,1/2+z
loop_
_atom_site_type_symbol
_atom_site_label
_atom_site_fract_x
_atom_site_fract_y
_atom_site_fract_z
Si Si1 0.293990 0.317362 0.736920
Si Si2 0.664669 0.177959 0.762668
Si Si3 0.213553 0.504685 0.959133
Si Si4 0.195854 0.075891 0.752581
Si Si5 0.234214 0.726268 0.001587
Si Si6 0.189930 0.093928 0.533664
Si Si7 0.198565 0.968218 0.571711
Si Si8 0.703523 0.638604 0.944634
O O1 0.281830 0.313924 0.616049
O O2 0.975211 0.323094 0.612288
O O3 0.435900 0.261256 0.854606
O O4 0.455122 0.374446 0.848577
O O5 0.485520 0.228599 0.625655
O O6 0.499093 0.119107 0.667722
O O7 0.938932 0.175857 0.838484
O O8 0.744583 0.187643 0.914283
O O9 0.010507 0.545551 0.916765
O O10 0.993147 0.465356 0.785441
O O11 0.430242 0.467002 0.135996
O O12 0.418467 0.539650 0.993199
O O13 0.135598 0.103392 0.618153
O O14 0.195227 0.125926 0.827681
O O15 0.182854 0.027823 0.507948
O O16 0.209054 0.920658 0.499501
#
# Coordination Sequence:
#
# PCOD8054321 Si02
#       8
#     4   4   4   4   4   4   4   4
#     4  10  21  38  64  87 109 149 194 240 295 344
#     4  10  21  39  61  84 111 147 191 243 293 342
#     4   8  18  36  54  71 112 169 196 225 269 317
#     4  10  20  34  53  82 117 154 197 230 270 333
#     4   9  21  44  63  79 108 148 196 245 296 346
#     4   9  19  39  60  83 120 159 189 225 281 349
#     4  10  19  35  55  83 123 158 190 231 274 335
#     4  12  23  33  56  93 120 150 191 235 286 342
#
# _framework density 20.525345000000002
#
# number of rings (size 3 to 8) (size 9 to 14) (size 15 to 20)
#    0.000    2.500    0.000    3.750    0.000    4.000 
#    0.000   13.750    0.000    0.000    0.000    0.000 
#    0.000    0.000    0.000    0.000    0.000    0.000 
#
# Total GULP energy -198343.850715 kJ/mol
# GULP energy per Si atom -12396.490670 kJ/mol
# Density = 2.047863 g / cm^3
# Si number density = 20.525345 Si / 1000 Ang^3
#
#
#
# Elastic Constant Matrix: (Units=GPa)
#
#
# Indices 1 2 3 4 5 6 
#
# 1 85.0462 43.2127 64.9977 -0.0001 26.1864 -0.0001
# 2 43.2127 77.6597 41.3383 0.0000 12.9107 0.0000
# 3 64.9977 41.3383 122.5373 -0.0002 25.3313 -0.0001
# 4 -0.0001 0.0000 -0.0002 27.9059 -0.0001 -2.9271
# 5 26.1864 12.9107 25.3313 -0.0001 35.1624 -0.0001
# 6 -0.0001 0.0000 -0.0001 -2.9271 -0.0001 29.5746
#
#
#
# Elastic Compliance Matrix: (Units=1/GPa)
#
#
# Indices 1 2 3 4 5 6 
#
# 1 0.025540 -0.007865 -0.008881 0.000000 -0.009734 0.000000
# 2 -0.007865 0.018276 -0.002135 0.000000 0.000685 0.000000
# 3 -0.008881 -0.002135 0.014173 0.000000 -0.002813 0.000000
# 4 0.000000 0.000000 0.000000 0.036211 0.000000 0.003584
# 5 -0.009734 0.000685 -0.002813 0.000000 0.037463 0.000000
# 6 0.000000 0.000000 0.000000 0.003584 0.000000 0.034167
#
#
# Mechanical properties :
#
#
# Convention : Reuss Voigt Hill
#
# Bulk Modulus (GPa) = 49.44308 64.92674 57.18491
# Shear Modulus (GPa) = 23.77153 27.57487 25.67320
#
# Velocity S-wave (km/s) = 3.40686 3.66929 3.54051
# Velocity P-wave (km/s) = 6.29418 7.04647 6.68092
#
# Compressibility (1/GPa) = 0.02022528
#
# Stress axis : x y z
#
# Youngs Moduli (GPa) = 39.15479 54.71707 70.55447
#
# Poissons Ratio (x) = 0.43037 0.62662
# Poissons Ratio (y) = 0.30797 0.15063
# Poissons Ratio (z) = 0.34775 0.11682
#
# Static dielectric constant tensor:
#      x y z
#    x 3.546950 0.000000 0.189940 
#    y 0.000000 3.613830 0.000000 
#    z 0.189940 0.000000 3.954760 
# 
# 
# High freq. dielectric constant tensor:
#      x y z
#    x 1.785760 0.000000 0.011330 
#    y 0.000000 1.793920 0.000000 
#    z 0.011330 0.000000 1.817550 
# 
# From -- ./inp_files/6326.got.cif
#   From: 2010.06.25/outbox.cif.g09.slc.cpg/sg9_4_cif.got.tgz:6326.got - 2010.06.27 21:40:51.
