data_PCOD8054210
_publ_section_title
;
Structure prediction by ZEFSAII (Michael W. Deem and Ramdas Pophale) SiO2 
 PCOD8054210
Probable space group: C C
;
_chemical_formula_sum "Si O2"
_cell_formula_units_Z 28
_cell_length_a 32.617281
_cell_length_b 7.525039
_cell_length_c 5.298219
_cell_angle_alpha 90.000000
_cell_angle_beta 99.751456
_cell_angle_gamma 90.000000
_cell_volume 1281.639405
_symmetry_space_group_name_H-M "C C"
_symmetry_group_IT_number 9
_symmetry_cell_setting 'monoclinic'
loop_
_space_group_symop_operation_xyz
x,y,z
x,-y,1/2+z
1/2+x,1/2+y,z
1/2+x,1/2-y,1/2+z
loop_
_atom_site_type_symbol
_atom_site_label
_atom_site_fract_x
_atom_site_fract_y
_atom_site_fract_z
Si Si1 0.823940 0.686579 0.132300
Si Si2 0.444116 0.614745 0.288418
Si Si3 0.226772 0.188365 0.019608
Si Si4 0.515715 0.886895 0.336477
Si Si5 0.110139 0.609583 0.959988
Si Si6 0.191916 0.203019 0.483375
Si Si7 0.358815 0.793496 0.168648
O O1 0.775277 0.646665 0.094650
O O2 0.849432 0.502766 0.149363
O O3 0.838925 0.795288 0.395202
O O4 0.836345 0.793424 0.891213
O O5 0.440198 0.523511 0.556402
O O6 0.488156 0.711365 0.315337
O O7 0.407957 0.761487 0.228089
O O8 0.210085 0.295634 0.246881
O O9 0.201598 0.004618 0.970190
O O10 0.215777 0.291821 0.748783
O O11 0.563226 0.818046 0.389080
O O12 0.505965 0.992081 0.069027
O O13 0.117977 0.533601 0.247788
O O14 0.142387 0.770397 0.953286
#
# Coordination Sequence:
#
# PCOD8054210 Si02
#       7
#     4   4   4   4   4   4   4
#     4  10  19  35  60  90 107 155 215 271 273 344
#     4  12  26  43  61  95 134 162 194 263 336 370
#     4  10  19  33  57  86 119 146 201 263 289 327
#     4  10  23  43  70  90 119 167 219 257 290 380
#     4  10  21  39  59  85 116 154 200 245 292 354
#     4  10  18  32  54  83 113 153 181 246 302 348
#     4  10  20  33  59  83 114 155 200 243 306 361
#
# _framework density 21.847017999999998
#
# number of rings (size 3 to 8) (size 9 to 14) (size 15 to 20)
#    0.000    1.714    0.000    6.857    4.000    0.000 
#    5.143    0.000    0.000   29.143    0.000    0.000 
#    0.000    0.000    0.000    0.000    0.000    0.000 
#
# Total GULP energy -173529.878770 kJ/mol
# GULP energy per Si atom -12394.991341 kJ/mol
# Density = 2.179729 g / cm^3
# Si number density = 21.847018 Si / 1000 Ang^3
#
#
#
# Elastic Constant Matrix: (Units=GPa)
#
#
# Indices 1 2 3 4 5 6 
#
# 1 150.3986 38.2056 31.6631 0.0000 4.5343 0.0000
# 2 38.2056 28.8808 -2.1865 0.0000 6.5682 0.0000
# 3 31.6631 -2.1865 187.5811 0.0000 -23.8338 0.0000
# 4 0.0000 0.0000 0.0000 11.4973 0.0000 1.6869
# 5 4.5343 6.5682 -23.8338 0.0000 39.6730 0.0000
# 6 0.0000 0.0000 0.0000 1.6869 0.0000 24.0313
#
#
#
# Elastic Compliance Matrix: (Units=1/GPa)
#
#
# Indices 1 2 3 4 5 6 
#
# 1 0.010697 -0.014290 -0.001978 0.000000 -0.000045 0.000000
# 2 -0.014290 0.055093 0.002277 0.000000 -0.006120 0.000000
# 3 -0.001978 0.002277 0.006141 0.000000 0.003538 0.000000
# 4 0.000000 0.000000 0.000000 0.087882 0.000000 -0.006169
# 5 -0.000045 -0.006120 0.003538 0.000000 0.028350 0.000000
# 6 0.000000 0.000000 0.000000 -0.006169 0.000000 0.042045
#
#
# Mechanical properties :
#
#
# Convention : Reuss Voigt Hill
#
# Bulk Modulus (GPa) = 22.75389 55.80277 39.27833
# Shear Modulus (GPa) = 18.32572 34.98554 26.65563
#
# Velocity S-wave (km/s) = 2.89938 4.00608 3.49679
# Velocity P-wave (km/s) = 4.65255 6.85537 5.85843
#
# Compressibility (1/GPa) = 0.04394852
#
# Stress axis : x y z
#
# Youngs Moduli (GPa) = 93.48561 18.15108 162.83969
#
# Poissons Ratio (x) = 0.25938 0.32208
# Poissons Ratio (y) = 1.33591 -0.37074
# Poissons Ratio (z) = 0.18490 -0.04132
#
# Static dielectric constant tensor:
#      x y z
#    x 4.096210 0.000000 -0.561770 
#    y 0.000000 3.237100 0.000000 
#    z -0.561770 0.000000 6.611140 
# 
# 
# High freq. dielectric constant tensor:
#      x y z
#    x 1.868110 0.000000 -0.009170 
#    y 0.000000 1.803160 0.000000 
#    z -0.009170 0.000000 1.905030 
# 
# From -- ./inp_files/3391.got.cif
#   From: 2010.06.25/outbox.cif.g09.slc.cpg/sg9_2_cif.got.tgz:3391.got - 2010.06.27 21:40:51.
