data_PCOD8054725
_publ_section_title
;
Structure prediction by ZEFSAII (Michael W. Deem and Ramdas Pophale) SiO2 
 PCOD8054725
Probable space group: C C
;
_chemical_formula_sum "Si O2"
_cell_formula_units_Z 32
_cell_length_a 14.877174
_cell_length_b 10.701641
_cell_length_c 9.164509
_cell_angle_alpha 90.000000
_cell_angle_beta 99.802373
_cell_angle_gamma 90.000000
_cell_volume 1437.781708
_symmetry_space_group_name_H-M "C C"
_symmetry_group_IT_number 9
_symmetry_cell_setting 'monoclinic'
loop_
_space_group_symop_operation_xyz
x,y,z
x,-y,1/2+z
1/2+x,1/2+y,z
1/2+x,1/2-y,1/2+z
loop_
_atom_site_type_symbol
_atom_site_label
_atom_site_fract_x
_atom_site_fract_y
_atom_site_fract_z
Si Si1 0.563790 0.956434 0.392060
Si Si2 0.368073 0.446996 0.102461
Si Si3 0.024709 0.786762 0.034574
Si Si4 0.480411 0.115425 0.581497
Si Si5 0.521159 0.376700 0.715663
Si Si6 0.779042 0.404884 0.949852
Si Si7 0.262113 0.620451 0.851011
Si Si8 0.169872 0.053237 0.697176
O O1 0.531827 0.860812 0.512173
O O2 0.493837 0.955709 0.238219
O O3 0.661893 0.932285 0.350683
O O4 0.557549 0.086332 0.479361
O O5 0.441494 0.523245 0.216576
O O6 0.289220 0.399230 0.189152
O O7 0.421061 0.328713 0.044236
O O8 0.329345 0.541208 0.971008
O O9 0.056954 0.844689 0.887452
O O10 0.097783 0.830037 0.179568
O O11 0.482130 0.262243 0.612627
O O12 0.386642 0.071638 0.481452
O O13 0.605618 0.432848 0.646037
O O14 0.760459 0.268191 0.878250
O O15 0.726917 0.520203 0.857570
O O16 0.747057 0.411168 0.105796
#
# Coordination Sequence:
#
# PCOD8054725 Si02
#       8
#     4   4   4   4   4   4   4   4
#     4  11  24  46  65  98 142 183 223 286 349 410
#     4  11  23  40  72  98 132 174 229 286 335 413
#     4  10  21  42  70 100 134 177 229 278 345 404
#     4  11  24  44  67  97 144 181 223 285 350 407
#     4  10  20  42  70  99 133 180 226 279 344 403
#     4  12  24  43  68 103 141 178 230 285 339 413
#     4  12  24  45  68 102 135 178 237 281 340 407
#     4  11  22  42  68 101 135 179 225 284 334 409
#
# _framework density 22.256509999999999
#
# number of rings (size 3 to 8) (size 9 to 14) (size 15 to 20)
#    0.000    1.000    5.000    2.250    0.000    2.000 
#    2.250    1.250    0.000    0.000    0.000    0.000 
#    0.000    0.000    0.000    0.000    0.000    0.000 
#
# Total GULP energy -198283.527523 kJ/mol
# GULP energy per Si atom -12392.720470 kJ/mol
# Density = 2.220585 g / cm^3
# Si number density = 22.256510 Si / 1000 Ang^3
#
#
#
# Elastic Constant Matrix: (Units=GPa)
#
#
# Indices 1 2 3 4 5 6 
#
# 1 115.7239 35.9195 41.6105 0.0000 -5.6424 0.0000
# 2 35.9195 45.4060 32.9230 0.0000 -15.5458 0.0000
# 3 41.6105 32.9230 64.7356 0.0000 -7.9964 0.0000
# 4 0.0000 0.0000 0.0000 37.2951 0.0000 -6.3764
# 5 -5.6424 -15.5458 -7.9964 0.0000 49.9835 0.0000
# 6 0.0000 0.0000 0.0000 -6.3764 0.0000 27.3985
#
#
#
# Elastic Compliance Matrix: (Units=1/GPa)
#
#
# Indices 1 2 3 4 5 6 
#
# 1 0.012388 -0.006983 -0.004598 0.000000 -0.001509 0.000000
# 2 -0.006983 0.042438 -0.015875 0.000000 0.009871 0.000000
# 3 -0.004598 -0.015875 0.026323 0.000000 -0.001245 0.000000
# 4 0.000000 0.000000 0.000000 0.027924 0.000000 0.006499
# 5 -0.001509 0.009871 -0.001245 0.000000 0.022707 0.000000
# 6 0.000000 0.000000 0.000000 0.006499 0.000000 0.038011
#
#
# Mechanical properties :
#
#
# Convention : Reuss Voigt Hill
#
# Bulk Modulus (GPa) = 38.11414 49.64125 43.87769
# Shear Modulus (GPa) = 21.41796 30.62959 26.02377
#
# Velocity S-wave (km/s) = 3.10550 3.71375 3.42316
# Velocity P-wave (km/s) = 5.47914 6.38293 5.94823
#
# Compressibility (1/GPa) = 0.02623698
#
# Stress axis : x y z
#
# Youngs Moduli (GPa) = 80.72088 23.56391 37.98970
#
# Poissons Ratio (x) = 0.16454 0.17468
# Poissons Ratio (y) = 0.56365 0.60310
# Poissons Ratio (z) = 0.37116 0.37408
#
# Static dielectric constant tensor:
#      x y z
#    x 4.113490 0.000000 0.070160 
#    y 0.000000 3.987830 0.000000 
#    z 0.070160 0.000000 3.937940 
# 
# 
# High freq. dielectric constant tensor:
#      x y z
#    x 1.889210 0.000000 0.000270 
#    y 0.000000 1.867080 0.000000 
#    z 0.000270 0.000000 1.868690 
# 
# From -- ./inp_files/9141.got.cif
#   From: 2010.06.25/outbox.cif.g09.slc.cpg/sg9_5_cif.got.tgz:9141.got - 2010.06.27 21:40:51.
