data_PCOD8054753
_publ_section_title
;
Structure prediction by ZEFSAII (Michael W. Deem and Ramdas Pophale) SiO2 
 PCOD8054753
Probable space group: C C
;
_chemical_formula_sum "Si O2"
_cell_formula_units_Z 32
_cell_length_a 11.565261
_cell_length_b 8.706010
_cell_length_c 29.068191
_cell_angle_alpha 90.000000
_cell_angle_beta 148.969140
_cell_angle_gamma 90.000000
_cell_volume 1508.762924
_symmetry_space_group_name_H-M "C C"
_symmetry_group_IT_number 9
_symmetry_cell_setting 'monoclinic'
loop_
_space_group_symop_operation_xyz
x,y,z
x,-y,1/2+z
1/2+x,1/2+y,z
1/2+x,1/2-y,1/2+z
loop_
_atom_site_type_symbol
_atom_site_label
_atom_site_fract_x
_atom_site_fract_y
_atom_site_fract_z
Si Si1 0.001060 0.551306 0.525360
Si Si2 0.887109 0.899948 0.712925
Si Si3 0.122010 0.338559 0.708025
Si Si4 0.796496 0.119365 0.542545
Si Si5 0.098039 0.327494 0.216068
Si Si6 0.627856 0.316121 0.400416
Si Si7 0.570102 0.733048 0.783229
Si Si8 0.571962 0.327670 0.613109
O O1 0.156998 0.438959 0.608592
O O2 0.093483 0.553014 0.504378
O O3 0.978607 0.719833 0.540371
O O4 0.754869 0.478382 0.443221
O O5 0.831321 0.846147 0.745277
O O6 0.012419 0.757450 0.732278
O O7 0.038217 0.050187 0.767784
O O8 0.999816 0.502049 0.675384
O O9 0.220510 0.280312 0.790766
O O10 0.937468 0.221383 0.626065
O O11 0.691346 0.215200 0.465475
O O12 0.954910 0.993770 0.571629
O O13 0.364498 0.348361 0.309820
O O14 0.011760 0.234123 0.142985
O O15 0.686409 0.229002 0.371858
O O16 0.340643 0.831418 0.699984
#
# Coordination Sequence:
#
# PCOD8054753 Si02
#       8
#     4   4   4   4   4   4   4   4
#     4  11  22  44  66  96 137 173 220 284 335 399
#     4  11  21  43  69  92 128 182 222 271 331 410
#     4  12  22  42  69  97 126 181 232 263 330 415
#     4  12  24  41  70 101 130 180 224 278 335 403
#     4  11  23  42  69  98 135 175 221 282 334 400
#     4  11  25  45  63 100 144 166 217 290 346 379
#     4  10  23  45  64  95 139 170 222 279 332 405
#     4  10  20  44  68  93 129 179 222 265 327 411
#
# _framework density 21.209429
#
# number of rings (size 3 to 8) (size 9 to 14) (size 15 to 20)
#    0.000    1.000    8.750    0.000    3.500    0.000 
#    4.500    0.000    0.000    0.000    0.000    0.000 
#    0.000    0.000    0.000    0.000    0.000    0.000 
#
# Total GULP energy -198340.253719 kJ/mol
# GULP energy per Si atom -12396.265857 kJ/mol
# Density = 2.116116 g / cm^3
# Si number density = 21.209429 Si / 1000 Ang^3
#
#
#
# Elastic Constant Matrix: (Units=GPa)
#
#
# Indices 1 2 3 4 5 6 
#
# 1 153.5391 49.5049 14.3296 0.0000 -25.2117 0.0000
# 2 49.5049 89.5005 21.7123 0.0000 8.3988 0.0000
# 3 14.3296 21.7123 49.0098 0.0001 -16.9852 0.0000
# 4 0.0000 0.0000 0.0001 17.8568 0.0000 -2.9607
# 5 -25.2117 8.3988 -16.9852 0.0000 32.9364 0.0000
# 6 0.0000 0.0000 0.0000 -2.9607 0.0000 41.7003
#
#
#
# Elastic Compliance Matrix: (Units=1/GPa)
#
#
# Indices 1 2 3 4 5 6 
#
# 1 0.010968 -0.008567 0.005181 0.000000 0.013252 0.000000
# 2 -0.008567 0.020875 -0.013224 0.000000 -0.018700 0.000000
# 3 0.005181 -0.013224 0.033230 0.000000 0.024475 0.000000
# 4 0.000000 0.000000 0.000000 0.056668 0.000000 0.004023
# 5 0.013252 -0.018700 0.024475 0.000000 0.057896 0.000000
# 6 0.000000 0.000000 0.000000 0.004023 0.000000 0.024266
#
#
# Mechanical properties :
#
#
# Convention : Reuss Voigt Hill
#
# Bulk Modulus (GPa) = 31.39440 51.46030 41.42735
# Shear Modulus (GPa) = 20.18247 32.26554 26.22400
#
# Velocity S-wave (km/s) = 3.08812 3.90459 3.52011
# Velocity P-wave (km/s) = 5.24876 6.68157 6.00803
#
# Compressibility (1/GPa) = 0.03185281
#
# Stress axis : x y z
#
# Youngs Moduli (GPa) = 91.17687 47.90490 30.09339
#
# Poissons Ratio (x) = 0.41040 -0.15592
# Poissons Ratio (y) = 0.78112 0.39796
# Poissons Ratio (z) = -0.47242 0.63350
#
# Static dielectric constant tensor:
#      x y z
#    x 4.166740 0.000000 -0.290700 
#    y 0.000000 3.831690 0.000000 
#    z -0.290700 0.000000 3.676860 
# 
# 
# High freq. dielectric constant tensor:
#      x y z
#    x 1.851870 0.000000 -0.018720 
#    y 0.000000 1.828820 0.000000 
#    z -0.018720 0.000000 1.806930 
# 
# From -- ./inp_files/24241.got.cif
#   From: 2010.06.25/outbox.cif.g09.slc.cpg/sg9_13_cif.got.tgz:24241.got - 2010.06.27 21:40:51.
