data_PCOD8054088
_publ_section_title
;
Structure prediction by ZEFSAII (Michael W. Deem and Ramdas Pophale) SiO2 
 PCOD8054088
Probable space group: C M
;
_chemical_formula_sum "Si O2"
_cell_formula_units_Z 24
_cell_length_a 17.149357
_cell_length_b 14.904500
_cell_length_c 9.429136
_cell_angle_alpha 90.000000
_cell_angle_beta 27.767839
_cell_angle_gamma 90.000000
_cell_volume 1122.846983
_symmetry_space_group_name_H-M "C M"
_symmetry_group_IT_number 8
_symmetry_cell_setting 'monoclinic'
loop_
_space_group_symop_operation_xyz
x,y,z
x,-y,z
1/2+x,1/2+y,z
1/2+x,1/2-y,z
loop_
_atom_site_type_symbol
_atom_site_label
_atom_site_fract_x
_atom_site_fract_y
_atom_site_fract_z
Si Si1 0.225730 0.678799 0.389760
Si Si2 0.199922 0.186567 0.932973
Si Si3 0.584755 0.173581 0.320950
Si Si4 0.031332 0.500000 0.999907
Si Si5 0.529918 0.500000 0.263419
Si Si6 0.504445 0.195490 0.013776
Si Si7 0.745042 0.000000 0.926893
Si Si8 0.803739 0.000000 0.353413
O O1 0.089270 0.680763 0.484389
O O2 0.351093 0.761629 0.176363
O O3 0.335074 0.587006 0.204788
O O4 0.151218 0.680335 0.666519
O O5 0.393531 0.178494 0.572293
O O6 0.189772 0.243133 0.093031
O O7 0.082760 0.239528 0.008292
O O8 0.142876 0.087437 0.063842
O O9 0.684560 0.085661 0.111332
O O10 0.175202 0.500000 0.882813
O O11 0.107861 0.500000 0.717910
O O12 0.937512 0.596523 0.175617
O O13 0.442369 0.500000 0.562093
O O14 0.411409 0.500000 0.319877
#
# Coordination Sequence:
#
# PCOD8054088 Si02
#       8
#     4   4   4   2   2   4   2   2
#     4  11  23  42  64  95 131 170 212 268 331 392
#     4  12  24  42  67  99 133 174 223 273 323 394
#     4  12  25  41  66 100 136 174 217 270 336 392
#     4   9  20  37  64  94 120 162 217 265 317 375
#     4  11  23  42  68 102 127 169 229 283 316 384
#     4  11  22  41  67  92 127 172 219 267 323 389
#     4  11  22  41  68  96 135 172 217 277 332 383
#     4   9  19  38  64  88 124 167 207 263 325 374
#
# _framework density 21.374237999999998
#
# number of rings (size 3 to 8) (size 9 to 14) (size 15 to 20)
#    0.000    1.000    3.333    4.000    2.333    0.000 
#    0.000    3.333    0.000    0.000    0.000    0.000 
#    0.000    0.000    0.000    0.000    0.000    0.000 
#
# Total GULP energy -148666.223313 kJ/mol
# GULP energy per Si atom -12388.851943 kJ/mol
# Density = 2.132559 g / cm^3
# Si number density = 21.374238 Si / 1000 Ang^3
#
#
#
# Elastic Constant Matrix: (Units=GPa)
#
#
# Indices 1 2 3 4 5 6 
#
# 1 87.1910 38.6092 19.1690 0.0008 3.8539 -0.0011
# 2 38.6092 205.4518 49.2765 0.0000 -5.1781 -0.0007
# 3 19.1690 49.2765 81.0402 -0.0002 -4.3375 -0.0016
# 4 0.0008 0.0000 -0.0002 34.0218 0.0000 0.6907
# 5 3.8539 -5.1781 -4.3375 0.0000 30.5098 0.0010
# 6 -0.0011 -0.0007 -0.0016 0.6907 0.0010 24.4509
#
#
#
# Elastic Compliance Matrix: (Units=1/GPa)
#
#
# Indices 1 2 3 4 5 6 
#
# 1 0.012887 -0.002012 -0.001945 0.000000 -0.002246 0.000000
# 2 -0.002012 0.006019 -0.003140 0.000000 0.000829 0.000000
# 3 -0.001945 -0.003140 0.014806 0.000000 0.001818 0.000001
# 4 0.000000 0.000000 0.000000 0.029410 0.000000 -0.000831
# 5 -0.002246 0.000829 0.001818 0.000000 0.033459 -0.000001
# 6 0.000000 0.000000 0.000001 -0.000831 -0.000001 0.040922
#
#
# Mechanical properties :
#
#
# Convention : Reuss Voigt Hill
#
# Bulk Modulus (GPa) = 51.23272 65.31029 58.27150
# Shear Modulus (GPa) = 31.60497 35.57169 33.58833
#
# Velocity S-wave (km/s) = 3.84949 4.08393 3.96844
# Velocity P-wave (km/s) = 6.61661 7.27048 6.95124
#
# Compressibility (1/GPa) = 0.01951878
#
# Stress axis : x y z
#
# Youngs Moduli (GPa) = 77.59857 166.13065 67.53971
#
# Poissons Ratio (x) = 0.33422 0.13137
# Poissons Ratio (y) = 0.15611 0.21206
# Poissons Ratio (z) = 0.15094 0.52162
#
# Static dielectric constant tensor:
#      x y z
#    x 3.579870 0.000000 0.137250 
#    y 0.000000 4.488820 0.000000 
#    z 0.137250 0.000000 3.697940 
# 
# 
# High freq. dielectric constant tensor:
#      x y z
#    x 1.823780 0.000000 0.014350 
#    y 0.000000 1.866930 0.000000 
#    z 0.014350 0.000000 1.819590 
# 
# From -- ./inp_files/7859.got.cif
#   From: 2010.03.12/outbox.cif.g09.slc.cpg/sg8_4_cif.got.tgz:7859.got - 2010.03.31 10:45:26.
