data_PCOD8054223
_publ_section_title
;
Structure prediction by ZEFSAII (Michael W. Deem and Ramdas Pophale) SiO2 
 PCOD8054223
Probable space group: C C
;
_chemical_formula_sum "Si O2"
_cell_formula_units_Z 28
_cell_length_a 5.420417
_cell_length_b 17.561703
_cell_length_c 12.051445
_cell_angle_alpha 90.000000
_cell_angle_beta 76.885995
_cell_angle_gamma 90.000000
_cell_volume 1117.279869
_symmetry_space_group_name_H-M "C C"
_symmetry_group_IT_number 9
_symmetry_cell_setting 'monoclinic'
loop_
_space_group_symop_operation_xyz
x,y,z
x,-y,1/2+z
1/2+x,1/2+y,z
1/2+x,1/2-y,1/2+z
loop_
_atom_site_type_symbol
_atom_site_label
_atom_site_fract_x
_atom_site_fract_y
_atom_site_fract_z
Si Si1 0.330420 0.736362 0.207000
Si Si2 0.361375 0.982906 0.608753
Si Si3 0.231725 0.042486 0.369854
Si Si4 0.239533 0.467739 0.354474
Si Si5 0.813497 0.191572 0.759198
Si Si6 0.708539 0.356599 0.064390
Si Si7 0.349886 0.434362 0.629918
O O1 0.563144 0.757448 0.264763
O O2 0.365088 0.780916 0.084728
O O3 0.327938 0.647129 0.188453
O O4 0.053867 0.760525 0.285808
O O5 0.314178 0.945872 0.735783
O O6 0.643088 0.947764 0.550450
O O7 0.133734 0.949262 0.555605
O O8 0.337920 0.073935 0.620727
O O9 0.209535 0.125084 0.432864
O O10 0.454573 0.997912 0.419200
O O11 0.964516 0.999405 0.409215
O O12 0.242451 0.376079 0.351173
O O13 0.283657 0.500900 0.226595
O O14 0.916133 0.154518 0.633206
#
# Coordination Sequence:
#
# PCOD8054223 Si02
#       7
#     4   4   4   4   4   4   4
#     4  10  20  31  55  83 103 143 181 221 277 327
#     4  10  20  36  57  80 109 143 186 222 271 327
#     4  10  20  32  57  83 108 138 186 226 268 320
#     4  10  19  36  55  81 107 140 185 225 265 331
#     4  10  19  35  54  83 109 138 186 225 273 324
#     4  10  22  34  59  81 111 145 184 230 273 325
#     4  10  18  34  55  79 105 143 178 221 271 328
#
# _framework density 25.060866000000001
#
# number of rings (size 3 to 8) (size 9 to 14) (size 15 to 20)
#    0.857    1.143    2.857    3.429    2.000    0.000 
#    0.000    0.000    0.000   27.429    0.000    0.000 
#    0.000    0.000    0.000    0.000    0.000    0.000 
#
# Total GULP energy -173475.310014 kJ/mol
# GULP energy per Si atom -12391.093572 kJ/mol
# Density = 2.500383 g / cm^3
# Si number density = 25.060866 Si / 1000 Ang^3
#
#
#
# Elastic Constant Matrix: (Units=GPa)
#
#
# Indices 1 2 3 4 5 6 
#
# 1 245.3201 48.1791 22.5973 0.0000 -3.1860 0.0000
# 2 48.1791 103.8481 -13.5156 0.0000 -3.5479 0.0000
# 3 22.5973 -13.5156 55.2699 0.0000 1.8081 0.0000
# 4 0.0000 0.0000 0.0000 19.9809 0.0000 12.1239
# 5 -3.1860 -3.5479 1.8081 0.0000 38.0600 0.0000
# 6 0.0000 0.0000 0.0000 12.1239 0.0000 29.7536
#
#
#
# Elastic Compliance Matrix: (Units=1/GPa)
#
#
# Indices 1 2 3 4 5 6 
#
# 1 0.004825 -0.002568 -0.002610 0.000000 0.000288 0.000000
# 2 -0.002568 0.011338 0.003801 0.000000 0.000661 0.000000
# 3 -0.002610 0.003801 0.020117 0.000000 -0.000820 0.000000
# 4 0.000000 0.000000 0.000000 0.066486 0.000000 -0.027092
# 5 0.000288 0.000661 -0.000820 0.000000 0.026399 0.000000
# 6 0.000000 0.000000 0.000000 -0.027092 0.000000 0.044649
#
#
# Mechanical properties :
#
#
# Convention : Reuss Voigt Hill
#
# Bulk Modulus (GPa) = 29.82857 57.66220 43.74538
# Shear Modulus (GPa) = 26.63213 40.70408 33.66811
#
# Velocity S-wave (km/s) = 3.26344 4.03452 3.66929
# Velocity P-wave (km/s) = 5.11159 6.69044 5.95358
#
# Compressibility (1/GPa) = 0.03352491
#
# Stress axis : x y z
#
# Youngs Moduli (GPa) = 207.25912 88.19681 49.71040
#
# Poissons Ratio (x) = 0.22652 0.12975
# Poissons Ratio (y) = 0.53230 -0.18895
# Poissons Ratio (z) = 0.54098 -0.33524
#
# Static dielectric constant tensor:
#      x y z
#    x 5.830020 0.000000 0.108710 
#    y 0.000000 4.100470 0.000000 
#    z 0.108710 0.000000 4.501120 
# 
# 
# High freq. dielectric constant tensor:
#      x y z
#    x 2.034940 0.000000 -0.000390 
#    y 0.000000 1.976440 0.000000 
#    z -0.000390 0.000000 2.002640 
# 
# From -- ./inp_files/21833.got.cif
#   From: 2010.06.25/outbox.cif.g09.slc.cpg/sg9_11_cif.got.tgz:21833.got - 2010.06.27 21:40:51.
