data_PCOD8054394
_publ_section_title
;
Structure prediction by ZEFSAII (Michael W. Deem and Ramdas Pophale) SiO2 
 PCOD8054394
Probable space group: C C
;
_chemical_formula_sum "Si O2"
_cell_formula_units_Z 32
_cell_length_a 21.960121
_cell_length_b 9.670340
_cell_length_c 13.268601
_cell_angle_alpha 90.000000
_cell_angle_beta 143.401047
_cell_angle_gamma 90.000000
_cell_volume 1679.968010
_symmetry_space_group_name_H-M "C C"
_symmetry_group_IT_number 9
_symmetry_cell_setting 'monoclinic'
loop_
_space_group_symop_operation_xyz
x,y,z
x,-y,1/2+z
1/2+x,1/2+y,z
1/2+x,1/2-y,1/2+z
loop_
_atom_site_type_symbol
_atom_site_label
_atom_site_fract_x
_atom_site_fract_y
_atom_site_fract_z
Si Si1 0.812920 0.915267 0.538270
Si Si2 0.649335 0.440968 0.661293
Si Si3 0.942933 0.670969 0.701173
Si Si4 0.461003 0.636082 0.398622
Si Si5 0.909904 0.853088 0.052010
Si Si6 0.635662 0.449997 0.413943
Si Si7 0.812437 0.418000 0.503456
Si Si8 0.622806 0.748325 0.310018
O O1 0.850814 0.769611 0.542352
O O2 0.883335 0.957914 0.728450
O O3 0.698573 0.879590 0.420404
O O4 0.824746 0.032878 0.469374
O O5 0.562248 0.554757 0.562201
O O6 0.655512 0.399080 0.553378
O O7 0.757469 0.509121 0.835307
O O8 0.619208 0.308642 0.690372
O O9 0.989402 0.727708 0.869587
O O10 0.897592 0.520331 0.662125
O O11 0.020494 0.677263 0.710969
O O12 0.403551 0.676646 0.424792
O O13 0.022654 0.903439 0.232451
O O14 0.878229 0.714486 0.065020
O O15 0.723627 0.377627 0.464872
O O16 0.646750 0.616923 0.415291
#
# Coordination Sequence:
#
# PCOD8054394 Si02
#       8
#     4   4   4   4   4   4   4   4
#     4  10  21  40  64  93 116 167 209 254 306 370
#     4  11  19  39  67  89 114 179 203 249 316 377
#     4  10  20  41  63  94 118 166 211 256 297 382
#     4  10  19  37  71  83 119 172 212 239 315 382
#     4  12  23  41  62  94 131 158 210 263 315 368
#     4  11  20  41  61  87 124 165 205 251 315 371
#     4  11  26  38  64  94 127 160 210 267 309 366
#     4  11  20  39  68  88 125 161 222 251 305 380
#
# _framework density 19.047981
#
# number of rings (size 3 to 8) (size 9 to 14) (size 15 to 20)
#    0.750    0.500    8.750    0.000    3.500    1.000 
#    4.500    0.000    0.000    0.000    0.000    0.000 
#    0.000    0.000    0.000    0.000    0.000    0.000 
#
# Total GULP energy -198251.182116 kJ/mol
# GULP energy per Si atom -12390.698882 kJ/mol
# Density = 1.900463 g / cm^3
# Si number density = 19.047981 Si / 1000 Ang^3
#
#
#
# Elastic Constant Matrix: (Units=GPa)
#
#
# Indices 1 2 3 4 5 6 
#
# 1 126.3941 38.2101 40.4974 0.0000 -6.5673 0.0000
# 2 38.2101 86.3293 21.0820 0.0000 5.5707 0.0000
# 3 40.4974 21.0820 56.3414 0.0000 -2.1866 0.0000
# 4 0.0000 0.0000 0.0000 19.7818 0.0000 4.8319
# 5 -6.5673 5.5707 -2.1866 0.0000 33.1137 0.0000
# 6 0.0000 0.0000 0.0000 4.8319 0.0000 19.8293
#
#
#
# Elastic Compliance Matrix: (Units=1/GPa)
#
#
# Indices 1 2 3 4 5 6 
#
# 1 0.011229 -0.003494 -0.006672 0.000000 0.002374 0.000000
# 2 -0.003494 0.014040 -0.002868 0.000000 -0.003244 0.000000
# 3 -0.006672 -0.002868 0.023646 0.000000 0.000721 0.000000
# 4 0.000000 0.000000 0.000000 0.053751 0.000000 -0.013098
# 5 0.002374 -0.003244 0.000721 0.000000 0.031263 0.000000
# 6 0.000000 0.000000 0.000000 -0.013098 0.000000 0.053622
#
#
# Mechanical properties :
#
#
# Convention : Reuss Voigt Hill
#
# Bulk Modulus (GPa) = 43.76928 52.07154 47.92041
# Shear Modulus (GPa) = 22.60056 25.82997 24.21527
#
# Velocity S-wave (km/s) = 3.44831 3.68645 3.56937
# Velocity P-wave (km/s) = 6.23560 6.74657 6.49612
#
# Compressibility (1/GPa) = 0.02284707
#
# Stress axis : x y z
#
# Youngs Moduli (GPa) = 89.05452 71.22641 42.29115
#
# Poissons Ratio (x) = 0.24887 0.28216
# Poissons Ratio (y) = 0.31116 0.12129
# Poissons Ratio (z) = 0.59415 0.20427
#
# Static dielectric constant tensor:
#      x y z
#    x 3.721530 0.000000 0.023160 
#    y 0.000000 3.213520 0.000000 
#    z 0.023160 0.000000 3.388540 
# 
# 
# High freq. dielectric constant tensor:
#      x y z
#    x 1.755920 0.000000 0.009000 
#    y 0.000000 1.713610 0.000000 
#    z 0.009000 0.000000 1.725600 
# 
# From -- ./inp_files/27278.got.cif
#   From: 2010.06.25/outbox.cif.g09.slc.cpg/sg9_14_cif.got.tgz:27278.got - 2010.06.27 21:40:51.
