data_PCOD8054920
_publ_section_title
;
Structure prediction by ZEFSAII (Michael W. Deem and Ramdas Pophale) SiO2 
 PCOD8054920
Probable space group: C C
;
_chemical_formula_sum "Si O2"
_cell_formula_units_Z 32
_cell_length_a 5.188023
_cell_length_b 9.103670
_cell_length_c 26.204220
_cell_angle_alpha 90.000000
_cell_angle_beta 83.321648
_cell_angle_gamma 90.000000
_cell_volume 1229.228887
_symmetry_space_group_name_H-M "C C"
_symmetry_group_IT_number 9
_symmetry_cell_setting 'monoclinic'
loop_
_space_group_symop_operation_xyz
x,y,z
x,-y,1/2+z
1/2+x,1/2+y,z
1/2+x,1/2-y,1/2+z
loop_
_atom_site_type_symbol
_atom_site_label
_atom_site_fract_x
_atom_site_fract_y
_atom_site_fract_z
Si Si1 0.527930 0.862117 0.736430
Si Si2 0.048824 0.030100 0.699763
Si Si3 0.777688 0.954884 0.588155
Si Si4 0.200026 0.079376 0.505122
Si Si5 0.509201 0.884192 0.856827
Si Si6 0.853112 0.348284 0.106637
Si Si7 0.989538 0.051621 0.893485
Si Si8 0.623818 0.117271 0.986704
O O1 0.570396 0.688937 0.725872
O O2 0.493731 0.884577 0.796795
O O3 0.266423 0.920401 0.716073
O O4 0.769238 0.959405 0.712052
O O5 0.108771 0.058303 0.636930
O O6 0.834344 0.821095 0.626442
O O7 0.576001 0.896252 0.548784
O O8 0.623022 0.083362 0.621819
O O9 0.008697 0.997095 0.546490
O O10 0.376306 0.162658 0.544536
O O11 0.092917 0.211042 0.471629
O O12 0.384704 0.973154 0.466791
O O13 0.545735 0.718471 0.875873
O O14 0.753963 0.984916 0.866206
O O15 0.241865 0.952423 0.883468
O O16 0.895692 0.052114 0.956163
#
# Coordination Sequence:
#
# PCOD8054920 Si02
#       8
#     4   4   4   4   4   4   4   4
#     4  12  26  49  73 104 140 183 229 295 363 413
#     4  12  27  45  76 105 140 182 237 290 339 434
#     4  10  21  40  62  87 136 173 217 278 328 402
#     4  10  21  40  62  87 136 173 217 278 328 402
#     4  12  26  49  73 104 140 183 229 295 363 413
#     4  10  23  38  61  97 124 178 225 271 338 391
#     4  12  27  45  76 105 140 182 237 290 339 434
#     4  10  23  38  61  97 124 178 225 271 338 391
#
# _framework density 26.032584
#
# number of rings (size 3 to 8) (size 9 to 14) (size 15 to 20)
#    0.000    1.000    0.000    6.000    7.000    0.000 
#    0.000    0.000    0.000    0.000    0.000    0.000 
#    0.000    0.000    0.000    0.000    0.000    0.000 
#
# Total GULP energy -198296.690010 kJ/mol
# GULP energy per Si atom -12393.543126 kJ/mol
# Density = 2.597333 g / cm^3
# Si number density = 26.032584 Si / 1000 Ang^3
#
#
#
# Elastic Constant Matrix: (Units=GPa)
#
#
# Indices 1 2 3 4 5 6 
#
# 1 107.1924 51.5938 7.1057 0.0000 -27.9210 0.0000
# 2 51.5938 164.7300 2.1189 0.0000 -24.7428 0.0000
# 3 7.1057 2.1189 117.3785 0.0000 1.2792 0.0000
# 4 0.0000 0.0000 0.0000 27.7361 0.0000 -4.5002
# 5 -27.9210 -24.7428 1.2792 0.0000 36.7024 0.0000
# 6 0.0000 0.0000 0.0000 -4.5002 0.0000 48.9347
#
#
#
# Elastic Compliance Matrix: (Units=1/GPa)
#
#
# Indices 1 2 3 4 5 6 
#
# 1 0.012783 -0.002813 -0.000809 0.000000 0.007856 0.000000
# 2 -0.002813 0.007377 0.000006 0.000000 0.002833 0.000000
# 3 -0.000809 0.000006 0.008578 0.000000 -0.000910 0.000000
# 4 0.000000 0.000000 0.000000 0.036600 0.000000 0.003366
# 5 0.007856 0.002833 -0.000910 0.000000 0.035164 0.000000
# 6 0.000000 0.000000 0.000000 0.003366 0.000000 0.020745
#
#
# Mechanical properties :
#
#
# Convention : Reuss Voigt Hill
#
# Bulk Modulus (GPa) = 46.49652 56.77087 51.63369
# Shear Modulus (GPa) = 36.86010 44.57348 40.71679
#
# Velocity S-wave (km/s) = 3.76696 4.14239 3.95912
# Velocity P-wave (km/s) = 6.06792 6.68836 6.38568
#
# Compressibility (1/GPa) = 0.02150699
#
# Stress axis : x y z
#
# Youngs Moduli (GPa) = 78.22855 135.55508 116.57448
#
# Poissons Ratio (x) = 0.38135 0.09427
# Poissons Ratio (y) = 0.22008 -0.00073
# Poissons Ratio (z) = 0.06326 -0.00085
#
# Static dielectric constant tensor:
#      x y z
#    x 5.094070 0.000000 0.552110 
#    y 0.000000 5.767980 0.000000 
#    z 0.552110 0.000000 6.145620 
# 
# 
# High freq. dielectric constant tensor:
#      x y z
#    x 2.052930 0.000000 -0.002010 
#    y 0.000000 2.068180 0.000000 
#    z -0.002010 0.000000 2.051070 
# 
# From -- ./inp_files/37083.got.cif
#   From: 2010.06.25/outbox.cif.g09.slc.cpg/sg9_19_cif.got.tgz:37083.got - 2010.06.27 21:40:51.
