data_PCOD8054623
_publ_section_title
;
Structure prediction by ZEFSAII (Michael W. Deem and Ramdas Pophale) SiO2 
 PCOD8054623
Probable space group: C C
;
_chemical_formula_sum "Si O2"
_cell_formula_units_Z 32
_cell_length_a 10.955204
_cell_length_b 10.954221
_cell_length_c 13.375708
_cell_angle_alpha 90.000000
_cell_angle_beta 89.164215
_cell_angle_gamma 90.000000
_cell_volume 1604.990770
_symmetry_space_group_name_H-M "C C"
_symmetry_group_IT_number 9
_symmetry_cell_setting 'monoclinic'
loop_
_space_group_symop_operation_xyz
x,y,z
x,-y,1/2+z
1/2+x,1/2+y,z
1/2+x,1/2-y,1/2+z
loop_
_atom_site_type_symbol
_atom_site_label
_atom_site_fract_x
_atom_site_fract_y
_atom_site_fract_z
Si Si1 0.349130 0.493970 0.429350
Si Si2 0.392417 0.849259 0.083558
Si Si3 0.148382 0.595577 0.299173
Si Si4 0.046121 0.797283 0.433026
Si Si5 0.951392 0.597657 0.803738
Si Si6 0.197156 0.653843 0.079917
Si Si7 0.475674 0.734251 0.470809
Si Si8 0.783942 0.573672 0.973859
O O1 0.283151 0.555793 0.335015
O O2 0.430417 0.376798 0.396023
O O3 0.242763 0.454352 0.507194
O O4 0.438069 0.593054 0.479927
O O5 0.447613 0.899939 0.185142
O O6 0.312127 0.733060 0.112626
O O7 0.306751 0.949654 0.033279
O O8 0.503180 0.806727 0.011279
O O9 0.113673 0.730167 0.340450
O O10 0.142094 0.594553 0.179708
O O11 0.050310 0.499749 0.339852
O O12 0.142726 0.888293 0.484354
O O13 0.991972 0.727237 0.853138
O O14 0.822506 0.555927 0.856026
O O15 0.100381 0.742380 0.027971
O O16 0.369380 0.819641 0.520186
#
# Coordination Sequence:
#
# PCOD8054623 Si02
#       8
#     4   4   4   4   4   4   4   4
#     4  11  23  41  65  93 126 166 208 254 312 368
#     4  11  22  41  60  94 127 161 214 251 310 373
#     4  12  22  43  65  89 127 164 208 262 307 371
#     4  11  23  40  65  92 126 168 204 257 309 365
#     4  10  22  39  67  89 121 170 204 257 313 364
#     4  11  24  39  64  92 127 165 208 260 309 369
#     4  10  20  40  64  91 124 165 205 254 310 363
#     4  10  20  39  64  90 124 167 201 257 306 359
#
# _framework density 19.937809999999999
#
# number of rings (size 3 to 8) (size 9 to 14) (size 15 to 20)
#    0.750    0.500    3.750    3.000    1.750    1.000 
#    0.000    7.500    0.000    0.000    0.000    0.000 
#    0.000    0.000    0.000    0.000    0.000    0.000 
#
# Total GULP energy -198359.672538 kJ/mol
# GULP energy per Si atom -12397.479534 kJ/mol
# Density = 1.989243 g / cm^3
# Si number density = 19.937810 Si / 1000 Ang^3
#
#
#
# Elastic Constant Matrix: (Units=GPa)
#
#
# Indices 1 2 3 4 5 6 
#
# 1 98.8080 36.5014 35.7481 0.0000 9.3866 0.0000
# 2 36.5014 94.6004 33.0520 0.0000 4.8380 0.0000
# 3 35.7481 33.0520 101.3653 0.0000 9.8602 0.0000
# 4 0.0000 0.0000 0.0000 13.5730 0.0000 6.2594
# 5 9.3866 4.8380 9.8602 0.0000 19.2820 0.0000
# 6 0.0000 0.0000 0.0000 6.2594 0.0000 49.7492
#
#
#
# Elastic Compliance Matrix: (Units=1/GPa)
#
#
# Indices 1 2 3 4 5 6 
#
# 1 0.012949 -0.003764 -0.002966 0.000000 -0.003843 0.000000
# 2 -0.003764 0.013044 -0.002932 0.000000 0.000058 0.000000
# 3 -0.002966 -0.002932 0.012265 0.000000 -0.004093 0.000000
# 4 0.000000 0.000000 0.000000 0.078214 0.000000 -0.009841
# 5 -0.003843 0.000058 -0.004093 0.000000 0.055811 0.000000
# 6 0.000000 0.000000 0.000000 -0.009841 0.000000 0.021339
#
#
# Mechanical properties :
#
#
# Convention : Reuss Voigt Hill
#
# Bulk Modulus (GPa) = 52.80808 56.15297 54.48052
# Shear Modulus (GPa) = 22.80435 29.15232 25.97834
#
# Velocity S-wave (km/s) = 3.38564 3.82797 3.61358
# Velocity P-wave (km/s) = 6.46740 6.91108 6.69292
#
# Compressibility (1/GPa) = 0.01893650
#
# Stress axis : x y z
#
# Youngs Moduli (GPa) = 77.22590 76.66191 81.53114
#
# Poissons Ratio (x) = 0.28853 0.24179
# Poissons Ratio (y) = 0.29065 0.23902
# Poissons Ratio (z) = 0.22903 0.22475
#
# Static dielectric constant tensor:
#      x y z
#    x 3.582710 0.000000 -0.043120 
#    y 0.000000 3.579310 0.000000 
#    z -0.043120 0.000000 3.271940 
# 
# 
# High freq. dielectric constant tensor:
#      x y z
#    x 1.784110 0.000000 0.001380 
#    y 0.000000 1.784200 0.000000 
#    z 0.001380 0.000000 1.752760 
# 
# From -- ./inp_files/16451.got.cif
#   From: 2010.06.25/outbox.cif.g09.slc.cpg/sg9_9_cif.got.tgz:16451.got - 2010.06.27 21:40:51.
