data_PCOD8054090
_publ_section_title
;
Structure prediction by ZEFSAII (Michael W. Deem and Ramdas Pophale) SiO2 
 PCOD8054090
Probable space group: C M
;
_chemical_formula_sum "Si O2"
_cell_formula_units_Z 32
_cell_length_a 9.276642
_cell_length_b 22.258258
_cell_length_c 14.834931
_cell_angle_alpha 90.000000
_cell_angle_beta 29.224621
_cell_angle_gamma 90.000000
_cell_volume 1495.533561
_symmetry_space_group_name_H-M "C M"
_symmetry_group_IT_number 8
_symmetry_cell_setting 'monoclinic'
loop_
_space_group_symop_operation_xyz
x,y,z
x,-y,z
1/2+x,1/2+y,z
1/2+x,1/2-y,z
loop_
_atom_site_type_symbol
_atom_site_label
_atom_site_fract_x
_atom_site_fract_y
_atom_site_fract_z
Si Si1 0.761510 0.151306 0.851360
Si Si2 0.274183 0.234350 0.075778
Si Si3 0.124593 0.568653 0.563442
Si Si4 0.876252 0.868854 0.591360
Si Si5 0.195957 0.761529 0.682882
Si Si6 0.549319 0.142209 0.266590
Si Si7 0.220900 0.659611 0.366222
Si Si8 0.935640 0.070390 0.921576
O O1 0.739261 0.120367 0.765493
O O2 0.812801 0.101393 0.898443
O O3 0.028497 0.199968 0.697286
O O4 0.465143 0.189538 0.035412
O O5 0.136092 0.288017 0.208567
O O6 0.014557 0.194358 0.174147
O O7 0.484712 0.262899 0.885164
O O8 0.183198 0.500000 0.507254
O O9 0.249472 0.580166 0.595324
O O10 0.302354 0.607679 0.393053
O O11 0.779568 0.584475 0.745112
O O12 0.762007 0.805523 0.613363
O O13 0.228893 0.871833 0.401492
O O14 0.504234 0.794045 0.535697
O O15 0.565333 0.129106 0.364502
O O16 0.775678 0.097413 0.095419
O O17 0.868808 0.000000 0.951223
#
# Coordination Sequence:
#
# PCOD8054090 Si02
#       8
#     4   4   4   4   4   4   4   4
#     4  11  23  45  66 103 135 184 223 284 346 411
#     4  11  25  38  68 106 145 173 223 285 348 416
#     4  11  27  49  69  95 137 189 238 286 339 407
#     4  11  26  39  70 101 136 178 227 283 344 407
#     4  11  22  42  66 102 145 174 218 280 353 414
#     4  12  24  42  66 106 135 180 228 279 346 414
#     4  12  25  43  70 101 139 188 223 282 353 411
#     4  11  26  48  71  96 138 188 234 283 343 410
#
# _framework density 21.397047000000001
#
# number of rings (size 3 to 8) (size 9 to 14) (size 15 to 20)
#    0.000    0.750    5.000    0.750   12.250    1.500 
#    0.000    0.000    0.000    0.000    0.000    0.000 
#    0.000    0.000    0.000    0.000    0.000    0.000 
#
# Total GULP energy -198458.128036 kJ/mol
# GULP energy per Si atom -12403.633002 kJ/mol
# Density = 2.134835 g / cm^3
# Si number density = 21.397047 Si / 1000 Ang^3
#
#
#
# Elastic Constant Matrix: (Units=GPa)
#
#
# Indices 1 2 3 4 5 6 
#
# 1 121.9667 44.8782 35.1275 -0.0200 1.2718 -0.0196
# 2 44.8782 96.0602 42.3476 -0.0587 -0.7255 -0.0052
# 3 35.1275 42.3476 83.5972 -0.0116 0.1512 -0.0076
# 4 -0.0200 -0.0587 -0.0116 25.3635 0.0018 -4.8078
# 5 1.2718 -0.7255 0.1512 0.0018 35.6711 -0.0013
# 6 -0.0196 -0.0052 -0.0076 -4.8078 -0.0013 34.1761
#
#
#
# Elastic Compliance Matrix: (Units=1/GPa)
#
#
# Indices 1 2 3 4 5 6 
#
# 1 0.010276 -0.003735 -0.002425 -0.000001 -0.000432 0.000005
# 2 -0.003735 0.014764 -0.005910 0.000029 0.000458 0.000003
# 3 -0.002425 -0.005910 0.015975 -0.000008 -0.000101 0.000000
# 4 -0.000001 0.000029 -0.000008 0.040507 -0.000001 0.005698
# 5 -0.000432 0.000458 -0.000101 -0.000001 0.028059 0.000001
# 6 0.000005 0.000003 0.000000 0.005698 0.000001 0.030062
#
#
# Mechanical properties :
#
#
# Convention : Reuss Voigt Hill
#
# Bulk Modulus (GPa) = 59.26122 60.70340 59.98231
# Shear Modulus (GPa) = 29.51421 30.99354 30.25388
#
# Velocity S-wave (km/s) = 3.71800 3.81004 3.76430
# Velocity P-wave (km/s) = 6.79614 6.91280 6.85472
#
# Compressibility (1/GPa) = 0.01687444
#
# Stress axis : x y z
#
# Youngs Moduli (GPa) = 97.31135 67.73160 62.59625
#
# Poissons Ratio (x) = 0.25298 0.15181
# Poissons Ratio (y) = 0.36346 0.36997
# Poissons Ratio (z) = 0.23600 0.40032
#
# Static dielectric constant tensor:
#      x y z
#    x 3.829060 0.000020 -0.208210 
#    y 0.000020 3.771780 0.000010 
#    z -0.208210 0.000010 3.911240 
# 
# 
# High freq. dielectric constant tensor:
#      x y z
#    x 1.845120 0.000000 -0.008260 
#    y 0.000000 1.826000 0.000010 
#    z -0.008260 0.000010 1.846020 
# 
# From -- ./inp_files/25663.got.cif
#   From: 2010.03.12/outbox.cif.g09.slc.cpg/sg8_13_cif.got.tgz:25663.got - 2010.03.31 10:45:26.
