data_PCOD8054927
_publ_section_title
;
Structure prediction by ZEFSAII (Michael W. Deem and Ramdas Pophale) SiO2 
 PCOD8054927
Probable space group: C C
;
_chemical_formula_sum "Si O2"
_cell_formula_units_Z 28
_cell_length_a 5.201927
_cell_length_b 23.124515
_cell_length_c 12.973711
_cell_angle_alpha 90.000000
_cell_angle_beta 60.912770
_cell_angle_gamma 90.000000
_cell_volume 1363.807899
_symmetry_space_group_name_H-M "C C"
_symmetry_group_IT_number 9
_symmetry_cell_setting 'monoclinic'
loop_
_space_group_symop_operation_xyz
x,y,z
x,-y,1/2+z
1/2+x,1/2+y,z
1/2+x,1/2-y,1/2+z
loop_
_atom_site_type_symbol
_atom_site_label
_atom_site_fract_x
_atom_site_fract_y
_atom_site_fract_z
Si Si1 0.537510 0.615390 0.162840
Si Si2 0.748646 0.517739 0.981106
Si Si3 0.241277 0.097392 0.599193
Si Si4 0.172086 0.665812 0.052321
Si Si5 0.891279 0.067764 0.869350
Si Si6 0.273660 0.350468 0.914885
Si Si7 0.199028 0.202763 0.484435
O O1 0.322489 0.652371 0.131993
O O2 0.404497 0.606566 0.302799
O O3 0.834851 0.649797 0.119889
O O4 0.599194 0.552484 0.104177
O O5 0.563554 0.526252 0.913673
O O6 0.084112 0.538280 0.897288
O O7 0.719508 0.450767 0.014134
O O8 0.593658 0.112564 0.537177
O O9 0.076764 0.155805 0.592422
O O10 0.106736 0.075687 0.731119
O O11 0.339876 0.630645 0.929706
O O12 0.171363 0.733275 0.031128
O O13 0.518540 0.308182 0.914975
O O14 0.044414 0.309102 0.898152
#
# Coordination Sequence:
#
# PCOD8054927 Si02
#       7
#     4   4   4   4   4   4   4
#     4  10  21  40  64  87 123 159 207 254 305 368
#     4  10  24  40  63  91 120 166 205 254 307 368
#     4  10  26  39  65  90 132 157 213 251 317 367
#     4  10  21  43  62  91 122 162 209 249 311 371
#     4  10  24  42  64  90 124 166 204 257 309 364
#     4  10  23  39  58  97 120 160 204 251 314 361
#     4  10  23  39  60  96 123 162 206 252 315 369
#
# _framework density 20.530747999999999
#
# number of rings (size 3 to 8) (size 9 to 14) (size 15 to 20)
#    0.857    1.143    0.000    1.714    6.000    2.286 
#    2.571    0.000    0.000    0.000    0.000    0.000 
#    0.000    0.000    0.000    0.000    0.000    0.000 
#
# Total GULP energy -173505.035128 kJ/mol
# GULP energy per Si atom -12393.216795 kJ/mol
# Density = 2.048402 g / cm^3
# Si number density = 20.530748 Si / 1000 Ang^3
#
#
#
# Elastic Constant Matrix: (Units=GPa)
#
#
# Indices 1 2 3 4 5 6 
#
# 1 140.5341 13.9004 22.9581 0.0000 4.6964 0.0000
# 2 13.9004 108.6780 15.8469 0.0000 3.2483 0.0000
# 3 22.9581 15.8469 111.2408 0.0000 -9.7783 0.0000
# 4 0.0000 0.0000 0.0000 16.7641 0.0000 5.8161
# 5 4.6964 3.2483 -9.7783 0.0000 12.3522 0.0000
# 6 0.0000 0.0000 0.0000 5.8161 0.0000 22.1921
#
#
#
# Elastic Compliance Matrix: (Units=1/GPa)
#
#
# Indices 1 2 3 4 5 6 
#
# 1 0.007618 -0.000577 -0.001861 0.000000 -0.004218 0.000000
# 2 -0.000577 0.009609 -0.001561 0.000000 -0.003543 0.000000
# 3 -0.001861 -0.001561 0.010419 0.000000 0.009366 0.000000
# 4 0.000000 0.000000 0.000000 0.065617 0.000000 -0.017197
# 5 -0.004218 -0.003543 0.009366 0.000000 0.090907 0.000000
# 6 0.000000 0.000000 0.000000 -0.017197 0.000000 0.049568
#
#
# Mechanical properties :
#
#
# Convention : Reuss Voigt Hill
#
# Bulk Modulus (GPa) = 50.89579 51.76264 51.32921
# Shear Modulus (GPa) = 20.13810 30.77818 25.45814
#
# Velocity S-wave (km/s) = 3.13529 3.87606 3.52518
# Velocity P-wave (km/s) = 6.16040 6.73043 6.45172
#
# Compressibility (1/GPa) = 0.01964799
#
# Stress axis : x y z
#
# Youngs Moduli (GPa) = 131.27344 104.07072 95.97632
#
# Poissons Ratio (x) = 0.06004 0.17858
# Poissons Ratio (y) = 0.07574 0.14984
# Poissons Ratio (z) = 0.24426 0.16248
#
# Static dielectric constant tensor:
#      x y z
#    x 3.900420 0.000000 -0.052860 
#    y 0.000000 3.602960 0.000000 
#    z -0.052860 0.000000 3.547830 
# 
# 
# High freq. dielectric constant tensor:
#      x y z
#    x 1.817130 0.000000 -0.003640 
#    y 0.000000 1.800420 0.000000 
#    z -0.003640 0.000000 1.790740 
# 
# From -- ./inp_files/13569.got.cif
#   From: 2010.06.25/outbox.cif.g09.slc.cpg/sg9_7_cif.got.tgz:13569.got - 2010.06.27 21:40:51.
