data_PCOD8054092
_publ_section_title
;
Structure prediction by ZEFSAII (Michael W. Deem and Ramdas Pophale) SiO2 
 PCOD8054092
Probable space group: C M
;
_chemical_formula_sum "Si O2"
_cell_formula_units_Z 20
_cell_length_a 12.700740
_cell_length_b 14.595431
_cell_length_c 4.980376
_cell_angle_alpha 90.000000
_cell_angle_beta 78.898897
_cell_angle_gamma 90.000000
_cell_volume 905.951593
_symmetry_space_group_name_H-M "C M"
_symmetry_group_IT_number 8
_symmetry_cell_setting 'monoclinic'
loop_
_space_group_symop_operation_xyz
x,y,z
x,-y,z
1/2+x,1/2+y,z
1/2+x,1/2-y,z
loop_
_atom_site_type_symbol
_atom_site_label
_atom_site_fract_x
_atom_site_fract_y
_atom_site_fract_z
Si Si1 0.566290 0.897709 0.579040
Si Si2 0.524379 0.500000 0.305355
Si Si3 0.874123 0.000000 0.880361
Si Si4 0.706217 0.647860 0.228417
Si Si5 0.832158 0.397900 0.666611
Si Si6 0.192258 0.351881 0.017166
O O1 0.449112 0.850097 0.625963
O O2 0.613848 0.904231 0.257932
O O3 0.555159 0.000000 0.702130
O O4 0.642813 0.843054 0.744072
O O5 0.426036 0.500000 0.560745
O O6 0.594208 0.592777 0.306536
O O7 0.472721 0.500000 0.037053
O O8 0.804129 0.907375 0.948989
O O9 0.757105 0.657307 0.498911
O O10 0.699722 0.749753 0.121319
O O11 0.782334 0.594150 0.986312
O O12 0.844955 0.500000 0.541751
#
# Coordination Sequence:
#
# PCOD8054092 Si02
#       6
#     4   2   2   4   4   4
#     4  11  22  42  71  99 132 171 222 287 353 402
#     4  12  26  46  69  96 143 190 228 278 350 416
#     4  12  26  46  69  96 143 190 228 278 350 416
#     4  12  25  44  69 101 139 181 234 284 340 420
#     4  11  22  42  71  99 132 171 222 287 353 402
#     4  12  25  44  69 101 139 181 234 284 340 420
#
# _framework density 22.076232999999998
#
# number of rings (size 3 to 8) (size 9 to 14) (size 15 to 20)
#    0.000    0.400    4.000    4.800    0.000    8.000 
#    0.000    0.000    0.000    0.000    0.000    0.000 
#    0.000    0.000    0.000    0.000    0.000    0.000 
#
# Total GULP energy -124011.224654 kJ/mol
# GULP energy per Si atom -12401.122465 kJ/mol
# Density = 2.202599 g / cm^3
# Si number density = 22.076233 Si / 1000 Ang^3
#
#
#
# Elastic Constant Matrix: (Units=GPa)
#
#
# Indices 1 2 3 4 5 6 
#
# 1 128.7720 34.7510 26.2700 0.0000 -2.9990 0.0000
# 2 34.7510 127.2903 -2.0282 0.0000 -6.7592 0.0000
# 3 26.2700 -2.0282 99.6364 0.0000 -14.2270 0.0000
# 4 0.0000 0.0000 0.0000 30.7487 0.0000 1.2937
# 5 -2.9990 -6.7592 -14.2270 0.0000 48.5101 0.0000
# 6 0.0000 0.0000 0.0000 1.2937 0.0000 11.9158
#
#
#
# Elastic Compliance Matrix: (Units=1/GPa)
#
#
# Indices 1 2 3 4 5 6 
#
# 1 0.008936 -0.002507 -0.002482 0.000000 -0.000525 0.000000
# 2 -0.002507 0.008629 0.001029 0.000000 0.001349 0.000000
# 3 -0.002482 0.001029 0.011179 0.000000 0.003268 0.000000
# 4 0.000000 0.000000 0.000000 0.032671 0.000000 -0.003547
# 5 -0.000525 0.001349 0.003268 0.000000 0.021728 0.000000
# 6 0.000000 0.000000 0.000000 -0.003547 0.000000 0.084307
#
#
# Mechanical properties :
#
#
# Convention : Reuss Voigt Hill
#
# Bulk Modulus (GPa) = 48.02229 52.63158 50.32694
# Shear Modulus (GPa) = 27.42561 38.01531 32.72046
#
# Velocity S-wave (km/s) = 3.52847 4.15420 3.85406
# Velocity P-wave (km/s) = 6.19680 6.84854 6.53080
#
# Compressibility (1/GPa) = 0.02082366
#
# Stress axis : x y z
#
# Youngs Moduli (GPa) = 111.90217 115.89432 89.45683
#
# Poissons Ratio (x) = 0.29056 0.22204
# Poissons Ratio (y) = 0.28055 -0.09208
# Poissons Ratio (z) = 0.27775 -0.11929
#
# Static dielectric constant tensor:
#      x y z
#    x 4.077270 0.000000 -0.006690 
#    y 0.000000 3.968660 0.000000 
#    z -0.006690 0.000000 4.172380 
# 
# 
# High freq. dielectric constant tensor:
#      x y z
#    x 1.873790 0.000000 0.001290 
#    y 0.000000 1.863440 0.000000 
#    z 0.001290 0.000000 1.887090 
# 
# From -- ./inp_files/2483.got.cif
#   From: 2010.03.12/outbox.cif.g09.slc.cpg/sg8_2_cif.got.tgz:2483.got - 2010.03.31 10:45:26.
