data_PCOD8054963
_publ_section_title
;
Structure prediction by ZEFSAII (Michael W. Deem and Ramdas Pophale) SiO2 
 PCOD8054963
Probable space group: C C
;
_chemical_formula_sum "Si O2"
_cell_formula_units_Z 28
_cell_length_a 8.971818
_cell_length_b 21.013908
_cell_length_c 9.576884
_cell_angle_alpha 90.000000
_cell_angle_beta 136.281741
_cell_angle_gamma 90.000000
_cell_volume 1247.844379
_symmetry_space_group_name_H-M "C C"
_symmetry_group_IT_number 9
_symmetry_cell_setting 'monoclinic'
loop_
_space_group_symop_operation_xyz
x,y,z
x,-y,1/2+z
1/2+x,1/2+y,z
1/2+x,1/2-y,1/2+z
loop_
_atom_site_type_symbol
_atom_site_label
_atom_site_fract_x
_atom_site_fract_y
_atom_site_fract_z
Si Si1 0.403360 0.323399 0.791490
Si Si2 0.589598 0.974955 0.235026
Si Si3 0.481901 0.321838 0.249227
Si Si4 0.794171 0.475970 0.775899
Si Si5 0.442496 0.788965 0.518084
Si Si6 0.940955 0.871308 0.516499
Si Si7 0.443409 0.425730 0.023670
O O1 0.150856 0.333798 0.660703
O O2 0.453049 0.327079 0.661533
O O3 0.469533 0.254591 0.897013
O O4 0.530210 0.380363 0.956477
O O5 0.723592 0.913391 0.377002
O O6 0.403034 0.994795 0.213571
O O7 0.477203 0.959872 0.011983
O O8 0.753024 0.033198 0.327842
O O9 0.413765 0.254166 0.138401
O O10 0.432681 0.323133 0.379949
O O11 0.356757 0.380769 0.091074
O O12 0.732824 0.333233 0.375638
O O13 0.657991 0.412803 0.647988
O O14 0.627379 0.529764 0.714702
#
# Coordination Sequence:
#
# PCOD8054963 Si02
#       7
#     4   4   4   4   4   4   4
#     4  10  21  41  62  91 120 162 207 260 303 366
#     4  11  23  39  60  94 127 165 199 248 307 374
#     4  10  21  41  62  91 120 162 207 260 303 366
#     4  11  23  39  60  94 127 165 199 248 307 374
#     4   9  22  41  66  86 118 167 212 247 316 366
#     4  11  24  39  62  98 128 153 212 257 304 362
#     4  10  22  38  64  88 124 164 208 242 300 390
#
# _framework density 22.438694999999999
#
# number of rings (size 3 to 8) (size 9 to 14) (size 15 to 20)
#    0.000    1.714    0.000    3.429    6.000    5.714 
#    5.143    0.000    0.000    0.000    0.000    0.000 
#    0.000    0.000    0.000    0.000    0.000    0.000 
#
# Total GULP energy -173587.389056 kJ/mol
# GULP energy per Si atom -12399.099218 kJ/mol
# Density = 2.238762 g / cm^3
# Si number density = 22.438695 Si / 1000 Ang^3
#
#
#
# Elastic Constant Matrix: (Units=GPa)
#
#
# Indices 1 2 3 4 5 6 
#
# 1 78.3842 29.3227 29.4978 0.0000 -21.3204 0.0000
# 2 29.3227 66.9989 25.7892 0.0000 -14.1961 0.0000
# 3 29.4978 25.7892 114.4911 0.0000 -17.8726 0.0000
# 4 0.0000 0.0000 0.0000 16.3897 0.0000 -6.9903
# 5 -21.3204 -14.1961 -17.8726 0.0000 55.3237 0.0000
# 6 0.0000 0.0000 0.0000 -6.9903 0.0000 25.4258
#
#
#
# Elastic Compliance Matrix: (Units=1/GPa)
#
#
# Indices 1 2 3 4 5 6 
#
# 1 0.016925 -0.005557 -0.002436 0.000000 0.004310 0.000000
# 2 -0.005557 0.018710 -0.002493 0.000000 0.001854 0.000000
# 3 -0.002436 -0.002493 0.010191 0.000000 0.001714 0.000000
# 4 0.000000 0.000000 0.000000 0.069119 0.000000 0.019003
# 5 0.004310 0.001854 0.001714 0.000000 0.020766 0.000000
# 6 0.000000 0.000000 0.000000 0.019003 0.000000 0.044555
#
#
# Mechanical properties :
#
#
# Convention : Reuss Voigt Hill
#
# Bulk Modulus (GPa) = 40.23491 47.67709 43.95600
# Shear Modulus (GPa) = 23.86370 31.11212 27.48791
#
# Velocity S-wave (km/s) = 3.26468 3.72767 3.50383
# Velocity P-wave (km/s) = 5.67282 6.31040 6.00008
#
# Compressibility (1/GPa) = 0.02485404
#
# Stress axis : x y z
#
# Youngs Moduli (GPa) = 59.08270 53.44692 98.12439
#
# Poissons Ratio (x) = 0.29698 0.23906
# Poissons Ratio (y) = 0.32830 0.24467
# Poissons Ratio (z) = 0.14394 0.13327
#
# Static dielectric constant tensor:
#      x y z
#    x 3.903250 0.000000 0.164850 
#    y 0.000000 3.794740 0.000000 
#    z 0.164850 0.000000 4.305570 
# 
# 
# High freq. dielectric constant tensor:
#      x y z
#    x 1.861780 0.000000 0.001120 
#    y 0.000000 1.875930 0.000000 
#    z 0.001120 0.000000 1.901710 
# 
# From -- ./inp_files/5722.got.cif
#   From: 2010.06.25/outbox.cif.g09.slc.cpg/sg9_3_cif.got.tgz:5722.got - 2010.06.27 21:40:51.
