data_PCOD8054495
_publ_section_title
;
Structure prediction by ZEFSAII (Michael W. Deem and Ramdas Pophale) SiO2 
 PCOD8054495
Probable space group: C C
;
_chemical_formula_sum "Si O2"
_cell_formula_units_Z 32
_cell_length_a 20.555851
_cell_length_b 11.076427
_cell_length_c 9.013248
_cell_angle_alpha 90.000000
_cell_angle_beta 126.782797
_cell_angle_gamma 90.000000
_cell_volume 1643.617791
_symmetry_space_group_name_H-M "C C"
_symmetry_group_IT_number 9
_symmetry_cell_setting 'monoclinic'
loop_
_space_group_symop_operation_xyz
x,y,z
x,-y,1/2+z
1/2+x,1/2+y,z
1/2+x,1/2-y,1/2+z
loop_
_atom_site_type_symbol
_atom_site_label
_atom_site_fract_x
_atom_site_fract_y
_atom_site_fract_z
Si Si1 0.090940 0.133854 0.151880
Si Si2 0.361539 0.841453 0.065364
Si Si3 0.168037 0.931163 0.451136
Si Si4 0.409936 0.397691 0.490334
Si Si5 0.206541 0.703176 0.946272
Si Si6 0.729710 0.262714 0.304706
Si Si7 0.311815 0.539033 0.570940
Si Si8 0.829969 0.535862 0.800185
O O1 0.122042 0.270569 0.240130
O O2 0.133230 0.049824 0.329717
O O3 0.113681 0.106342 0.015112
O O4 0.996194 0.102982 0.029897
O O5 0.389377 0.900808 0.260184
O O6 0.410851 0.724842 0.086203
O O7 0.267431 0.804034 0.961531
O O8 0.379035 0.938888 0.961974
O O9 0.164943 0.820591 0.329598
O O10 0.259196 0.960222 0.623953
O O11 0.392483 0.501713 0.588205
O O12 0.339134 0.414348 0.270320
O O13 0.187223 0.726088 0.092847
O O14 0.246181 0.570616 0.984393
O O15 0.769192 0.147301 0.431127
O O16 0.798366 0.362587 0.369254
#
# Coordination Sequence:
#
# PCOD8054495 Si02
#       8
#     4   4   4   4   4   4   4   4
#     4  12  22  38  61  90 129 158 202 257 313 361
#     4  10  20  35  60  87 114 156 197 251 296 356
#     4  12  19  33  61  94 116 153 196 258 305 351
#     4  11  25  40  59  88 129 165 199 248 318 372
#     4  10  20  38  60  89 119 156 208 246 299 362
#     4  11  20  34  63  91 114 151 206 254 297 355
#     4  11  23  40  61  90 123 167 202 251 303 374
#     4  11  17  34  61  91 112 140 204 259 293 343
#
# _framework density 19.469246999999999
#
# number of rings (size 3 to 8) (size 9 to 14) (size 15 to 20)
#    0.000    1.000    7.500    1.500    1.750    0.000 
#    0.000    0.000    5.500    0.000    0.000    0.000 
#    0.000    0.000    0.000    0.000    0.000    0.000 
#
# Total GULP energy -198272.465927 kJ/mol
# GULP energy per Si atom -12392.029120 kJ/mol
# Density = 1.942493 g / cm^3
# Si number density = 19.469247 Si / 1000 Ang^3
#
#
#
# Elastic Constant Matrix: (Units=GPa)
#
#
# Indices 1 2 3 4 5 6 
#
# 1 93.4254 27.8967 39.3700 0.0000 -24.0080 0.0000
# 2 27.8967 80.7380 32.1254 0.0000 -7.8546 0.0000
# 3 39.3700 32.1254 49.7402 0.0000 -21.9675 0.0000
# 4 0.0000 0.0000 0.0000 30.3943 0.0000 -12.3155
# 5 -24.0080 -7.8546 -21.9675 0.0000 32.3964 0.0000
# 6 0.0000 0.0000 0.0000 -12.3155 0.0000 25.4107
#
#
#
# Elastic Compliance Matrix: (Units=1/GPa)
#
#
# Indices 1 2 3 4 5 6 
#
# 1 0.016663 -0.001235 -0.010092 0.000000 0.005206 0.000000
# 2 -0.001235 0.017267 -0.012462 0.000000 -0.005179 0.000000
# 3 -0.010092 -0.012462 0.044971 0.000000 0.019994 0.000000
# 4 0.000000 0.000000 0.000000 0.040941 0.000000 0.019842
# 5 0.005206 -0.005179 0.019994 0.000000 0.047027 0.000000
# 6 0.000000 0.000000 0.000000 0.019842 0.000000 0.048970
#
#
# Mechanical properties :
#
#
# Convention : Reuss Voigt Hill
#
# Bulk Modulus (GPa) = 31.92525 46.96532 39.44528
# Shear Modulus (GPa) = 18.25749 25.94106 22.09927
#
# Velocity S-wave (km/s) = 3.06561 3.65418 3.37276
# Velocity P-wave (km/s) = 5.38182 6.47914 5.95581
#
# Compressibility (1/GPa) = 0.03132317
#
# Stress axis : x y z
#
# Youngs Moduli (GPa) = 60.01216 57.91314 22.23636
#
# Poissons Ratio (x) = 0.07155 0.22441
# Poissons Ratio (y) = 0.07414 0.27710
# Poissons Ratio (z) = 0.60565 0.72170
#
# Static dielectric constant tensor:
#      x y z
#    x 3.712500 0.000000 -0.425390 
#    y 0.000000 3.733310 0.000000 
#    z -0.425390 0.000000 3.497230 
# 
# 
# High freq. dielectric constant tensor:
#      x y z
#    x 1.744740 0.000000 -0.045920 
#    y 0.000000 1.764830 0.000000 
#    z -0.045920 0.000000 1.740380 
# 
# From -- ./inp_files/10626.got.cif
#   From: 2010.06.25/outbox.cif.g09.slc.cpg/sg9_6_cif.got.tgz:10626.got - 2010.06.27 21:40:51.
