data_PCOD8054166
_publ_section_title
;
Structure prediction by ZEFSAII (Michael W. Deem and Ramdas Pophale) SiO2 
 PCOD8054166
Probable space group: C C
;
_chemical_formula_sum "Si O2"
_cell_formula_units_Z 28
_cell_length_a 6.831390
_cell_length_b 19.279819
_cell_length_c 8.069715
_cell_angle_alpha 90.000000
_cell_angle_beta 81.324814
_cell_angle_gamma 90.000000
_cell_volume 1050.686027
_symmetry_space_group_name_H-M "C C"
_symmetry_group_IT_number 9
_symmetry_cell_setting 'monoclinic'
loop_
_space_group_symop_operation_xyz
x,y,z
x,-y,1/2+z
1/2+x,1/2+y,z
1/2+x,1/2-y,1/2+z
loop_
_atom_site_type_symbol
_atom_site_label
_atom_site_fract_x
_atom_site_fract_y
_atom_site_fract_z
Si Si1 0.097780 0.694047 0.689600
Si Si2 0.183586 0.068967 0.975730
Si Si3 0.654000 0.074156 0.892122
Si Si4 0.679128 0.339117 0.172568
Si Si5 0.790453 0.784576 0.848500
Si Si6 0.192245 0.917639 0.850337
Si Si7 0.160494 0.426105 0.756168
O O1 0.234385 0.639641 0.773623
O O2 0.223282 0.736113 0.540315
O O3 0.918488 0.648319 0.633567
O O4 0.015025 0.756785 0.813319
O O5 0.104083 0.088749 0.172946
O O6 0.418570 0.079959 0.940351
O O7 0.089481 0.115070 0.837547
O O8 0.130594 0.989788 0.942836
O O9 0.723726 0.001561 0.809040
O O10 0.748650 0.080457 0.060509
O O11 0.654523 0.256969 0.227335
O O12 0.606831 0.360171 0.995324
O O13 0.776708 0.867534 0.843404
O O14 0.428058 0.913385 0.801659
#
# Coordination Sequence:
#
# PCOD8054166 Si02
#       7
#     4   4   4   4   4   4   4
#     4   9  19  35  50  77 107 148 178 225 277 336
#     4   9  16  25  46  77 100 137 170 240 259 319
#     4   9  18  29  51  80 104 137 192 229 267 329
#     4   9  18  30  46  73 107 138 177 216 283 314
#     4  10  19  34  52  78 112 146 179 226 285 328
#     4  10  15  26  48  72 108 125 188 216 277 305
#     4  10  17  29  51  81 104 141 182 238 272 321
#
# _framework density 26.649256000000001
#
# number of rings (size 3 to 8) (size 9 to 14) (size 15 to 20)
#    0.857    1.714    2.857    0.857    4.000    0.000 
#    2.571    1.429    0.000    0.000    7.429    0.000 
#    0.000    0.000    0.000    0.000    0.000    0.000 
#
# Total GULP energy -173442.513454 kJ/mol
# GULP energy per Si atom -12388.750961 kJ/mol
# Density = 2.658860 g / cm^3
# Si number density = 26.649256 Si / 1000 Ang^3
#
#
#
# Elastic Constant Matrix: (Units=GPa)
#
#
# Indices 1 2 3 4 5 6 
#
# 1 30.0363 23.9277 35.2253 0.0000 21.1567 0.0000
# 2 23.9277 131.7216 65.0922 0.0000 -9.0418 0.0000
# 3 35.2253 65.0922 234.1832 0.0000 5.6224 0.0000
# 4 0.0000 0.0000 0.0000 55.2035 0.0000 0.7669
# 5 21.1567 -9.0418 5.6224 0.0000 29.7053 0.0000
# 6 0.0000 0.0000 0.0000 0.7669 0.0000 19.6094
#
#
#
# Elastic Compliance Matrix: (Units=1/GPa)
#
#
# Indices 1 2 3 4 5 6 
#
# 1 0.151314 -0.029512 -0.011808 0.000000 -0.114517 0.000000
# 2 -0.029512 0.014861 -0.000306 0.000000 0.025601 0.000000
# 3 -0.011808 -0.000306 0.005959 0.000000 0.007189 0.000000
# 4 0.000000 0.000000 0.000000 0.018125 0.000000 -0.000709
# 5 -0.114517 0.025601 0.007189 0.000000 0.121657 0.000000
# 6 0.000000 0.000000 0.000000 -0.000709 0.000000 0.051024
#
#
# Mechanical properties :
#
#
# Convention : Reuss Voigt Hill
#
# Bulk Modulus (GPa) = 11.25099 71.60348 41.42724
# Shear Modulus (GPa) = 10.50819 39.01669 24.76244
#
# Velocity S-wave (km/s) = 1.98789 3.83048 3.05158
# Velocity P-wave (km/s) = 3.08220 6.81840 5.29106
#
# Compressibility (1/GPa) = 0.08888106
#
# Stress axis : x y z
#
# Youngs Moduli (GPa) = 6.60879 67.28814 167.81923
#
# Poissons Ratio (x) = 1.98584 1.98157
# Poissons Ratio (y) = 0.19504 0.05140
# Poissons Ratio (z) = 0.07803 0.02061
#
# Static dielectric constant tensor:
#      x y z
#    x 4.272770 0.000000 0.009770 
#    y 0.000000 4.557070 0.000000 
#    z 0.009770 0.000000 5.108110 
# 
# 
# High freq. dielectric constant tensor:
#      x y z
#    x 2.049110 0.000000 -0.007190 
#    y 0.000000 2.061140 0.000000 
#    z -0.007190 0.000000 2.087360 
# 
# From -- ./inp_files/7716.got.cif
#   From: 2010.06.25/outbox.cif.g09.slc.cpg/sg9_4_cif.got.tgz:7716.got - 2010.06.27 21:40:51.
