data_PCOD8054163
_publ_section_title
;
Structure prediction by ZEFSAII (Michael W. Deem and Ramdas Pophale) SiO2 
 PCOD8054163
Probable space group: C C
;
_chemical_formula_sum "Si O2"
_cell_formula_units_Z 24
_cell_length_a 28.165555
_cell_length_b 7.386474
_cell_length_c 5.314495
_cell_angle_alpha 90.000000
_cell_angle_beta 101.060305
_cell_angle_gamma 90.000000
_cell_volume 1085.112995
_symmetry_space_group_name_H-M "C C"
_symmetry_group_IT_number 9
_symmetry_cell_setting 'monoclinic'
loop_
_space_group_symop_operation_xyz
x,y,z
x,-y,1/2+z
1/2+x,1/2+y,z
1/2+x,1/2-y,1/2+z
loop_
_atom_site_type_symbol
_atom_site_label
_atom_site_fract_x
_atom_site_fract_y
_atom_site_fract_z
Si Si1 0.895520 0.807735 0.794590
Si Si2 0.151222 0.113101 0.035353
Si Si3 0.355055 0.707013 0.753507
Si Si4 0.048599 0.784118 0.466957
Si Si5 0.256893 0.115511 0.203067
Si Si6 0.508748 0.688339 0.426501
O O1 0.881711 0.701953 0.523287
O O2 0.951981 0.849087 0.869755
O O3 0.866622 0.995660 0.746832
O O4 0.876645 0.699084 0.021396
O O5 0.106440 0.251174 0.026748
O O6 0.146983 0.039068 0.747142
O O7 0.203699 0.208363 0.123007
O O8 0.297442 0.731570 0.710353
O O9 0.024699 0.698622 0.694301
O O10 0.037205 0.998921 0.452735
O O11 0.024352 0.698725 0.191161
O O12 0.262780 0.032079 0.487548
#
# Coordination Sequence:
#
# PCOD8054163 Si02
#       6
#     4   4   4   4   4   4
#     4  10  19  30  48  69  94 125 149 192 235 269
#     4  10  16  27  38  58  84 125 149 174 218 267
#     4  10  18  32  46  65  91 127 156 192 227 273
#     4  10  14  22  36  56  87 116 138 165 215 287
#     4  10  21  32  47  64  92 132 162 191 226 264
#     4  10  16  23  39  64  88 117 136 170 233 284
#
# _framework density 22.117512000000001
#
# number of rings (size 3 to 8) (size 9 to 14) (size 15 to 20)
#    0.000    2.000    3.333    6.000    0.000    0.000 
#    0.000    0.000    0.000    0.000    0.000    0.000 
#    0.000    0.000  192.667    0.667    0.000    0.000 
#
# Total GULP energy -148663.633417 kJ/mol
# GULP energy per Si atom -12388.636118 kJ/mol
# Density = 2.206717 g / cm^3
# Si number density = 22.117512 Si / 1000 Ang^3
#
#
#
# Elastic Constant Matrix: (Units=GPa)
#
#
# Indices 1 2 3 4 5 6 
#
# 1 195.7342 17.3490 55.1925 0.0000 15.0026 0.0000
# 2 17.3490 11.3148 -3.7356 0.0000 6.7686 0.0000
# 3 55.1925 -3.7356 201.0317 0.0000 -24.8752 0.0000
# 4 0.0000 0.0000 0.0000 0.1985 0.0000 3.2762
# 5 15.0026 6.7686 -24.8752 0.0000 52.8455 0.0000
# 6 0.0000 0.0000 0.0000 3.2762 0.0000 14.3901
#
#
#
# Elastic Compliance Matrix: (Units=1/GPa)
#
#
# Indices 1 2 3 4 5 6 
#
# 1 0.006771 -0.010117 -0.002256 0.000000 -0.001688 0.000000
# 2 -0.010117 0.110844 0.003649 0.000000 -0.009607 0.000000
# 3 -0.002256 0.003649 0.006034 0.000000 0.003014 0.000000
# 4 0.000000 0.000000 0.000000 -1.827025 0.000000 0.415956
# 5 -0.001688 -0.009607 0.003014 0.000000 0.022052 0.000000
# 6 0.000000 0.000000 0.000000 0.415956 0.000000 -0.025208
#
#
# Mechanical properties :
#
#
# Convention : Reuss Voigt Hill
#
# Bulk Modulus (GPa) = 9.41615 60.63249 35.02432
# Shear Modulus (GPa) = -3.02356 36.10515 16.54080
#
# Velocity S-wave (km/s) = -1.17047 4.04471 2.73767
# Velocity P-wave (km/s) = 1.56202 7.02041 5.08557
#
# Compressibility (1/GPa) = 0.10620052
#
# Stress axis : x y z
#
# Youngs Moduli (GPa) = 147.68350 9.02170 165.71658
#
# Poissons Ratio (x) = 0.09127 0.37385
# Poissons Ratio (y) = 1.49413 -0.60462
# Poissons Ratio (z) = 0.33317 -0.03292
#
# Static dielectric constant tensor:
#      x y z
#    x 4.546510 0.000000 -0.866780 
#    y 0.000000 2.858590 0.000000 
#    z -0.866780 0.000000 6.960810 
# 
# 
# High freq. dielectric constant tensor:
#      x y z
#    x 1.892060 0.000000 -0.010210 
#    y 0.000000 1.764310 0.000000 
#    z -0.010210 0.000000 1.918970 
# 
# From -- ./inp_files/3119.got.cif
#   From: 2010.06.25/outbox.cif.g09.slc.cpg/sg9_2_cif.got.tgz:3119.got - 2010.06.27 21:40:51.
