data_PCOD8054992
_publ_section_title
;
Structure prediction by ZEFSAII (Michael W. Deem and Ramdas Pophale) SiO2 
 PCOD8054992
Probable space group: C C
;
_chemical_formula_sum "Si O2"
_cell_formula_units_Z 32
_cell_length_a 11.554391
_cell_length_b 8.227631
_cell_length_c 15.267312
_cell_angle_alpha 90.000000
_cell_angle_beta 93.324580
_cell_angle_gamma 90.000000
_cell_volume 1448.948422
_symmetry_space_group_name_H-M "C C"
_symmetry_group_IT_number 9
_symmetry_cell_setting 'monoclinic'
loop_
_space_group_symop_operation_xyz
x,y,z
x,-y,1/2+z
1/2+x,1/2+y,z
1/2+x,1/2-y,1/2+z
loop_
_atom_site_type_symbol
_atom_site_label
_atom_site_fract_x
_atom_site_fract_y
_atom_site_fract_z
Si Si1 0.753580 0.354743 0.229340
Si Si2 0.663628 0.875831 0.065299
Si Si3 0.664000 0.129055 0.371424
Si Si4 0.406776 0.122596 0.287909
Si Si5 0.200066 0.736327 0.878821
Si Si6 0.912510 0.899232 0.146926
Si Si7 0.625547 0.235690 0.066363
Si Si8 0.075972 0.145371 0.214128
O O1 0.742925 0.238770 0.312966
O O2 0.877159 0.448278 0.240477
O O3 0.734224 0.258510 0.137803
O O4 0.653615 0.487209 0.228204
O O5 0.797062 0.922312 0.086698
O O6 0.613632 0.752306 0.133297
O O7 0.591476 0.044631 0.064985
O O8 0.653757 0.795099 0.968443
O O9 0.536343 0.113003 0.326319
O O10 0.727501 0.955327 0.381461
O O11 0.314814 0.159949 0.360950
O O12 0.388541 0.266770 0.219340
O O13 0.093255 0.758153 0.805515
O O14 0.161592 0.797626 0.972272
O O15 0.014066 0.840279 0.087286
O O16 0.946089 0.074878 0.192592
#
# Coordination Sequence:
#
# PCOD8054992 Si02
#       8
#     4   4   4   4   4   4   4   4
#     4  10  21  41  67  94 129 174 209 269 323 380
#     4  11  24  43  66  98 133 169 220 270 321 391
#     4  11  24  43  66  98 133 169 220 270 321 391
#     4  11  23  44  66  93 130 174 216 265 327 384
#     4  10  23  44  64  99 136 164 220 273 315 392
#     4  11  23  44  66  93 130 174 216 265 327 384
#     4  10  23  44  64  99 136 164 220 273 315 392
#     4  10  21  41  67  94 129 174 209 269 323 380
#
# _framework density 22.084980999999999
#
# number of rings (size 3 to 8) (size 9 to 14) (size 15 to 20)
#    0.000    1.500    5.000    0.750    0.000    9.000 
#    9.000    0.000    0.000    0.000    0.000    0.000 
#    0.000    0.000    0.000    0.000    0.000    0.000 
#
# Total GULP energy -198389.788480 kJ/mol
# GULP energy per Si atom -12399.361780 kJ/mol
# Density = 2.203471 g / cm^3
# Si number density = 22.084981 Si / 1000 Ang^3
#
#
#
# Elastic Constant Matrix: (Units=GPa)
#
#
# Indices 1 2 3 4 5 6 
#
# 1 60.4665 2.7564 -1.0117 0.0000 7.2879 0.0000
# 2 2.7564 73.6174 36.8586 0.0000 -7.1324 0.0000
# 3 -1.0117 36.8586 151.2977 0.0000 -6.1971 0.0000
# 4 0.0000 0.0000 0.0000 20.1460 0.0000 -13.5630
# 5 7.2879 -7.1324 -6.1971 0.0000 34.2672 0.0000
# 6 0.0000 0.0000 0.0000 -13.5630 0.0000 12.0330
#
#
#
# Elastic Compliance Matrix: (Units=1/GPa)
#
#
# Indices 1 2 3 4 5 6 
#
# 1 0.017054 -0.001124 0.000232 0.000000 -0.003819 0.000000
# 2 -0.001124 0.015771 -0.003733 0.000000 0.002847 0.000000
# 3 0.000232 -0.003733 0.007542 0.000000 0.000538 0.000000
# 4 0.000000 0.000000 0.000000 0.205825 0.000000 0.231995
# 5 -0.003819 0.002847 0.000538 0.000000 0.030684 0.000000
# 6 0.000000 0.000000 0.000000 0.231995 0.000000 0.344598
#
#
# Mechanical properties :
#
#
# Convention : Reuss Voigt Hill
#
# Bulk Modulus (GPa) = 32.13888 40.28757 36.21323
# Shear Modulus (GPa) = 7.79913 29.74113 18.77013
#
# Velocity S-wave (km/s) = 1.88125 3.67368 2.91848
# Velocity P-wave (km/s) = 4.39349 6.02297 5.27157
#
# Compressibility (1/GPa) = 0.03111496
#
# Stress axis : x y z
#
# Youngs Moduli (GPa) = 58.63888 63.40909 132.58281
#
# Poissons Ratio (x) = 0.07130 -0.03070
# Poissons Ratio (y) = 0.06594 0.49492
# Poissons Ratio (z) = -0.01358 0.23670
#
# Static dielectric constant tensor:
#      x y z
#    x 4.062560 0.000000 0.249400 
#    y 0.000000 4.362630 0.000000 
#    z 0.249400 0.000000 4.282340 
# 
# 
# High freq. dielectric constant tensor:
#      x y z
#    x 1.857310 0.000000 0.008140 
#    y 0.000000 1.881460 0.000000 
#    z 0.008140 0.000000 1.875500 
# 
# From -- ./inp_files/24253.got.cif
#   From: 2010.06.25/outbox.cif.g09.slc.cpg/sg9_13_cif.got.tgz:24253.got - 2010.06.27 21:40:51.
