data_PCOD8054990
_publ_section_title
;
Structure prediction by ZEFSAII (Michael W. Deem and Ramdas Pophale) SiO2 
 PCOD8054990
Probable space group: C C
;
_chemical_formula_sum "Si O2"
_cell_formula_units_Z 32
_cell_length_a 8.085325
_cell_length_b 11.495406
_cell_length_c 27.824443
_cell_angle_alpha 90.000000
_cell_angle_beta 147.678417
_cell_angle_gamma 90.000000
_cell_volume 1382.721368
_symmetry_space_group_name_H-M "C C"
_symmetry_group_IT_number 9
_symmetry_cell_setting 'monoclinic'
loop_
_space_group_symop_operation_xyz
x,y,z
x,-y,1/2+z
1/2+x,1/2+y,z
1/2+x,1/2-y,1/2+z
loop_
_atom_site_type_symbol
_atom_site_label
_atom_site_fract_x
_atom_site_fract_y
_atom_site_fract_z
Si Si1 0.653010 0.748227 0.542480
Si Si2 0.038474 0.341859 0.664336
Si Si3 0.180243 0.287424 0.848743
Si Si4 0.678744 0.787417 0.004657
Si Si5 0.320518 0.658162 0.689063
Si Si6 0.328178 0.504205 0.606871
Si Si7 0.030586 0.495798 0.746486
Si Si8 0.705927 0.748203 0.310909
O O1 0.513593 0.735408 0.454550
O O2 0.434470 0.682949 0.526867
O O3 0.657356 0.884078 0.556201
O O4 0.987664 0.691807 0.628421
O O5 0.046609 0.467510 0.692685
O O6 0.371432 0.308354 0.725003
O O7 0.788355 0.329959 0.559914
O O8 0.929661 0.249948 0.676726
O O9 0.210415 0.396810 0.820567
O O10 0.070630 0.170046 0.793485
O O11 0.924592 0.317035 0.826561
O O12 0.648486 0.896798 0.032810
O O13 0.345414 0.764566 0.898854
O O14 0.312067 0.532493 0.660651
O O15 0.679399 0.499964 0.676692
O O16 0.201274 0.615953 0.797111
#
# Coordination Sequence:
#
# PCOD8054990 Si02
#       8
#     4   4   4   4   4   4   4   4
#     4  11  23  44  65  96 140 160 221 275 313 395
#     4  10  21  41  67  94 128 172 212 268 320 384
#     4  10  24  43  65 101 130 170 217 273 321 384
#     4  10  24  43  65 101 130 170 217 273 321 384
#     4  10  21  41  67  94 128 172 212 268 320 384
#     4  11  23  44  66  94 130 175 218 263 328 387
#     4  11  23  44  66  94 130 175 218 263 328 387
#     4  11  23  44  65  96 140 160 221 275 313 395
#
# _framework density 23.142768
#
# number of rings (size 3 to 8) (size 9 to 14) (size 15 to 20)
#    0.000    1.500    5.000    0.750    0.000    9.000 
#    9.000    0.000    0.000    0.000    0.000    0.000 
#    0.000    0.000    0.000    0.000    0.000    0.000 
#
# Total GULP energy -198404.914041 kJ/mol
# GULP energy per Si atom -12400.307128 kJ/mol
# Density = 2.309009 g / cm^3
# Si number density = 23.142768 Si / 1000 Ang^3
#
#
#
# Elastic Constant Matrix: (Units=GPa)
#
#
# Indices 1 2 3 4 5 6 
#
# 1 53.6749 4.1522 -6.9222 0.0000 -8.9060 0.0001
# 2 4.1522 89.6307 13.5130 -0.0001 -8.9913 0.0001
# 3 -6.9222 13.5130 85.9361 -0.0004 -25.8523 0.0006
# 4 0.0000 -0.0001 -0.0004 33.9357 0.0002 -6.9625
# 5 -8.9060 -8.9913 -25.8523 0.0002 40.3900 0.0001
# 6 0.0001 0.0001 0.0006 -6.9625 0.0001 28.4027
#
#
#
# Elastic Compliance Matrix: (Units=1/GPa)
#
#
# Indices 1 2 3 4 5 6 
#
# 1 0.020297 -0.000838 0.003786 0.000000 0.006712 0.000000
# 2 -0.000838 0.011560 -0.001445 0.000000 0.001464 0.000000
# 3 0.003786 -0.001445 0.015262 0.000000 0.010282 0.000000
# 4 0.000000 0.000000 0.000000 0.031028 0.000000 0.007606
# 5 0.006712 0.001464 0.010282 0.000000 0.033146 0.000000
# 6 0.000000 0.000000 0.000000 0.007606 0.000000 0.037073
#
#
# Mechanical properties :
#
#
# Convention : Reuss Voigt Hill
#
# Bulk Modulus (GPa) = 19.94955 27.85863 23.90409
# Shear Modulus (GPa) = 30.85129 35.11226 32.98177
#
# Velocity S-wave (km/s) = 3.65511 3.89935 3.77920
# Velocity P-wave (km/s) = 5.14315 5.68658 5.42168
#
# Compressibility (1/GPa) = 0.05012643
#
# Stress axis : x y z
#
# Youngs Moduli (GPa) = 49.26719 86.50226 65.52308
#
# Poissons Ratio (x) = 0.07247 -0.24807
# Poissons Ratio (y) = 0.04127 0.09467
# Poissons Ratio (z) = -0.18653 0.12499
#
# Static dielectric constant tensor:
#      x y z
#    x 4.649020 0.000000 -0.392870 
#    y 0.000000 4.462950 0.000000 
#    z -0.392870 0.000000 4.419230 
# 
# 
# High freq. dielectric constant tensor:
#      x y z
#    x 1.928170 0.000000 -0.015940 
#    y 0.000000 1.900260 0.000000 
#    z -0.015940 0.000000 1.916330 
# 
# From -- ./inp_files/22747.got.cif
#   From: 2010.06.25/outbox.cif.g09.slc.cpg/sg9_12_cif.got.tgz:22747.got - 2010.06.27 21:40:51.
