data_PCOD8054770
_publ_section_title
;
Structure prediction by ZEFSAII (Michael W. Deem and Ramdas Pophale) SiO2 
 PCOD8054770
Probable space group: C C
;
_chemical_formula_sum "Si O2"
_cell_formula_units_Z 28
_cell_length_a 17.606899
_cell_length_b 16.363532
_cell_length_c 5.129486
_cell_angle_alpha 90.000000
_cell_angle_beta 57.264423
_cell_angle_gamma 90.000000
_cell_volume 1243.140496
_symmetry_space_group_name_H-M "C C"
_symmetry_group_IT_number 9
_symmetry_cell_setting 'monoclinic'
loop_
_space_group_symop_operation_xyz
x,y,z
x,-y,1/2+z
1/2+x,1/2+y,z
1/2+x,1/2-y,1/2+z
loop_
_atom_site_type_symbol
_atom_site_label
_atom_site_fract_x
_atom_site_fract_y
_atom_site_fract_z
Si Si1 0.873570 0.555365 0.427670
Si Si2 0.016932 0.694731 0.109018
Si Si3 0.786329 0.038072 0.751637
Si Si4 0.019274 0.797357 0.616363
Si Si5 0.982472 0.969059 0.512508
Si Si6 0.725104 0.690466 0.702175
Si Si7 0.722741 0.793113 0.195113
O O1 0.876276 0.514470 0.705453
O O2 0.782041 0.607841 0.593468
O O3 0.959861 0.612278 0.212702
O O4 0.009797 0.730107 0.411145
O O5 0.980738 0.758816 0.956839
O O6 0.120601 0.674501 0.846654
O O7 0.783828 0.131525 0.669732
O O8 0.738588 0.981440 0.616217
O O9 0.890641 0.012335 0.577950
O O10 0.121639 0.829046 0.465973
O O11 0.962938 0.876413 0.634073
O O12 0.036022 0.021838 0.636723
O O13 0.730462 0.725462 0.402688
O O14 0.761281 0.754842 0.853736
#
# Coordination Sequence:
#
# PCOD8054770 Si02
#       7
#     4   4   4   4   4   4   4
#     4  12  26  42  62  92 126 162 208 258 314 368
#     4  10  23  41  64  86 115 163 206 255 301 357
#     4  10  21  34  53  87 122 151 183 234 301 359
#     4  10  21  41  63  88 119 157 209 249 302 370
#     4  10  21  34  53  87 122 151 183 234 301 359
#     4  10  23  41  64  86 115 163 206 255 301 357
#     4  10  21  41  63  88 119 157 209 249 302 370
#
# _framework density 22.523602
#
# number of rings (size 3 to 8) (size 9 to 14) (size 15 to 20)
#    0.000    1.714    0.000    3.429    0.000    9.143 
#    0.000    0.000    0.000    0.000    0.000    0.000 
#    0.000    0.000    0.000    0.000    0.000    0.000 
#
# Total GULP energy -173528.361614 kJ/mol
# GULP energy per Si atom -12394.882972 kJ/mol
# Density = 2.247234 g / cm^3
# Si number density = 22.523602 Si / 1000 Ang^3
#
#
#
# Elastic Constant Matrix: (Units=GPa)
#
#
# Indices 1 2 3 4 5 6 
#
# 1 73.7287 46.5813 41.2889 0.0000 14.4390 0.0000
# 2 46.5813 114.3234 20.9659 0.0000 -5.2480 0.0000
# 3 41.2889 20.9659 88.6969 0.0000 27.4016 0.0000
# 4 0.0000 0.0000 0.0000 43.8784 0.0000 10.1469
# 5 14.4390 -5.2480 27.4016 0.0000 47.3551 0.0000
# 6 0.0000 0.0000 0.0000 10.1469 0.0000 39.3498
#
#
#
# Elastic Compliance Matrix: (Units=1/GPa)
#
#
# Indices 1 2 3 4 5 6 
#
# 1 0.024231 -0.008547 -0.008139 0.000000 -0.003626 0.000000
# 2 -0.008547 0.012464 -0.000243 0.000000 0.004128 0.000000
# 3 -0.008139 -0.000243 0.017489 0.000000 -0.007665 0.000000
# 4 0.000000 0.000000 0.000000 0.024235 0.000000 -0.006249
# 5 -0.003626 0.004128 -0.007665 0.000000 0.027115 0.000000
# 6 0.000000 0.000000 0.000000 -0.006249 0.000000 0.027025
#
#
# Mechanical properties :
#
#
# Convention : Reuss Voigt Hill
#
# Bulk Modulus (GPa) = 49.19920 54.93569 52.06744
# Shear Modulus (GPa) = 28.86977 37.31086 33.09031
#
# Velocity S-wave (km/s) = 3.58405 4.07446 3.83709
# Velocity P-wave (km/s) = 6.24644 6.82482 6.54202
#
# Compressibility (1/GPa) = 0.02032553
#
# Stress axis : x y z
#
# Youngs Moduli (GPa) = 41.26892 80.23405 57.18029
#
# Poissons Ratio (x) = 0.68575 0.46541
# Poissons Ratio (y) = 0.35272 0.01388
# Poissons Ratio (z) = 0.33590 0.01947
#
# Static dielectric constant tensor:
#      x y z
#    x 4.264180 0.000000 0.549810 
#    y 0.000000 3.890790 0.000000 
#    z 0.549810 0.000000 4.821730 
# 
# 
# High freq. dielectric constant tensor:
#      x y z
#    x 1.885310 0.000000 0.031690 
#    y 0.000000 1.884200 0.000000 
#    z 0.031690 0.000000 1.901150 
# 
# From -- ./inp_files/2954.got.cif
#   From: 2010.06.25/outbox.cif.g09.slc.cpg/sg9_2_cif.got.tgz:2954.got - 2010.06.27 21:40:51.
