data_PCOD8054297
_publ_section_title
;
Structure prediction by ZEFSAII (Michael W. Deem and Ramdas Pophale) SiO2 
 PCOD8054297
Probable space group: C C
;
_chemical_formula_sum "Si O2"
_cell_formula_units_Z 24
_cell_length_a 12.987537
_cell_length_b 18.321495
_cell_length_c 5.175088
_cell_angle_alpha 90.000000
_cell_angle_beta 109.635623
_cell_angle_gamma 90.000000
_cell_volume 1159.809313
_symmetry_space_group_name_H-M "C C"
_symmetry_group_IT_number 9
_symmetry_cell_setting 'monoclinic'
loop_
_space_group_symop_operation_xyz
x,y,z
x,-y,1/2+z
1/2+x,1/2+y,z
1/2+x,1/2-y,1/2+z
loop_
_atom_site_type_symbol
_atom_site_label
_atom_site_fract_x
_atom_site_fract_y
_atom_site_fract_z
Si Si1 0.122620 0.187154 0.597470
Si Si2 0.471582 0.539419 0.941722
Si Si3 0.909810 0.469645 0.124717
Si Si4 0.988788 0.796521 0.470016
Si Si5 0.200479 0.935669 0.475712
Si Si6 0.320858 0.823532 0.946319
O O1 0.139670 0.100736 0.674157
O O2 0.240267 0.214893 0.587521
O O3 0.035824 0.200805 0.298378
O O4 0.078966 0.225329 0.825779
O O5 0.422153 0.507662 0.164192
O O6 0.438782 0.623713 0.867187
O O7 0.604897 0.531756 0.077534
O O8 0.973007 0.490408 0.912314
O O9 0.789507 0.505641 0.946892
O O10 0.899039 0.383074 0.158599
O O11 0.892788 0.737975 0.372223
O O12 0.256964 0.867240 0.669840
#
# Coordination Sequence:
#
# PCOD8054297 Si02
#       6
#     4   4   4   4   4   4
#     4  11  21  40  52  83 119 153 181 226 282 336
#     4  11  20  34  54  81 115 140 179 231 285 342
#     4  10  19  29  53  84 108 148 168 215 290 347
#     4  11  26  34  56  86 116 153 190 219 287 343
#     4  10  20  33  58  87 110 151 170 232 295 350
#     4  11  22  38  55  83 124 149 184 231 277 340
#
# _framework density 20.693057
#
# number of rings (size 3 to 8) (size 9 to 14) (size 15 to 20)
#    0.000    1.333    5.000    4.000    4.667    0.000 
#    0.000    0.000    0.000    0.000    0.000   14.000 
#    0.000    0.000    0.000    0.000    0.000    0.000 
#
# Total GULP energy -148699.823398 kJ/mol
# GULP energy per Si atom -12391.651950 kJ/mol
# Density = 2.064596 g / cm^3
# Si number density = 20.693057 Si / 1000 Ang^3
#
#
#
# Elastic Constant Matrix: (Units=GPa)
#
#
# Indices 1 2 3 4 5 6 
#
# 1 59.2229 49.9588 24.7616 0.0000 -22.0803 0.0000
# 2 49.9588 110.0350 27.9171 0.0000 -12.8512 0.0000
# 3 24.7616 27.9171 120.5755 0.0000 -25.8074 0.0000
# 4 0.0000 0.0000 0.0000 24.6036 0.0000 -5.2061
# 5 -22.0803 -12.8512 -25.8074 0.0000 21.5848 0.0000
# 6 0.0000 0.0000 0.0000 -5.2061 0.0000 38.0952
#
#
#
# Elastic Compliance Matrix: (Units=1/GPa)
#
#
# Indices 1 2 3 4 5 6 
#
# 1 0.043534 -0.016025 0.003037 0.000000 0.038623 0.000000
# 2 -0.016025 0.015837 -0.002508 0.000000 -0.009963 0.000000
# 3 0.003037 -0.002508 0.011552 0.000000 0.015425 0.000000
# 4 0.000000 0.000000 0.000000 0.041855 0.000000 0.005720
# 5 0.038623 -0.009963 0.015425 0.000000 0.098350 0.000000
# 6 0.000000 0.000000 0.000000 0.005720 0.000000 0.027032
#
#
# Mechanical properties :
#
#
# Convention : Reuss Voigt Hill
#
# Bulk Modulus (GPa) = 25.04389 55.01207 40.02798
# Shear Modulus (GPa) = 17.70144 29.33645 23.51894
#
# Velocity S-wave (km/s) = 2.92794 3.76931 3.37495
# Velocity P-wave (km/s) = 4.85379 6.75175 5.87986
#
# Compressibility (1/GPa) = 0.03992989
#
# Stress axis : x y z
#
# Youngs Moduli (GPa) = 22.97046 63.14466 86.56345
#
# Poissons Ratio (x) = 1.01191 -0.26288
# Poissons Ratio (y) = 0.36811 0.21712
# Poissons Ratio (z) = -0.06976 0.15838
#
# Static dielectric constant tensor:
#      x y z
#    x 3.278400 0.000000 -0.446570 
#    y 0.000000 3.672650 0.000000 
#    z -0.446570 0.000000 4.030770 
# 
# 
# High freq. dielectric constant tensor:
#      x y z
#    x 1.737260 0.000000 -0.039970 
#    y 0.000000 1.795450 0.000000 
#    z -0.039970 0.000000 1.836260 
# 
# From -- ./inp_files/2354.got.cif
#   From: 2010.06.25/outbox.cif.g09.slc.cpg/sg9_2_cif.got.tgz:2354.got - 2010.06.27 21:40:51.
