data_PCOD8054013
_publ_section_title
;
Structure prediction by ZEFSAII (Michael W. Deem and Ramdas Pophale) SiO2 
 PCOD8054013
Probable space group: C M
;
_chemical_formula_sum "Si O2"
_cell_formula_units_Z 32
_cell_length_a 15.807488
_cell_length_b 22.388815
_cell_length_c 9.439800
_cell_angle_alpha 90.000000
_cell_angle_beta 152.388230
_cell_angle_gamma 90.000000
_cell_volume 1548.409956
_symmetry_space_group_name_H-M "C M"
_symmetry_group_IT_number 8
_symmetry_cell_setting 'monoclinic'
loop_
_space_group_symop_operation_xyz
x,y,z
x,-y,z
1/2+x,1/2+y,z
1/2+x,1/2-y,z
loop_
_atom_site_type_symbol
_atom_site_label
_atom_site_fract_x
_atom_site_fract_y
_atom_site_fract_z
Si Si1 0.175300 0.353389 0.802880
Si Si2 0.334976 0.067730 0.285882
Si Si3 0.134809 0.767469 0.296230
Si Si4 0.674399 0.833520 0.122812
Si Si5 0.014556 0.066162 0.324585
Si Si6 0.295266 0.890355 0.529201
Si Si7 0.074634 0.871312 0.683758
Si Si8 0.741691 0.259590 0.757536
O O1 0.129815 0.300556 0.626356
O O2 0.037572 0.406905 0.570081
O O3 0.161996 0.320402 0.936150
O O4 0.373179 0.382243 0.071207
O O5 0.293664 0.066866 0.391242
O O6 0.325167 0.000000 0.213752
O O7 0.200974 0.111600 0.002358
O O8 0.170503 0.724299 0.217047
O O9 0.173412 0.833793 0.296263
O O10 0.273646 0.764779 0.635483
O O11 0.950403 0.753750 0.111608
O O12 0.871638 0.862362 0.446179
O O13 0.499495 0.875969 0.892178
O O14 0.199817 0.074071 0.512918
O O15 0.065309 0.072523 0.564775
O O16 0.933529 0.000000 0.179475
O O17 0.153640 0.815309 0.709718
#
# Coordination Sequence:
#
# PCOD8054013 Si02
#       8
#     4   4   4   4   4   4   4   4
#     4  10  23  41  64  93 124 161 210 258 317 371
#     4  11  25  42  63  92 126 169 216 262 308 366
#     4  12  22  39  59  92 128 163 197 255 319 378
#     4  10  24  39  61  92 129 165 202 252 321 375
#     4  11  21  42  66  87 123 167 212 258 308 369
#     4  11  23  41  60  93 125 169 211 255 312 375
#     4  11  24  41  64  95 126 163 214 259 312 370
#     4  12  23  39  63  94 127 157 205 257 319 378
#
# _framework density 20.666361999999999
#
# number of rings (size 3 to 8) (size 9 to 14) (size 15 to 20)
#    0.000    1.000    3.750    2.625    7.000    0.000 
#    0.000    1.875    0.000    0.000    0.000    0.000 
#    0.000    0.000    0.000    0.000    0.000    0.000 
#
# Total GULP energy -198256.212665 kJ/mol
# GULP energy per Si atom -12391.013292 kJ/mol
# Density = 2.061932 g / cm^3
# Si number density = 20.666362 Si / 1000 Ang^3
#
#
#
# Elastic Constant Matrix: (Units=GPa)
#
#
# Indices 1 2 3 4 5 6 
#
# 1 80.2648 43.1029 29.4501 0.0000 17.1650 0.0000
# 2 43.1029 123.8179 27.8788 0.0000 -2.0471 0.0000
# 3 29.4501 27.8788 92.1263 0.0000 9.4457 0.0000
# 4 0.0000 0.0000 0.0000 23.4670 0.0000 -7.2593
# 5 17.1650 -2.0471 9.4457 0.0000 32.1631 0.0000
# 6 0.0000 0.0000 0.0000 -7.2593 0.0000 25.2925
#
#
#
# Elastic Compliance Matrix: (Units=1/GPa)
#
#
# Indices 1 2 3 4 5 6 
#
# 1 0.018916 -0.006010 -0.003252 0.000000 -0.009523 0.000000
# 2 -0.006010 0.010635 -0.001748 0.000000 0.004398 0.000000
# 3 -0.003252 -0.001748 0.012637 0.000000 -0.002087 0.000000
# 4 0.000000 0.000000 0.000000 0.046765 0.000000 0.013422
# 5 -0.009523 0.004398 -0.002087 0.000000 0.037066 0.000000
# 6 0.000000 0.000000 0.000000 0.013422 0.000000 0.043390
#
#
# Mechanical properties :
#
#
# Convention : Reuss Voigt Hill
#
# Bulk Modulus (GPa) = 49.58297 55.23028 52.40662
# Shear Modulus (GPa) = 25.23322 29.23633 27.23478
#
# Velocity S-wave (km/s) = 3.49804 3.76531 3.63413
# Velocity P-wave (km/s) = 6.35289 6.75915 6.55917
#
# Compressibility (1/GPa) = 0.02016822
#
# Stress axis : x y z
#
# Youngs Moduli (GPa) = 52.86578 94.03030 79.13223
#
# Poissons Ratio (x) = 0.56514 0.25732
# Poissons Ratio (y) = 0.31773 0.13831
# Poissons Ratio (z) = 0.17190 0.16436
#
# Static dielectric constant tensor:
#      x y z
#    x 3.773190 0.000000 0.156600 
#    y 0.000000 3.547680 0.000000 
#    z 0.156600 0.000000 3.778630 
# 
# 
# High freq. dielectric constant tensor:
#      x y z
#    x 1.817340 0.000000 0.009640 
#    y 0.000000 1.800320 0.000000 
#    z 0.009640 0.000000 1.811620 
# 
# From -- ./inp_files/13807.got.cif
#   From: 2010.03.12/outbox.cif.g09.slc.cpg/sg8_7_cif.got.tgz:13807.got - 2010.03.31 10:45:26.
