data_PCOD8054919
_publ_section_title
;
Structure prediction by ZEFSAII (Michael W. Deem and Ramdas Pophale) SiO2 
 PCOD8054919
Probable space group: C C
;
_chemical_formula_sum "Si O2"
_cell_formula_units_Z 32
_cell_length_a 26.650690
_cell_length_b 7.715064
_cell_length_c 15.392529
_cell_angle_alpha 90.000000
_cell_angle_beta 151.509583
_cell_angle_gamma 90.000000
_cell_volume 1509.687516
_symmetry_space_group_name_H-M "C C"
_symmetry_group_IT_number 9
_symmetry_cell_setting 'monoclinic'
loop_
_space_group_symop_operation_xyz
x,y,z
x,-y,1/2+z
1/2+x,1/2+y,z
1/2+x,1/2-y,1/2+z
loop_
_atom_site_type_symbol
_atom_site_label
_atom_site_fract_x
_atom_site_fract_y
_atom_site_fract_z
Si Si1 0.133820 0.928574 0.717570
Si Si2 0.870355 0.490555 0.811488
Si Si3 0.023747 0.754993 0.125244
Si Si4 0.351545 0.844661 0.967162
Si Si5 0.982367 0.252664 0.854516
Si Si6 0.565265 0.022935 0.339619
Si Si7 0.155213 0.174015 0.441332
Si Si8 0.443789 0.488890 0.145625
O O1 0.243971 0.928418 0.835908
O O2 0.041408 0.850021 0.519427
O O3 0.140977 0.814861 0.815813
O O4 0.104719 0.127520 0.694322
O O5 0.857822 0.360195 0.872923
O O6 0.763862 0.592178 0.633483
O O7 0.896513 0.379326 0.766302
O O8 0.961637 0.631737 0.964809
O O9 0.091820 0.642008 0.296851
O O10 0.940630 0.871264 0.053924
O O11 0.446432 0.951569 0.153162
O O12 0.359343 0.642853 0.006384
O O13 0.069983 0.362326 0.934157
O O14 0.918565 0.123904 0.693026
O O15 0.649654 0.868366 0.471459
O O16 0.061537 0.061083 0.339136
#
# Coordination Sequence:
#
# PCOD8054919 Si02
#       8
#     4   4   4   4   4   4   4   4
#     4  11  22  38  60  90 123 160 200 245 299 357
#     4  11  22  38  61  91 124 161 200 245 297 358
#     4   9  20  39  60  83 122 161 198 246 300 355
#     4  10  21  40  62  87 121 160 203 250 298 353
#     4  11  22  37  60  89 123 160 199 244 300 360
#     4   9  20  41  62  86 119 156 200 252 302 355
#     4  10  21  40  63  87 119 159 201 250 302 354
#     4   9  20  41  62  85 119 159 201 252 302 352
#
# _framework density 21.196438000000001
#
# number of rings (size 3 to 8) (size 9 to 14) (size 15 to 20)
#    0.000    2.000    0.000    4.500    0.000    5.000 
#    0.000   18.750    0.000    0.000    0.000    0.000 
#    0.000    0.000    0.000    0.000    0.000    0.000 
#
# Total GULP energy -198440.960514 kJ/mol
# GULP energy per Si atom -12402.560032 kJ/mol
# Density = 2.114819 g / cm^3
# Si number density = 21.196438 Si / 1000 Ang^3
#
#
#
# Elastic Constant Matrix: (Units=GPa)
#
#
# Indices 1 2 3 4 5 6 
#
# 1 99.9626 62.9318 43.0346 0.0000 -1.6154 0.0000
# 2 62.9318 147.1846 43.0139 0.0000 -2.3538 0.0000
# 3 43.0346 43.0139 70.6576 0.0000 -0.0873 0.0000
# 4 0.0000 0.0000 0.0000 20.9956 0.0000 -5.9488
# 5 -1.6154 -2.3538 -0.0873 0.0000 33.4880 0.0000
# 6 0.0000 0.0000 0.0000 -5.9488 0.0000 43.3927
#
#
#
# Elastic Compliance Matrix: (Units=1/GPa)
#
#
# Indices 1 2 3 4 5 6 
#
# 1 0.015980 -0.004844 -0.006784 0.000000 0.000413 0.000000
# 2 -0.004844 0.009743 -0.002981 0.000000 0.000443 0.000000
# 3 -0.006784 -0.002981 0.020099 0.000000 -0.000484 0.000000
# 4 0.000000 0.000000 0.000000 0.049554 0.000000 0.006793
# 5 0.000413 0.000443 -0.000484 0.000000 0.029911 0.000000
# 6 0.000000 0.000000 0.000000 0.006793 0.000000 0.023977
#
#
# Mechanical properties :
#
#
# Convention : Reuss Voigt Hill
#
# Bulk Modulus (GPa) = 60.22031 68.41839 64.31935
# Shear Modulus (GPa) = 27.17164 30.83022 29.00093
#
# Velocity S-wave (km/s) = 3.58424 3.81793 3.70293
# Velocity P-wave (km/s) = 6.75287 7.19609 6.97800
#
# Compressibility (1/GPa) = 0.01660569
#
# Stress axis : x y z
#
# Youngs Moduli (GPa) = 62.57783 102.63382 49.75495
#
# Poissons Ratio (x) = 0.49711 0.33752
# Poissons Ratio (y) = 0.30310 0.14831
# Poissons Ratio (z) = 0.42451 0.30594
#
# Static dielectric constant tensor:
#      x y z
#    x 3.841980 0.000000 -0.180380 
#    y 0.000000 4.146870 0.000000 
#    z -0.180380 0.000000 3.574270 
# 
# 
# High freq. dielectric constant tensor:
#      x y z
#    x 1.831520 0.000000 -0.014080 
#    y 0.000000 1.845760 0.000000 
#    z -0.014080 0.000000 1.809140 
# 
# From -- ./inp_files/28028.got.cif
#   From: 2010.06.25/outbox.cif.g09.slc.cpg/sg9_15_cif.got.tgz:28028.got - 2010.06.27 21:40:51.
