data_PCOD8054059
_publ_section_title
;
Structure prediction by ZEFSAII (Michael W. Deem and Ramdas Pophale) SiO2 
 PCOD8054059
Probable space group: C M
;
_chemical_formula_sum "Si O2"
_cell_formula_units_Z 32
_cell_length_a 22.486534
_cell_length_b 9.196491
_cell_length_c 20.765442
_cell_angle_alpha 90.000000
_cell_angle_beta 154.901713
_cell_angle_gamma 90.000000
_cell_volume 1821.495922
_symmetry_space_group_name_H-M "C M"
_symmetry_group_IT_number 8
_symmetry_cell_setting 'monoclinic'
loop_
_space_group_symop_operation_xyz
x,y,z
x,-y,z
1/2+x,1/2+y,z
1/2+x,1/2-y,z
loop_
_atom_site_type_symbol
_atom_site_label
_atom_site_fract_x
_atom_site_fract_y
_atom_site_fract_z
Si Si1 0.650090 0.160913 0.986500
Si Si2 0.624931 0.171217 0.102095
Si Si3 0.619658 0.665989 0.839833
Si Si4 0.830322 0.329270 0.544163
Si Si5 0.316266 0.331371 0.407934
Si Si6 0.143431 0.835584 0.721286
Si Si7 0.332286 0.671953 0.809209
Si Si8 0.816094 0.661310 0.669446
O O1 0.707080 0.269161 0.986420
O O2 0.482569 0.161779 0.824459
O O3 0.707178 0.000000 0.026351
O O4 0.698893 0.209871 0.105993
O O5 0.732284 0.218659 0.262586
O O6 0.588619 0.000000 0.068577
O O7 0.481986 0.258575 0.971656
O O8 0.578877 0.500000 0.815456
O O9 0.482843 0.761075 0.697219
O O10 0.701267 0.675580 0.851739
O O11 0.844462 0.500000 0.545981
O O12 0.752804 0.256032 0.407114
O O13 0.751602 0.298524 0.535539
O O14 0.293584 0.500000 0.400652
O O15 0.479235 0.296347 0.556636
O O16 0.224773 0.719173 0.758746
O O17 0.168409 0.000000 0.720220
O O18 0.346404 0.500000 0.821961
O O19 0.271128 0.724865 0.680153
O O20 0.765551 0.500000 0.640708
#
# Coordination Sequence:
#
# PCOD8054059 Si02
#       8
#     4   4   4   4   4   4   4   4
#     4   8  14  25  43  66  91 118 148 186 232 274
#     4   9  18  33  50  69  96 127 155 186 231 283
#     4   9  16  26  43  66  90 118 154 192 229 271
#     4   9  16  26  43  67  93 119 149 189 234 273
#     4   9  18  32  51  72  93 123 159 190 227 278
#     4   9  18  32  48  67  93 124 156 190 232 281
#     4  11  21  30  46  72  96 122 158 196 231 269
#     4   8  15  28  44  63  90 123 153 185 230 277
#
# _framework density 17.567976999999999
#
# number of rings (size 3 to 8) (size 9 to 14) (size 15 to 20)
#    0.000    3.000    0.000    4.125    0.000    8.000 
#    0.000    0.000    0.000    1.500    0.000    5.250 
#    0.000    0.000    0.000    0.000    0.000    0.000 
#
# Total GULP energy -198247.318641 kJ/mol
# GULP energy per Si atom -12390.457415 kJ/mol
# Density = 1.752799 g / cm^3
# Si number density = 17.567977 Si / 1000 Ang^3
#
#
#
# Elastic Constant Matrix: (Units=GPa)
#
#
# Indices 1 2 3 4 5 6 
#
# 1 128.8561 69.3668 52.3768 0.0000 -36.8054 0.0000
# 2 69.3668 98.5657 37.1062 0.0005 -18.3664 0.0002
# 3 52.3768 37.1062 55.9726 0.0005 -28.2503 0.0002
# 4 0.0000 0.0005 0.0005 17.6672 0.0002 -6.5433
# 5 -36.8054 -18.3664 -28.2503 0.0002 32.4847 0.0001
# 6 0.0000 0.0002 0.0002 -6.5433 0.0001 34.1726
#
#
#
# Elastic Compliance Matrix: (Units=1/GPa)
#
#
# Indices 1 2 3 4 5 6 
#
# 1 0.017385 -0.008192 -0.005763 0.000000 0.010054 0.000000
# 2 -0.008192 0.017381 -0.006383 0.000000 -0.005006 0.000000
# 3 -0.005763 -0.006383 0.039876 -0.000001 0.024539 0.000000
# 4 0.000000 0.000000 -0.000001 0.060922 -0.000001 0.011665
# 5 0.010054 -0.005006 0.024539 -0.000001 0.060685 0.000000
# 6 0.000000 0.000000 0.000000 0.011665 0.000000 0.031497
#
#
# Mechanical properties :
#
#
# Convention : Reuss Voigt Hill
#
# Bulk Modulus (GPa) = 29.44192 66.78823 48.11507
# Shear Modulus (GPa) = 17.87354 25.16786 21.52070
#
# Velocity S-wave (km/s) = 3.19312 3.78908 3.50379
# Velocity P-wave (km/s) = 5.51271 7.56587 6.61938
#
# Compressibility (1/GPa) = 0.03396518
#
# Stress axis : x y z
#
# Youngs Moduli (GPa) = 57.52250 57.53457 25.07789
#
# Poissons Ratio (x) = 0.47130 0.14452
# Poissons Ratio (y) = 0.47121 0.16008
# Poissons Ratio (z) = 0.33150 0.36726
#
# Static dielectric constant tensor:
#      x y z
#    x 3.934220 0.000000 -0.759780 
#    y 0.000000 3.376780 0.000000 
#    z -0.759780 0.000000 3.108240 
# 
# 
# High freq. dielectric constant tensor:
#      x y z
#    x 1.687210 0.000000 -0.040130 
#    y 0.000000 1.679420 0.000000 
#    z -0.040130 0.000000 1.623960 
# 
# From -- ./inp_files/23741.got.cif
#   From: 2010.03.12/outbox.cif.g09.slc.cpg/sg8_12_cif.got.tgz:23741.got - 2010.03.31 10:45:26.
