data_PCOD8054720
_publ_section_title
;
Structure prediction by ZEFSAII (Michael W. Deem and Ramdas Pophale) SiO2 
 PCOD8054720
Probable space group: C C
;
_chemical_formula_sum "Si O2"
_cell_formula_units_Z 32
_cell_length_a 26.525884
_cell_length_b 10.941502
_cell_length_c 15.166062
_cell_angle_alpha 90.000000
_cell_angle_beta 18.816578
_cell_angle_gamma 90.000000
_cell_volume 1419.719872
_symmetry_space_group_name_H-M "C C"
_symmetry_group_IT_number 9
_symmetry_cell_setting 'monoclinic'
loop_
_space_group_symop_operation_xyz
x,y,z
x,-y,1/2+z
1/2+x,1/2+y,z
1/2+x,1/2-y,1/2+z
loop_
_atom_site_type_symbol
_atom_site_label
_atom_site_fract_x
_atom_site_fract_y
_atom_site_fract_z
Si Si1 0.667040 0.974646 0.543960
Si Si2 0.736151 0.905935 0.753745
Si Si3 0.430502 0.802586 0.855348
Si Si4 0.135245 0.119864 0.426243
Si Si5 0.407906 0.006029 0.756751
Si Si6 0.703205 0.710193 0.127736
Si Si7 0.937218 0.630226 0.029611
Si Si8 0.364223 0.465265 0.874248
O O1 0.767763 0.040203 0.299393
O O2 0.780566 0.949151 0.438700
O O3 0.585573 0.847206 0.650860
O O4 0.521252 0.059269 0.812090
O O5 0.806916 0.768125 0.624079
O O6 0.809729 0.001197 0.562764
O O7 0.549269 0.905645 0.052471
O O8 0.486477 0.705574 0.690464
O O9 0.357361 0.915842 0.921153
O O10 0.222248 0.162955 0.195446
O O11 0.254759 0.133823 0.309690
O O12 0.053389 0.985351 0.554095
O O13 0.463912 0.933382 0.578969
O O14 0.265953 0.096806 0.965525
O O15 0.524163 0.738002 0.395227
O O16 0.814750 0.827683 0.932109
#
# Coordination Sequence:
#
# PCOD8054720 Si02
#       8
#     4   4   4   4   4   4   4   4
#     4  10  21  40  67  94 139 173 217 281 330 388
#     4  10  20  42  69  98 136 175 220 278 331 393
#     4  10  22  39  69 101 136 173 223 276 332 402
#     4  11  23  41  70  95 133 180 220 276 336 398
#     4  11  22  43  67  98 138 176 215 279 333 391
#     4  11  23  43  68  95 135 177 218 277 330 393
#     4  11  24  44  63  97 136 174 226 275 336 400
#     4  10  23  44  65 100 137 174 223 278 332 399
#
# _framework density 22.539656999999998
#
# number of rings (size 3 to 8) (size 9 to 14) (size 15 to 20)
#    0.000    1.500    3.750    2.250    1.750    5.000 
#    4.500    0.000    0.000    0.000    0.000    0.000 
#    0.000    0.000    0.000    0.000    0.000    0.000 
#
# Total GULP energy -198298.387756 kJ/mol
# GULP energy per Si atom -12393.649235 kJ/mol
# Density = 2.248836 g / cm^3
# Si number density = 22.539657 Si / 1000 Ang^3
#
#
#
# Elastic Constant Matrix: (Units=GPa)
#
#
# Indices 1 2 3 4 5 6 
#
# 1 86.4696 14.3018 35.0685 0.0001 0.6968 0.0000
# 2 14.3018 85.7610 49.0543 0.0001 -4.1954 -0.0001
# 3 35.0685 49.0543 89.4633 0.0001 -8.8944 -0.0001
# 4 0.0001 0.0001 0.0001 44.4057 -0.0001 -6.1016
# 5 0.6968 -4.1954 -8.8944 -0.0001 40.2771 0.0000
# 6 0.0000 -0.0001 -0.0001 -6.1016 0.0000 21.0552
#
#
#
# Elastic Compliance Matrix: (Units=1/GPa)
#
#
# Indices 1 2 3 4 5 6 
#
# 1 0.013917 0.001182 -0.006252 0.000000 -0.001498 0.000000
# 2 0.001182 0.017092 -0.009877 0.000000 -0.000421 0.000000
# 3 -0.006252 -0.009877 0.019378 0.000000 0.003359 0.000000
# 4 0.000000 0.000000 0.000000 0.023454 0.000000 0.006797
# 5 -0.001498 -0.000421 0.003359 0.000000 0.025552 0.000000
# 6 0.000000 0.000000 0.000000 0.006797 0.000000 0.049464
#
#
# Mechanical properties :
#
#
# Convention : Reuss Voigt Hill
#
# Bulk Modulus (GPa) = 48.79803 50.94922 49.87362
# Shear Modulus (GPa) = 26.94217 32.03222 29.48719
#
# Velocity S-wave (km/s) = 3.46109 3.77390 3.62088
# Velocity P-wave (km/s) = 6.13752 6.45315 6.29731
#
# Compressibility (1/GPa) = 0.02049263
#
# Stress axis : x y z
#
# Youngs Moduli (GPa) = 71.85428 58.50617 51.60369
#
# Poissons Ratio (x) = -0.06917 0.32265
# Poissons Ratio (y) = -0.08495 0.50970
# Poissons Ratio (z) = 0.44927 0.57788
#
# Static dielectric constant tensor:
#      x y z
#    x 3.951840 0.000000 0.035030 
#    y 0.000000 4.057320 0.000000 
#    z 0.035030 0.000000 4.075380 
# 
# 
# High freq. dielectric constant tensor:
#      x y z
#    x 1.882740 0.000000 0.007130 
#    y 0.000000 1.879870 0.000000 
#    z 0.007130 0.000000 1.887210 
# 
# From -- ./inp_files/24680.got.cif
#   From: 2010.06.25/outbox.cif.g09.slc.cpg/sg9_13_cif.got.tgz:24680.got - 2010.06.27 21:40:51.
