data_PCOD8054945
_publ_section_title
;
Structure prediction by ZEFSAII (Michael W. Deem and Ramdas Pophale) SiO2 
 PCOD8054945
Probable space group: C C
;
_chemical_formula_sum "Si O2"
_cell_formula_units_Z 24
_cell_length_a 7.217620
_cell_length_b 30.298289
_cell_length_c 7.456821
_cell_angle_alpha 90.000000
_cell_angle_beta 142.252186
_cell_angle_gamma 90.000000
_cell_volume 998.274592
_symmetry_space_group_name_H-M "C C"
_symmetry_group_IT_number 9
_symmetry_cell_setting 'monoclinic'
loop_
_space_group_symop_operation_xyz
x,y,z
x,-y,1/2+z
1/2+x,1/2+y,z
1/2+x,1/2-y,1/2+z
loop_
_atom_site_type_symbol
_atom_site_label
_atom_site_fract_x
_atom_site_fract_y
_atom_site_fract_z
Si Si1 0.321280 0.221378 0.131740
Si Si2 0.925481 0.463528 0.688344
Si Si3 0.437324 0.152039 0.524430
Si Si4 0.974094 0.093511 0.024999
Si Si5 0.565452 0.221182 0.924125
Si Si6 0.847283 0.020202 0.198891
O O1 0.470571 0.265336 0.337622
O O2 0.382033 0.179844 0.301979
O O3 0.444649 0.210642 0.029149
O O4 0.739439 0.419195 0.587027
O O5 0.693646 0.505649 0.498333
O O6 0.161265 0.453468 0.707868
O O7 0.152634 0.475560 0.023351
O O8 0.502690 0.178956 0.755116
O O9 0.130424 0.122904 0.303675
O O10 0.724687 0.120008 0.721469
O O11 0.838222 0.049477 0.011180
O O12 0.415273 0.264867 0.715640
#
# Coordination Sequence:
#
# PCOD8054945 Si02
#       6
#     4   4   4   4   4   4
#     4  10  21  40  67  96 130 182 234 273 333 411
#     4  12  23  44  71  95 128 174 232 289 339 412
#     4  12  24  41  64  98 148 174 222 290 356 407
#     4  12  26  41  66 104 138 180 228 288 362 411
#     4  10  21  40  67  96 130 182 234 273 333 411
#     4  12  23  44  71  95 128 174 232 289 339 412
#
# _framework density 24.041481000000001
#
# number of rings (size 3 to 8) (size 9 to 14) (size 15 to 20)
#    0.000    0.667    3.333    5.000    0.000    1.333 
#    0.000    3.333    0.000    0.000    0.000    0.000 
#    0.000    0.000    0.000    0.000    0.000    0.000 
#
# Total GULP energy -148725.112635 kJ/mol
# GULP energy per Si atom -12393.759386 kJ/mol
# Density = 2.398676 g / cm^3
# Si number density = 24.041481 Si / 1000 Ang^3
#
#
#
# Elastic Constant Matrix: (Units=GPa)
#
#
# Indices 1 2 3 4 5 6 
#
# 1 75.7694 4.7799 20.7339 0.0000 0.9537 0.0000
# 2 4.7799 63.0595 11.3429 0.0000 -4.2259 0.0000
# 3 20.7339 11.3429 101.6843 0.0000 2.7904 0.0000
# 4 0.0000 0.0000 0.0000 39.5679 0.0000 0.2806
# 5 0.9537 -4.2259 2.7904 0.0000 40.7828 0.0000
# 6 0.0000 0.0000 0.0000 0.2806 0.0000 8.4375
#
#
#
# Elastic Compliance Matrix: (Units=1/GPa)
#
#
# Indices 1 2 3 4 5 6 
#
# 1 0.013999 -0.000573 -0.002785 0.000000 -0.000196 0.000000
# 2 -0.000573 0.016340 -0.001756 0.000000 0.001827 0.000000
# 3 -0.002785 -0.001756 0.010621 0.000000 -0.000844 0.000000
# 4 0.000000 0.000000 0.000000 0.025279 0.000000 -0.000841
# 5 -0.000196 0.001827 -0.000844 0.000000 0.024772 0.000000
# 6 0.000000 0.000000 0.000000 -0.000841 0.000000 0.118547
#
#
# Mechanical properties :
#
#
# Convention : Reuss Voigt Hill
#
# Bulk Modulus (GPa) = 32.54027 34.91408 33.72717
# Shear Modulus (GPa) = 21.73635 31.33474 26.53554
#
# Velocity S-wave (km/s) = 3.01012 3.61413 3.32586
# Velocity P-wave (km/s) = 5.06414 5.65419 5.36728
#
# Compressibility (1/GPa) = 0.03073115
#
# Stress axis : x y z
#
# Youngs Moduli (GPa) = 71.43521 61.20045 94.15070
#
# Poissons Ratio (x) = 0.03509 0.26222
# Poissons Ratio (y) = 0.04095 0.16532
# Poissons Ratio (z) = 0.19895 0.10746
#
# Static dielectric constant tensor:
#      x y z
#    x 4.238390 0.000000 0.118820 
#    y 0.000000 4.298450 0.000000 
#    z 0.118820 0.000000 4.747110 
# 
# 
# High freq. dielectric constant tensor:
#      x y z
#    x 1.947170 0.000000 0.005030 
#    y 0.000000 1.937830 0.000000 
#    z 0.005030 0.000000 1.985840 
# 
# From -- ./inp_files/6504.got.cif
#   From: 2010.06.25/outbox.cif.g09.slc.cpg/sg9_4_cif.got.tgz:6504.got - 2010.06.27 21:40:51.
