data_PCOD8054642
_publ_section_title
;
Structure prediction by ZEFSAII (Michael W. Deem and Ramdas Pophale) SiO2 
 PCOD8054642
Probable space group: C C
;
_chemical_formula_sum "Si O2"
_cell_formula_units_Z 32
_cell_length_a 9.401179
_cell_length_b 9.988412
_cell_length_c 23.779744
_cell_angle_alpha 90.000000
_cell_angle_beta 133.690303
_cell_angle_gamma 90.000000
_cell_volume 1614.636384
_symmetry_space_group_name_H-M "C C"
_symmetry_group_IT_number 9
_symmetry_cell_setting 'monoclinic'
loop_
_space_group_symop_operation_xyz
x,y,z
x,-y,1/2+z
1/2+x,1/2+y,z
1/2+x,1/2-y,1/2+z
loop_
_atom_site_type_symbol
_atom_site_label
_atom_site_fract_x
_atom_site_fract_y
_atom_site_fract_z
Si Si1 0.531720 0.092218 0.881850
Si Si2 0.971490 0.085621 0.972557
Si Si3 0.436413 0.715373 0.449861
Si Si4 0.399509 0.591862 0.624379
Si Si5 0.329578 0.092836 0.708673
Si Si6 0.169299 0.351690 0.612210
Si Si7 0.611880 0.823567 0.945058
Si Si8 0.381584 0.121126 0.134836
O O1 0.768475 0.100948 0.950854
O O2 0.431200 0.211462 0.888638
O O3 0.465733 0.101007 0.800006
O O4 0.470918 0.950354 0.893730
O O5 0.977129 0.199024 0.925983
O O6 0.999483 0.937406 0.954682
O O7 0.147658 0.109212 0.063774
O O8 0.586889 0.790922 0.532081
O O9 0.219666 0.718563 0.417030
O O10 0.611871 0.536985 0.663321
O O11 0.294558 0.482596 0.633349
O O12 0.276685 0.636450 0.535970
O O13 0.429186 0.727910 0.669542
O O14 0.312575 0.241649 0.678685
O O15 0.441287 0.991059 0.696693
O O16 0.996050 0.399299 0.606880
#
# Coordination Sequence:
#
# PCOD8054642 Si02
#       8
#     4   4   4   4   4   4   4   4
#     4  11  25  37  62  87 128 160 193 247 308 355
#     4  10  21  38  61  90 115 154 201 248 289 355
#     4  11  20  38  60  91 115 155 196 253 293 350
#     4  10  21  38  63  89 116 152 205 248 293 353
#     4  11  23  43  56  89 127 160 194 249 305 352
#     4  11  21  37  65  88 115 153 209 249 293 352
#     4  10  20  40  59  88 118 151 201 248 295 353
#     4  10  21  39  62  86 116 153 201 252 292 352
#
# _framework density 19.818702999999999
#
# number of rings (size 3 to 8) (size 9 to 14) (size 15 to 20)
#    0.000    1.500    6.250    0.750    0.000    9.000 
#    0.000    2.500    0.000    0.000    0.000    0.000 
#    0.000    0.000    0.000    0.000    0.000    0.000 
#
# Total GULP energy -198378.877975 kJ/mol
# GULP energy per Si atom -12398.679873 kJ/mol
# Density = 1.977359 g / cm^3
# Si number density = 19.818703 Si / 1000 Ang^3
#
#
#
# Elastic Constant Matrix: (Units=GPa)
#
#
# Indices 1 2 3 4 5 6 
#
# 1 80.6470 63.5526 17.2264 0.0000 -4.7482 0.0000
# 2 63.5526 138.8118 19.3174 0.0000 -13.5050 0.0000
# 3 17.2264 19.3174 56.4182 0.0000 -17.0736 0.0000
# 4 0.0000 0.0000 0.0000 22.7597 0.0000 -10.7745
# 5 -4.7482 -13.5050 -17.0736 0.0000 18.4009 0.0000
# 6 0.0000 0.0000 0.0000 -10.7745 0.0000 43.5408
#
#
#
# Elastic Compliance Matrix: (Units=1/GPa)
#
#
# Indices 1 2 3 4 5 6 
#
# 1 0.020362 -0.009231 -0.004890 0.000000 -0.006058 0.000000
# 2 -0.009231 0.012012 0.000908 0.000000 0.007276 0.000000
# 3 -0.004890 0.000908 0.026038 0.000000 0.023564 0.000000
# 4 0.000000 0.000000 0.000000 0.049767 0.000000 0.012315
# 5 -0.006058 0.007276 0.023564 0.000000 0.079987 0.000000
# 6 0.000000 0.000000 0.000000 0.012315 0.000000 0.026014
#
#
# Mechanical properties :
#
#
# Convention : Reuss Voigt Hill
#
# Bulk Modulus (GPa) = 31.26411 52.89663 42.08037
# Shear Modulus (GPa) = 19.89896 28.65900 24.27898
#
# Velocity S-wave (km/s) = 3.17211 3.80683 3.50387
# Velocity P-wave (km/s) = 5.40608 6.78755 6.13582
#
# Compressibility (1/GPa) = 0.03198556
#
# Stress axis : x y z
#
# Youngs Moduli (GPa) = 49.11081 83.25026 38.40517
#
# Poissons Ratio (x) = 0.76851 0.18779
# Poissons Ratio (y) = 0.45336 -0.03486
# Poissons Ratio (z) = 0.24014 -0.07557
#
# Static dielectric constant tensor:
#      x y z
#    x 3.573430 0.000000 -0.049570 
#    y 0.000000 4.084530 0.000000 
#    z -0.049570 0.000000 3.294090 
# 
# 
# High freq. dielectric constant tensor:
#      x y z
#    x 1.766730 0.000000 -0.003970 
#    y 0.000000 1.790170 0.000000 
#    z -0.003970 0.000000 1.744300 
# 
# From -- ./inp_files/32576.got.cif
#   From: 2010.06.25/outbox.cif.g09.slc.cpg/sg9_17_cif.got.tgz:32576.got - 2010.06.27 21:40:51.
