data_PCOD8054702
_publ_section_title
;
Structure prediction by ZEFSAII (Michael W. Deem and Ramdas Pophale) SiO2 
 PCOD8054702
Probable space group: C C
;
_chemical_formula_sum "Si O2"
_cell_formula_units_Z 32
_cell_length_a 17.684530
_cell_length_b 5.906749
_cell_length_c 15.366168
_cell_angle_alpha 90.000000
_cell_angle_beta 70.495610
_cell_angle_gamma 90.000000
_cell_volume 1513.012034
_symmetry_space_group_name_H-M "C C"
_symmetry_group_IT_number 9
_symmetry_cell_setting 'monoclinic'
loop_
_space_group_symop_operation_xyz
x,y,z
x,-y,1/2+z
1/2+x,1/2+y,z
1/2+x,1/2-y,1/2+z
loop_
_atom_site_type_symbol
_atom_site_label
_atom_site_fract_x
_atom_site_fract_y
_atom_site_fract_z
Si Si1 0.726150 0.071233 0.153940
Si Si2 0.010374 0.372831 0.567479
Si Si3 0.279646 0.753870 0.784620
Si Si4 0.634945 0.586650 0.426968
Si Si5 0.100300 0.057433 0.748297
Si Si6 0.363680 0.140366 0.653602
Si Si7 0.634806 0.228942 0.581047
Si Si8 0.441092 0.467866 0.229225
O O1 0.644480 0.216692 0.197379
O O2 0.808934 0.211387 0.109421
O O3 0.738182 0.916457 0.233622
O O4 0.713143 0.928616 0.069364
O O5 0.063272 0.267580 0.469195
O O6 0.058327 0.570876 0.596550
O O7 0.924727 0.485017 0.572840
O O8 0.990865 0.159489 0.634993
O O9 0.219888 0.783099 0.889302
O O10 0.362135 0.659453 0.791491
O O11 0.298739 0.991837 0.730705
O O12 0.624566 0.470472 0.338358
O O13 0.644829 0.398679 0.497352
O O14 0.002905 0.047546 0.785700
O O15 0.126151 0.853509 0.676268
O O16 0.416376 0.286139 0.702035
#
# Coordination Sequence:
#
# PCOD8054702 Si02
#       8
#     4   4   4   4   4   4   4   4
#     4  11  21  41  72  98 133 185 233 280 355 422
#     4  11  22  41  70  98 138 178 231 291 350 411
#     4  10  23  40  71  99 133 181 224 288 357 413
#     4  12  25  40  71 103 136 182 247 284 342 423
#     4  12  23  44  71 101 131 186 232 285 355 416
#     4  10  20  41  71  96 133 182 228 284 356 415
#     4  12  23  41  70 101 138 181 232 297 342 422
#     4  10  21  42  72  94 134 181 227 285 357 412
#
# _framework density 21.149864999999998
#
# number of rings (size 3 to 8) (size 9 to 14) (size 15 to 20)
#    0.000    1.000    6.250    0.000    1.750    0.000 
#    0.000    0.000   52.250    0.000    0.000    0.000 
#    0.000    0.000    0.000    0.000    0.000    0.000 
#
# Total GULP energy -198245.223328 kJ/mol
# GULP energy per Si atom -12390.326458 kJ/mol
# Density = 2.110173 g / cm^3
# Si number density = 21.149865 Si / 1000 Ang^3
#
#
#
# Elastic Constant Matrix: (Units=GPa)
#
#
# Indices 1 2 3 4 5 6 
#
# 1 126.7271 43.8724 48.4679 0.0001 -12.7207 -0.0002
# 2 43.8724 103.7549 37.4677 -0.0004 -11.3349 -0.0016
# 3 48.4679 37.4677 93.4718 0.0001 -14.7217 0.0001
# 4 0.0001 -0.0004 0.0001 17.3339 0.0001 0.9840
# 5 -12.7207 -11.3349 -14.7217 0.0001 36.9479 0.0002
# 6 -0.0002 -0.0016 0.0001 0.9840 0.0002 41.0533
#
#
#
# Elastic Compliance Matrix: (Units=1/GPa)
#
#
# Indices 1 2 3 4 5 6 
#
# 1 0.010584 -0.002848 -0.004172 0.000000 0.001108 0.000000
# 2 -0.002848 0.012145 -0.003157 0.000000 0.001487 0.000000
# 3 -0.004172 -0.003157 0.014669 0.000000 0.003440 0.000000
# 4 0.000000 0.000000 0.000000 0.057769 0.000000 -0.001385
# 5 0.001108 0.001487 0.003440 0.000000 0.029273 0.000000
# 6 0.000000 0.000000 0.000000 -0.001385 0.000000 0.024392
#
#
# Mechanical properties :
#
#
# Convention : Reuss Voigt Hill
#
# Bulk Modulus (GPa) = 58.67290 64.84109 61.75699
# Shear Modulus (GPa) = 28.59318 32.01009 30.30163
#
# Velocity S-wave (km/s) = 3.68085 3.89458 3.78922
# Velocity P-wave (km/s) = 6.77249 7.13780 6.95754
#
# Compressibility (1/GPa) = 0.01704364
#
# Stress axis : x y z
#
# Youngs Moduli (GPa) = 94.48554 82.33919 68.17053
#
# Poissons Ratio (x) = 0.23447 0.28441
# Poissons Ratio (y) = 0.26906 0.21524
# Poissons Ratio (z) = 0.39419 0.25997
#
# Static dielectric constant tensor:
#      x y z
#    x 4.479180 0.000000 -0.187570 
#    y 0.000000 4.196240 0.000000 
#    z -0.187570 0.000000 3.426960 
# 
# 
# High freq. dielectric constant tensor:
#      x y z
#    x 1.853650 0.000000 -0.012710 
#    y 0.000000 1.851360 0.000000 
#    z -0.012710 0.000000 1.780380 
# 
# From -- ./inp_files/26330.got.cif
#   From: 2010.06.25/outbox.cif.g09.slc.cpg/sg9_14_cif.got.tgz:26330.got - 2010.06.27 21:40:51.
