data_PCOD8054905
_publ_section_title
;
Structure prediction by ZEFSAII (Michael W. Deem and Ramdas Pophale) SiO2 
 PCOD8054905
Probable space group: C C
;
_chemical_formula_sum "Si O2"
_cell_formula_units_Z 24
_cell_length_a 11.401698
_cell_length_b 8.377373
_cell_length_c 22.602930
_cell_angle_alpha 90.000000
_cell_angle_beta 36.274317
_cell_angle_gamma 90.000000
_cell_volume 1277.345435
_symmetry_space_group_name_H-M "C C"
_symmetry_group_IT_number 9
_symmetry_cell_setting 'monoclinic'
loop_
_space_group_symop_operation_xyz
x,y,z
x,-y,1/2+z
1/2+x,1/2+y,z
1/2+x,1/2-y,1/2+z
loop_
_atom_site_type_symbol
_atom_site_label
_atom_site_fract_x
_atom_site_fract_y
_atom_site_fract_z
Si Si1 0.471380 0.136393 0.673210
Si Si2 0.684191 0.078615 0.175304
Si Si3 0.295928 0.634488 0.337550
Si Si4 0.061650 0.871441 0.286758
Si Si5 0.985365 0.559185 0.373577
Si Si6 0.122528 0.843087 0.509026
O O1 0.437762 0.282982 0.731782
O O2 0.261421 0.064138 0.737095
O O3 0.596811 0.203601 0.567439
O O4 0.596294 0.994941 0.651537
O O5 0.626046 0.267335 0.202585
O O6 0.595440 0.989818 0.269830
O O7 0.920835 0.060136 0.079028
O O8 0.423275 0.517610 0.326754
O O9 0.195867 0.769233 0.418031
O O10 0.125954 0.532981 0.373315
O O11 0.949978 0.750262 0.377843
O O12 0.780590 0.470515 0.468961
#
# Coordination Sequence:
#
# PCOD8054905 Si02
#       6
#     4   4   4   4   4   4
#     4  10  21  40  59  87 121 155 203 243 292 355
#     4   9  20  43  58  83 126 156 194 247 296 350
#     4  11  20  39  62  85 122 151 206 250 280 364
#     4   8  20  37  60  86 114 159 193 245 300 333
#     4   9  21  40  60  83 124 157 191 249 297 344
#     4  11  22  37  63  92 115 166 195 240 309 342
#
# _framework density 18.788967
#
# number of rings (size 3 to 8) (size 9 to 14) (size 15 to 20)
#    1.000    1.333    3.333    0.000    0.000    8.000 
#    0.000    0.000    0.000    0.000    0.000    0.000 
#    0.000    0.000    0.000    0.000    0.000    0.000 
#
# Total GULP energy -148739.064555 kJ/mol
# GULP energy per Si atom -12394.922046 kJ/mol
# Density = 1.874620 g / cm^3
# Si number density = 18.788967 Si / 1000 Ang^3
#
#
#
# Elastic Constant Matrix: (Units=GPa)
#
#
# Indices 1 2 3 4 5 6 
#
# 1 128.7232 48.3614 30.6117 0.0000 -23.9844 0.0000
# 2 48.3614 45.8644 19.6508 0.0000 -20.9734 0.0000
# 3 30.6117 19.6508 69.5485 0.0001 -17.2721 0.0000
# 4 0.0000 0.0000 0.0001 23.0311 0.0000 -1.2194
# 5 -23.9844 -20.9734 -17.2721 0.0000 35.4897 0.0000
# 6 0.0000 0.0000 0.0000 -1.2194 0.0000 44.0168
#
#
#
# Elastic Compliance Matrix: (Units=1/GPa)
#
#
# Indices 1 2 3 4 5 6 
#
# 1 0.013138 -0.012830 -0.002088 0.000000 0.000280 0.000000
# 2 -0.012830 0.043769 -0.002786 0.000000 0.015840 0.000000
# 3 -0.002088 -0.002786 0.017432 0.000000 0.005427 0.000000
# 4 0.000000 0.000000 0.000000 0.043483 0.000000 0.001205
# 5 0.000280 0.015840 0.005427 0.000000 0.040368 0.000000
# 6 0.000000 0.000000 0.000000 0.001205 0.000000 0.022752
#
#
# Mechanical properties :
#
#
# Convention : Reuss Voigt Hill
#
# Bulk Modulus (GPa) = 25.68643 49.04265 37.36454
# Shear Modulus (GPa) = 21.80285 30.20831 26.00558
#
# Velocity S-wave (km/s) = 3.41017 4.01405 3.72437
# Velocity P-wave (km/s) = 5.40429 6.90232 6.19872
#
# Compressibility (1/GPa) = 0.03893107
#
# Stress axis : x y z
#
# Youngs Moduli (GPa) = 76.11712 22.84710 57.36500
#
# Poissons Ratio (x) = 0.29313 0.11976
# Poissons Ratio (y) = 0.97660 0.15982
# Poissons Ratio (z) = 0.15891 0.06365
#
# Static dielectric constant tensor:
#      x y z
#    x 3.446580 0.000000 -0.003790 
#    y 0.000000 3.064640 0.000000 
#    z -0.003790 0.000000 3.317650 
# 
# 
# High freq. dielectric constant tensor:
#      x y z
#    x 1.737440 0.000000 -0.003270 
#    y 0.000000 1.701470 0.000000 
#    z -0.003270 0.000000 1.724350 
# 
# From -- ./inp_files/15906.got.cif
#   From: 2010.06.25/outbox.cif.g09.slc.cpg/sg9_8_cif.got.tgz:15906.got - 2010.06.27 21:40:51.
