data_PCOD8054998
_publ_section_title
;
Structure prediction by ZEFSAII (Michael W. Deem and Ramdas Pophale) SiO2 
 PCOD8054998
Probable space group: C C
;
_chemical_formula_sum "Si O2"
_cell_formula_units_Z 32
_cell_length_a 16.456155
_cell_length_b 9.194393
_cell_length_c 21.484281
_cell_angle_alpha 90.000000
_cell_angle_beta 152.504802
_cell_angle_gamma 90.000000
_cell_volume 1500.748535
_symmetry_space_group_name_H-M "C C"
_symmetry_group_IT_number 9
_symmetry_cell_setting 'monoclinic'
loop_
_space_group_symop_operation_xyz
x,y,z
x,-y,1/2+z
1/2+x,1/2+y,z
1/2+x,1/2-y,1/2+z
loop_
_atom_site_type_symbol
_atom_site_label
_atom_site_fract_x
_atom_site_fract_y
_atom_site_fract_z
Si Si1 0.742360 0.366809 0.565780
Si Si2 0.742477 0.881585 0.410505
Si Si3 0.962508 0.395010 0.607593
Si Si4 0.282187 0.958217 0.776070
Si Si5 0.554510 0.793830 0.171168
Si Si6 0.552660 0.884159 0.867690
Si Si7 0.288726 0.209824 0.868396
Si Si8 0.504047 0.532681 0.493675
O O1 0.844018 0.463608 0.583250
O O2 0.687824 0.233783 0.484608
O O3 0.570964 0.447201 0.477670
O O4 0.881055 0.320925 0.714161
O O5 0.593997 0.790681 0.272406
O O6 0.863136 0.777669 0.533609
O O7 0.849681 0.950116 0.425394
O O8 0.658163 0.001441 0.397728
O O9 0.848397 0.302575 0.480738
O O10 0.055100 0.540880 0.642960
O O11 0.098315 0.283974 0.733040
O O12 0.200099 0.798452 0.731905
O O13 0.477117 0.952383 0.880201
O O14 0.167457 0.053971 0.650610
O O15 0.288155 0.045260 0.844316
O O16 0.430354 0.307557 0.926164
#
# Coordination Sequence:
#
# PCOD8054998 Si02
#       8
#     4   4   4   4   4   4   4   4
#     4  11  23  42  68  99 136 175 221 282 339 395
#     4  11  22  44  64  97 132 179 222 278 336 403
#     4  12  24  41  72 100 132 181 228 276 342 407
#     4  10  24  43  67  98 134 181 226 282 335 407
#     4  11  23  42  68  98 133 179 225 276 342 399
#     4  11  24  44  67  97 141 173 230 278 339 406
#     4  12  23  43  70 101 134 180 229 278 346 402
#     4  10  21  41  68  92 140 170 221 284 335 395
#
# _framework density 21.322692
#
# number of rings (size 3 to 8) (size 9 to 14) (size 15 to 20)
#    0.000    1.000    3.750    3.000    1.750    3.000 
#    2.250    0.000    0.000    0.000    0.000    0.000 
#    0.000    0.000    0.000    0.000    0.000    0.000 
#
# Total GULP energy -198288.255529 kJ/mol
# GULP energy per Si atom -12393.015971 kJ/mol
# Density = 2.127416 g / cm^3
# Si number density = 21.322692 Si / 1000 Ang^3
#
#
#
# Elastic Constant Matrix: (Units=GPa)
#
#
# Indices 1 2 3 4 5 6 
#
# 1 132.1874 54.9846 45.4755 0.0015 8.8037 -0.0003
# 2 54.9846 102.7787 52.2548 -0.0091 -1.9055 -0.0001
# 3 45.4755 52.2548 122.9882 -0.0167 -14.3000 0.0001
# 4 0.0015 -0.0091 -0.0167 38.3590 0.0049 -6.4538
# 5 8.8037 -1.9055 -14.3000 0.0049 27.3419 0.0008
# 6 -0.0003 -0.0001 0.0001 -6.4538 0.0008 37.2664
#
#
#
# Elastic Compliance Matrix: (Units=1/GPa)
#
#
# Indices 1 2 3 4 5 6 
#
# 1 0.010672 -0.004458 -0.002649 -0.000002 -0.005132 0.000000
# 2 -0.004458 0.014378 -0.004448 0.000002 0.000111 0.000000
# 3 -0.002649 -0.004448 0.011779 0.000003 0.006704 0.000000
# 4 -0.000002 0.000002 0.000003 0.026852 -0.000002 0.004650
# 5 -0.005132 0.000111 0.006704 -0.000002 0.041740 -0.000001
# 6 0.000000 0.000000 0.000000 0.004650 -0.000001 0.027639
#
#
# Mechanical properties :
#
#
# Convention : Reuss Voigt Hill
#
# Bulk Modulus (GPa) = 72.88104 73.70934 73.29519
# Shear Modulus (GPa) = 31.10552 34.27609 32.69081
#
# Velocity S-wave (km/s) = 3.82357 4.01371 3.91979
# Velocity P-wave (km/s) = 7.33124 7.49155 7.41183
#
# Compressibility (1/GPa) = 0.01372099
#
# Stress axis : x y z
#
# Youngs Moduli (GPa) = 93.69935 69.55152 84.89425
#
# Poissons Ratio (x) = 0.31006 0.22487
# Poissons Ratio (y) = 0.41771 0.37757
# Poissons Ratio (z) = 0.24820 0.30933
#
# Static dielectric constant tensor:
#      x y z
#    x 3.873400 0.000000 0.060560 
#    y 0.000000 3.744160 0.000000 
#    z 0.060560 0.000000 4.201220 
# 
# 
# High freq. dielectric constant tensor:
#      x y z
#    x 1.827600 0.000000 -0.001630 
#    y 0.000000 1.823730 0.000000 
#    z -0.001630 0.000000 1.854180 
# 
# From -- ./inp_files/33740.got.cif
#   From: 2010.06.25/outbox.cif.g09.slc.cpg/sg9_17_cif.got.tgz:33740.got - 2010.06.27 21:40:51.
