data_PCOD8054685
_publ_section_title
;
Structure prediction by ZEFSAII (Michael W. Deem and Ramdas Pophale) SiO2 
 PCOD8054685
Probable space group: C C
;
_chemical_formula_sum "Si O2"
_cell_formula_units_Z 28
_cell_length_a 17.077257
_cell_length_b 13.715104
_cell_length_c 7.626815
_cell_angle_alpha 90.000000
_cell_angle_beta 134.827788
_cell_angle_gamma 90.000000
_cell_volume 1266.913204
_symmetry_space_group_name_H-M "C C"
_symmetry_group_IT_number 9
_symmetry_cell_setting 'monoclinic'
loop_
_space_group_symop_operation_xyz
x,y,z
x,-y,1/2+z
1/2+x,1/2+y,z
1/2+x,1/2-y,1/2+z
loop_
_atom_site_type_symbol
_atom_site_label
_atom_site_fract_x
_atom_site_fract_y
_atom_site_fract_z
Si Si1 0.888600 0.396341 0.709220
Si Si2 0.641566 0.606850 0.752201
Si Si3 0.185019 0.312011 0.769891
Si Si4 0.765195 0.725777 0.527427
Si Si5 0.963377 0.597737 0.959067
Si Si6 0.348103 0.307274 0.315716
Si Si7 0.568943 0.408523 0.757893
O O1 0.770103 0.422823 0.434187
O O2 0.931451 0.484814 0.894115
O O3 0.969558 0.376447 0.674588
O O4 0.884962 0.302657 0.827888
O O5 0.639165 0.718979 0.813132
O O6 0.581629 0.526179 0.774567
O O7 0.573485 0.615935 0.467091
O O8 0.237943 0.280144 0.667517
O O9 0.086219 0.386658 0.575361
O O10 0.277546 0.356329 0.046085
O O11 0.878984 0.666890 0.723845
O O12 0.781406 0.803415 0.395268
O O13 0.668396 0.649871 0.318755
O O14 0.453166 0.377201 0.495046
#
# Coordination Sequence:
#
# PCOD8054685 Si02
#       7
#     4   4   4   4   4   4   4
#     4  11  22  41  69  98 126 173 219 277 322 377
#     4  10  20  41  64  95 125 163 218 268 316 374
#     4  10  25  43  66  96 130 176 214 267 332 385
#     4  11  21  40  68  97 130 163 225 272 321 379
#     4  12  22  42  68  99 133 165 226 277 321 386
#     4  11  25  42  68  95 133 174 214 265 332 391
#     4  11  23  39  65 102 123 168 218 266 326 378
#
# _framework density 22.100961999999999
#
# number of rings (size 3 to 8) (size 9 to 14) (size 15 to 20)
#    0.000    1.143    5.714    2.571    6.000    0.000 
#    2.571    1.429    3.143    0.000    0.000    0.000 
#    0.000    0.000    0.000    0.000    0.000    0.000 
#
# Total GULP energy -173541.615034 kJ/mol
# GULP energy per Si atom -12395.829645 kJ/mol
# Density = 2.205066 g / cm^3
# Si number density = 22.100962 Si / 1000 Ang^3
#
#
#
# Elastic Constant Matrix: (Units=GPa)
#
#
# Indices 1 2 3 4 5 6 
#
# 1 63.5522 8.1970 26.7513 0.0000 -4.3500 0.0000
# 2 8.1970 45.0387 27.3091 0.0000 7.4359 0.0000
# 3 26.7513 27.3091 120.4318 0.0000 14.9375 0.0000
# 4 0.0000 0.0000 0.0000 33.1384 0.0000 5.1999
# 5 -4.3500 7.4359 14.9375 0.0000 29.4269 0.0000
# 6 0.0000 0.0000 0.0000 5.1999 0.0000 20.0878
#
#
#
# Elastic Compliance Matrix: (Units=1/GPa)
#
#
# Indices 1 2 3 4 5 6 
#
# 1 0.018116 -0.001542 -0.004327 0.000000 0.005264 0.000000
# 2 -0.001542 0.026274 -0.005084 0.000000 -0.004287 0.000000
# 3 -0.004327 -0.005084 0.011032 0.000000 -0.004955 0.000000
# 4 0.000000 0.000000 0.000000 0.031454 0.000000 -0.008142
# 5 0.005264 -0.004287 -0.004955 0.000000 0.038359 0.000000
# 6 0.000000 0.000000 0.000000 -0.008142 0.000000 0.051889
#
#
# Mechanical properties :
#
#
# Convention : Reuss Voigt Hill
#
# Bulk Modulus (GPa) = 29.83700 39.28192 34.55946
# Shear Modulus (GPa) = 23.78659 27.64830 25.71744
#
# Velocity S-wave (km/s) = 3.28421 3.54078 3.41491
# Velocity P-wave (km/s) = 5.28309 5.87611 5.58747
#
# Compressibility (1/GPa) = 0.03351543
#
# Stress axis : x y z
#
# Youngs Moduli (GPa) = 55.20030 38.06048 90.64531
#
# Poissons Ratio (x) = 0.05870 0.39224
# Poissons Ratio (y) = 0.08514 0.46080
# Poissons Ratio (z) = 0.23886 0.19348
#
# Static dielectric constant tensor:
#      x y z
#    x 3.795740 0.000000 0.031490 
#    y 0.000000 3.933410 0.000000 
#    z 0.031490 0.000000 4.051810 
# 
# 
# High freq. dielectric constant tensor:
#      x y z
#    x 1.853740 0.000000 -0.007360 
#    y 0.000000 1.846950 0.000000 
#    z -0.007360 0.000000 1.879090 
# 
# From -- ./inp_files/7251.got.cif
#   From: 2010.06.25/outbox.cif.g09.slc.cpg/sg9_4_cif.got.tgz:7251.got - 2010.06.27 21:40:51.
