data_PCOD8054077
_publ_section_title
;
Structure prediction by ZEFSAII (Michael W. Deem and Ramdas Pophale) SiO2 
 PCOD8054077
Probable space group: C M
;
_chemical_formula_sum "Si O2"
_cell_formula_units_Z 24
_cell_length_a 14.795967
_cell_length_b 7.338838
_cell_length_c 11.991292
_cell_angle_alpha 90.000000
_cell_angle_beta 108.615690
_cell_angle_gamma 90.000000
_cell_volume 1233.953576
_symmetry_space_group_name_H-M "C M"
_symmetry_group_IT_number 8
_symmetry_cell_setting 'monoclinic'
loop_
_space_group_symop_operation_xyz
x,y,z
x,-y,z
1/2+x,1/2+y,z
1/2+x,1/2-y,z
loop_
_atom_site_type_symbol
_atom_site_label
_atom_site_fract_x
_atom_site_fract_y
_atom_site_fract_z
Si Si1 0.851240 0.500000 0.534940
Si Si2 0.620085 0.284635 0.164053
Si Si3 0.421529 0.289298 0.990142
Si Si4 0.569524 0.000000 0.537384
Si Si5 0.728012 0.710297 0.993554
Si Si6 0.167573 0.202372 0.423967
Si Si7 0.925198 0.500000 0.810978
Si Si8 0.133728 0.500000 0.813364
O O1 0.783827 0.679243 0.484784
O O2 0.871389 0.500000 0.673509
O O3 0.951945 0.500000 0.503624
O O4 0.629411 0.500000 0.174242
O O5 0.649579 0.204979 0.295905
O O6 0.515128 0.218824 0.089573
O O7 0.688266 0.209781 0.093619
O O8 0.429263 0.500000 0.959714
O O9 0.340153 0.244955 0.047398
O O10 0.397408 0.180954 0.867753
O O11 0.611264 0.822229 0.492336
O O12 0.617739 0.000000 0.676315
O O13 0.699783 0.500000 0.964978
O O14 0.690231 0.818665 0.870864
O O15 0.120920 0.000000 0.413049
O O16 0.037118 0.500000 0.842652
#
# Coordination Sequence:
#
# PCOD8054077 Si02
#       8
#     2   4   4   2   4   4   2   2
#     4   9  24  44  61  95 128 163 223 262 300 382
#     4   9  20  40  60  88 126 155 206 257 308 369
#     4  11  22  35  58  92 120 160 202 247 313 374
#     4  11  24  42  66  95 120 172 222 254 321 371
#     4  11  22  36  59  91 125 162 195 250 321 368
#     4   9  22  45  65  87 128 169 210 270 307 373
#     4  11  22  41  60  85 128 163 202 258 312 362
#     4  11  24  39  59  91 126 156 209 264 295 385
#
# _framework density 19.449676
#
# number of rings (size 3 to 8) (size 9 to 14) (size 15 to 20)
#    0.500    1.333    3.333    0.000    2.333    3.333 
#    1.500    1.667    0.000    0.000    0.000    0.000 
#    0.000    0.000    0.000    0.000    0.000    0.000 
#
# Total GULP energy -148699.438265 kJ/mol
# GULP energy per Si atom -12391.619855 kJ/mol
# Density = 1.940541 g / cm^3
# Si number density = 19.449676 Si / 1000 Ang^3
#
#
#
# Elastic Constant Matrix: (Units=GPa)
#
#
# Indices 1 2 3 4 5 6 
#
# 1 177.4234 36.8109 76.7513 0.0000 -6.0884 0.0000
# 2 36.8109 99.2121 45.3509 0.0000 -6.7163 0.0000
# 3 76.7513 45.3509 144.3054 0.0000 -7.0781 0.0000
# 4 0.0000 0.0000 0.0000 59.5562 0.0000 -6.4776
# 5 -6.0884 -6.7163 -7.0781 0.0000 24.9322 0.0000
# 6 0.0000 0.0000 0.0000 -6.4776 0.0000 19.0975
#
#
#
# Elastic Compliance Matrix: (Units=1/GPa)
#
#
# Indices 1 2 3 4 5 6 
#
# 1 0.007430 -0.001083 -0.003587 0.000000 0.000504 0.000000
# 2 -0.001083 0.012043 -0.003106 0.000000 0.002098 0.000000
# 3 -0.003587 -0.003106 0.009867 0.000000 0.001089 0.000000
# 4 0.000000 0.000000 0.000000 0.017434 0.000000 0.005913
# 5 0.000504 0.002098 0.001089 0.000000 0.041106 0.000000
# 6 0.000000 0.000000 0.000000 0.005913 0.000000 0.054369
#
#
# Mechanical properties :
#
#
# Convention : Reuss Voigt Hill
#
# Bulk Modulus (GPa) = 72.52319 82.08522 77.30420
# Shear Modulus (GPa) = 30.78909 38.18571 34.48740
#
# Velocity S-wave (km/s) = 3.98303 4.43573 4.21546
# Velocity P-wave (km/s) = 7.64992 8.27827 7.97029
#
# Compressibility (1/GPa) = 0.01378869
#
# Stress axis : x y z
#
# Youngs Moduli (GPa) = 134.59412 83.03585 101.35046
#
# Poissons Ratio (x) = 0.08994 0.36350
# Poissons Ratio (y) = 0.14578 0.31477
# Poissons Ratio (z) = 0.48272 0.25789
#
# Static dielectric constant tensor:
#      x y z
#    x 3.824950 0.000000 -0.020430 
#    y 0.000000 3.377680 0.000000 
#    z -0.020430 0.000000 3.610140 
# 
# 
# High freq. dielectric constant tensor:
#      x y z
#    x 1.767130 0.000000 -0.002450 
#    y 0.000000 1.752570 0.000000 
#    z -0.002450 0.000000 1.753650 
# 
# From -- ./inp_files/21218.got.cif
#   From: 2010.03.12/outbox.cif.g09.slc.cpg/sg8_11_cif.got.tgz:21218.got - 2010.03.31 10:45:26.
