data_PCOD8054573
_publ_section_title
;
Structure prediction by ZEFSAII (Michael W. Deem and Ramdas Pophale) SiO2 
 PCOD8054573
Probable space group: C C
;
_chemical_formula_sum "Si O2"
_cell_formula_units_Z 32
_cell_length_a 15.359579
_cell_length_b 8.656220
_cell_length_c 14.912230
_cell_angle_alpha 90.000000
_cell_angle_beta 60.753235
_cell_angle_gamma 90.000000
_cell_volume 1729.925381
_symmetry_space_group_name_H-M "C C"
_symmetry_group_IT_number 9
_symmetry_cell_setting 'monoclinic'
loop_
_space_group_symop_operation_xyz
x,y,z
x,-y,1/2+z
1/2+x,1/2+y,z
1/2+x,1/2-y,1/2+z
loop_
_atom_site_type_symbol
_atom_site_label
_atom_site_fract_x
_atom_site_fract_y
_atom_site_fract_z
Si Si1 0.691200 0.175296 0.052410
Si Si2 0.219234 0.324659 0.734821
Si Si3 0.219233 0.324659 0.234821
Si Si4 0.540057 0.682134 0.746045
Si Si5 0.691200 0.824703 0.052410
Si Si6 0.328428 0.179851 0.338941
Si Si7 0.040057 0.182135 0.246045
Si Si8 0.328428 0.820149 0.338941
O O1 0.756432 0.179767 0.112054
O O2 0.581574 0.245298 0.131292
O O3 0.679653 1.000000 0.023176
O O4 0.740654 0.279546 0.951811
O O5 0.214066 0.500000 0.773509
O O6 0.107748 0.249470 0.793919
O O7 0.295756 0.227073 0.755573
O O8 0.256432 0.320233 0.112054
O O9 0.295756 0.227072 0.255573
O O10 0.107748 0.249470 0.293919
O O11 0.426176 0.727389 0.818941
O O12 0.550916 0.500000 0.737559
O O13 0.581573 0.754702 0.131292
O O14 0.740653 0.720453 0.951811
O O15 0.352297 1.000000 0.329735
O O16 0.926176 0.227389 0.318942
#
# Coordination Sequence:
#
# PCOD8054573 Si02
#       8
#     4   4   4   4   4   4   4   4
#     4   9  20  39  59  83 116 147 188 238 280 333
#     4   9  20  39  59  83 116 147 188 238 280 333
#     4   9  20  39  59  83 116 147 188 238 280 333
#     4  10  20  38  59  84 117 148 188 236 280 334
#     4   9  20  39  59  83 116 147 188 238 280 333
#     4  12  22  36  61  86 115 154 188 228 286 338
#     4  10  20  38  59  84 117 148 188 236 280 334
#     4  12  22  36  61  86 115 154 188 228 286 338
#
# _framework density 18.497907000000001
#
# number of rings (size 3 to 8) (size 9 to 14) (size 15 to 20)
#    1.500    0.500    0.000    5.250    0.000    0.000 
#    4.500    0.000    0.000    0.000    0.000    0.000 
#    0.000    0.000    0.000    0.000    0.000    0.000 
#
# Total GULP energy -198287.920002 kJ/mol
# GULP energy per Si atom -12392.995000 kJ/mol
# Density = 1.845581 g / cm^3
# Si number density = 18.497907 Si / 1000 Ang^3
#
#
#
# Elastic Constant Matrix: (Units=GPa)
#
#
# Indices 1 2 3 4 5 6 
#
# 1 63.8846 24.6769 -3.7847 0.0000 -1.9242 0.0000
# 2 24.6769 117.4139 18.6094 0.0000 0.2929 0.0000
# 3 -3.7847 18.6094 50.3595 0.0000 -3.0489 0.0000
# 4 0.0000 0.0000 0.0000 31.9273 0.0000 -1.3784
# 5 -1.9242 0.2929 -3.0489 0.0000 25.5183 0.0000
# 6 0.0000 0.0000 0.0000 -1.3784 0.0000 34.9836
#
#
#
# Elastic Compliance Matrix: (Units=1/GPa)
#
#
# Indices 1 2 3 4 5 6 
#
# 1 0.017481 -0.004146 0.002950 0.000000 0.001718 0.000000
# 2 -0.004146 0.010036 -0.004076 0.000000 -0.000915 0.000000
# 3 0.002950 -0.004076 0.021759 0.000000 0.002869 0.000000
# 4 0.000000 0.000000 0.000000 0.031375 0.000000 0.001236
# 5 0.001718 -0.000915 0.002869 0.000000 0.039670 0.000000
# 6 0.000000 0.000000 0.000000 0.001236 0.000000 0.028634
#
#
# Mechanical properties :
#
#
# Convention : Reuss Voigt Hill
#
# Bulk Modulus (GPa) = 25.81790 34.51790 30.16790
# Shear Modulus (GPa) = 29.00076 31.29627 30.14852
#
# Velocity S-wave (km/s) = 3.96382 4.11771 4.04150
# Velocity P-wave (km/s) = 5.91073 6.42716 6.17434
#
# Compressibility (1/GPa) = 0.03873282
#
# Stress axis : x y z
#
# Youngs Moduli (GPa) = 57.20449 99.63664 45.95858
#
# Poissons Ratio (x) = 0.41308 -0.13557
# Poissons Ratio (y) = 0.23716 0.18732
# Poissons Ratio (z) = -0.16874 0.40609
#
# Static dielectric constant tensor:
#      x y z
#    x 3.177990 0.000000 0.027970 
#    y 0.000000 3.445800 0.000000 
#    z 0.027970 0.000000 3.121460 
# 
# 
# High freq. dielectric constant tensor:
#      x y z
#    x 1.698980 0.000000 0.000930 
#    y 0.000000 1.739090 0.000000 
#    z 0.000930 0.000000 1.695400 
# 
# From -- ./inp_files/25675.got.cif
#   From: 2010.06.25/outbox.cif.g09.slc.cpg/sg9_13_cif.got.tgz:25675.got - 2010.06.27 21:40:51.
