data_PCOD8054716
_publ_section_title
;
Structure prediction by ZEFSAII (Michael W. Deem and Ramdas Pophale) SiO2 
 PCOD8054716
Probable space group: C C
;
_chemical_formula_sum "Si O2"
_cell_formula_units_Z 32
_cell_length_a 14.378049
_cell_length_b 11.173913
_cell_length_c 9.710442
_cell_angle_alpha 90.000000
_cell_angle_beta 92.991971
_cell_angle_gamma 90.000000
_cell_volume 1557.943971
_symmetry_space_group_name_H-M "C C"
_symmetry_group_IT_number 9
_symmetry_cell_setting 'monoclinic'
loop_
_space_group_symop_operation_xyz
x,y,z
x,-y,1/2+z
1/2+x,1/2+y,z
1/2+x,1/2-y,1/2+z
loop_
_atom_site_type_symbol
_atom_site_label
_atom_site_fract_x
_atom_site_fract_y
_atom_site_fract_z
Si Si1 0.763200 0.964616 0.892280
Si Si2 0.886418 0.843770 0.496173
Si Si3 0.096132 0.866131 0.595793
Si Si4 0.948436 0.446811 0.168372
Si Si5 0.158222 0.602755 0.648430
Si Si6 0.365088 0.109501 0.369808
Si Si7 0.678983 0.527045 0.824212
Si Si8 0.804942 0.267794 0.240195
O O1 0.792972 0.830808 0.856452
O O2 0.727987 0.052402 0.769147
O O3 0.685697 0.954974 0.004564
O O4 0.860535 0.022092 0.951835
O O5 0.877319 0.753003 0.366946
O O6 0.805402 0.799692 0.594519
O O7 0.987683 0.833218 0.573286
O O8 0.156516 0.747437 0.635665
O O9 0.129851 0.925957 0.457340
O O10 0.104923 0.960633 0.720685
O O11 0.914872 0.570505 0.233053
O O12 0.902364 0.341008 0.258236
O O13 0.058316 0.444354 0.185704
O O14 0.915686 0.442787 0.008669
O O15 0.258612 0.067686 0.369326
O O16 0.719909 0.639129 0.742257
#
# Coordination Sequence:
#
# PCOD8054716 Si02
#       8
#     4   4   4   4   4   4   4   4
#     4  12  25  42  69  93 133 177 212 268 335 391
#     4  11  24  43  65  92 136 169 213 269 329 389
#     4  12  25  43  67  98 131 169 225 270 325 384
#     4  10  21  39  68  92 130 166 209 276 317 386
#     4  12  24  41  68  99 131 169 225 269 326 388
#     4  10  20  42  67  92 130 169 212 262 334 378
#     4  11  24  41  71  95 128 172 220 272 322 392
#     4  10  21  43  63  89 131 167 210 264 330 380
#
# _framework density 20.53989
#
# number of rings (size 3 to 8) (size 9 to 14) (size 15 to 20)
#    0.000    1.000    5.000    3.750    1.750    0.000 
#    0.000    0.000    5.500    0.000    0.000    0.000 
#    0.000    0.000    0.000    0.000    0.000    0.000 
#
# Total GULP energy -198351.503344 kJ/mol
# GULP energy per Si atom -12396.968959 kJ/mol
# Density = 2.049314 g / cm^3
# Si number density = 20.539890 Si / 1000 Ang^3
#
#
#
# Elastic Constant Matrix: (Units=GPa)
#
#
# Indices 1 2 3 4 5 6 
#
# 1 65.9488 27.0792 15.1019 0.0000 -0.0831 0.0000
# 2 27.0792 114.0979 25.8954 0.0000 2.8683 0.0000
# 3 15.1019 25.8954 68.7545 0.0000 -7.4121 0.0000
# 4 0.0000 0.0000 0.0000 42.0458 0.0000 4.6572
# 5 -0.0831 2.8683 -7.4121 0.0000 30.9538 0.0000
# 6 0.0000 0.0000 0.0000 4.6572 0.0000 22.2376
#
#
#
# Elastic Compliance Matrix: (Units=1/GPa)
#
#
# Indices 1 2 3 4 5 6 
#
# 1 0.017170 -0.003508 -0.002474 0.000000 -0.000221 0.000000
# 2 -0.003508 0.010399 -0.003337 0.000000 -0.001772 0.000000
# 3 -0.002474 -0.003337 0.016811 0.000000 0.004328 0.000000
# 4 0.000000 0.000000 0.000000 0.024348 0.000000 -0.005099
# 5 -0.000221 -0.001772 0.004328 0.000000 0.033506 0.000000
# 6 0.000000 0.000000 0.000000 -0.005099 0.000000 0.046037
#
#
# Mechanical properties :
#
#
# Convention : Reuss Voigt Hill
#
# Bulk Modulus (GPa) = 38.84688 42.77269 40.80979
# Shear Modulus (GPa) = 28.49155 31.09574 29.79365
#
# Velocity S-wave (km/s) = 3.72846 3.89513 3.81271
# Velocity P-wave (km/s) = 6.12284 6.41084 6.26849
#
# Compressibility (1/GPa) = 0.02574209
#
# Stress axis : x y z
#
# Youngs Moduli (GPa) = 58.24132 96.16409 59.48341
#
# Poissons Ratio (x) = 0.33734 0.14716
# Poissons Ratio (y) = 0.20431 0.19850
# Poissons Ratio (z) = 0.14409 0.32091
#
# Static dielectric constant tensor:
#      x y z
#    x 3.637420 0.000000 -0.155120 
#    y 0.000000 3.940880 0.000000 
#    z -0.155120 0.000000 3.782030 
# 
# 
# High freq. dielectric constant tensor:
#      x y z
#    x 1.795740 0.000000 -0.012030 
#    y 0.000000 1.815010 0.000000 
#    z -0.012030 0.000000 1.802520 
# 
# From -- ./inp_files/9129.got.cif
#   From: 2010.06.25/outbox.cif.g09.slc.cpg/sg9_5_cif.got.tgz:9129.got - 2010.06.27 21:40:51.
