data_PCOD8054277
_publ_section_title
;
Structure prediction by ZEFSAII (Michael W. Deem and Ramdas Pophale) SiO2 
 PCOD8054277
Probable space group: C C
;
_chemical_formula_sum "Si O2"
_cell_formula_units_Z 32
_cell_length_a 8.871848
_cell_length_b 25.420104
_cell_length_c 11.488077
_cell_angle_alpha 90.000000
_cell_angle_beta 138.602344
_cell_angle_gamma 90.000000
_cell_volume 1713.266466
_symmetry_space_group_name_H-M "C C"
_symmetry_group_IT_number 9
_symmetry_cell_setting 'monoclinic'
loop_
_space_group_symop_operation_xyz
x,y,z
x,-y,1/2+z
1/2+x,1/2+y,z
1/2+x,1/2-y,1/2+z
loop_
_atom_site_type_symbol
_atom_site_label
_atom_site_fract_x
_atom_site_fract_y
_atom_site_fract_z
Si Si1 0.871490 0.406899 0.670090
Si Si2 0.640938 0.398551 0.881930
Si Si3 0.614328 0.918120 0.574352
Si Si4 0.998665 0.375286 0.269449
Si Si5 0.315373 0.182081 0.317888
Si Si6 0.525177 0.962551 0.974304
Si Si7 0.873332 0.093248 0.827668
Si Si8 0.193923 0.301324 0.216342
O O1 0.012036 0.397136 0.634826
O O2 0.848359 0.350875 0.719946
O O3 0.001667 0.450062 0.823553
O O4 0.620269 0.430581 0.497001
O O5 0.631440 0.345218 0.797742
O O6 0.802854 0.439408 0.908858
O O7 0.386447 0.419740 0.744003
O O8 0.747935 0.389643 0.072944
O O9 0.514605 0.878909 0.417675
O O10 0.524335 0.975680 0.493004
O O11 0.193427 0.414990 0.330110
O O12 0.056981 0.316078 0.256501
O O13 0.244974 0.240448 0.242609
O O14 0.552495 0.183416 0.521078
O O15 0.761933 0.936249 0.153129
O O16 0.904655 0.157213 0.827463
#
# Coordination Sequence:
#
# PCOD8054277 Si02
#       8
#     4   4   4   4   4   4   4   4
#     4  11  23  38  57  89 122 152 195 251 297 352
#     4   9  21  42  57  85 119 153 200 251 281 367
#     4  12  25  35  62  85 126 159 190 255 308 336
#     4   8  19  39  58  89 115 148 204 236 289 353
#     4  10  18  38  65  89 116 149 210 239 296 354
#     4  10  23  40  56  85 115 160 211 236 290 360
#     4   9  19  40  62  85 117 151 208 241 285 358
#     4   9  18  34  71  89 108 158 200 251 276 354
#
# _framework density 18.677771
#
# number of rings (size 3 to 8) (size 9 to 14) (size 15 to 20)
#    0.750    1.500    2.500    2.250    7.000    1.000 
#    0.000    0.000    5.500    0.000    0.000    0.000 
#    0.000    0.000    0.000    0.000    0.000    0.000 
#
# Total GULP energy -198232.873574 kJ/mol
# GULP energy per Si atom -12389.554598 kJ/mol
# Density = 1.863526 g / cm^3
# Si number density = 18.677771 Si / 1000 Ang^3
#
#
#
# Elastic Constant Matrix: (Units=GPa)
#
#
# Indices 1 2 3 4 5 6 
#
# 1 83.2873 17.8632 60.7397 0.0000 -21.1200 0.0000
# 2 17.8632 83.1708 33.2741 0.0000 -8.4969 0.0000
# 3 60.7397 33.2741 126.8347 0.0000 -15.4950 0.0000
# 4 0.0000 0.0000 0.0000 22.9099 0.0000 2.3322
# 5 -21.1200 -8.4969 -15.4950 0.0000 21.6104 0.0000
# 6 0.0000 0.0000 0.0000 2.3322 0.0000 8.3640
#
#
#
# Elastic Compliance Matrix: (Units=1/GPa)
#
#
# Indices 1 2 3 4 5 6 
#
# 1 0.022390 0.000351 -0.008904 0.000000 0.015635 0.000000
# 2 0.000351 0.013621 -0.003338 0.000000 0.003305 0.000000
# 3 -0.008904 -0.003338 0.012933 0.000000 -0.000741 0.000000
# 4 0.000000 0.000000 0.000000 0.044924 0.000000 -0.012527
# 5 0.015635 0.003305 -0.000741 0.000000 0.062323 0.000000
# 6 0.000000 0.000000 0.000000 -0.012527 0.000000 0.123052
#
#
# Mechanical properties :
#
#
# Convention : Reuss Voigt Hill
#
# Bulk Modulus (GPa) = 39.74177 57.44966 48.59571
# Shear Modulus (GPa) = 16.05584 22.67126 19.36355
#
# Velocity S-wave (km/s) = 2.93511 3.48776 3.22330
# Velocity P-wave (km/s) = 5.72803 6.85889 6.31881
#
# Compressibility (1/GPa) = 0.02516244
#
# Stress axis : x y z
#
# Youngs Moduli (GPa) = 44.66329 73.41577 77.31898
#
# Poissons Ratio (x) = -0.02575 0.68846
# Poissons Ratio (y) = -0.01567 0.25806
# Poissons Ratio (z) = 0.39769 0.24503
#
# Static dielectric constant tensor:
#      x y z
#    x 3.105600 0.000000 -0.107280 
#    y 0.000000 5.487840 0.000000 
#    z -0.107280 0.000000 3.658980 
# 
# 
# High freq. dielectric constant tensor:
#      x y z
#    x 1.685830 0.000000 -0.008500 
#    y 0.000000 1.711330 0.000000 
#    z -0.008500 0.000000 1.749730 
# 
# From -- ./inp_files/15697.got.cif
#   From: 2010.06.25/outbox.cif.g09.slc.cpg/sg9_8_cif.got.tgz:15697.got - 2010.06.27 21:40:51.
