data_PCOD8054612
_publ_section_title
;
Structure prediction by ZEFSAII (Michael W. Deem and Ramdas Pophale) SiO2 
 PCOD8054612
Probable space group: C C
;
_chemical_formula_sum "Si O2"
_cell_formula_units_Z 32
_cell_length_a 28.064217
_cell_length_b 9.926993
_cell_length_c 8.632487
_cell_angle_alpha 90.000000
_cell_angle_beta 138.925411
_cell_angle_gamma 90.000000
_cell_volume 1580.152601
_symmetry_space_group_name_H-M "C C"
_symmetry_group_IT_number 9
_symmetry_cell_setting 'monoclinic'
loop_
_space_group_symop_operation_xyz
x,y,z
x,-y,1/2+z
1/2+x,1/2+y,z
1/2+x,1/2-y,1/2+z
loop_
_atom_site_type_symbol
_atom_site_label
_atom_site_fract_x
_atom_site_fract_y
_atom_site_fract_z
Si Si1 0.927320 0.589738 0.409050
Si Si2 0.704547 0.402629 0.808767
Si Si3 0.435106 0.175080 0.074369
Si Si4 0.271103 0.139104 0.143161
Si Si5 0.538693 0.594313 0.905436
Si Si6 0.306447 0.404729 0.070600
Si Si7 0.287747 0.318259 0.676341
Si Si8 0.473637 0.632948 0.060508
O O1 0.919335 0.620060 0.207999
O O2 0.963054 0.445167 0.531065
O O3 0.849849 0.579035 0.302072
O O4 0.974562 0.708361 0.605662
O O5 0.755171 0.376607 0.785086
O O6 0.621214 0.397107 0.553200
O O7 0.715244 0.551326 0.905249
O O8 0.723394 0.287459 0.981961
O O9 0.499151 0.282277 0.225382
O O10 0.363465 0.243613 0.829491
O O11 0.268274 0.296472 0.090238
O O12 0.533745 0.604111 0.077674
O O13 0.497148 0.455263 0.763708
O O14 0.278700 0.553535 0.041884
O O15 0.393419 0.400772 0.299773
O O16 0.282871 0.369259 0.839641
#
# Coordination Sequence:
#
# PCOD8054612 Si02
#       8
#     4   4   4   4   4   4   4   4
#     4  10  21  37  62  94 114 154 208 260 308 345
#     4  12  25  38  62  92 129 175 201 259 316 381
#     4  11  21  40  62  90 123 156 207 264 299 371
#     4  11  21  39  60  92 127 157 214 255 311 371
#     4  11  23  41  59  91 129 163 210 247 320 375
#     4  11  21  40  66  95 120 157 215 265 310 359
#     4  12  22  40  63  95 124 161 208 265 312 367
#     4  10  20  39  62  89 122 157 207 265 302 371
#
# _framework density 20.251207999999998
#
# number of rings (size 3 to 8) (size 9 to 14) (size 15 to 20)
#    0.000    1.000    6.250    3.000    0.000    2.000 
#    0.000    6.250    0.000    0.000    0.000    0.000 
#    0.000    0.000    0.000    0.000    0.000    0.000 
#
# Total GULP energy -198428.560487 kJ/mol
# GULP energy per Si atom -12401.785030 kJ/mol
# Density = 2.020512 g / cm^3
# Si number density = 20.251208 Si / 1000 Ang^3
#
#
#
# Elastic Constant Matrix: (Units=GPa)
#
#
# Indices 1 2 3 4 5 6 
#
# 1 51.8222 22.5880 27.8477 0.0000 -3.4552 0.0000
# 2 22.5880 159.7642 54.7854 0.0000 -2.1722 0.0000
# 3 27.8477 54.7854 92.2970 0.0000 1.8705 0.0000
# 4 0.0000 0.0000 0.0000 31.8546 0.0000 -10.0049
# 5 -3.4552 -2.1722 1.8705 0.0000 20.8928 0.0000
# 6 0.0000 0.0000 0.0000 -10.0049 0.0000 30.9906
#
#
#
# Elastic Compliance Matrix: (Units=1/GPa)
#
#
# Indices 1 2 3 4 5 6 
#
# 1 0.023578 -0.001009 -0.006604 0.000000 0.004385 0.000000
# 2 -0.001009 0.007934 -0.004426 0.000000 0.001054 0.000000
# 3 -0.006604 -0.004426 0.015514 0.000000 -0.002941 0.000000
# 4 0.000000 0.000000 0.000000 0.034935 0.000000 0.011278
# 5 0.004385 0.001054 -0.002941 0.000000 0.048962 0.000000
# 6 0.000000 0.000000 0.000000 0.011278 0.000000 0.035909
#
#
# Mechanical properties :
#
#
# Convention : Reuss Voigt Hill
#
# Bulk Modulus (GPa) = 43.57825 57.14730 50.36278
# Shear Modulus (GPa) = 25.18144 29.99173 27.58659
#
# Velocity S-wave (km/s) = 3.53009 3.85253 3.69483
# Velocity P-wave (km/s) = 6.17907 6.93324 6.56699
#
# Compressibility (1/GPa) = 0.02294722
#
# Stress axis : x y z
#
# Youngs Moduli (GPa) = 42.41297 126.03786 64.45806
#
# Poissons Ratio (x) = 0.12723 0.42565
# Poissons Ratio (y) = 0.04281 0.28531
# Poissons Ratio (z) = 0.28008 0.55788
#
# Static dielectric constant tensor:
#      x y z
#    x 3.486270 0.000000 -0.135700 
#    y 0.000000 4.153930 0.000000 
#    z -0.135700 0.000000 3.447390 
# 
# 
# High freq. dielectric constant tensor:
#      x y z
#    x 1.778010 0.000000 -0.016000 
#    y 0.000000 1.813030 0.000000 
#    z -0.016000 0.000000 1.769600 
# 
# From -- ./inp_files/12449.got.cif
#   From: 2010.06.25/outbox.cif.g09.slc.cpg/sg9_7_cif.got.tgz:12449.got - 2010.06.27 21:40:51.
