data_PCOD8054865
_publ_section_title
;
Structure prediction by ZEFSAII (Michael W. Deem and Ramdas Pophale) SiO2 
 PCOD8054865
Probable space group: C C
;
_chemical_formula_sum "Si O2"
_cell_formula_units_Z 28
_cell_length_a 5.134516
_cell_length_b 33.731858
_cell_length_c 8.957343
_cell_angle_alpha 90.000000
_cell_angle_beta 60.712549
_cell_angle_gamma 90.000000
_cell_volume 1353.079546
_symmetry_space_group_name_H-M "C C"
_symmetry_group_IT_number 9
_symmetry_cell_setting 'monoclinic'
loop_
_space_group_symop_operation_xyz
x,y,z
x,-y,1/2+z
1/2+x,1/2+y,z
1/2+x,1/2-y,1/2+z
loop_
_atom_site_type_symbol
_atom_site_label
_atom_site_fract_x
_atom_site_fract_y
_atom_site_fract_z
Si Si1 0.490070 0.773126 0.647330
Si Si2 0.573451 0.466527 0.135976
Si Si3 0.842552 0.883953 0.872024
Si Si4 0.486663 0.686621 0.141980
Si Si5 0.463955 0.303956 0.317732
Si Si6 0.251367 0.528062 0.422318
Si Si7 0.660057 0.378297 0.093498
O O1 0.144629 0.784286 0.719015
O O2 0.583028 0.728028 0.663253
O O3 0.638467 0.800010 0.736248
O O4 0.636648 0.786079 0.447119
O O5 0.454615 0.493290 0.302354
O O6 0.329882 0.469313 0.074080
O O7 0.598721 0.421167 0.185019
O O8 0.902356 0.481692 0.995726
O O9 0.990665 0.858809 0.696156
O O10 0.827807 0.929720 0.823068
O O11 0.511664 0.868219 0.006498
O O12 0.061494 0.878874 0.949928
O O13 0.628392 0.691221 0.934101
O O14 0.464639 0.346480 0.238843
#
# Coordination Sequence:
#
# PCOD8054865 Si02
#       7
#     4   4   4   4   4   4   4
#     4  10  25  38  59  85 117 146 201 240 298 348
#     4  10  21  40  60  93 123 160 203 240 305 348
#     4  10  22  39  63  85 122 154 198 236 302 342
#     4  10  24  40  58  88 111 155 195 239 295 350
#     4  10  26  39  62  85 117 152 200 242 300 343
#     4  10  21  39  61  93 121 164 195 250 291 364
#     4  10  23  39  63  87 119 157 194 247 291 353
#
# _framework density 20.693535000000001
#
# number of rings (size 3 to 8) (size 9 to 14) (size 15 to 20)
#    0.857    1.143    0.000    1.714    8.000    1.143 
#    2.571    0.000    0.000    0.000    0.000    0.000 
#    0.000    0.000    0.000    0.000    0.000    0.000 
#
# Total GULP energy -173441.718291 kJ/mol
# GULP energy per Si atom -12388.694164 kJ/mol
# Density = 2.064644 g / cm^3
# Si number density = 20.693535 Si / 1000 Ang^3
#
#
#
# Elastic Constant Matrix: (Units=GPa)
#
#
# Indices 1 2 3 4 5 6 
#
# 1 104.8524 23.8684 11.4128 0.0000 4.3351 0.0000
# 2 23.8684 140.3564 60.8691 0.0000 -2.0198 0.0000
# 3 11.4128 60.8691 57.3395 0.0000 -0.4370 0.0000
# 4 0.0000 0.0000 0.0000 42.6177 0.0000 0.8527
# 5 4.3351 -2.0198 -0.4370 0.0000 18.2081 0.0000
# 6 0.0000 0.0000 0.0000 0.8527 0.0000 24.2356
#
#
#
# Elastic Compliance Matrix: (Units=1/GPa)
#
#
# Indices 1 2 3 4 5 6 
#
# 1 0.010044 -0.001612 -0.000308 0.000000 -0.002578 0.000000
# 2 -0.001612 0.013485 -0.013982 0.000000 0.001544 0.000000
# 3 -0.000308 -0.013982 0.032339 0.000000 -0.000702 0.000000
# 4 0.000000 0.000000 0.000000 0.023481 0.000000 -0.000826
# 5 -0.002578 0.001544 -0.000702 0.000000 0.055689 0.000000
# 6 0.000000 0.000000 0.000000 -0.000826 0.000000 0.041291
#
#
# Mechanical properties :
#
#
# Convention : Reuss Voigt Hill
#
# Bulk Modulus (GPa) = 41.55583 54.98321 48.26952
# Shear Modulus (GPa) = 23.13170 30.77215 26.95192
#
# Velocity S-wave (km/s) = 3.34701 3.86040 3.61284
# Velocity P-wave (km/s) = 5.92130 6.81896 6.38592
#
# Compressibility (1/GPa) = 0.02406401
#
# Stress axis : x y z
#
# Youngs Moduli (GPa) = 99.56027 74.15767 30.92244
#
# Poissons Ratio (x) = 0.11951 0.00953
# Poissons Ratio (y) = 0.16045 0.43237
# Poissons Ratio (z) = 0.03067 1.03690
#
# Static dielectric constant tensor:
#      x y z
#    x 3.762690 0.000000 0.056170 
#    y 0.000000 3.873780 0.000000 
#    z 0.056170 0.000000 3.311100 
# 
# 
# High freq. dielectric constant tensor:
#      x y z
#    x 1.821220 0.000000 0.010530 
#    y 0.000000 1.815100 0.000000 
#    z 0.010530 0.000000 1.774780 
# 
# From -- ./inp_files/4085.got.cif
#   From: 2010.06.25/outbox.cif.g09.slc.cpg/sg9_3_cif.got.tgz:4085.got - 2010.06.27 21:40:51.
