data_PCOD8054543
_publ_section_title
;
Structure prediction by ZEFSAII (Michael W. Deem and Ramdas Pophale) SiO2 
 PCOD8054543
Probable space group: C C
;
_chemical_formula_sum "Si O2"
_cell_formula_units_Z 28
_cell_length_a 25.367112
_cell_length_b 5.105317
_cell_length_c 16.343129
_cell_angle_alpha 90.000000
_cell_angle_beta 134.920874
_cell_angle_gamma 90.000000
_cell_volume 1498.693722
_symmetry_space_group_name_H-M "C C"
_symmetry_group_IT_number 9
_symmetry_cell_setting 'monoclinic'
loop_
_space_group_symop_operation_xyz
x,y,z
x,-y,1/2+z
1/2+x,1/2+y,z
1/2+x,1/2-y,1/2+z
loop_
_atom_site_type_symbol
_atom_site_label
_atom_site_fract_x
_atom_site_fract_y
_atom_site_fract_z
Si Si1 0.188200 0.076019 0.378560
Si Si2 0.626465 0.441608 0.474039
Si Si3 0.781764 0.366558 0.128886
Si Si4 0.688783 0.932677 0.772245
Si Si5 0.905903 0.542757 0.364237
Si Si6 0.829329 0.047158 0.319202
Si Si7 0.073144 0.431149 0.501492
O O1 0.124443 0.982536 0.373064
O O2 0.263588 0.154869 0.512382
O O3 0.162711 0.337056 0.304318
O O4 0.203068 0.841117 0.332894
O O5 0.711244 0.494590 0.597877
O O6 0.604013 0.148251 0.472708
O O7 0.570367 0.651534 0.453040
O O8 0.857234 0.533864 0.226259
O O9 0.792148 0.085871 0.187181
O O10 0.766158 0.015512 0.815782
O O11 0.623337 0.899874 0.636005
O O12 0.890422 0.819105 0.389764
O O13 0.991809 0.513068 0.440124
O O14 0.875144 0.313166 0.390375
#
# Coordination Sequence:
#
# PCOD8054543 Si02
#       7
#     4   4   4   4   4   4   4
#     4  10  23  34  62  85 117 140 197 236 288 322
#     4  10  21  38  61  85 109 152 199 235 269 345
#     4   8  21  37  62  78 113 146 196 239 270 324
#     4  12  21  36  61  87 113 150 188 237 286 342
#     4  10  21  35  62  84 113 143 200 237 272 335
#     4  10  20  37  61  84 110 148 200 230 276 331
#     4  12  21  37  63  85 113 153 194 230 291 335
#
# _framework density 18.682938
#
# number of rings (size 3 to 8) (size 9 to 14) (size 15 to 20)
#    1.714    0.000    1.429    4.286    2.000    0.000 
#    0.000    0.000   18.857    0.000    0.000    0.000 
#    0.000    0.000    0.000    0.000    0.000    0.000 
#
# Total GULP energy -173449.066454 kJ/mol
# GULP energy per Si atom -12389.219032 kJ/mol
# Density = 1.864041 g / cm^3
# Si number density = 18.682938 Si / 1000 Ang^3
#
#
#
# Elastic Constant Matrix: (Units=GPa)
#
#
# Indices 1 2 3 4 5 6 
#
# 1 78.9673 17.0996 49.3110 -0.0011 7.2421 -0.0002
# 2 17.0996 97.3958 22.6306 -0.0048 -10.5200 -0.0023
# 3 49.3110 22.6306 43.7411 0.0009 4.2776 0.0004
# 4 -0.0011 -0.0048 0.0009 12.9577 -0.0010 1.3724
# 5 7.2421 -10.5200 4.2776 -0.0010 32.8120 -0.0004
# 6 -0.0002 -0.0023 0.0004 1.3724 -0.0004 37.0838
#
#
#
# Elastic Compliance Matrix: (Units=1/GPa)
#
#
# Indices 1 2 3 4 5 6 
#
# 1 0.044432 0.004109 -0.052049 0.000009 -0.001704 0.000001
# 2 0.004109 0.012774 -0.011702 0.000006 0.004714 0.000001
# 3 -0.052049 -0.011702 0.087958 -0.000015 -0.003731 -0.000001
# 4 0.000009 0.000006 -0.000015 0.077478 0.000004 -0.002867
# 5 -0.001704 0.004714 -0.003731 0.000004 0.032851 0.000001
# 6 0.000001 0.000001 -0.000001 -0.002867 0.000001 0.027072
#
#
# Mechanical properties :
#
#
# Convention : Reuss Voigt Hill
#
# Bulk Modulus (GPa) = 38.64076 44.24294 41.44185
# Shear Modulus (GPa) = 12.18098 25.30823 18.74461
#
# Velocity S-wave (km/s) = 2.55617 3.68451 3.17093
# Velocity P-wave (km/s) = 5.42580 6.46785 5.96961
#
# Compressibility (1/GPa) = 0.02587941
#
# Stress axis : x y z
#
# Youngs Moduli (GPa) = 22.50640 78.28209 11.36907
#
# Poissons Ratio (x) = -0.32167 0.59175
# Poissons Ratio (y) = -0.09248 0.13305
# Poissons Ratio (z) = 1.17143 0.91609
#
# Static dielectric constant tensor:
#      x y z
#    x 3.234950 0.000000 -0.027270 
#    y 0.000000 3.575200 0.000000 
#    z -0.027270 0.000000 3.207170 
# 
# 
# High freq. dielectric constant tensor:
#      x y z
#    x 1.710060 0.000000 0.001970 
#    y 0.000000 1.739750 0.000000 
#    z 0.001970 0.000000 1.697740 
# 
# From -- ./inp_files/27591.got.cif
#   From: 2010.06.25/outbox.cif.g09.slc.cpg/sg9_14_cif.got.tgz:27591.got - 2010.06.27 21:40:51.
