data_PCOD8054739
_publ_section_title
;
Structure prediction by ZEFSAII (Michael W. Deem and Ramdas Pophale) SiO2 
 PCOD8054739
Probable space group: C C
;
_chemical_formula_sum "Si O2"
_cell_formula_units_Z 32
_cell_length_a 24.162264
_cell_length_b 7.068632
_cell_length_c 25.960388
_cell_angle_alpha 90.000000
_cell_angle_beta 158.587380
_cell_angle_gamma 90.000000
_cell_volume 1618.730015
_symmetry_space_group_name_H-M "C C"
_symmetry_group_IT_number 9
_symmetry_cell_setting 'monoclinic'
loop_
_space_group_symop_operation_xyz
x,y,z
x,-y,1/2+z
1/2+x,1/2+y,z
1/2+x,1/2-y,1/2+z
loop_
_atom_site_type_symbol
_atom_site_label
_atom_site_fract_x
_atom_site_fract_y
_atom_site_fract_z
Si Si1 0.724480 0.552667 0.726840
Si Si2 0.205787 0.300022 0.374411
Si Si3 0.027762 0.233645 0.120865
Si Si4 0.206228 0.918103 0.971093
Si Si5 0.070202 0.235466 0.912945
Si Si6 0.550833 0.945554 0.558701
Si Si7 0.251600 0.731540 0.669165
Si Si8 0.020695 0.420462 0.300527
O O1 0.635114 0.422011 0.689207
O O2 0.635020 0.748154 0.641928
O O3 0.737162 0.435026 0.684790
O O4 0.889538 0.597692 0.892872
O O5 0.074525 0.264076 0.219951
O O6 0.358394 0.354659 0.476107
O O7 0.235825 0.109869 0.435226
O O8 0.142295 0.461918 0.358929
O O9 0.029549 0.434174 0.092605
O O10 0.356278 0.887157 0.134336
O O11 0.078311 0.769046 0.878885
O O12 0.129266 0.118444 0.915273
O O13 0.017070 0.430762 0.842719
O O14 0.925282 0.157819 0.819392
O O15 0.207623 0.247916 0.071586
O O16 0.650623 0.070569 0.607037
#
# Coordination Sequence:
#
# PCOD8054739 Si02
#       8
#     4   4   4   4   4   4   4   4
#     4  11  26  44  67 101 125 167 219 268 322 396
#     4  10  20  43  66  94 133 175 205 270 316 372
#     4  11  22  44  68  92 137 170 210 261 332 376
#     4  10  23  41  63  93 132 168 220 262 307 376
#     4  12  24  43  66  97 130 176 213 264 320 381
#     4  11  26  44  67 100 128 164 220 268 321 399
#     4  11  26  44  66  93 135 170 212 268 328 376
#     4  10  23  41  63  94 130 170 219 261 308 376
#
# _framework density 19.768585000000002
#
# number of rings (size 3 to 8) (size 9 to 14) (size 15 to 20)
#    0.750    0.500    5.000    0.000    5.250    2.000 
#    4.500    0.000    0.000    0.000    0.000    0.000 
#    0.000    0.000    0.000    0.000    0.000    0.000 
#
# Total GULP energy -198281.477102 kJ/mol
# GULP energy per Si atom -12392.592319 kJ/mol
# Density = 1.972359 g / cm^3
# Si number density = 19.768585 Si / 1000 Ang^3
#
#
#
# Elastic Constant Matrix: (Units=GPa)
#
#
# Indices 1 2 3 4 5 6 
#
# 1 82.3840 28.0977 23.4397 0.0000 -10.1294 -0.0006
# 2 28.0977 82.8239 46.1755 0.0003 -13.5154 -0.0016
# 3 23.4397 46.1755 103.8575 0.0056 -7.7340 -0.0007
# 4 0.0000 0.0003 0.0056 29.1550 0.0009 4.6491
# 5 -10.1294 -13.5154 -7.7340 0.0009 41.1539 -0.0004
# 6 -0.0006 -0.0016 -0.0007 4.6491 -0.0004 22.0521
#
#
#
# Elastic Compliance Matrix: (Units=1/GPa)
#
#
# Indices 1 2 3 4 5 6 
#
# 1 0.014026 -0.003658 -0.001391 0.000000 0.001990 0.000000
# 2 -0.003658 0.017679 -0.006764 0.000001 0.003634 0.000001
# 3 -0.001391 -0.006764 0.012940 -0.000002 -0.000132 0.000000
# 4 0.000000 0.000001 -0.000002 0.035493 -0.000001 -0.007483
# 5 0.001990 0.003634 -0.000132 -0.000001 0.025958 0.000001
# 6 0.000000 0.000001 0.000000 -0.007483 0.000001 0.046925
#
#
# Mechanical properties :
#
#
# Convention : Reuss Voigt Hill
#
# Bulk Modulus (GPa) = 47.57597 51.61013 49.59305
# Shear Modulus (GPa) = 27.22536 29.89570 28.56053
#
# Velocity S-wave (km/s) = 3.71510 3.89303 3.80510
# Velocity P-wave (km/s) = 6.52083 6.80965 6.66681
#
# Compressibility (1/GPa) = 0.02101902
#
# Stress axis : x y z
#
# Youngs Moduli (GPa) = 71.29449 56.56478 77.28018
#
# Poissons Ratio (x) = 0.20693 0.10750
# Poissons Ratio (y) = 0.26081 0.52271
# Poissons Ratio (z) = 0.09917 0.38259
#
# Static dielectric constant tensor:
#      x y z
#    x 3.632600 0.000000 0.007010 
#    y 0.000000 3.395820 0.000000 
#    z 0.007010 0.000000 3.761740 
# 
# 
# High freq. dielectric constant tensor:
#      x y z
#    x 1.778750 0.000000 0.003490 
#    y 0.000000 1.744280 0.000000 
#    z 0.003490 0.000000 1.795230 
# 
# From -- ./inp_files/37747.got.cif
#   From: 2010.06.25/outbox.cif.g09.slc.cpg/sg9_19_cif.got.tgz:37747.got - 2010.06.27 21:40:51.
