data_PCOD8054264
_publ_section_title
;
Structure prediction by ZEFSAII (Michael W. Deem and Ramdas Pophale) SiO2 
 PCOD8054264
Probable space group: C C
;
_chemical_formula_sum "Si O2"
_cell_formula_units_Z 32
_cell_length_a 9.167452
_cell_length_b 15.374287
_cell_length_c 17.622105
_cell_angle_alpha 90.000000
_cell_angle_beta 136.560594
_cell_angle_gamma 90.000000
_cell_volume 1707.768932
_symmetry_space_group_name_H-M "C C"
_symmetry_group_IT_number 9
_symmetry_cell_setting 'monoclinic'
loop_
_space_group_symop_operation_xyz
x,y,z
x,-y,1/2+z
1/2+x,1/2+y,z
1/2+x,1/2-y,1/2+z
loop_
_atom_site_type_symbol
_atom_site_label
_atom_site_fract_x
_atom_site_fract_y
_atom_site_fract_z
Si Si1 0.536950 0.415427 0.193650
Si Si2 0.184701 0.534386 0.369522
Si Si3 0.965315 0.121062 0.944810
Si Si4 0.231305 0.915638 0.692041
Si Si5 0.581149 0.966812 0.006946
Si Si6 0.802477 0.623965 0.939538
Si Si7 0.400941 0.806679 0.883078
Si Si8 0.873339 0.191180 0.500841
O O1 0.651814 0.500434 0.206477
O O2 0.299908 0.441407 0.131575
O O3 0.665089 0.375916 0.311554
O O4 0.531431 0.340234 0.127111
O O5 0.286535 0.452386 0.365664
O O6 0.134631 0.512907 0.438948
O O7 0.354538 0.614605 0.430319
O O8 0.964315 0.561522 0.245708
O O9 0.145847 0.110164 0.950507
O O10 0.837911 0.213130 0.893653
O O11 0.070582 0.111883 0.066572
O O12 0.246097 0.833832 0.755552
O O13 0.478872 0.049221 0.008934
O O14 0.412652 0.886170 0.948339
O O15 0.937635 0.714363 0.992968
O O16 0.638923 0.794492 0.944125
#
# Coordination Sequence:
#
# PCOD8054264 Si02
#       8
#     4   4   4   4   4   4   4   4
#     4  10  18  37  63  74 111 160 179 214 289 336
#     4   9  18  36  58  80 108 153 188 211 274 353
#     4  11  21  34  58  87 113 135 189 247 265 308
#     4  10  18  37  63  74 111 160 179 214 289 336
#     4   9  18  36  58  80 108 153 188 211 274 353
#     4  11  21  34  58  87 113 135 189 247 265 308
#     4   8  18  33  55  83 107 144 193 212 269 342
#     4   8  18  33  55  83 107 144 193 212 269 342
#
# _framework density 18.737898999999999
#
# number of rings (size 3 to 8) (size 9 to 14) (size 15 to 20)
#    0.000    3.000    5.000    0.000    0.000   10.000 
#    0.000    2.500    0.000    0.000    0.000    0.000 
#    0.000    0.000    0.000    0.000    0.000    0.000 
#
# Total GULP energy -198252.408317 kJ/mol
# GULP energy per Si atom -12390.775520 kJ/mol
# Density = 1.869525 g / cm^3
# Si number density = 18.737899 Si / 1000 Ang^3
#
#
#
# Elastic Constant Matrix: (Units=GPa)
#
#
# Indices 1 2 3 4 5 6 
#
# 1 31.9679 35.2427 0.6102 0.0000 1.2504 0.0000
# 2 35.2427 168.3332 23.9245 0.0000 2.8743 0.0000
# 3 0.6102 23.9245 72.6769 0.0000 6.7581 0.0000
# 4 0.0000 0.0000 0.0000 28.8728 0.0000 -3.8515
# 5 1.2504 2.8743 6.7581 0.0000 14.8330 0.0000
# 6 0.0000 0.0000 0.0000 -3.8515 0.0000 29.2112
#
#
#
# Elastic Compliance Matrix: (Units=1/GPa)
#
#
# Indices 1 2 3 4 5 6 
#
# 1 0.041267 -0.009000 0.002900 0.000000 -0.003056 0.000000
# 2 -0.009000 0.008196 -0.002658 0.000000 0.000381 0.000000
# 3 0.002900 -0.002658 0.015230 0.000000 -0.006669 0.000000
# 4 0.000000 0.000000 0.000000 0.035255 0.000000 0.004648
# 5 -0.003056 0.000381 -0.006669 0.000000 0.070639 0.000000
# 6 0.000000 0.000000 0.000000 0.004648 0.000000 0.034846
#
#
# Mechanical properties :
#
#
# Convention : Reuss Voigt Hill
#
# Bulk Modulus (GPa) = 21.19597 43.61473 32.40535
# Shear Modulus (GPa) = 20.94898 28.79678 24.87288
#
# Velocity S-wave (km/s) = 3.34728 3.92448 3.64732
# Velocity P-wave (km/s) = 5.12595 6.62285 5.92189
#
# Compressibility (1/GPa) = 0.04717878
#
# Stress axis : x y z
#
# Youngs Moduli (GPa) = 24.23224 122.00938 65.65877
#
# Poissons Ratio (x) = 1.09807 -0.19044
# Poissons Ratio (y) = 0.21809 0.17452
# Poissons Ratio (z) = -0.07028 0.32430
#
# Static dielectric constant tensor:
#      x y z
#    x 3.060890 0.000000 0.013910 
#    y 0.000000 4.241930 0.000000 
#    z 0.013910 0.000000 3.649130 
# 
# 
# High freq. dielectric constant tensor:
#      x y z
#    x 1.673210 0.000000 0.007030 
#    y 0.000000 1.745460 0.000000 
#    z 0.007030 0.000000 1.726460 
# 
# From -- ./inp_files/33378.got.cif
#   From: 2010.06.25/outbox.cif.g09.slc.cpg/sg9_17_cif.got.tgz:33378.got - 2010.06.27 21:40:51.
