data_PCOD8054747
_publ_section_title
;
Structure prediction by ZEFSAII (Michael W. Deem and Ramdas Pophale) SiO2 
 PCOD8054747
Probable space group: C C
;
_chemical_formula_sum "Si O2"
_cell_formula_units_Z 32
_cell_length_a 11.706288
_cell_length_b 9.508631
_cell_length_c 13.731654
_cell_angle_alpha 90.000000
_cell_angle_beta 112.098584
_cell_angle_gamma 90.000000
_cell_volume 1416.195639
_symmetry_space_group_name_H-M "C C"
_symmetry_group_IT_number 9
_symmetry_cell_setting 'monoclinic'
loop_
_space_group_symop_operation_xyz
x,y,z
x,-y,1/2+z
1/2+x,1/2+y,z
1/2+x,1/2-y,1/2+z
loop_
_atom_site_type_symbol
_atom_site_label
_atom_site_fract_x
_atom_site_fract_y
_atom_site_fract_z
Si Si1 0.577950 0.044230 0.258810
Si Si2 0.137211 0.668853 0.465433
Si Si3 0.446182 0.005300 0.024344
Si Si4 0.905852 0.656482 0.813876
Si Si5 0.840278 0.965816 0.578438
Si Si6 0.752426 0.339850 0.082055
Si Si7 0.048930 0.947318 0.502627
Si Si8 0.357834 0.477043 0.795410
O O1 0.575214 0.170964 0.337618
O O2 0.502016 0.088330 0.136915
O O3 0.716987 0.006781 0.279364
O O4 0.525007 0.906595 0.297390
O O5 0.267960 0.586726 0.494831
O O6 0.151471 0.826660 0.513047
O O7 0.056016 0.587837 0.518124
O O8 0.338823 0.904500 0.026850
O O9 0.390196 0.102304 0.920196
O O10 0.790749 0.619140 0.705413
O O11 0.915573 0.822433 0.823175
O O12 0.752870 0.828405 0.566557
O O13 0.870982 0.034889 0.691255
O O14 0.973412 0.925233 0.577882
O O15 0.615242 0.401081 0.023569
O O16 0.942899 0.925671 0.388633
#
# Coordination Sequence:
#
# PCOD8054747 Si02
#       8
#     4   4   4   4   4   4   4   4
#     4  10  21  41  69  99 130 179 227 270 337 404
#     4  11  23  45  68  97 140 175 223 280 333 401
#     4  10  20  43  72  96 133 182 221 281 339 390
#     4   9  23  41  69 100 131 180 225 275 337 400
#     4  11  24  49  69  94 141 186 220 278 341 400
#     4  10  24  45  69  98 137 178 228 274 337 405
#     4  12  27  44  66 109 137 173 231 280 334 407
#     4  11  24  42  68 101 133 181 227 276 334 403
#
# _framework density 22.595745999999998
#
# number of rings (size 3 to 8) (size 9 to 14) (size 15 to 20)
#    0.000    1.500    3.750    0.000    5.250    1.000 
#   11.250    1.250    0.000    0.000    0.000    0.000 
#    0.000    0.000    0.000    0.000    0.000    0.000 
#
# Total GULP energy -198303.234224 kJ/mol
# GULP energy per Si atom -12393.952139 kJ/mol
# Density = 2.254432 g / cm^3
# Si number density = 22.595746 Si / 1000 Ang^3
#
#
#
# Elastic Constant Matrix: (Units=GPa)
#
#
# Indices 1 2 3 4 5 6 
#
# 1 86.0637 31.0869 47.5148 0.0000 1.2938 0.0000
# 2 31.0869 47.7482 5.8071 0.0000 0.2587 0.0000
# 3 47.5148 5.8071 130.2191 0.0000 -20.2190 0.0000
# 4 0.0000 0.0000 0.0000 25.3486 0.0000 1.3687
# 5 1.2938 0.2587 -20.2190 0.0000 34.0619 0.0000
# 6 0.0000 0.0000 0.0000 1.3687 0.0000 21.5652
#
#
#
# Elastic Compliance Matrix: (Units=1/GPa)
#
#
# Indices 1 2 3 4 5 6 
#
# 1 0.020407 -0.012319 -0.007713 0.000000 -0.005260 0.000000
# 2 -0.012319 0.028514 0.003594 0.000000 0.002385 0.000000
# 3 -0.007713 0.003594 0.011428 0.000000 0.007049 0.000000
# 4 0.000000 0.000000 0.000000 0.039586 0.000000 -0.002512
# 5 -0.005260 0.002385 0.007049 0.000000 0.033724 0.000000
# 6 0.000000 0.000000 0.000000 -0.002512 0.000000 0.046530
#
#
# Mechanical properties :
#
#
# Convention : Reuss Voigt Hill
#
# Bulk Modulus (GPa) = 36.40236 48.09428 42.24832
# Shear Modulus (GPa) = 22.49978 28.16995 25.33486
#
# Velocity S-wave (km/s) = 3.15898 3.53468 3.35210
# Velocity P-wave (km/s) = 5.42686 6.16356 5.80691
#
# Compressibility (1/GPa) = 0.02747075
#
# Stress axis : x y z
#
# Youngs Moduli (GPa) = 49.00329 35.07063 87.50308
#
# Poissons Ratio (x) = 0.43205 0.67495
# Poissons Ratio (y) = 0.60369 -0.31447
# Poissons Ratio (z) = 0.37799 -0.12604
#
# Static dielectric constant tensor:
#      x y z
#    x 3.971440 0.000000 -0.156920 
#    y 0.000000 3.830850 0.000000 
#    z -0.156920 0.000000 4.517390 
# 
# 
# High freq. dielectric constant tensor:
#      x y z
#    x 1.889850 0.000000 -0.014400 
#    y 0.000000 1.865790 0.000000 
#    z -0.014400 0.000000 1.909430 
# 
# From -- ./inp_files/24334.got.cif
#   From: 2010.06.25/outbox.cif.g09.slc.cpg/sg9_13_cif.got.tgz:24334.got - 2010.06.27 21:40:51.
