data_PCOD8054276
_publ_section_title
;
Structure prediction by ZEFSAII (Michael W. Deem and Ramdas Pophale) SiO2 
 PCOD8054276
Probable space group: C C
;
_chemical_formula_sum "Si O2"
_cell_formula_units_Z 32
_cell_length_a 13.102538
_cell_length_b 19.287145
_cell_length_c 7.778892
_cell_angle_alpha 90.000000
_cell_angle_beta 124.873845
_cell_angle_gamma 90.000000
_cell_volume 1612.774443
_symmetry_space_group_name_H-M "C C"
_symmetry_group_IT_number 9
_symmetry_cell_setting 'monoclinic'
loop_
_space_group_symop_operation_xyz
x,y,z
x,-y,1/2+z
1/2+x,1/2+y,z
1/2+x,1/2-y,1/2+z
loop_
_atom_site_type_symbol
_atom_site_label
_atom_site_fract_x
_atom_site_fract_y
_atom_site_fract_z
Si Si1 0.014210 0.146445 0.702980
Si Si2 0.289511 0.904048 0.462864
Si Si3 0.094246 0.395363 0.097462
Si Si4 0.418042 0.990907 0.330171
Si Si5 0.892614 0.085985 0.267490
Si Si6 0.006652 0.307666 0.702235
Si Si7 0.372733 0.566659 0.857254
Si Si8 0.612453 0.122606 0.978637
O O1 0.020758 0.227241 0.750599
O O2 0.975293 0.136775 0.466142
O O3 0.918347 0.116497 0.749160
O O4 0.146315 0.109661 0.859933
O O5 0.340074 0.971093 0.610553
O O6 0.363503 0.833143 0.576890
O O7 0.321665 0.932332 0.304757
O O8 0.223697 0.437148 0.212764
O O9 0.100933 0.346039 0.273825
O O10 0.086097 0.348562 0.920199
O O11 0.976343 0.447670 0.005437
O O12 0.542492 0.950825 0.394435
O O13 0.752376 0.107953 0.168514
O O14 0.922776 0.009708 0.366800
O O15 0.924669 0.091395 0.094562
O O16 0.056347 0.324149 0.560223
#
# Coordination Sequence:
#
# PCOD8054276 Si02
#       8
#     4   4   4   4   4   4   4   4
#     4  12  27  44  61  88 145 171 209 264 322 405
#     4  10  24  38  64  92 123 168 208 261 319 381
#     4  10  20  38  68  96 123 156 217 278 305 383
#     4  10  18  38  64  96 120 156 212 262 328 360
#     4  11  23  38  67  99 124 165 216 271 332 372
#     4  10  25  42  65  90 124 179 211 245 335 386
#     4  11  23  38  67  99 124 165 216 271 332 372
#     4  10  20  38  68  96 123 156 217 278 305 383
#
# _framework density 19.841584000000001
#
# number of rings (size 3 to 8) (size 9 to 14) (size 15 to 20)
#    0.000    1.500    3.750    0.750    5.250    1.000 
#    0.000    0.000    0.000    0.000    0.000    0.000 
#    0.000    0.000    0.000    0.000    0.000    0.000 
#
# Total GULP energy -198268.562004 kJ/mol
# GULP energy per Si atom -12391.785125 kJ/mol
# Density = 1.979642 g / cm^3
# Si number density = 19.841584 Si / 1000 Ang^3
#
#
#
# Elastic Constant Matrix: (Units=GPa)
#
#
# Indices 1 2 3 4 5 6 
#
# 1 72.4134 11.1894 27.4857 0.0000 -0.7500 0.0000
# 2 11.1894 73.0395 12.2973 0.0000 5.4190 0.0000
# 3 27.4857 12.2973 81.9685 0.0000 -4.8047 0.0000
# 4 0.0000 0.0000 0.0000 20.8650 0.0000 0.6449
# 5 -0.7500 5.4190 -4.8047 0.0000 34.1279 0.0000
# 6 0.0000 0.0000 0.0000 0.6449 0.0000 20.1343
#
#
#
# Elastic Compliance Matrix: (Units=1/GPa)
#
#
# Indices 1 2 3 4 5 6 
#
# 1 0.016002 -0.001578 -0.005136 0.000000 -0.000121 0.000000
# 2 -0.001578 0.014425 -0.001786 0.000000 -0.002577 0.000000
# 3 -0.005136 -0.001786 0.014318 0.000000 0.002187 0.000000
# 4 0.000000 0.000000 0.000000 0.047975 0.000000 -0.001537
# 5 -0.000121 -0.002577 0.002187 0.000000 0.030016 0.000000
# 6 0.000000 0.000000 0.000000 -0.001537 0.000000 0.049716
#
#
# Mechanical properties :
#
#
# Convention : Reuss Voigt Hill
#
# Bulk Modulus (GPa) = 36.04264 36.59624 36.31944
# Shear Modulus (GPa) = 25.16375 26.78873 25.97624
#
# Velocity S-wave (km/s) = 3.56509 3.67840 3.62219
# Velocity P-wave (km/s) = 5.92884 6.04360 5.98649
#
# Compressibility (1/GPa) = 0.02774492
#
# Stress axis : x y z
#
# Youngs Moduli (GPa) = 62.49374 69.32513 69.84136
#
# Poissons Ratio (x) = 0.10937 0.35871
# Poissons Ratio (y) = 0.09860 0.12474
# Poissons Ratio (z) = 0.32097 0.12382
#
# Static dielectric constant tensor:
#      x y z
#    x 3.578940 0.000000 -0.143270 
#    y 0.000000 3.360430 0.000000 
#    z -0.143270 0.000000 3.713550 
# 
# 
# High freq. dielectric constant tensor:
#      x y z
#    x 1.769780 0.000000 -0.008790 
#    y 0.000000 1.752520 0.000000 
#    z -0.008790 0.000000 1.785110 
# 
# From -- ./inp_files/9902.got.cif
#   From: 2010.06.25/outbox.cif.g09.slc.cpg/sg9_5_cif.got.tgz:9902.got - 2010.06.27 21:40:51.
