data_PCOD8054416
_publ_section_title
;
Structure prediction by ZEFSAII (Michael W. Deem and Ramdas Pophale) SiO2 
 PCOD8054416
Probable space group: C C
;
_chemical_formula_sum "Si O2"
_cell_formula_units_Z 32
_cell_length_a 17.818586
_cell_length_b 10.410489
_cell_length_c 17.679172
_cell_angle_alpha 90.000000
_cell_angle_beta 30.011922
_cell_angle_gamma 90.000000
_cell_volume 1640.335846
_symmetry_space_group_name_H-M "C C"
_symmetry_group_IT_number 9
_symmetry_cell_setting 'monoclinic'
loop_
_space_group_symop_operation_xyz
x,y,z
x,-y,1/2+z
1/2+x,1/2+y,z
1/2+x,1/2-y,1/2+z
loop_
_atom_site_type_symbol
_atom_site_label
_atom_site_fract_x
_atom_site_fract_y
_atom_site_fract_z
Si Si1 0.367940 0.898251 0.668300
Si Si2 0.813042 0.012777 0.782592
Si Si3 0.550803 0.923287 0.922755
Si Si4 0.068876 0.847677 0.002586
Si Si5 0.159086 0.724601 0.460296
Si Si6 0.913740 0.586879 0.759923
Si Si7 0.012114 0.609066 0.283021
Si Si8 0.249445 0.284178 0.464811
O O1 0.190689 0.870712 0.830171
O O2 0.457425 0.767078 0.575960
O O3 0.394131 0.002817 0.578361
O O4 0.434645 0.964085 0.686323
O O5 0.806230 0.130612 0.845848
O O6 0.970720 0.022450 0.600094
O O7 0.679717 0.023759 0.836884
O O8 0.796466 0.879112 0.842386
O O9 0.572332 0.791776 0.954561
O O10 0.564355 0.893233 0.823635
O O11 0.148075 0.825019 0.014459
O O12 0.242805 0.860164 0.400525
O O13 0.039151 0.694450 0.631112
O O14 0.943001 0.529294 0.818044
O O15 0.891487 0.721842 0.381663
O O16 0.160240 0.635605 0.104949
#
# Coordination Sequence:
#
# PCOD8054416 Si02
#       8
#     4   4   4   4   4   4   4   4
#     4  11  20  35  63  91 120 157 214 256 303 363
#     4  10  19  39  61  87 118 164 211 251 297 374
#     4   9  22  42  54  89 128 158 194 258 321 361
#     4  12  17  34  68  94 109 154 228 259 285 353
#     4   9  22  37  58  81 116 164 208 233 296 378
#     4  11  20  37  59  85 118 162 207 247 294 374
#     4  12  23  38  63  94 129 154 195 274 318 351
#     4  12  19  36  66  95 114 161 213 258 300 364
#
# _framework density 19.508198
#
# number of rings (size 3 to 8) (size 9 to 14) (size 15 to 20)
#    0.750    0.500    7.500    0.000    1.750    2.000 
#    0.000    3.750    0.000    0.000    0.000    0.000 
#    0.000    0.000    0.000    0.000    0.000    0.000 
#
# Total GULP energy -198278.498889 kJ/mol
# GULP energy per Si atom -12392.406181 kJ/mol
# Density = 1.946380 g / cm^3
# Si number density = 19.508198 Si / 1000 Ang^3
#
#
#
# Elastic Constant Matrix: (Units=GPa)
#
#
# Indices 1 2 3 4 5 6 
#
# 1 91.3539 33.9811 37.6841 -0.0001 15.1001 0.0001
# 2 33.9811 40.0037 35.0335 -0.0003 -1.9684 0.0001
# 3 37.6841 35.0335 123.2329 -0.0005 -12.4069 0.0002
# 4 -0.0001 -0.0003 -0.0005 40.3897 0.0002 -11.0504
# 5 15.1001 -1.9684 -12.4069 0.0002 17.5477 -0.0001
# 6 0.0001 0.0001 0.0002 -11.0504 -0.0001 23.6583
#
#
#
# Elastic Compliance Matrix: (Units=1/GPa)
#
#
# Indices 1 2 3 4 5 6 
#
# 1 0.023518 -0.016883 -0.004974 0.000000 -0.025648 0.000000
# 2 -0.016883 0.045570 -0.006261 0.000000 0.015213 0.000000
# 3 -0.004974 -0.006261 0.012678 0.000000 0.012542 0.000000
# 4 0.000000 0.000000 0.000000 0.028386 0.000000 0.013259
# 5 -0.025648 0.015213 0.012542 0.000000 0.089633 0.000000
# 6 0.000000 0.000000 0.000000 0.013259 0.000000 0.048461
#
#
# Mechanical properties :
#
#
# Convention : Reuss Voigt Hill
#
# Bulk Modulus (GPa) = 39.16851 51.99866 45.58359
# Shear Modulus (GPa) = 15.97478 26.17860 21.07669
#
# Velocity S-wave (km/s) = 2.86470 3.66721 3.29051
# Velocity P-wave (km/s) = 5.57347 6.68161 6.15254
#
# Compressibility (1/GPa) = 0.02553071
#
# Stress axis : x y z
#
# Youngs Moduli (GPa) = 42.52084 21.94411 78.87451
#
# Poissons Ratio (x) = 0.37048 0.39234
# Poissons Ratio (y) = 0.71788 0.49380
# Poissons Ratio (z) = 0.21151 0.13738
#
# Static dielectric constant tensor:
#      x y z
#    x 3.116650 0.000000 -0.109160 
#    y 0.000000 3.464140 0.000000 
#    z -0.109160 0.000000 3.834810 
# 
# 
# High freq. dielectric constant tensor:
#      x y z
#    x 1.706140 0.000000 -0.012890 
#    y 0.000000 1.754220 0.000000 
#    z -0.012890 0.000000 1.776230 
# 
# From -- ./inp_files/31001.got.cif
#   From: 2010.06.25/outbox.cif.g09.slc.cpg/sg9_16_cif.got.tgz:31001.got - 2010.06.27 21:40:51.
