data_PCOD8054750
_publ_section_title
;
Structure prediction by ZEFSAII (Michael W. Deem and Ramdas Pophale) SiO2 
 PCOD8054750
Probable space group: C C
;
_chemical_formula_sum "Si O2"
_cell_formula_units_Z 32
_cell_length_a 18.892004
_cell_length_b 13.749576
_cell_length_c 10.202952
_cell_angle_alpha 90.000000
_cell_angle_beta 34.558618
_cell_angle_gamma 90.000000
_cell_volume 1503.373817
_symmetry_space_group_name_H-M "C C"
_symmetry_group_IT_number 9
_symmetry_cell_setting 'monoclinic'
loop_
_space_group_symop_operation_xyz
x,y,z
x,-y,1/2+z
1/2+x,1/2+y,z
1/2+x,1/2-y,1/2+z
loop_
_atom_site_type_symbol
_atom_site_label
_atom_site_fract_x
_atom_site_fract_y
_atom_site_fract_z
Si Si1 0.950300 0.936882 0.283580
Si Si2 0.878633 0.313790 0.516373
Si Si3 0.732445 0.578709 0.426866
Si Si4 0.797667 0.631898 0.862246
Si Si5 0.896454 0.905206 0.647575
Si Si6 0.278617 0.717217 0.905751
Si Si7 0.538198 0.204965 0.406277
Si Si8 0.144888 0.700020 0.521757
O O1 0.895981 0.964408 0.510354
O O2 0.876954 0.841991 0.342256
O O3 0.937864 0.026439 0.203397
O O4 0.094488 0.909697 0.078676
O O5 0.825021 0.413524 0.660124
O O6 0.835366 0.305218 0.432647
O O7 0.823730 0.221403 0.684369
O O8 0.028385 0.317240 0.295862
O O9 0.756249 0.476811 0.462330
O O10 0.767610 0.668743 0.471241
O O11 0.916317 0.635788 0.582399
O O12 0.680927 0.685986 0.975077
O O13 0.994519 0.817473 0.478001
O O14 0.758807 0.867943 0.892849
O O15 0.135117 0.679105 0.140379
O O16 0.613665 0.175832 0.420678
#
# Coordination Sequence:
#
# PCOD8054750 Si02
#       8
#     4   4   4   4   4   4   4   4
#     4  12  25  42  68  96 131 172 221 274 324 391
#     4   9  23  40  61  96 128 166 212 264 328 380
#     4  10  24  42  64  98 126 170 215 268 321 393
#     4  10  22  39  70  92 130 168 217 265 320 390
#     4  11  24  41  67 100 128 173 222 267 331 388
#     4  10  23  43  64  92 133 167 215 266 327 383
#     4  10  20  44  65  91 127 173 214 262 328 387
#     4  10  21  41  65  93 133 169 214 266 327 390
#
# _framework density 21.285457999999998
#
# number of rings (size 3 to 8) (size 9 to 14) (size 15 to 20)
#    0.750    1.000    2.500    0.750    3.500    5.000 
#    0.000    2.500    0.000    0.000    0.000    0.000 
#    0.000    0.000    0.000    0.000    0.000    0.000 
#
# Total GULP energy -198221.304564 kJ/mol
# GULP energy per Si atom -12388.831535 kJ/mol
# Density = 2.123701 g / cm^3
# Si number density = 21.285458 Si / 1000 Ang^3
#
#
#
# Elastic Constant Matrix: (Units=GPa)
#
#
# Indices 1 2 3 4 5 6 
#
# 1 66.9423 25.5061 41.2278 0.0000 -9.1361 0.0000
# 2 25.5061 78.8628 23.0579 0.0000 -20.0872 0.0000
# 3 41.2278 23.0579 180.3564 0.0000 -14.6526 0.0000
# 4 0.0000 0.0000 0.0000 20.0041 0.0000 -0.1784
# 5 -9.1361 -20.0872 -14.6526 0.0000 36.0815 0.0000
# 6 0.0000 0.0000 0.0000 -0.1784 0.0000 38.7858
#
#
#
# Elastic Compliance Matrix: (Units=1/GPa)
#
#
# Indices 1 2 3 4 5 6 
#
# 1 0.019195 -0.004976 -0.003704 0.000000 0.000586 0.000000
# 2 -0.004976 0.016349 -0.000326 0.000000 0.007709 0.000000
# 3 -0.003704 -0.000326 0.006558 0.000000 0.001544 0.000000
# 4 0.000000 0.000000 0.000000 0.049992 0.000000 0.000230
# 5 0.000586 0.007709 0.001544 0.000000 0.032782 0.000000
# 6 0.000000 0.000000 0.000000 0.000230 0.000000 0.025784
#
#
# Mechanical properties :
#
#
# Convention : Reuss Voigt Hill
#
# Bulk Modulus (GPa) = 41.51181 56.19390 48.85286
# Shear Modulus (GPa) = 28.29609 34.73225 31.51417
#
# Velocity S-wave (km/s) = 3.65000 4.04386 3.85196
# Velocity P-wave (km/s) = 6.10803 6.94703 6.54100
#
# Compressibility (1/GPa) = 0.02408953
#
# Stress axis : x y z
#
# Youngs Moduli (GPa) = 52.09580 61.16735 152.47509
#
# Poissons Ratio (x) = 0.30437 0.56479
# Poissons Ratio (y) = 0.25923 0.04976
# Poissons Ratio (z) = 0.19297 0.01996
#
# Static dielectric constant tensor:
#      x y z
#    x 3.617410 0.000000 -0.017790 
#    y 0.000000 3.574950 0.000000 
#    z -0.017790 0.000000 4.186660 
# 
# 
# High freq. dielectric constant tensor:
#      x y z
#    x 1.817600 0.000000 -0.006700 
#    y 0.000000 1.810690 0.000000 
#    z -0.006700 0.000000 1.858260 
# 
# From -- ./inp_files/20343.got.cif
#   From: 2010.06.25/outbox.cif.g09.slc.cpg/sg9_11_cif.got.tgz:20343.got - 2010.06.27 21:40:51.
