data_PCOD8054124
_publ_section_title
;
Structure prediction by ZEFSAII (Michael W. Deem and Ramdas Pophale) SiO2 
 PCOD8054124
Probable space group: C M
;
_chemical_formula_sum "Si O2"
_cell_formula_units_Z 20
_cell_length_a 10.996431
_cell_length_b 9.712721
_cell_length_c 8.363983
_cell_angle_alpha 90.000000
_cell_angle_beta 72.378033
_cell_angle_gamma 90.000000
_cell_volume 851.398217
_symmetry_space_group_name_H-M "C M"
_symmetry_group_IT_number 8
_symmetry_cell_setting 'monoclinic'
loop_
_space_group_symop_operation_xyz
x,y,z
x,-y,z
1/2+x,1/2+y,z
1/2+x,1/2-y,z
loop_
_atom_site_type_symbol
_atom_site_label
_atom_site_fract_x
_atom_site_fract_y
_atom_site_fract_z
Si Si1 0.934051 0.000000 0.251951
Si Si2 0.722179 0.500000 0.046403
Si Si3 0.641812 0.717707 0.541666
Si Si4 0.926882 0.000000 0.620750
Si Si5 0.782786 0.500000 0.674559
Si Si6 0.762593 0.777022 0.166626
Si Si7 0.562762 0.000000 0.702946
Si Si8 0.188854 0.500000 0.956178
O O1 0.882144 0.000000 0.453837
O O2 0.883446 0.862818 0.182755
O O3 0.086146 0.000000 0.189190
O O4 0.804230 0.634385 0.064981
O O5 0.694306 0.500000 0.867637
O O6 0.510721 0.635864 0.622347
O O7 0.758328 0.635074 0.577537
O O8 0.665090 0.736156 0.344995
O O9 0.640915 0.866464 0.620220
O O10 0.810235 0.000000 0.788947
O O11 0.926334 0.500000 0.677199
O O12 0.685388 0.865530 0.067674
O O13 0.561292 0.000000 0.897372
#
# Coordination Sequence:
#
# PCOD8054124 Si02
#       8
#     2   2   4   2   2   4   2   2
#     4  11  25  45  75 102 155 201 235 308 380 440
#     4  12  25  45  68 113 147 192 252 306 371 432
#     4  11  25  49  75 106 153 193 252 304 376 443
#     4  11  24  49  78 106 153 205 238 308 378 448
#     4  11  29  45  73 111 147 202 250 300 379 447
#     4  11  25  46  74 110 145 196 244 307 370 444
#     4  12  27  45  78 108 144 198 251 314 353 455
#     4  11  26  47  78 112 154 194 254 304 383 438
#
# _framework density 23.490770000000001
#
# number of rings (size 3 to 8) (size 9 to 14) (size 15 to 20)
#    0.000    0.800    2.000    4.200   14.000    1.600 
#    0.000    1.000    0.000    0.000    0.000    0.000 
#    0.000    0.000    0.000    0.000    0.000    0.000 
#
# Total GULP energy -124031.438461 kJ/mol
# GULP energy per Si atom -12403.143846 kJ/mol
# Density = 2.343730 g / cm^3
# Si number density = 23.490770 Si / 1000 Ang^3
#
#
#
# Elastic Constant Matrix: (Units=GPa)
#
#
# Indices 1 2 3 4 5 6 
#
# 1 106.8730 52.1792 37.9543 0.0000 24.1999 0.0000
# 2 52.1792 213.5769 62.7925 0.0000 27.6030 0.0000
# 3 37.9543 62.7925 160.1503 0.0000 24.1278 0.0000
# 4 0.0000 0.0000 0.0000 31.8808 0.0000 -23.3514
# 5 24.1999 27.6030 24.1278 0.0000 46.9499 0.0000
# 6 0.0000 0.0000 0.0000 -23.3514 0.0000 -38.4651
#
#
#
# Elastic Compliance Matrix: (Units=1/GPa)
#
#
# Indices 1 2 3 4 5 6 
#
# 1 0.011740 -0.001913 -0.001398 0.000000 -0.004208 0.000000
# 2 -0.001913 0.005826 -0.001586 0.000000 -0.001624 0.000000
# 3 -0.001398 -0.001586 0.007531 0.000000 -0.002217 0.000000
# 4 0.000000 0.000000 0.000000 0.021712 0.000000 -0.013181
# 5 -0.004208 -0.001624 -0.002217 0.000000 0.025562 0.000000
# 6 0.000000 0.000000 0.000000 -0.013181 0.000000 -0.017996
#
#
# Mechanical properties :
#
#
# Convention : Reuss Voigt Hill
#
# Bulk Modulus (GPa) = 65.34973 87.38358 76.36665
# Shear Modulus (GPa) = 72.17822 29.91807 51.04815
#
# Velocity S-wave (km/s) = 5.54914 3.57264 4.66673
# Velocity P-wave (km/s) = 8.30283 7.36873 7.84969
#
# Compressibility (1/GPa) = 0.01530228
#
# Stress axis : x y z
#
# Youngs Moduli (GPa) = 85.17525 171.65018 132.77689
#
# Poissons Ratio (x) = 0.32843 0.18565
# Poissons Ratio (y) = 0.16297 0.21060
# Poissons Ratio (z) = 0.11909 0.27226
#
# Static dielectric constant tensor:
#      x y z
#    x 3.902690 0.000000 0.330640 
#    y 0.000000 4.657950 0.000000 
#    z 0.330640 0.000000 4.465220 
# 
# 
# High freq. dielectric constant tensor:
#      x y z
#    x 1.915260 0.000000 0.020590 
#    y 0.000000 1.952140 0.000000 
#    z 0.020590 0.000000 1.942380 
# 
# From -- ./inp_files/9659.got.cif
#   From: 2010.03.12/outbox.cif.g09.slc.cpg/sg8_5_cif.got.tgz:9659.got - 2010.03.31 10:45:26.
