data_PCOD8054848
_publ_section_title
;
Structure prediction by ZEFSAII (Michael W. Deem and Ramdas Pophale) SiO2 
 PCOD8054848
Probable space group: C C
;
_chemical_formula_sum "Si O2"
_cell_formula_units_Z 24
_cell_length_a 5.271786
_cell_length_b 13.986749
_cell_length_c 13.713920
_cell_angle_alpha 90.000000
_cell_angle_beta 94.921958
_cell_angle_gamma 90.000000
_cell_volume 1007.469110
_symmetry_space_group_name_H-M "C C"
_symmetry_group_IT_number 9
_symmetry_cell_setting 'monoclinic'
loop_
_space_group_symop_operation_xyz
x,y,z
x,-y,1/2+z
1/2+x,1/2+y,z
1/2+x,1/2-y,1/2+z
loop_
_atom_site_type_symbol
_atom_site_label
_atom_site_fract_x
_atom_site_fract_y
_atom_site_fract_z
Si Si1 0.295950 0.717282 0.419380
Si Si2 0.928761 0.018756 0.110246
Si Si3 0.481622 0.304087 0.138923
Si Si4 0.495572 0.290821 0.722368
Si Si5 0.113299 0.076929 0.920869
Si Si6 0.617185 0.013175 0.423274
O O1 0.457941 0.714497 0.523167
O O2 0.502972 0.716001 0.339661
O O3 0.113725 0.809251 0.407969
O O4 0.108769 0.626591 0.405916
O O5 0.975783 0.916817 0.163101
O O6 0.933842 0.099852 0.192106
O O7 0.662084 0.012218 0.039965
O O8 0.141449 0.045876 0.035675
O O9 0.761169 0.271676 0.176970
O O10 0.262021 0.247358 0.189377
O O11 0.355504 0.030611 0.874294
O O12 0.849204 0.034990 0.868776
#
# Coordination Sequence:
#
# PCOD8054848 Si02
#       6
#     4   4   4   4   4   4
#     4  11  25  44  73  99 137 181 225 278 340 397
#     4   9  23  40  68  91 136 176 218 276 335 392
#     4  11  26  46  68  98 143 174 224 282 338 394
#     4  12  27  43  70 105 133 179 232 273 334 412
#     4  10  21  38  66  94 128 178 215 270 335 389
#     4   9  22  39  67  93 127 174 220 271 334 394
#
# _framework density 23.822068999999999
#
# number of rings (size 3 to 8) (size 9 to 14) (size 15 to 20)
#    1.000    0.667    1.667    1.000    4.667    8.000 
#    0.000    0.000    0.000    0.000    0.000    0.000 
#    0.000    0.000    0.000    0.000    0.000    0.000 
#
# Total GULP energy -148735.219669 kJ/mol
# GULP energy per Si atom -12394.601639 kJ/mol
# Density = 2.376785 g / cm^3
# Si number density = 23.822069 Si / 1000 Ang^3
#
#
#
# Elastic Constant Matrix: (Units=GPa)
#
#
# Indices 1 2 3 4 5 6 
#
# 1 117.0150 37.3422 6.9141 0.0000 -9.4527 0.0000
# 2 37.3422 186.4571 15.6984 0.0000 -10.0505 0.0000
# 3 6.9141 15.6984 93.9005 0.0000 -23.7039 0.0000
# 4 0.0000 0.0000 0.0000 -67.8670 0.0000 10.5722
# 5 -9.4527 -10.0505 -23.7039 0.0000 15.3780 0.0000
# 6 0.0000 0.0000 0.0000 10.5722 0.0000 17.5547
#
#
#
# Elastic Compliance Matrix: (Units=1/GPa)
#
#
# Indices 1 2 3 4 5 6 
#
# 1 0.009544 -0.001655 0.001280 0.000000 0.006758 0.000000
# 2 -0.001655 0.005846 -0.000242 0.000000 0.002431 0.000000
# 3 0.001280 -0.000242 0.017605 0.000000 0.027765 0.000000
# 4 0.000000 0.000000 0.000000 -0.013471 0.000000 0.008113
# 5 0.006758 0.002431 0.027765 0.000000 0.113568 0.000000
# 6 0.000000 0.000000 0.000000 0.008113 0.000000 0.052079
#
#
# Mechanical properties :
#
#
# Convention : Reuss Voigt Hill
#
# Bulk Modulus (GPa) = 31.48522 57.47576 44.48049
# Shear Modulus (GPa) = 25.38181 15.50766 20.44474
#
# Velocity S-wave (km/s) = 3.26770 2.55420 2.93273
# Velocity P-wave (km/s) = 5.24239 5.73394 5.49367
#
# Compressibility (1/GPa) = 0.03176094
#
# Stress axis : x y z
#
# Youngs Moduli (GPa) = 104.77405 171.05754 56.80335
#
# Poissons Ratio (x) = 0.28309 -0.07270
# Poissons Ratio (y) = 0.17340 0.01374
# Poissons Ratio (z) = -0.13410 0.04138
#
# Static dielectric constant tensor:
#      x y z
#    x 4.026740 0.000000 -0.219430 
#    y 0.000000 4.691600 0.000000 
#    z -0.219430 0.000000 4.218120 
# 
# 
# High freq. dielectric constant tensor:
#      x y z
#    x 1.927710 0.000000 -0.007390 
#    y 0.000000 1.963080 0.000000 
#    z -0.007390 0.000000 1.930230 
# 
# From -- ./inp_files/21736.got.cif
#   From: 2010.06.25/outbox.cif.g09.slc.cpg/sg9_11_cif.got.tgz:21736.got - 2010.06.27 21:40:51.
