data_PCOD8054961
_publ_section_title
;
Structure prediction by ZEFSAII (Michael W. Deem and Ramdas Pophale) SiO2 
 PCOD8054961
Probable space group: C C
;
_chemical_formula_sum "Si O2"
_cell_formula_units_Z 32
_cell_length_a 14.308264
_cell_length_b 21.608215
_cell_length_c 8.552043
_cell_angle_alpha 90.000000
_cell_angle_beta 35.839361
_cell_angle_gamma 90.000000
_cell_volume 1548.151762
_symmetry_space_group_name_H-M "C C"
_symmetry_group_IT_number 9
_symmetry_cell_setting 'monoclinic'
loop_
_space_group_symop_operation_xyz
x,y,z
x,-y,1/2+z
1/2+x,1/2+y,z
1/2+x,1/2-y,1/2+z
loop_
_atom_site_type_symbol
_atom_site_label
_atom_site_fract_x
_atom_site_fract_y
_atom_site_fract_z
Si Si1 0.076680 0.858189 0.113330
Si Si2 0.433660 0.956639 0.476521
Si Si3 0.363255 0.677338 0.160696
Si Si4 0.244413 0.963402 0.033648
Si Si5 0.793013 0.945178 0.921151
Si Si6 0.589752 0.267187 0.607156
Si Si7 0.473487 0.549057 0.481863
Si Si8 0.311050 0.823778 0.565662
O O1 0.930469 0.822425 0.391349
O O2 0.028461 0.897246 0.024703
O O3 0.141901 0.900585 0.168620
O O4 0.216550 0.813484 0.858744
O O5 0.389415 0.953628 0.716608
O O6 0.375959 0.894268 0.464871
O O7 0.338002 0.019633 0.563205
O O8 0.616746 0.969536 0.194961
O O9 0.286623 0.612263 0.312485
O O10 0.503112 0.692691 0.093223
O O11 0.222160 0.726190 0.342828
O O12 0.119446 0.020046 0.184195
O O13 0.891226 0.998911 0.705113
O O14 0.858773 0.924539 0.002440
O O15 0.683072 0.311377 0.601142
O O16 0.458274 0.223950 0.870257
#
# Coordination Sequence:
#
# PCOD8054961 Si02
#       8
#     4   4   4   4   4   4   4   4
#     4  11  23  38  64  93 121 156 202 247 301 368
#     4  11  23  36  58  89 126 155 196 243 292 357
#     4  11  23  40  65  88 120 156 208 254 305 356
#     4  11  20  37  59  87 122 157 193 233 293 368
#     4  12  22  38  59  90 125 161 197 245 301 357
#     4  10  23  42  65  85 113 164 204 260 305 346
#     4  12  21  38  62  91 123 162 197 236 298 375
#     4  10  21  41  62  87 116 155 205 248 305 353
#
# _framework density 20.669808
#
# number of rings (size 3 to 8) (size 9 to 14) (size 15 to 20)
#    0.000    1.000    6.250    1.500    0.000    1.000 
#    0.000    0.000   11.000    0.000    0.000    0.000 
#    0.000    0.000    0.000    0.000    0.000    0.000 
#
# Total GULP energy -198238.336257 kJ/mol
# GULP energy per Si atom -12389.896016 kJ/mol
# Density = 2.062276 g / cm^3
# Si number density = 20.669808 Si / 1000 Ang^3
#
#
#
# Elastic Constant Matrix: (Units=GPa)
#
#
# Indices 1 2 3 4 5 6 
#
# 1 39.2158 10.4688 28.2012 0.0000 -9.1759 0.0000
# 2 10.4688 48.0065 32.0172 0.0000 9.1473 0.0000
# 3 28.2012 32.0172 134.6159 -0.0001 2.6521 0.0001
# 4 0.0000 0.0000 -0.0001 32.2488 0.0001 3.7635
# 5 -9.1759 9.1473 2.6521 0.0001 31.1393 0.0000
# 6 0.0000 0.0000 0.0001 3.7635 0.0000 19.3120
#
#
#
# Elastic Compliance Matrix: (Units=1/GPa)
#
#
# Indices 1 2 3 4 5 6 
#
# 1 0.034275 -0.005788 -0.006046 0.000000 0.012315 0.000000
# 2 -0.005788 0.027253 -0.005086 0.000000 -0.009278 0.000000
# 3 -0.006046 -0.005086 0.009927 0.000000 -0.001133 0.000000
# 4 0.000000 0.000000 0.000000 0.031731 0.000000 -0.006184
# 5 0.012315 -0.009278 -0.001133 0.000000 0.038565 0.000000
# 6 0.000000 0.000000 0.000000 -0.006184 0.000000 0.052986
#
#
# Mechanical properties :
#
#
# Convention : Reuss Voigt Hill
#
# Bulk Modulus (GPa) = 26.58669 40.35694 33.47182
# Shear Modulus (GPa) = 20.73685 26.61674 23.67680
#
# Velocity S-wave (km/s) = 3.17084 3.59236 3.38816
# Velocity P-wave (km/s) = 5.12797 6.06413 5.61560
#
# Compressibility (1/GPa) = 0.03761281
#
# Stress axis : x y z
#
# Youngs Moduli (GPa) = 29.17597 36.69315 100.73246
#
# Poissons Ratio (x) = 0.21240 0.60905
# Poissons Ratio (y) = 0.16888 0.51237
# Poissons Ratio (z) = 0.17640 0.18664
#
# Static dielectric constant tensor:
#      x y z
#    x 3.635430 0.000000 -0.092600 
#    y 0.000000 3.742600 0.000000 
#    z -0.092600 0.000000 4.060560 
# 
# 
# High freq. dielectric constant tensor:
#      x y z
#    x 1.795020 0.000000 -0.006820 
#    y 0.000000 1.795110 0.000000 
#    z -0.006820 0.000000 1.833790 
# 
# From -- ./inp_files/6148.got.cif
#   From: 2010.06.25/outbox.cif.g09.slc.cpg/sg9_4_cif.got.tgz:6148.got - 2010.06.27 21:40:51.
