data_PCOD8054613
_publ_section_title
;
Structure prediction by ZEFSAII (Michael W. Deem and Ramdas Pophale) SiO2 
 PCOD8054613
Probable space group: C C
;
_chemical_formula_sum "Si O2"
_cell_formula_units_Z 32
_cell_length_a 11.582355
_cell_length_b 15.838952
_cell_length_c 17.111954
_cell_angle_alpha 90.000000
_cell_angle_beta 147.550996
_cell_angle_gamma 90.000000
_cell_volume 1684.349048
_symmetry_space_group_name_H-M "C C"
_symmetry_group_IT_number 9
_symmetry_cell_setting 'monoclinic'
loop_
_space_group_symop_operation_xyz
x,y,z
x,-y,1/2+z
1/2+x,1/2+y,z
1/2+x,1/2-y,1/2+z
loop_
_atom_site_type_symbol
_atom_site_label
_atom_site_fract_x
_atom_site_fract_y
_atom_site_fract_z
Si Si1 0.191460 0.440597 0.112280
Si Si2 0.941669 0.970375 0.974286
Si Si3 0.992807 0.271187 0.986307
Si Si4 0.259316 0.432164 0.513666
Si Si5 0.016939 0.765817 0.677115
Si Si6 0.084821 0.112404 0.939359
Si Si7 0.867723 0.385884 0.189583
Si Si8 0.009026 0.528979 0.153451
O O1 0.416643 0.404776 0.273864
O O2 0.036324 0.477886 0.089640
O O3 0.219739 0.516126 0.068861
O O4 0.068238 0.363204 0.000229
O O5 0.736711 0.930672 0.811124
O O6 0.870098 0.002595 0.017799
O O7 0.030833 0.051390 0.980048
O O8 0.126997 0.899128 0.086587
O O9 0.738314 0.264587 0.850635
O O10 0.079714 0.206195 0.971428
O O11 0.078704 0.257148 0.123313
O O12 0.420821 0.358243 0.628438
O O13 0.041570 0.386956 0.358762
O O14 0.866507 0.698779 0.636574
O O15 0.324489 0.099908 0.040957
O O16 0.929768 0.463417 0.171638
#
# Coordination Sequence:
#
# PCOD8054613 Si02
#       8
#     4   4   4   4   4   4   4   4
#     4  11  24  38  61  96 125 162 209 257 312 372
#     4   9  19  37  62  86 121 163 202 251 315 364
#     4  12  22  39  65  92 124 160 213 261 302 365
#     4  11  24  38  61  96 125 162 209 257 312 372
#     4  12  22  39  65  92 124 160 213 261 302 365
#     4  10  20  39  62  90 124 158 210 259 302 369
#     4  10  20  39  62  90 124 158 210 259 302 369
#     4   9  19  37  62  86 121 163 202 251 315 364
#
# _framework density 18.998438
#
# number of rings (size 3 to 8) (size 9 to 14) (size 15 to 20)
#    0.000    1.500    5.000    0.750    3.500    2.000 
#    0.000    1.250    0.000    0.000    0.000    0.000 
#    0.000    0.000    0.000    0.000    0.000    0.000 
#
# Total GULP energy -198387.894737 kJ/mol
# GULP energy per Si atom -12399.243421 kJ/mol
# Density = 1.895520 g / cm^3
# Si number density = 18.998438 Si / 1000 Ang^3
#
#
#
# Elastic Constant Matrix: (Units=GPa)
#
#
# Indices 1 2 3 4 5 6 
#
# 1 37.2387 20.6305 44.1055 -0.0018 14.7424 -0.0001
# 2 20.6305 85.6732 37.1710 0.0033 9.5248 0.0011
# 3 44.1055 37.1710 89.0463 0.0106 16.2249 0.0031
# 4 -0.0018 0.0033 0.0106 23.2742 0.0022 6.5677
# 5 14.7424 9.5248 16.2249 0.0022 35.5427 -0.0001
# 6 -0.0001 0.0011 0.0031 6.5677 -0.0001 33.2886
#
#
#
# Elastic Compliance Matrix: (Units=1/GPa)
#
#
# Indices 1 2 3 4 5 6 
#
# 1 0.071563 -0.001692 -0.032082 0.000022 -0.014584 -0.000001
# 2 -0.001692 0.014341 -0.004991 0.000000 -0.000863 0.000000
# 3 -0.032082 -0.004991 0.028943 -0.000015 0.001432 0.000000
# 4 0.000022 0.000000 -0.000015 0.045499 -0.000005 -0.008977
# 5 -0.014584 -0.000863 0.001432 -0.000005 0.033762 0.000001
# 6 -0.000001 0.000000 0.000000 -0.008977 0.000001 0.031811
#
#
# Mechanical properties :
#
#
# Convention : Reuss Voigt Hill
#
# Bulk Modulus (GPa) = 26.79754 46.19691 36.49723
# Shear Modulus (GPa) = 15.82830 25.75784 20.79307
#
# Velocity S-wave (km/s) = 2.88954 3.68610 3.31185
# Velocity P-wave (km/s) = 5.02676 6.51808 5.82038
#
# Compressibility (1/GPa) = 0.03731685
#
# Stress axis : x y z
#
# Youngs Moduli (GPa) = 13.97368 69.72931 34.55020
#
# Poissons Ratio (x) = 0.11796 1.10845
# Poissons Ratio (y) = 0.02364 0.17245
# Poissons Ratio (z) = 0.44831 0.34804
#
# Static dielectric constant tensor:
#      x y z
#    x 3.486690 0.000000 0.269560 
#    y 0.000000 3.390220 0.000000 
#    z 0.269560 0.000000 3.873070 
# 
# 
# High freq. dielectric constant tensor:
#      x y z
#    x 1.727080 0.000000 0.003250 
#    y 0.000000 1.724250 0.000000 
#    z 0.003250 0.000000 1.750250 
# 
# From -- ./inp_files/7497.got.cif
#   From: 2010.06.25/outbox.cif.g09.slc.cpg/sg9_4_cif.got.tgz:7497.got - 2010.06.27 21:40:51.
