data_PCOD8054462
_publ_section_title
;
Structure prediction by ZEFSAII (Michael W. Deem and Ramdas Pophale) SiO2 
 PCOD8054462
Probable space group: C C
;
_chemical_formula_sum "Si O2"
_cell_formula_units_Z 28
_cell_length_a 15.452573
_cell_length_b 18.863845
_cell_length_c 5.285217
_cell_angle_alpha 90.000000
_cell_angle_beta 69.687964
_cell_angle_gamma 90.000000
_cell_volume 1444.812532
_symmetry_space_group_name_H-M "C C"
_symmetry_group_IT_number 9
_symmetry_cell_setting 'monoclinic'
loop_
_space_group_symop_operation_xyz
x,y,z
x,-y,1/2+z
1/2+x,1/2+y,z
1/2+x,1/2-y,1/2+z
loop_
_atom_site_type_symbol
_atom_site_label
_atom_site_fract_x
_atom_site_fract_y
_atom_site_fract_z
Si Si1 0.476790 0.812356 0.380990
Si Si2 0.371009 0.690397 0.690647
Si Si3 0.180688 0.823263 0.250179
Si Si4 0.883602 0.324203 0.968099
Si Si5 0.891233 0.972619 0.169007
Si Si6 0.673086 0.766833 0.262081
Si Si7 0.095607 0.031938 0.905851
O O1 0.440745 0.730163 0.424716
O O2 0.430546 0.854990 0.663575
O O3 0.586956 0.818190 0.293190
O O4 0.445775 0.845221 0.145199
O O5 0.372395 0.737876 0.947664
O O6 0.405100 0.610880 0.701346
O O7 0.266315 0.687646 0.691217
O O8 0.184923 0.784885 0.514340
O O9 0.105089 0.884669 0.348036
O O10 0.281708 0.857101 0.098006
O O11 0.150441 0.773925 0.046933
O O12 0.837591 0.008918 0.461051
O O13 0.988180 0.012233 0.024564
O O14 0.143380 0.990692 0.621393
#
# Coordination Sequence:
#
# PCOD8054462 Si02
#       7
#     4   4   4   4   4   4   4
#     4  10  20  32  54  81 107 140 184 223 296 320
#     4   9  22  36  53  78 121 136 198 218 287 331
#     4  11  20  36  53  79 114 147 197 220 284 331
#     4   9  19  35  53  78 107 149 174 248 275 321
#     4  10  23  33  50  76 109 156 177 216 271 338
#     4  11  22  33  59  81 107 157 179 250 274 327
#     4  10  22  33  48  77 111 147 181 211 269 344
#
# _framework density 19.379674999999999
#
# number of rings (size 3 to 8) (size 9 to 14) (size 15 to 20)
#    0.857    1.143    1.429    1.714   10.000    0.000 
#    0.000    0.000    0.000    0.000    0.000    6.000 
#    0.000    0.000    0.000    0.000    0.000    0.000 
#
# Total GULP energy -173445.873050 kJ/mol
# GULP energy per Si atom -12388.990932 kJ/mol
# Density = 1.933557 g / cm^3
# Si number density = 19.379675 Si / 1000 Ang^3
#
#
#
# Elastic Constant Matrix: (Units=GPa)
#
#
# Indices 1 2 3 4 5 6 
#
# 1 98.9322 0.3135 31.4126 0.0000 1.2222 0.0000
# 2 0.3135 41.2846 9.5892 0.0000 0.5325 0.0000
# 3 31.4126 9.5892 104.7609 0.0000 30.5955 0.0000
# 4 0.0000 0.0000 0.0000 20.9751 0.0000 -4.8413
# 5 1.2222 0.5325 30.5955 0.0000 44.9234 0.0000
# 6 0.0000 0.0000 0.0000 -4.8413 0.0000 19.9589
#
#
#
# Elastic Compliance Matrix: (Units=1/GPa)
#
#
# Indices 1 2 3 4 5 6 
#
# 1 0.011426 0.000869 -0.004259 0.000000 0.002579 0.000000
# 2 0.000869 0.024902 -0.003054 0.000000 0.001761 0.000000
# 3 -0.004259 -0.003054 0.013803 0.000000 -0.009249 0.000000
# 4 0.000000 0.000000 0.000000 0.050503 0.000000 0.012250
# 5 0.002579 0.001761 -0.009249 0.000000 0.028468 0.000000
# 6 0.000000 0.000000 0.000000 0.012250 0.000000 0.053074
#
#
# Mechanical properties :
#
#
# Convention : Reuss Voigt Hill
#
# Bulk Modulus (GPa) = 26.85080 36.40091 31.62586
# Shear Modulus (GPa) = 24.09882 30.74898 27.42390
#
# Velocity S-wave (km/s) = 3.53017 3.98761 3.76584
# Velocity P-wave (km/s) = 5.52280 6.32655 5.93829
#
# Compressibility (1/GPa) = 0.03724284
#
# Stress axis : x y z
#
# Youngs Moduli (GPa) = 87.52311 40.15702 72.44668
#
# Poissons Ratio (x) = -0.03490 0.30854
# Poissons Ratio (y) = -0.07607 0.22129
# Poissons Ratio (z) = 0.37274 0.12266
#
# Static dielectric constant tensor:
#      x y z
#    x 3.729220 0.000000 0.542970 
#    y 0.000000 2.952490 0.000000 
#    z 0.542970 0.000000 4.496350 
# 
# 
# High freq. dielectric constant tensor:
#      x y z
#    x 1.746010 0.000000 0.019570 
#    y 0.000000 1.690110 0.000000 
#    z 0.019570 0.000000 1.774820 
# 
# From -- ./inp_files/2479.got.cif
#   From: 2010.06.25/outbox.cif.g09.slc.cpg/sg9_2_cif.got.tgz:2479.got - 2010.06.27 21:40:51.
