data_PCOD8054076
_publ_section_title
;
Structure prediction by ZEFSAII (Michael W. Deem and Ramdas Pophale) SiO2 
 PCOD8054076
Probable space group: C M
;
_chemical_formula_sum "Si O2"
_cell_formula_units_Z 32
_cell_length_a 25.366591
_cell_length_b 8.762032
_cell_length_c 16.816466
_cell_angle_alpha 90.000000
_cell_angle_beta 154.463162
_cell_angle_gamma 90.000000
_cell_volume 1611.279766
_symmetry_space_group_name_H-M "C M"
_symmetry_group_IT_number 8
_symmetry_cell_setting 'monoclinic'
loop_
_space_group_symop_operation_xyz
x,y,z
x,-y,z
1/2+x,1/2+y,z
1/2+x,1/2-y,z
loop_
_atom_site_type_symbol
_atom_site_label
_atom_site_fract_x
_atom_site_fract_y
_atom_site_fract_z
Si Si1 0.304930 0.319594 0.354940
Si Si2 0.177396 0.821029 0.584826
Si Si3 0.494762 0.323401 0.204815
Si Si4 0.914218 0.672197 0.829629
Si Si5 0.098480 0.317624 0.955830
Si Si6 0.563453 0.180230 0.730630
Si Si7 0.623236 0.828076 0.242399
Si Si8 0.235729 0.179335 0.837301
O O1 0.323236 0.500000 0.376990
O O2 0.434995 0.240226 0.523766
O O3 0.239378 0.271769 0.348514
O O4 0.223316 0.263754 0.168910
O O5 0.288342 0.744165 0.684673
O O6 0.176529 0.759295 0.674055
O O7 0.048597 0.789648 0.366274
O O8 0.206439 0.000000 0.629690
O O9 0.457297 0.500000 0.145228
O O10 0.602015 0.284350 0.287766
O O11 0.379393 0.215605 0.033979
O O12 0.883302 0.500000 0.762568
O O13 0.981394 0.750233 0.845186
O O14 0.003213 0.675959 0.025631
O O15 0.094087 0.500000 0.953960
O O16 0.092700 0.254705 0.858442
O O17 0.672097 0.232964 0.822164
O O18 0.559678 0.000000 0.727690
O O19 0.645619 0.000000 0.303989
O O20 0.215893 0.000000 0.821518
#
# Coordination Sequence:
#
# PCOD8054076 Si02
#       8
#     4   4   4   4   4   4   4   4
#     4   9  19  37  59  84 113 153 195 228 269 337
#     4   9  19  34  57  83 109 148 193 227 270 342
#     4  11  22  35  57  89 116 142 186 243 289 328
#     4   8  13  29  56  82 108 146 191 223 259 331
#     4   8  17  33  56  82 113 151 188 225 271 336
#     4  11  23  38  59  87 115 146 188 241 288 329
#     4   9  17  33  58  84 117 153 188 226 274 339
#     4  11  23  43  62  77 109 157 197 231 276 340
#
# _framework density 19.85999
#
# number of rings (size 3 to 8) (size 9 to 14) (size 15 to 20)
#    0.000    2.500    1.250    2.625    1.750    1.500 
#    0.000    8.750    0.000    1.500    0.000    0.000 
#    0.000    0.000    0.000    0.000    0.000    0.000 
#
# Total GULP energy -198334.562168 kJ/mol
# GULP energy per Si atom -12395.910136 kJ/mol
# Density = 1.981479 g / cm^3
# Si number density = 19.859990 Si / 1000 Ang^3
#
#
#
# Elastic Constant Matrix: (Units=GPa)
#
#
# Indices 1 2 3 4 5 6 
#
# 1 122.8655 17.5101 42.4517 0.0000 -16.6655 0.0000
# 2 17.5101 29.7139 15.8953 0.0000 -4.2005 0.0000
# 3 42.4517 15.8953 77.9019 0.0000 -14.9581 0.0000
# 4 0.0000 0.0000 0.0000 22.4940 0.0000 4.0398
# 5 -16.6655 -4.2005 -14.9581 0.0000 31.4013 0.0000
# 6 0.0000 0.0000 0.0000 4.0398 0.0000 29.2078
#
#
#
# Elastic Compliance Matrix: (Units=1/GPa)
#
#
# Indices 1 2 3 4 5 6 
#
# 1 0.010587 -0.003408 -0.004494 0.000000 0.003022 0.000000
# 2 -0.003408 0.038941 -0.005983 0.000000 0.000550 0.000000
# 3 -0.004494 -0.005983 0.017495 0.000000 0.005148 0.000000
# 4 0.000000 0.000000 0.000000 0.045589 0.000000 -0.006306
# 5 0.003022 0.000550 0.005148 0.000000 0.035976 0.000000
# 6 0.000000 0.000000 0.000000 -0.006306 0.000000 0.035110
#
#
# Mechanical properties :
#
#
# Convention : Reuss Voigt Hill
#
# Bulk Modulus (GPa) = 25.47505 42.46615 33.97060
# Shear Modulus (GPa) = 22.26671 26.92890 24.59781
#
# Velocity S-wave (km/s) = 3.35204 3.68630 3.52314
# Velocity P-wave (km/s) = 5.27605 6.28869 5.80450
#
# Compressibility (1/GPa) = 0.03925409
#
# Stress axis : x y z
#
# Youngs Moduli (GPa) = 94.45327 25.68006 57.15996
#
# Poissons Ratio (x) = 0.08751 0.25686
# Poissons Ratio (y) = 0.32188 0.34198
# Poissons Ratio (z) = 0.42444 0.15364
#
# Static dielectric constant tensor:
#      x y z
#    x 3.812000 0.000000 -0.113560 
#    y 0.000000 3.179950 0.000000 
#    z -0.113560 0.000000 3.595190 
# 
# 
# High freq. dielectric constant tensor:
#      x y z
#    x 1.780700 0.000000 -0.002410 
#    y 0.000000 1.731710 0.000000 
#    z -0.002410 0.000000 1.776920 
# 
# From -- ./inp_files/28200.got.cif
#   From: 2010.03.12/outbox.cif.g09.slc.cpg/sg8_15_cif.got.tgz:28200.got - 2010.03.31 10:45:26.
