data_PCOD8054289
_publ_section_title
;
Structure prediction by ZEFSAII (Michael W. Deem and Ramdas Pophale) SiO2 
 PCOD8054289
Probable space group: C C
;
_chemical_formula_sum "Si O2"
_cell_formula_units_Z 32
_cell_length_a 9.282805
_cell_length_b 25.936564
_cell_length_c 9.078220
_cell_angle_alpha 90.000000
_cell_angle_beta 42.850145
_cell_angle_gamma 90.000000
_cell_volume 1486.464081
_symmetry_space_group_name_H-M "C C"
_symmetry_group_IT_number 9
_symmetry_cell_setting 'monoclinic'
loop_
_space_group_symop_operation_xyz
x,y,z
x,-y,1/2+z
1/2+x,1/2+y,z
1/2+x,1/2-y,1/2+z
loop_
_atom_site_type_symbol
_atom_site_label
_atom_site_fract_x
_atom_site_fract_y
_atom_site_fract_z
Si Si1 0.826560 0.936408 0.089640
Si Si2 0.093627 0.608161 0.404958
Si Si3 0.853194 0.581407 0.864170
Si Si4 0.584819 0.281182 0.316009
Si Si5 0.936191 0.023817 0.204966
Si Si6 0.849686 0.202726 0.262840
Si Si7 0.129525 0.153104 0.262872
Si Si8 0.369782 0.178113 0.369120
O O1 0.573391 0.929942 0.282277
O O2 0.891781 0.965311 0.189729
O O3 0.891746 0.975302 0.911182
O O4 0.957197 0.883352 0.973203
O O5 0.273716 0.564606 0.248746
O O6 0.186081 0.657395 0.424305
O O7 0.900562 0.591701 0.656418
O O8 0.006997 0.627629 0.311117
O O9 0.684320 0.534783 0.988597
O O10 0.741214 0.626852 0.039318
O O11 0.751572 0.259563 0.314932
O O12 0.426952 0.312795 0.538325
O O13 0.489732 0.232305 0.299245
O O14 0.673582 0.320656 0.130061
O O15 0.015681 0.202927 0.274020
O O16 0.299457 0.172771 0.253507
#
# Coordination Sequence:
#
# PCOD8054289 Si02
#       8
#     4   4   4   4   4   4   4   4
#     4  10  23  40  57  94 122 158 210 256 300 367
#     4  10  20  39  62  88 116 168 207 240 300 387
#     4  10  20  40  62  84 120 168 199 250 299 365
#     4   9  21  39  60  88 123 164 201 259 302 378
#     4  10  22  38  61  87 124 159 212 247 306 364
#     4  10  18  40  61  85 117 160 212 237 304 376
#     4  11  22  39  61  94 122 161 205 256 306 368
#     4  10  22  37  60  92 128 152 208 259 317 357
#
# _framework density 21.527597
#
# number of rings (size 3 to 8) (size 9 to 14) (size 15 to 20)
#    0.000    2.000    3.750    0.750    0.000    8.000 
#    6.750    0.000    0.000    0.000    0.000    0.000 
#    0.000    0.000    0.000    0.000    0.000    0.000 
#
# Total GULP energy -198222.533395 kJ/mol
# GULP energy per Si atom -12388.908337 kJ/mol
# Density = 2.147860 g / cm^3
# Si number density = 21.527597 Si / 1000 Ang^3
#
#
#
# Elastic Constant Matrix: (Units=GPa)
#
#
# Indices 1 2 3 4 5 6 
#
# 1 121.1433 19.2554 8.0027 0.0000 1.9048 0.0000
# 2 19.2554 43.4717 7.9632 0.0000 0.3418 0.0000
# 3 8.0027 7.9632 60.9917 0.0000 -23.9773 0.0000
# 4 0.0000 0.0000 0.0000 16.1774 0.0000 8.0083
# 5 1.9048 0.3418 -23.9773 0.0000 33.0363 0.0000
# 6 0.0000 0.0000 0.0000 8.0083 0.0000 31.7732
#
#
#
# Elastic Compliance Matrix: (Units=1/GPa)
#
#
# Indices 1 2 3 4 5 6 
#
# 1 0.008950 -0.003729 -0.001224 0.000000 -0.001366 0.000000
# 2 -0.003729 0.025408 -0.003983 0.000000 -0.002939 0.000000
# 3 -0.001224 -0.003983 0.023955 0.000000 0.017498 0.000000
# 4 0.000000 0.000000 0.000000 0.070627 0.000000 -0.017801
# 5 -0.001366 -0.002939 0.017498 0.000000 0.043079 0.000000
# 6 0.000000 0.000000 0.000000 -0.017801 0.000000 0.035960
#
#
# Mechanical properties :
#
#
# Convention : Reuss Voigt Hill
#
# Bulk Modulus (GPa) = 24.72847 32.89436 28.81141
# Shear Modulus (GPa) = 20.89141 28.88975 24.89058
#
# Velocity S-wave (km/s) = 3.11858 3.66729 3.40401
# Velocity P-wave (km/s) = 4.94765 5.76587 5.37236
#
# Compressibility (1/GPa) = 0.04043922
#
# Stress axis : x y z
#
# Youngs Moduli (GPa) = 111.73430 39.35756 41.74412
#
# Poissons Ratio (x) = 0.14677 0.05112
# Poissons Ratio (y) = 0.41668 0.16628
# Poissons Ratio (z) = 0.13682 0.15678
#
# Static dielectric constant tensor:
#      x y z
#    x 3.955990 0.000000 -0.254830 
#    y 0.000000 3.557650 0.000000 
#    z -0.254830 0.000000 3.983640 
# 
# 
# High freq. dielectric constant tensor:
#      x y z
#    x 1.841880 0.000000 -0.014950 
#    y 0.000000 1.819710 0.000000 
#    z -0.014950 0.000000 1.847770 
# 
# From -- ./inp_files/6512.got.cif
#   From: 2010.06.25/outbox.cif.g09.slc.cpg/sg9_4_cif.got.tgz:6512.got - 2010.06.27 21:40:51.
