data_PCOD8054356
_publ_section_title
;
Structure prediction by ZEFSAII (Michael W. Deem and Ramdas Pophale) SiO2 
 PCOD8054356
Probable space group: C C
;
_chemical_formula_sum "Si O2"
_cell_formula_units_Z 28
_cell_length_a 8.952156
_cell_length_b 28.851520
_cell_length_c 5.360544
_cell_angle_alpha 90.000000
_cell_angle_beta 123.073549
_cell_angle_gamma 90.000000
_cell_volume 1160.203200
_symmetry_space_group_name_H-M "C C"
_symmetry_group_IT_number 9
_symmetry_cell_setting 'monoclinic'
loop_
_space_group_symop_operation_xyz
x,y,z
x,-y,1/2+z
1/2+x,1/2+y,z
1/2+x,1/2-y,1/2+z
loop_
_atom_site_type_symbol
_atom_site_label
_atom_site_fract_x
_atom_site_fract_y
_atom_site_fract_z
Si Si1 0.750000 0.810866 0.065070
Si Si2 0.932482 0.114816 0.420364
Si Si3 0.362397 0.790813 0.599397
Si Si4 0.155460 0.521842 0.645626
Si Si5 0.547571 0.484590 0.082585
Si Si6 0.758413 0.338163 0.015007
Si Si7 0.614354 0.882598 0.297141
O O1 0.851842 0.762354 0.178631
O O2 0.687840 0.832402 0.272328
O O3 0.893409 0.846199 0.086985
O O4 0.569030 0.804292 0.739452
O O5 0.017855 0.069310 0.621043
O O6 0.069117 0.136062 0.343284
O O7 0.745207 0.098935 0.130959
O O8 0.262591 0.800282 0.245295
O O9 0.277823 0.818626 0.753849
O O10 0.067814 0.498735 0.319602
O O11 0.366773 0.512338 0.844156
O O12 0.117551 0.577168 0.589654
O O13 0.651772 0.491518 0.911482
O O14 0.914240 0.375411 0.214453
#
# Coordination Sequence:
#
# PCOD8054356 Si02
#       7
#     4   4   4   4   4   4   4
#     4  11  25  42  71  95 133 178 215 277 326 393
#     4  12  24  41  72  94 133 179 216 271 334 383
#     4  11  26  47  65  99 138 166 226 270 330 387
#     4  10  19  36  63  91 126 168 214 263 320 387
#     4  10  20  36  61  94 126 166 217 262 317 391
#     4  11  28  45  65 102 134 171 223 275 317 404
#     4  11  24  43  67  97 132 176 221 268 332 387
#
# _framework density 24.133703000000001
#
# number of rings (size 3 to 8) (size 9 to 14) (size 15 to 20)
#    0.000    1.143    4.286    2.571    6.000    1.143 
#    0.000    1.429    0.000    0.000    0.000    0.000 
#    0.000    0.000    0.000    0.000    0.000    0.000 
#
# Total GULP energy -173535.704071 kJ/mol
# GULP energy per Si atom -12395.407434 kJ/mol
# Density = 2.407877 g / cm^3
# Si number density = 24.133703 Si / 1000 Ang^3
#
#
#
# Elastic Constant Matrix: (Units=GPa)
#
#
# Indices 1 2 3 4 5 6 
#
# 1 84.8524 25.1075 27.0860 0.0000 -12.8332 0.0000
# 2 25.1075 119.5595 5.5271 0.0000 -6.9477 0.0000
# 3 27.0860 5.5271 74.6178 0.0000 -27.5603 0.0000
# 4 0.0000 0.0000 0.0000 26.1466 0.0000 -12.1021
# 5 -12.8332 -6.9477 -27.5603 0.0000 36.7255 0.0000
# 6 0.0000 0.0000 0.0000 -12.1021 0.0000 23.2355
#
#
#
# Elastic Compliance Matrix: (Units=1/GPa)
#
#
# Indices 1 2 3 4 5 6 
#
# 1 0.014203 -0.002712 -0.004581 0.000000 0.001012 0.000000
# 2 -0.002712 0.008975 0.000826 0.000000 0.001370 0.000000
# 3 -0.004581 0.000826 0.020018 0.000000 0.013578 0.000000
# 4 0.000000 0.000000 0.000000 0.050395 0.000000 0.026248
# 5 0.001012 0.001370 0.013578 0.000000 0.038032 0.000000
# 6 0.000000 0.000000 0.000000 0.026248 0.000000 0.056709
#
#
# Mechanical properties :
#
#
# Convention : Reuss Voigt Hill
#
# Bulk Modulus (GPa) = 33.04494 43.83009 38.43752
# Shear Modulus (GPa) = 23.65709 31.97546 27.81628
#
# Velocity S-wave (km/s) = 3.13429 3.64391 3.39867
# Velocity P-wave (km/s) = 5.17886 5.99207 5.60024
#
# Compressibility (1/GPa) = 0.03026182
#
# Stress axis : x y z
#
# Youngs Moduli (GPa) = 70.40748 111.42064 49.95396
#
# Poissons Ratio (x) = 0.30218 0.22883
# Poissons Ratio (y) = 0.19095 -0.04124
# Poissons Ratio (z) = 0.32253 -0.09199
#
# Static dielectric constant tensor:
#      x y z
#    x 4.531420 0.000000 -0.348790 
#    y 0.000000 4.404210 0.000000 
#    z -0.348790 0.000000 4.256990 
# 
# 
# High freq. dielectric constant tensor:
#      x y z
#    x 1.955380 0.000000 -0.017780 
#    y 0.000000 1.963170 0.000000 
#    z -0.017780 0.000000 1.934630 
# 
# From -- ./inp_files/1139.got.cif
#   From: 2010.06.25/outbox.cif.g09.slc.cpg/sg9_1_cif.got.tgz:1139.got - 2010.06.27 21:40:51.
