data_PCOD8054971
_publ_section_title
;
Structure prediction by ZEFSAII (Michael W. Deem and Ramdas Pophale) SiO2 
 PCOD8054971
Probable space group: C C
;
_chemical_formula_sum "Si O2"
_cell_formula_units_Z 28
_cell_length_a 15.192066
_cell_length_b 9.627274
_cell_length_c 9.293265
_cell_angle_alpha 90.000000
_cell_angle_beta 117.377473
_cell_angle_gamma 90.000000
_cell_volume 1206.978754
_symmetry_space_group_name_H-M "C C"
_symmetry_group_IT_number 9
_symmetry_cell_setting 'monoclinic'
loop_
_space_group_symop_operation_xyz
x,y,z
x,-y,1/2+z
1/2+x,1/2+y,z
1/2+x,1/2-y,1/2+z
loop_
_atom_site_type_symbol
_atom_site_label
_atom_site_fract_x
_atom_site_fract_y
_atom_site_fract_z
Si Si1 0.527810 0.667880 0.054270
Si Si2 0.627967 0.391987 0.031336
Si Si3 0.724505 0.865472 0.661167
Si Si4 0.327042 0.038845 0.548317
Si Si5 0.363057 0.816366 0.793683
Si Si6 0.929164 0.202452 0.250195
Si Si7 0.690096 0.135962 0.792549
O O1 0.443036 0.624453 0.106039
O O2 0.589202 0.784356 0.184301
O O3 0.598663 0.539968 0.072907
O O4 0.469717 0.736143 0.874584
O O5 0.531511 0.307712 0.911331
O O6 0.681504 0.285010 0.182910
O O7 0.709491 0.421306 0.967242
O O8 0.843088 0.875964 0.774636
O O9 0.705638 0.873991 0.474807
O O10 0.672576 0.982826 0.715159
O O11 0.345521 0.882675 0.622433
O O12 0.359135 0.055943 0.406388
O O13 0.394143 0.139969 0.696901
O O14 0.278947 0.706163 0.770709
#
# Coordination Sequence:
#
# PCOD8054971 Si02
#       7
#     4   4   4   4   4   4   4
#     4  11  22  39  73  88 132 172 225 266 334 388
#     4  11  21  42  67  96 125 181 218 272 327 400
#     4  11  25  44  67  92 140 170 220 273 337 386
#     4  10  22  41  70  94 137 176 214 272 336 386
#     4  11  22  44  67 100 135 175 220 280 331 398
#     4  10  21  41  64  90 131 178 209 268 327 389
#     4  12  23  45  64  98 130 178 214 281 328 393
#
# _framework density 23.198418
#
# number of rings (size 3 to 8) (size 9 to 14) (size 15 to 20)
#    0.000    1.143    7.143    0.857    2.000    0.000 
#    7.714    1.429    0.000    0.000    0.000    0.000 
#    0.000    0.000    0.000    0.000    0.000    0.000 
#
# Total GULP energy -173472.165960 kJ/mol
# GULP energy per Si atom -12390.868997 kJ/mol
# Density = 2.314562 g / cm^3
# Si number density = 23.198418 Si / 1000 Ang^3
#
#
#
# Elastic Constant Matrix: (Units=GPa)
#
#
# Indices 1 2 3 4 5 6 
#
# 1 85.0493 45.7748 23.1445 0.0000 23.6259 0.0000
# 2 45.7748 101.6187 15.8497 0.0000 -2.3033 0.0000
# 3 23.1445 15.8497 49.3430 0.0000 25.6118 0.0000
# 4 0.0000 0.0000 0.0000 29.1963 0.0000 4.5941
# 5 23.6259 -2.3033 25.6118 0.0000 36.0717 0.0000
# 6 0.0000 0.0000 0.0000 4.5941 0.0000 40.6155
#
#
#
# Elastic Compliance Matrix: (Units=1/GPa)
#
#
# Indices 1 2 3 4 5 6 
#
# 1 0.021084 -0.010054 0.001332 0.000000 -0.015397 0.000000
# 2 -0.010054 0.015704 -0.006758 0.000000 0.012386 0.000000
# 3 0.001332 -0.006758 0.035614 0.000000 -0.026591 0.000000
# 4 0.000000 0.000000 0.000000 0.034872 0.000000 -0.003944
# 5 -0.015397 0.012386 -0.026591 0.000000 0.057478 0.000000
# 6 0.000000 0.000000 0.000000 -0.003944 0.000000 0.025067
#
#
# Mechanical properties :
#
#
# Convention : Reuss Voigt Hill
#
# Bulk Modulus (GPa) = 24.12943 45.06101 34.59522
# Shear Modulus (GPa) = 21.31350 31.25952 26.28651
#
# Velocity S-wave (km/s) = 3.03437 3.67479 3.36983
# Velocity P-wave (km/s) = 4.76450 6.12142 5.48508
#
# Compressibility (1/GPa) = 0.04144317
#
# Stress axis : x y z
#
# Youngs Moduli (GPa) = 47.42983 63.67662 28.07859
#
# Poissons Ratio (x) = 0.64021 -0.03740
# Poissons Ratio (y) = 0.47686 0.18974
# Poissons Ratio (z) = -0.06317 0.43030
#
# Static dielectric constant tensor:
#      x y z
#    x 4.347940 0.000000 0.339950 
#    y 0.000000 4.248300 0.000000 
#    z 0.339950 0.000000 3.995800 
# 
# 
# High freq. dielectric constant tensor:
#      x y z
#    x 1.918290 0.000000 0.030050 
#    y 0.000000 1.911150 0.000000 
#    z 0.030050 0.000000 1.900430 
# 
# From -- ./inp_files/17700.got.cif
#   From: 2010.06.25/outbox.cif.g09.slc.cpg/sg9_9_cif.got.tgz:17700.got - 2010.06.27 21:40:51.
