data_PCOD8054767
_publ_section_title
;
Structure prediction by ZEFSAII (Michael W. Deem and Ramdas Pophale) SiO2 
 PCOD8054767
Probable space group: C C
;
_chemical_formula_sum "Si O2"
_cell_formula_units_Z 32
_cell_length_a 19.558336
_cell_length_b 8.099052
_cell_length_c 22.851514
_cell_angle_alpha 90.000000
_cell_angle_beta 160.266540
_cell_angle_gamma 90.000000
_cell_volume 1222.197530
_symmetry_space_group_name_H-M "C C"
_symmetry_group_IT_number 9
_symmetry_cell_setting 'monoclinic'
loop_
_space_group_symop_operation_xyz
x,y,z
x,-y,1/2+z
1/2+x,1/2+y,z
1/2+x,1/2-y,1/2+z
loop_
_atom_site_type_symbol
_atom_site_label
_atom_site_fract_x
_atom_site_fract_y
_atom_site_fract_z
Si Si1 0.271100 0.322886 0.360120
Si Si2 0.292386 0.923368 0.233195
Si Si3 0.594547 0.418773 0.957468
Si Si4 0.950215 0.493534 0.673298
Si Si5 0.610026 0.496492 0.202427
Si Si6 0.725204 0.976407 0.593344
Si Si7 0.455076 0.743909 0.891420
Si Si8 0.305490 0.351723 0.038554
O O1 0.059849 0.413017 0.207879
O O2 0.440449 0.380947 0.540830
O O3 0.341249 0.361655 0.350085
O O4 0.263987 0.122741 0.358142
O O5 0.210070 0.882411 0.232150
O O6 0.530347 0.857220 0.417417
O O7 0.137112 0.861271 0.058712
O O8 0.300329 0.125894 0.234300
O O9 0.795493 0.378446 0.081009
O O10 0.380538 0.360129 0.755425
O O11 0.552595 0.619035 0.923297
O O12 0.799912 0.346463 0.533359
O O13 0.110877 0.422360 0.848911
O O14 0.517388 0.378465 0.175827
O O15 0.631281 0.126451 0.556899
O O16 0.824916 0.056797 0.616320
#
# Coordination Sequence:
#
# PCOD8054767 Si02
#       8
#     4   4   4   4   4   4   4   4
#     4  10  22  36  59  88 123 164 197 249 312 367
#     4   9  19  33  54  87 114 150 195 260 302 350
#     4  12  18  32  58  89 116 153 199 264 301 353
#     4  11  22  37  57  90 124 162 205 250 308 371
#     4  10  22  38  59  85 127 159 199 256 313 364
#     4  10  21  31  58  90 117 148 211 260 305 346
#     4   9  18  31  52  85 114 141 199 253 291 344
#     4  11  22  38  57  90 125 163 201 258 308 363
#
# _framework density 26.182345999999999
#
# number of rings (size 3 to 8) (size 9 to 14) (size 15 to 20)
#    0.750    1.000    3.750    1.500    1.750    2.000 
#    0.000    0.000    0.000    1.500    3.250    0.000 
#    0.000    0.000    0.000    0.000    0.000    0.000 
#
# Total GULP energy -198234.361699 kJ/mol
# GULP energy per Si atom -12389.647606 kJ/mol
# Density = 2.612275 g / cm^3
# Si number density = 26.182346 Si / 1000 Ang^3
#
#
#
# Elastic Constant Matrix: (Units=GPa)
#
#
# Indices 1 2 3 4 5 6 
#
# 1 188.6714 26.9215 64.3015 0.0274 27.3498 0.0011
# 2 26.9215 54.5403 28.3000 -0.0235 -6.6395 0.0024
# 3 64.3015 28.3000 113.2055 -0.0816 7.0534 0.0163
# 4 0.0274 -0.0235 -0.0816 24.4510 -0.0496 10.2242
# 5 27.3498 -6.6395 7.0534 -0.0496 43.5908 0.0043
# 6 0.0011 0.0024 0.0163 10.2242 0.0043 21.9778
#
#
#
# Elastic Compliance Matrix: (Units=1/GPa)
#
#
# Indices 1 2 3 4 5 6 
#
# 1 0.007443 -0.002500 -0.003322 -0.000040 -0.004513 0.000022
# 2 -0.002500 0.022660 -0.004604 0.000026 0.005765 -0.000012
# 3 -0.003322 -0.004604 0.011905 0.000051 -0.000543 -0.000032
# 4 -0.000040 0.000026 0.000051 0.050776 0.000081 -0.023621
# 5 -0.004513 0.005765 -0.000543 0.000081 0.026739 -0.000043
# 6 0.000022 -0.000012 -0.000032 -0.023621 -0.000043 0.056489
#
#
# Mechanical properties :
#
#
# Convention : Reuss Voigt Hill
#
# Bulk Modulus (GPa) = 47.26551 66.16257 56.71404
# Shear Modulus (GPa) = 24.52005 33.79688 29.15846
#
# Velocity S-wave (km/s) = 3.06357 3.59671 3.34079
# Velocity P-wave (km/s) = 5.53223 6.52481 6.04891
#
# Compressibility (1/GPa) = 0.02115708
#
# Stress axis : x y z
#
# Youngs Moduli (GPa) = 134.34928 44.13120 83.99805
#
# Poissons Ratio (x) = 0.11033 0.27902
# Poissons Ratio (y) = 0.33587 0.38671
# Poissons Ratio (z) = 0.44627 0.20317
#
# Static dielectric constant tensor:
#      x y z
#    x 4.653150 -0.000010 0.369750 
#    y -0.000010 4.890620 -0.000100 
#    z 0.369750 -0.000100 4.843550 
# 
# 
# High freq. dielectric constant tensor:
#      x y z
#    x 2.041330 0.000000 0.014100 
#    y 0.000000 2.055520 -0.000010 
#    z 0.014100 -0.000010 2.060350 
# 
# From -- ./inp_files/35985.got.cif
#   From: 2010.06.25/outbox.cif.g09.slc.cpg/sg9_18_cif.got.tgz:35985.got - 2010.06.27 21:40:51.
