data_PCOD8054198
_publ_section_title
;
Structure prediction by ZEFSAII (Michael W. Deem and Ramdas Pophale) SiO2 
 PCOD8054198
Probable space group: C C
;
_chemical_formula_sum "Si O2"
_cell_formula_units_Z 28
_cell_length_a 16.673020
_cell_length_b 9.388658
_cell_length_c 8.424897
_cell_angle_alpha 90.000000
_cell_angle_beta 96.666322
_cell_angle_gamma 90.000000
_cell_volume 1309.894079
_symmetry_space_group_name_H-M "C C"
_symmetry_group_IT_number 9
_symmetry_cell_setting 'monoclinic'
loop_
_space_group_symop_operation_xyz
x,y,z
x,-y,1/2+z
1/2+x,1/2+y,z
1/2+x,1/2-y,1/2+z
loop_
_atom_site_type_symbol
_atom_site_label
_atom_site_fract_x
_atom_site_fract_y
_atom_site_fract_z
Si Si1 0.100220 0.784479 0.215870
Si Si2 0.729385 0.627593 0.234930
Si Si3 0.362588 0.930867 0.399794
Si Si4 0.131434 0.994301 0.962981
Si Si5 0.438809 0.154292 0.240101
Si Si6 0.283313 0.674887 0.206266
Si Si7 0.321166 0.371778 0.347744
O O1 0.090748 0.861885 0.385349
O O2 0.188382 0.713077 0.212300
O O3 0.028841 0.670026 0.191387
O O4 0.080345 0.903049 0.076570
O O5 0.796384 0.554105 0.361239
O O6 0.715445 0.551118 0.063105
O O7 0.647653 0.609722 0.318242
O O8 0.752096 0.793372 0.225292
O O9 0.374588 0.880927 0.583742
O O10 0.340308 0.798632 0.284201
O O11 0.442618 0.014914 0.355070
O O12 0.407599 0.300594 0.318737
O O13 0.313496 0.537322 0.309278
O O14 0.301543 0.653004 0.026949
#
# Coordination Sequence:
#
# PCOD8054198 Si02
#       7
#     4   4   4   4   4   4   4
#     4  11  25  42  66 102 134 173 221 286 337 399
#     4  10  17  37  66  96 115 170 226 270 310 394
#     4  11  21  42  72  94 130 182 223 271 325 423
#     4  10  19  38  69  92 129 169 225 269 331 397
#     4  11  26  45  66  98 140 172 224 271 358 389
#     4  12  24  41  70  97 133 172 238 272 333 391
#     4  11  24  39  65  97 133 172 221 283 328 401
#
# _framework density 21.375775000000001
#
# number of rings (size 3 to 8) (size 9 to 14) (size 15 to 20)
#    0.000    1.143    4.286    4.286    2.000    3.429 
#    0.000    2.857    0.000    0.000    0.000    0.000 
#    0.000    0.000    0.000    0.000    0.000    0.000 
#
# Total GULP energy -173439.605288 kJ/mol
# GULP energy per Si atom -12388.543235 kJ/mol
# Density = 2.132712 g / cm^3
# Si number density = 21.375775 Si / 1000 Ang^3
#
#
#
# Elastic Constant Matrix: (Units=GPa)
#
#
# Indices 1 2 3 4 5 6 
#
# 1 81.9873 38.4202 17.0609 0.0000 -8.4478 0.0000
# 2 38.4202 126.2853 26.4521 0.0000 -8.7818 0.0000
# 3 17.0609 26.4521 76.7763 0.0000 -14.7786 0.0000
# 4 0.0000 0.0000 0.0000 33.4977 0.0000 0.9739
# 5 -8.4478 -8.7818 -14.7786 0.0000 20.0398 0.0000
# 6 0.0000 0.0000 0.0000 0.9739 0.0000 36.0306
#
#
#
# Elastic Compliance Matrix: (Units=1/GPa)
#
#
# Indices 1 2 3 4 5 6 
#
# 1 0.014672 -0.003963 -0.001211 0.000000 0.003556 0.000000
# 2 -0.003963 0.009663 -0.002279 0.000000 0.000884 0.000000
# 3 -0.001211 -0.002279 0.016070 0.000000 0.010342 0.000000
# 4 0.000000 0.000000 0.000000 0.029876 0.000000 -0.000808
# 5 0.003556 0.000884 0.010342 0.000000 0.059414 0.000000
# 6 0.000000 0.000000 0.000000 -0.000808 0.000000 0.027776
#
#
# Mechanical properties :
#
#
# Convention : Reuss Voigt Hill
#
# Bulk Modulus (GPa) = 39.21458 49.87949 44.54704
# Shear Modulus (GPa) = 27.64336 31.45467 29.54902
#
# Velocity S-wave (km/s) = 3.60002 3.84019 3.72204
# Velocity P-wave (km/s) = 5.97205 6.56110 6.27349
#
# Compressibility (1/GPa) = 0.02550072
#
# Stress axis : x y z
#
# Youngs Moduli (GPa) = 68.15512 103.48795 62.22932
#
# Poissons Ratio (x) = 0.41012 0.07534
# Poissons Ratio (y) = 0.27010 0.14179
# Poissons Ratio (z) = 0.08251 0.23580
#
# Static dielectric constant tensor:
#      x y z
#    x 3.624280 0.000000 -0.198720 
#    y 0.000000 4.226560 0.000000 
#    z -0.198720 0.000000 4.158070 
# 
# 
# High freq. dielectric constant tensor:
#      x y z
#    x 1.810570 0.000000 -0.017950 
#    y 0.000000 1.839660 0.000000 
#    z -0.017950 0.000000 1.854060 
# 
# From -- ./inp_files/10359.got.cif
#   From: 2010.06.25/outbox.cif.g09.slc.cpg/sg9_6_cif.got.tgz:10359.got - 2010.06.27 21:40:51.
