data_PCOD8054212
_publ_section_title
;
Structure prediction by ZEFSAII (Michael W. Deem and Ramdas Pophale) SiO2 
 PCOD8054212
Probable space group: C C
;
_chemical_formula_sum "Si O2"
_cell_formula_units_Z 32
_cell_length_a 9.653327
_cell_length_b 11.170378
_cell_length_c 19.782887
_cell_angle_alpha 90.000000
_cell_angle_beta 41.054939
_cell_angle_gamma 90.000000
_cell_volume 1401.057823
_symmetry_space_group_name_H-M "C C"
_symmetry_group_IT_number 9
_symmetry_cell_setting 'monoclinic'
loop_
_space_group_symop_operation_xyz
x,y,z
x,-y,1/2+z
1/2+x,1/2+y,z
1/2+x,1/2-y,1/2+z
loop_
_atom_site_type_symbol
_atom_site_label
_atom_site_fract_x
_atom_site_fract_y
_atom_site_fract_z
Si Si1 0.141910 0.177775 0.314450
Si Si2 0.927258 0.341922 0.083886
Si Si3 0.251950 0.792371 0.396275
Si Si4 0.918028 0.773460 0.109291
Si Si5 0.030663 0.978870 0.255335
Si Si6 0.064392 0.966962 0.964268
Si Si7 0.724624 0.063591 0.984764
Si Si8 0.009685 0.798330 0.684113
O O1 0.312717 0.274625 0.223721
O O2 0.177884 0.138731 0.378614
O O3 0.904777 0.229455 0.394989
O O4 0.166231 0.061843 0.256978
O O5 0.677497 0.370784 0.172488
O O6 0.971971 0.236013 0.121181
O O7 0.028038 0.280689 0.979772
O O8 0.041797 0.465963 0.057059
O O9 0.351752 0.785695 0.285336
O O10 0.230876 0.931617 0.424015
O O11 0.751916 0.725287 0.115108
O O12 0.976299 0.908661 0.065577
O O13 0.127092 0.693257 0.034234
O O14 0.830548 0.930039 0.371075
O O15 0.956022 0.062010 0.219727
O O16 0.890560 0.032769 0.982232
#
# Coordination Sequence:
#
# PCOD8054212 Si02
#       8
#     4   4   4   4   4   4   4   4
#     4   9  18  35  60  89 111 158 205 232 292 368
#     4  12  18  36  62  86 120 155 197 247 289 352
#     4  10  21  35  60  91 119 153 204 239 298 364
#     4  10  20  33  60  89 113 153 203 239 293 355
#     4   9  19  33  55  90 120 150 202 242 288 356
#     4  11  21  38  59  85 124 155 189 249 298 339
#     4  11  19  36  60  85 116 155 199 243 288 355
#     4  10  18  32  60  91 111 159 199 235 300 355
#
# _framework density 22.839883
#
# number of rings (size 3 to 8) (size 9 to 14) (size 15 to 20)
#    0.000    2.000    7.500    1.500    0.000    0.000 
#    0.000    6.250    0.000    0.000    0.000    0.000 
#    0.000    0.000    0.000    0.000    0.000    0.000 
#
# Total GULP energy -198296.167148 kJ/mol
# GULP energy per Si atom -12393.510447 kJ/mol
# Density = 2.278790 g / cm^3
# Si number density = 22.839883 Si / 1000 Ang^3
#
#
#
# Elastic Constant Matrix: (Units=GPa)
#
#
# Indices 1 2 3 4 5 6 
#
# 1 20.5736 22.6550 18.5419 -0.0002 -1.7412 0.0001
# 2 22.6550 96.9329 58.5376 -0.0004 -4.7909 0.0001
# 3 18.5419 58.5376 137.5655 -0.0007 -1.2708 0.0001
# 4 -0.0002 -0.0004 -0.0007 42.0700 0.0002 -2.7573
# 5 -1.7412 -4.7909 -1.2708 0.0002 14.4268 -0.0001
# 6 0.0001 0.0001 0.0001 -2.7573 -0.0001 22.2347
#
#
#
# Elastic Compliance Matrix: (Units=1/GPa)
#
#
# Indices 1 2 3 4 5 6 
#
# 1 0.066609 -0.013461 -0.003220 0.000000 0.003286 0.000000
# 2 -0.013461 0.016851 -0.005324 0.000000 0.003502 0.000000
# 3 -0.003220 -0.005324 0.009957 0.000000 -0.001279 0.000000
# 4 0.000000 0.000000 0.000000 0.023965 0.000000 0.002972
# 5 0.003286 0.003502 -0.001279 0.000000 0.070762 0.000000
# 6 0.000000 0.000000 0.000000 0.002972 0.000000 0.045343
#
#
# Mechanical properties :
#
#
# Convention : Reuss Voigt Hill
#
# Bulk Modulus (GPa) = 20.23983 50.50457 35.37220
# Shear Modulus (GPa) = 17.00889 26.10212 21.55550
#
# Velocity S-wave (km/s) = 2.73188 3.38425 3.07541
# Velocity P-wave (km/s) = 4.33956 6.11811 5.30392
#
# Compressibility (1/GPa) = 0.04940754
#
# Stress axis : x y z
#
# Youngs Moduli (GPa) = 15.01305 59.34531 100.43452
#
# Poissons Ratio (x) = 0.79885 0.32336
# Poissons Ratio (y) = 0.20209 0.53467
# Poissons Ratio (z) = 0.04834 0.31593
#
# Static dielectric constant tensor:
#      x y z
#    x 3.528520 0.000000 0.140380 
#    y 0.000000 4.041480 0.000000 
#    z 0.140380 0.000000 4.383470 
# 
# 
# High freq. dielectric constant tensor:
#      x y z
#    x 1.844300 0.000000 0.011130 
#    y 0.000000 1.896610 0.000000 
#    z 0.011130 0.000000 1.921700 
# 
# From -- ./inp_files/33289.got.cif
#   From: 2010.06.25/outbox.cif.g09.slc.cpg/sg9_17_cif.got.tgz:33289.got - 2010.06.27 21:40:51.
