data_PCOD8054842
_publ_section_title
;
Structure prediction by ZEFSAII (Michael W. Deem and Ramdas Pophale) SiO2 
 PCOD8054842
Probable space group: C C
;
_chemical_formula_sum "Si O2"
_cell_formula_units_Z 28
_cell_length_a 4.936391
_cell_length_b 28.924313
_cell_length_c 7.359973
_cell_angle_alpha 90.000000
_cell_angle_beta 110.866864
_cell_angle_gamma 90.000000
_cell_volume 981.943719
_symmetry_space_group_name_H-M "C C"
_symmetry_group_IT_number 9
_symmetry_cell_setting 'monoclinic'
loop_
_space_group_symop_operation_xyz
x,y,z
x,-y,1/2+z
1/2+x,1/2+y,z
1/2+x,1/2-y,1/2+z
loop_
_atom_site_type_symbol
_atom_site_label
_atom_site_fract_x
_atom_site_fract_y
_atom_site_fract_z
Si Si1 0.598070 0.132833 0.292240
Si Si2 0.001012 0.180780 0.150384
Si Si3 0.195875 0.946381 0.170856
Si Si4 0.302148 0.408306 0.370326
Si Si5 0.697231 0.268548 0.037212
Si Si6 0.286418 0.316417 0.182372
Si Si7 0.706482 0.449660 0.757189
O O1 0.332900 0.168421 0.186747
O O2 0.775581 0.145980 0.515742
O O3 0.486648 0.080721 0.275546
O O4 0.813341 0.135474 0.167979
O O5 0.991058 0.214253 0.326980
O O6 0.815454 0.218392 0.984888
O O7 0.910842 0.933650 0.214650
O O8 0.455237 0.911664 0.289989
O O9 0.300434 0.997966 0.242885
O O10 0.111494 0.940683 0.941162
O O11 0.397451 0.351741 0.378847
O O12 0.437809 0.435645 0.568878
O O13 0.500832 0.273905 0.176712
O O14 0.960381 0.302432 0.138711
#
# Coordination Sequence:
#
# PCOD8054842 Si02
#       7
#     4   4   4   4   4   4   4
#     4  10  23  40  66  96 138 181 234 297 350 420
#     4  10  22  39  62  98 134 184 230 288 353 412
#     4  12  29  48  73 107 151 181 248 311 356 443
#     4  12  28  47  75 109 144 195 242 298 372 434
#     4  10  21  38  65  94 138 182 229 290 347 416
#     4  10  21  41  65  97 139 185 231 294 350 414
#     4  12  28  49  78 107 146 196 244 302 374 437
#
# _framework density 28.514869999999998
#
# number of rings (size 3 to 8) (size 9 to 14) (size 15 to 20)
#    0.000    1.143    2.857    1.714    6.000    5.714 
#    0.000    0.000    0.000    0.000    0.000    0.000 
#    0.000    0.000    0.000    0.000    0.000    0.000 
#
# Total GULP energy -173658.494695 kJ/mol
# GULP energy per Si atom -12404.178193 kJ/mol
# Density = 2.844997 g / cm^3
# Si number density = 28.514870 Si / 1000 Ang^3
#
#
#
# Elastic Constant Matrix: (Units=GPa)
#
#
# Indices 1 2 3 4 5 6 
#
# 1 98.5304 -12.7117 7.3603 0.0000 -4.7182 0.0000
# 2 -12.7117 140.1679 -5.6425 0.0000 0.1229 0.0000
# 3 7.3603 -5.6425 121.8476 0.0000 -1.0320 0.0000
# 4 0.0000 0.0000 0.0000 43.4646 0.0000 4.9860
# 5 -4.7182 0.1229 -1.0320 0.0000 37.8758 0.0000
# 6 0.0000 0.0000 0.0000 4.9860 0.0000 35.4474
#
#
#
# Elastic Compliance Matrix: (Units=1/GPa)
#
#
# Indices 1 2 3 4 5 6 
#
# 1 0.010371 0.000916 -0.000573 0.000000 0.001273 0.000000
# 2 0.000916 0.007229 0.000280 0.000000 0.000098 0.000000
# 3 -0.000573 0.000280 0.008256 0.000000 0.000153 0.000000
# 4 0.000000 0.000000 0.000000 0.023385 0.000000 -0.003289
# 5 0.001273 0.000098 0.000153 0.000000 0.026565 0.000000
# 6 0.000000 0.000000 0.000000 -0.003289 0.000000 0.028674
#
#
# Mechanical properties :
#
#
# Convention : Reuss Voigt Hill
#
# Bulk Modulus (GPa) = 36.89727 37.61758 37.25742
# Shear Modulus (GPa) = 44.53721 48.12688 46.33204
#
# Velocity S-wave (km/s) = 3.95637 4.11272 4.03530
# Velocity P-wave (km/s) = 5.81706 5.98110 5.89965
#
# Compressibility (1/GPa) = 0.02710228
#
# Stress axis : x y z
#
# Youngs Moduli (GPa) = 96.42106 138.33943 121.12596
#
# Poissons Ratio (x) = -0.12677 0.06944
# Poissons Ratio (y) = -0.08836 -0.03394
# Poissons Ratio (z) = 0.05527 -0.03877
#
# Static dielectric constant tensor:
#      x y z
#    x 4.865480 0.000000 -0.334890 
#    y 0.000000 5.816820 0.000000 
#    z -0.334890 0.000000 6.271500 
# 
# 
# High freq. dielectric constant tensor:
#      x y z
#    x 2.149840 0.000000 -0.009980 
#    y 0.000000 2.179660 0.000000 
#    z -0.009980 0.000000 2.202750 
# 
# From -- ./inp_files/4258.got.cif
#   From: 2010.06.25/outbox.cif.g09.slc.cpg/sg9_3_cif.got.tgz:4258.got - 2010.06.27 21:40:51.
