data_PCOD8054582
_publ_section_title
;
Structure prediction by ZEFSAII (Michael W. Deem and Ramdas Pophale) SiO2 
 PCOD8054582
Probable space group: C C
;
_chemical_formula_sum "Si O2"
_cell_formula_units_Z 32
_cell_length_a 21.924903
_cell_length_b 7.973703
_cell_length_c 25.454711
_cell_angle_alpha 90.000000
_cell_angle_beta 159.385329
_cell_angle_gamma 90.000000
_cell_volume 1566.783151
_symmetry_space_group_name_H-M "C C"
_symmetry_group_IT_number 9
_symmetry_cell_setting 'monoclinic'
loop_
_space_group_symop_operation_xyz
x,y,z
x,-y,1/2+z
1/2+x,1/2+y,z
1/2+x,1/2-y,1/2+z
loop_
_atom_site_type_symbol
_atom_site_label
_atom_site_fract_x
_atom_site_fract_y
_atom_site_fract_z
Si Si1 0.267350 0.600718 0.955830
Si Si2 0.748522 0.921585 0.837561
Si Si3 0.604728 0.718873 0.498703
Si Si4 0.983831 0.252373 0.290095
Si Si5 0.916708 0.609796 0.004548
Si Si6 0.423989 0.600870 0.890402
Si Si7 0.610570 0.423624 0.798737
Si Si8 0.595653 0.060665 0.558137
O O1 0.231350 0.452487 0.886029
O O2 0.244746 0.768131 0.902401
O O3 0.120372 0.601127 0.883310
O O4 0.459419 0.590117 0.133890
O O5 0.563476 0.861019 0.666506
O O6 0.889417 0.773192 0.946316
O O7 0.820939 0.078364 0.862320
O O8 0.790303 0.689664 0.620496
O O9 0.474710 0.722418 0.344733
O O10 0.556333 0.556307 0.493918
O O11 0.593406 0.894715 0.520345
O O12 0.028794 0.083444 0.291984
O O13 0.972268 0.463989 0.009172
O O14 0.731838 0.581890 0.884789
O O15 0.290979 0.597503 0.734462
O O16 0.525461 0.777060 0.970362
#
# Coordination Sequence:
#
# PCOD8054582 Si02
#       8
#     4   4   4   4   4   4   4   4
#     4  10  20  38  62  92 122 169 217 268 328 386
#     4  11  23  40  63  96 134 175 223 277 344 398
#     4  12  22  46  70  98 137 180 230 273 333 408
#     4  10  22  40  72  90 128 182 224 272 331 397
#     4  11  23  40  63  96 134 174 224 279 339 405
#     4  11  26  43  67 102 135 179 225 280 340 403
#     4  10  20  38  62  92 123 167 219 267 327 390
#     4  11  26  43  67 102 135 180 224 280 342 399
#
# _framework density 20.424015000000001
#
# number of rings (size 3 to 8) (size 9 to 14) (size 15 to 20)
#    0.750    0.500    3.750    2.250    3.500    4.000 
#    0.000    2.500    0.000    0.000    0.000    0.000 
#    0.000    0.000    0.000    0.000    0.000    0.000 
#
# Total GULP energy -198252.927641 kJ/mol
# GULP energy per Si atom -12390.807978 kJ/mol
# Density = 2.037753 g / cm^3
# Si number density = 20.424015 Si / 1000 Ang^3
#
#
#
# Elastic Constant Matrix: (Units=GPa)
#
#
# Indices 1 2 3 4 5 6 
#
# 1 86.4628 33.6042 43.7624 0.0037 -7.0489 0.0003
# 2 33.6042 111.1160 49.9979 -0.0006 -8.5521 -0.0009
# 3 43.7624 49.9979 128.1410 0.0065 -13.4587 -0.0009
# 4 0.0037 -0.0006 0.0065 34.2480 -0.0043 -1.3162
# 5 -7.0489 -8.5521 -13.4587 -0.0043 36.0651 -0.0025
# 6 0.0003 -0.0009 -0.0009 -1.3162 -0.0025 33.9417
#
#
#
# Elastic Compliance Matrix: (Units=1/GPa)
#
#
# Indices 1 2 3 4 5 6 
#
# 1 0.014612 -0.002608 -0.003890 -0.000001 0.000786 0.000000
# 2 -0.002608 0.011419 -0.003470 0.000001 0.000903 0.000000
# 3 -0.003890 -0.003470 0.010741 -0.000001 0.002425 0.000000
# 4 -0.000001 0.000001 -0.000001 0.029242 0.000003 0.001134
# 5 0.000786 0.000903 0.002425 0.000003 0.029000 0.000002
# 6 0.000000 0.000000 0.000000 0.001134 0.000002 0.029506
#
#
# Mechanical properties :
#
#
# Convention : Reuss Voigt Hill
#
# Bulk Modulus (GPa) = 59.39642 64.49431 61.94536
# Shear Modulus (GPa) = 33.31768 34.07466 33.69617
#
# Velocity S-wave (km/s) = 4.04332 4.08899 4.06622
# Velocity P-wave (km/s) = 7.13741 7.34434 7.24162
#
# Compressibility (1/GPa) = 0.01683603
#
# Stress axis : x y z
#
# Youngs Moduli (GPa) = 68.43497 87.57149 93.10054
#
# Poissons Ratio (x) = 0.22841 0.36218
# Poissons Ratio (y) = 0.17849 0.32305
# Poissons Ratio (z) = 0.26623 0.30387
#
# Static dielectric constant tensor:
#      x y z
#    x 3.490620 -0.000010 -0.017550 
#    y -0.000010 3.431890 0.000000 
#    z -0.017550 0.000000 3.716760 
# 
# 
# High freq. dielectric constant tensor:
#      x y z
#    x 1.794150 0.000000 -0.002250 
#    y 0.000000 1.772860 0.000000 
#    z -0.002250 0.000000 1.814210 
# 
# From -- ./inp_files/35987.got.cif
#   From: 2010.06.25/outbox.cif.g09.slc.cpg/sg9_18_cif.got.tgz:35987.got - 2010.06.27 21:40:51.
