data_PCOD8054214
_publ_section_title
;
Structure prediction by ZEFSAII (Michael W. Deem and Ramdas Pophale) SiO2 
 PCOD8054214
Probable space group: C C
;
_chemical_formula_sum "Si O2"
_cell_formula_units_Z 28
_cell_length_a 15.243530
_cell_length_b 21.213940
_cell_length_c 5.211542
_cell_angle_alpha 90.000000
_cell_angle_beta 124.441242
_cell_angle_gamma 90.000000
_cell_volume 1389.864963
_symmetry_space_group_name_H-M "C C"
_symmetry_group_IT_number 9
_symmetry_cell_setting 'monoclinic'
loop_
_space_group_symop_operation_xyz
x,y,z
x,-y,1/2+z
1/2+x,1/2+y,z
1/2+x,1/2-y,1/2+z
loop_
_atom_site_type_symbol
_atom_site_label
_atom_site_fract_x
_atom_site_fract_y
_atom_site_fract_z
Si Si1 0.171390 0.171799 0.958370
Si Si2 0.341545 0.280362 0.266196
Si Si3 0.580644 0.925053 0.424676
Si Si4 0.248807 0.330804 0.613987
Si Si5 0.578812 0.721800 0.306634
Si Si6 0.248100 0.965398 0.435209
Si Si7 0.991582 0.560017 0.281686
O O1 0.085316 0.190038 0.598066
O O2 0.211913 0.103380 0.952018
O O3 0.272674 0.217357 0.132742
O O4 0.119800 0.173274 0.155462
O O5 0.303028 0.328826 0.424390
O O6 0.459839 0.259167 0.533683
O O7 0.334033 0.314075 0.976678
O O8 0.701836 0.899856 0.607854
O O9 0.516602 0.898849 0.569022
O O10 0.574543 0.001040 0.409938
O O11 0.518246 0.897569 0.072709
O O12 0.148363 0.284410 0.438756
O O13 0.374848 0.968159 0.612031
O O14 0.204874 0.012341 0.586295
#
# Coordination Sequence:
#
# PCOD8054214 Si02
#       7
#     4   4   4   4   4   4   4
#     4  10  23  38  58  91 117 149 197 240 290 348
#     4  10  21  39  58  86 117 152 196 234 290 349
#     4  10  18  33  50  80 117 143 180 228 275 358
#     4  10  21  35  57  89 111 153 198 226 292 357
#     4  10  21  40  57  83 120 154 191 244 286 337
#     4  12  21  37  56  88 119 148 194 232 295 363
#     4  10  19  32  50  83 117 145 178 220 304 342
#
# _framework density 20.14584
#
# number of rings (size 3 to 8) (size 9 to 14) (size 15 to 20)
#    0.000    1.714    2.857    2.571    2.000    0.000 
#    5.143    0.000    0.000    0.000   74.286    0.000 
#    0.000    0.000    0.000    0.000    0.000    0.000 
#
# Total GULP energy -173476.547546 kJ/mol
# GULP energy per Si atom -12391.181968 kJ/mol
# Density = 2.009999 g / cm^3
# Si number density = 20.145840 Si / 1000 Ang^3
#
#
#
# Elastic Constant Matrix: (Units=GPa)
#
#
# Indices 1 2 3 4 5 6 
#
# 1 78.3429 17.3244 48.0632 0.0000 -24.3739 0.0000
# 2 17.3244 56.7022 17.5730 0.0000 2.4972 0.0000
# 3 48.0632 17.5730 136.9078 0.0000 -19.7478 0.0000
# 4 0.0000 0.0000 0.0000 18.3482 0.0000 -1.3752
# 5 -24.3739 2.4972 -19.7478 0.0000 48.3242 0.0000
# 6 0.0000 0.0000 0.0000 -1.3752 0.0000 21.9402
#
#
#
# Elastic Compliance Matrix: (Units=1/GPa)
#
#
# Indices 1 2 3 4 5 6 
#
# 1 0.019379 -0.004705 -0.005052 0.000000 0.007953 0.000000
# 2 -0.004705 0.019699 -0.001451 0.000000 -0.003984 0.000000
# 3 -0.005052 -0.001451 0.009465 0.000000 0.001395 0.000000
# 4 0.000000 0.000000 0.000000 0.054758 0.000000 0.003432
# 5 0.007953 -0.003984 0.001395 0.000000 0.025481 0.000000
# 6 0.000000 0.000000 0.000000 0.003432 0.000000 0.045794
#
#
# Mechanical properties :
#
#
# Convention : Reuss Voigt Hill
#
# Bulk Modulus (GPa) = 38.27693 48.65268 43.46481
# Shear Modulus (GPa) = 24.30710 30.32202 27.31456
#
# Velocity S-wave (km/s) = 3.47732 3.88380 3.68617
# Velocity P-wave (km/s) = 5.92988 6.65692 6.30389
#
# Compressibility (1/GPa) = 0.02612540
#
# Stress axis : x y z
#
# Youngs Moduli (GPa) = 51.60330 50.76432 105.64971
#
# Poissons Ratio (x) = 0.23886 0.53374
# Poissons Ratio (y) = 0.24281 0.15333
# Poissons Ratio (z) = 0.26070 0.07368
#
# Static dielectric constant tensor:
#      x y z
#    x 4.142100 0.000000 -0.851730 
#    y 0.000000 3.310250 0.000000 
#    z -0.851730 0.000000 4.357760 
# 
# 
# High freq. dielectric constant tensor:
#      x y z
#    x 1.782280 0.000000 -0.036060 
#    y 0.000000 1.754420 0.000000 
#    z -0.036060 0.000000 1.798330 
# 
# From -- ./inp_files/2680.got.cif
#   From: 2010.06.25/outbox.cif.g09.slc.cpg/sg9_2_cif.got.tgz:2680.got - 2010.06.27 21:40:51.
