data_PCOD8054352
_publ_section_title
;
Structure prediction by ZEFSAII (Michael W. Deem and Ramdas Pophale) SiO2 
 PCOD8054352
Probable space group: C C
;
_chemical_formula_sum "Si O2"
_cell_formula_units_Z 32
_cell_length_a 8.779582
_cell_length_b 10.768275
_cell_length_c 17.792504
_cell_angle_alpha 90.000000
_cell_angle_beta 71.661943
_cell_angle_gamma 90.000000
_cell_volume 1596.696685
_symmetry_space_group_name_H-M "C C"
_symmetry_group_IT_number 9
_symmetry_cell_setting 'monoclinic'
loop_
_space_group_symop_operation_xyz
x,y,z
x,-y,1/2+z
1/2+x,1/2+y,z
1/2+x,1/2-y,1/2+z
loop_
_atom_site_type_symbol
_atom_site_label
_atom_site_fract_x
_atom_site_fract_y
_atom_site_fract_z
Si Si1 0.447200 0.831018 0.208090
Si Si2 0.091294 0.159463 0.060010
Si Si3 0.262918 0.402080 0.573583
Si Si4 0.968416 0.761270 0.109137
Si Si5 0.231891 0.038124 0.169707
Si Si6 0.419988 0.607094 0.306201
Si Si7 0.257196 0.547218 0.719522
Si Si8 0.822181 0.142383 0.486258
O O1 0.552729 0.759199 0.130893
O O2 0.361802 0.737776 0.279541
O O3 0.575831 0.905338 0.239337
O O4 0.312728 0.910949 0.185491
O O5 0.152265 0.035602 0.097097
O O6 0.947242 0.131573 0.024912
O O7 0.219996 0.232025 0.988754
O O8 0.273041 0.431873 0.660366
O O9 0.214852 0.522203 0.530268
O O10 0.154193 0.279633 0.582765
O O11 0.873603 0.635480 0.138639
O O12 0.902986 0.855394 0.182430
O O13 0.948580 0.826265 0.031697
O O14 0.101556 0.077887 0.252146
O O15 0.292766 0.503177 0.297595
O O16 0.417110 0.609552 0.396284
#
# Coordination Sequence:
#
# PCOD8054352 Si02
#       8
#     4   4   4   4   4   4   4   4
#     4  11  20  37  60  87 116 150 204 250 295 360
#     4  10  20  37  59  87 115 152 206 246 300 356
#     4  11  20  37  62  90 110 154 207 251 300 354
#     4  10  20  39  65  87 114 158 206 251 295 353
#     4  10  19  36  61  87 114 154 199 248 294 356
#     4  11  24  38  57  90 126 162 193 248 311 353
#     4  11  20  37  59  89 117 148 204 254 292 360
#     4  10  23  41  55  85 132 158 191 254 303 360
#
# _framework density 20.041378000000002
#
# number of rings (size 3 to 8) (size 9 to 14) (size 15 to 20)
#    0.000    1.500    8.750    0.000    1.750    2.000 
#    0.000    1.250    0.000    0.000    0.000    0.000 
#    0.000    0.000    0.000    0.000    0.000    0.000 
#
# Total GULP energy -198221.346394 kJ/mol
# GULP energy per Si atom -12388.834150 kJ/mol
# Density = 1.999576 g / cm^3
# Si number density = 20.041378 Si / 1000 Ang^3
#
#
#
# Elastic Constant Matrix: (Units=GPa)
#
#
# Indices 1 2 3 4 5 6 
#
# 1 105.6867 45.6240 12.5203 0.0000 2.7692 0.0000
# 2 45.6240 75.4472 17.4287 0.0000 11.7069 0.0000
# 3 12.5203 17.4287 67.0170 0.0000 6.1942 0.0000
# 4 0.0000 0.0000 0.0000 18.2935 0.0000 2.6544
# 5 2.7692 11.7069 6.1942 0.0000 16.0058 0.0000
# 6 0.0000 0.0000 0.0000 2.6544 0.0000 41.3827
#
#
#
# Elastic Compliance Matrix: (Units=1/GPa)
#
#
# Indices 1 2 3 4 5 6 
#
# 1 0.013048 -0.008382 -0.000639 0.000000 0.004121 0.000000
# 2 -0.008382 0.020934 -0.002693 0.000000 -0.012819 0.000000
# 3 -0.000639 -0.002693 0.016126 0.000000 -0.004160 0.000000
# 4 0.000000 0.000000 0.000000 0.055178 0.000000 -0.003539
# 5 0.004121 -0.012819 -0.004160 0.000000 0.072750 0.000000
# 6 0.000000 0.000000 0.000000 -0.003539 0.000000 0.024392
#
#
# Mechanical properties :
#
#
# Convention : Reuss Voigt Hill
#
# Bulk Modulus (GPa) = 37.48147 44.36631 40.92389
# Shear Modulus (GPa) = 21.29921 26.64159 23.97040
#
# Velocity S-wave (km/s) = 3.26354 3.64995 3.46214
# Velocity P-wave (km/s) = 5.73965 6.32047 6.03705
#
# Compressibility (1/GPa) = 0.02667985
#
# Stress axis : x y z
#
# Youngs Moduli (GPa) = 76.63923 47.76809 62.01216
#
# Poissons Ratio (x) = 0.40040 0.03960
# Poissons Ratio (y) = 0.64241 0.16703
# Poissons Ratio (z) = 0.04894 0.12866
#
# Static dielectric constant tensor:
#      x y z
#    x 3.814770 0.000000 0.016810 
#    y 0.000000 3.923490 0.000000 
#    z 0.016810 0.000000 3.192140 
# 
# 
# High freq. dielectric constant tensor:
#      x y z
#    x 1.784590 0.000000 0.002170 
#    y 0.000000 1.794660 0.000000 
#    z 0.002170 0.000000 1.735100 
# 
# From -- ./inp_files/29140.got.cif
#   From: 2010.06.25/outbox.cif.g09.slc.cpg/sg9_15_cif.got.tgz:29140.got - 2010.06.27 21:40:51.
