data_PCOD8054179
_publ_section_title
;
Structure prediction by ZEFSAII (Michael W. Deem and Ramdas Pophale) SiO2 
 PCOD8054179
Probable space group: C C
;
_chemical_formula_sum "Si O2"
_cell_formula_units_Z 32
_cell_length_a 21.035909
_cell_length_b 9.493311
_cell_length_c 22.705481
_cell_angle_alpha 90.000000
_cell_angle_beta 158.006501
_cell_angle_gamma 90.000000
_cell_volume 1698.099490
_symmetry_space_group_name_H-M "C C"
_symmetry_group_IT_number 9
_symmetry_cell_setting 'monoclinic'
loop_
_space_group_symop_operation_xyz
x,y,z
x,-y,1/2+z
1/2+x,1/2+y,z
1/2+x,1/2-y,1/2+z
loop_
_atom_site_type_symbol
_atom_site_label
_atom_site_fract_x
_atom_site_fract_y
_atom_site_fract_z
Si Si1 0.807980 0.625097 0.971710
Si Si2 0.779687 0.433028 0.837877
Si Si3 0.676770 0.370260 0.481218
Si Si4 0.672211 0.931435 0.834567
Si Si5 0.389809 0.372703 0.317473
Si Si6 0.038502 0.569497 0.341443
Si Si7 0.523163 0.063702 0.451964
Si Si8 0.916589 0.873021 0.472434
O O1 0.746925 0.535146 0.864081
O O2 0.779777 0.789707 0.935300
O O3 0.696267 0.569952 0.931514
O O4 0.006164 0.604520 0.154224
O O5 0.876599 0.292412 0.941493
O O6 0.601872 0.393262 0.657230
O O7 0.900647 0.513891 0.893904
O O8 0.522120 0.442971 0.384463
O O9 0.651846 0.204114 0.454564
O O10 0.846158 0.389094 0.663764
O O11 0.621384 0.000431 0.854567
O O12 0.779304 0.047089 0.893261
O O13 0.422659 0.206345 0.348443
O O14 0.201438 0.403657 0.134682
O O15 0.412787 0.435176 0.402833
O O16 0.043509 0.477692 0.407036
#
# Coordination Sequence:
#
# PCOD8054179 Si02
#       8
#     4   4   4   4   4   4   4   4
#     4  10  20  34  52  76 104 134 168 205 248 297
#     4  11  21  34  52  74 102 134 169 208 251 298
#     4   9  16  27  45  69  97 126 160 202 245 289
#     4  10  20  34  52  76 104 134 168 205 248 297
#     4  10  17  27  45  69  97 126 162 205 248 292
#     4   9  16  27  45  69  97 126 160 202 245 289
#     4  10  17  27  45  69  97 126 162 205 248 292
#     4  11  21  34  52  74 102 134 169 208 251 298
#
# _framework density 18.844597
#
# number of rings (size 3 to 8) (size 9 to 14) (size 15 to 20)
#    0.000    2.000    0.000    9.000    0.000    3.000 
#    0.000    0.000    0.000    1.500    0.000    3.500 
#    0.000    0.000    0.000    0.000    0.000    0.000 
#
# Total GULP energy -198269.269110 kJ/mol
# GULP energy per Si atom -12391.829319 kJ/mol
# Density = 1.880171 g / cm^3
# Si number density = 18.844597 Si / 1000 Ang^3
#
#
#
# Elastic Constant Matrix: (Units=GPa)
#
#
# Indices 1 2 3 4 5 6 
#
# 1 171.6218 29.5043 41.1173 -0.0011 -6.2596 -0.0016
# 2 29.5043 24.9674 2.1977 -0.0001 -2.8113 0.0021
# 3 41.1173 2.1977 63.7778 0.0005 -5.8508 0.0021
# 4 -0.0011 -0.0001 0.0005 19.1972 0.0003 1.8983
# 5 -6.2596 -2.8113 -5.8508 0.0003 37.8847 0.0010
# 6 -0.0016 0.0021 0.0021 1.8983 0.0010 19.6474
#
#
#
# Elastic Compliance Matrix: (Units=1/GPa)
#
#
# Indices 1 2 3 4 5 6 
#
# 1 0.008817 -0.009961 -0.005351 0.000000 -0.000109 0.000002
# 2 -0.009961 0.051723 0.004910 0.000000 0.002951 -0.000007
# 3 -0.005351 0.004910 0.019184 -0.000001 0.002443 -0.000003
# 4 0.000000 0.000000 -0.000001 0.052594 0.000000 -0.005082
# 5 -0.000109 0.002951 0.002443 0.000000 0.026974 -0.000002
# 6 0.000002 -0.000007 -0.000003 -0.005082 -0.000002 0.051388
#
#
# Mechanical properties :
#
#
# Convention : Reuss Voigt Hill
#
# Bulk Modulus (GPa) = 16.97200 45.11173 31.04187
# Shear Modulus (GPa) = 19.91048 27.84904 23.87976
#
# Velocity S-wave (km/s) = 3.25401 3.84842 3.56363
# Velocity P-wave (km/s) = 4.81081 6.61346 5.78281
#
# Compressibility (1/GPa) = 0.05892056
#
# Stress axis : x y z
#
# Youngs Moduli (GPa) = 113.41462 19.33385 52.12615
#
# Poissons Ratio (x) = 0.19258 0.27894
# Poissons Ratio (y) = 1.12968 -0.25594
# Poissons Ratio (z) = 0.60690 -0.09493
#
# Static dielectric constant tensor:
#      x y z
#    x 4.576250 0.000000 -0.086670 
#    y 0.000000 2.864470 0.000000 
#    z -0.086670 0.000000 3.557580 
# 
# 
# High freq. dielectric constant tensor:
#      x y z
#    x 1.770560 0.000000 -0.002260 
#    y 0.000000 1.645180 0.000000 
#    z -0.002260 0.000000 1.755310 
# 
# From -- ./inp_files/12118.got.cif
#   From: 2010.06.25/outbox.cif.g09.slc.cpg/sg9_7_cif.got.tgz:12118.got - 2010.06.27 21:40:51.
