data_PCOD8054712
_publ_section_title
;
Structure prediction by ZEFSAII (Michael W. Deem and Ramdas Pophale) SiO2 
 PCOD8054712
Probable space group: C C
;
_chemical_formula_sum "Si O2"
_cell_formula_units_Z 32
_cell_length_a 14.830844
_cell_length_b 9.069486
_cell_length_c 14.360313
_cell_angle_alpha 90.000000
_cell_angle_beta 50.539510
_cell_angle_gamma 90.000000
_cell_volume 1491.300634
_symmetry_space_group_name_H-M "C C"
_symmetry_group_IT_number 9
_symmetry_cell_setting 'monoclinic'
loop_
_space_group_symop_operation_xyz
x,y,z
x,-y,1/2+z
1/2+x,1/2+y,z
1/2+x,1/2-y,1/2+z
loop_
_atom_site_type_symbol
_atom_site_label
_atom_site_fract_x
_atom_site_fract_y
_atom_site_fract_z
Si Si1 0.159680 0.482937 0.270370
Si Si2 0.655700 0.934135 0.068067
Si Si3 0.631095 0.321622 0.285841
Si Si4 0.389952 0.386973 0.380231
Si Si5 0.564180 0.178420 0.011761
Si Si6 0.149659 0.876904 0.475952
Si Si7 0.420767 0.563843 0.644019
Si Si8 0.240700 0.867031 0.015931
O O1 0.122751 0.408213 0.196994
O O2 0.106767 0.646650 0.309905
O O3 0.109480 0.375461 0.382165
O O4 0.299561 0.497354 0.184718
O O5 0.557470 0.039082 0.085504
O O6 0.652571 0.787280 0.011643
O O7 0.784508 0.008169 0.981388
O O8 0.510048 0.414338 0.356787
O O9 0.693138 0.376879 0.339857
O O10 0.709966 0.357022 0.144956
O O11 0.413569 0.407428 0.257421
O O12 0.362261 0.215121 0.420165
O O13 0.446421 0.275758 0.078192
O O14 0.649542 0.293763 0.005077
O O15 0.242223 0.964113 0.480306
O O16 0.017984 0.938765 0.564668
#
# Coordination Sequence:
#
# PCOD8054712 Si02
#       8
#     4   4   4   4   4   4   4   4
#     4  12  22  43  70  95 133 175 224 270 325 391
#     4  11  22  42  65  96 134 169 220 277 316 394
#     4  12  22  42  72  94 125 180 224 264 331 394
#     4  11  20  44  71  90 132 183 214 257 348 391
#     4  10  20  42  66  92 131 176 213 265 330 391
#     4  11  24  40  64 102 132 165 228 277 313 389
#     4  11  22  42  70  96 131 179 213 272 337 385
#     4  10  22  43  66  93 136 171 214 274 328 391
#
# _framework density 21.457778999999999
#
# number of rings (size 3 to 8) (size 9 to 14) (size 15 to 20)
#    0.000    1.000    8.750    0.750    0.000    2.000 
#    4.500    3.750    0.000    0.000    0.000    0.000 
#    0.000    0.000    0.000    0.000    0.000    0.000 
#
# Total GULP energy -198302.554719 kJ/mol
# GULP energy per Si atom -12393.909670 kJ/mol
# Density = 2.140894 g / cm^3
# Si number density = 21.457779 Si / 1000 Ang^3
#
#
#
# Elastic Constant Matrix: (Units=GPa)
#
#
# Indices 1 2 3 4 5 6 
#
# 1 63.5467 33.8228 40.1616 0.0000 19.7069 0.0000
# 2 33.8228 98.3092 20.5755 0.0000 9.5325 0.0000
# 3 40.1616 20.5755 110.6985 0.0000 40.3415 0.0000
# 4 0.0000 0.0000 0.0000 660.6502 0.0000 -271.0131
# 5 19.7069 9.5325 40.3415 0.0000 28.7796 0.0000
# 6 0.0000 0.0000 0.0000 -271.0131 0.0000 146.4596
#
#
#
# Elastic Compliance Matrix: (Units=1/GPa)
#
#
# Indices 1 2 3 4 5 6 
#
# 1 0.024889 -0.006771 -0.004861 0.000000 -0.007987 0.000000
# 2 -0.006771 0.012459 -0.000092 0.000000 0.000639 0.000000
# 3 -0.004861 -0.000092 0.019605 0.000000 -0.024122 0.000000
# 4 0.000000 0.000000 0.000000 0.006283 0.000000 0.011626
# 5 -0.007987 0.000639 -0.024122 0.000000 0.073817 0.000000
# 6 0.000000 0.000000 0.000000 0.011626 0.000000 0.028341
#
#
# Mechanical properties :
#
#
# Convention : Reuss Voigt Hill
#
# Bulk Modulus (GPa) = 29.84604 51.29713 40.57159
# Shear Modulus (GPa) = 24.99868 179.04419 102.02144
#
# Velocity S-wave (km/s) = 3.41694 9.14447 6.90278
# Velocity P-wave (km/s) = 5.43200 11.63843 9.08184
#
# Compressibility (1/GPa) = 0.03350528
#
# Stress axis : x y z
#
# Youngs Moduli (GPa) = 40.17793 80.26385 51.00791
#
# Poissons Ratio (x) = 0.54349 0.24793
# Poissons Ratio (y) = 0.27206 0.00469
# Poissons Ratio (z) = 0.19529 0.00737
#
# Static dielectric constant tensor:
#      x y z
#    x 3.996440 0.000000 0.055610 
#    y 0.000000 3.894810 0.000000 
#    z 0.055610 0.000000 4.074190 
# 
# 
# High freq. dielectric constant tensor:
#      x y z
#    x 1.829930 0.000000 0.023450 
#    y 0.000000 1.840980 0.000000 
#    z 0.023450 0.000000 1.849040 
# 
# From -- ./inp_files/17910.got.cif
#   From: 2010.06.25/outbox.cif.g09.slc.cpg/sg9_9_cif.got.tgz:17910.got - 2010.06.27 21:40:51.
