data_PCOD8054722
_publ_section_title
;
Structure prediction by ZEFSAII (Michael W. Deem and Ramdas Pophale) SiO2 
 PCOD8054722
Probable space group: C C
;
_chemical_formula_sum "Si O2"
_cell_formula_units_Z 32
_cell_length_a 25.822507
_cell_length_b 7.967211
_cell_length_c 20.235356
_cell_angle_alpha 90.000000
_cell_angle_beta 22.346888
_cell_angle_gamma 90.000000
_cell_volume 1582.860848
_symmetry_space_group_name_H-M "C C"
_symmetry_group_IT_number 9
_symmetry_cell_setting 'monoclinic'
loop_
_space_group_symop_operation_xyz
x,y,z
x,-y,1/2+z
1/2+x,1/2+y,z
1/2+x,1/2-y,1/2+z
loop_
_atom_site_type_symbol
_atom_site_label
_atom_site_fract_x
_atom_site_fract_y
_atom_site_fract_z
Si Si1 0.885370 0.548421 0.458810
Si Si2 0.329832 0.875332 0.397289
Si Si3 0.444041 0.412908 0.570932
Si Si4 0.408079 0.051977 0.663799
Si Si5 0.218591 0.941381 0.775735
Si Si6 0.433225 0.407377 0.437888
Si Si7 0.211023 0.560856 0.775986
Si Si8 0.536804 0.735678 0.243893
O O1 0.801753 0.508784 0.490039
O O2 0.791382 0.554923 0.634637
O O3 0.948141 0.735627 0.378283
O O4 0.999671 0.400205 0.332720
O O5 0.373220 0.979555 0.281479
O O6 0.452417 0.750000 0.274750
O O7 0.197162 0.762664 0.539608
O O8 0.390559 0.247304 0.669449
O O9 0.565240 0.494620 0.470638
O O10 0.503632 0.378637 0.426608
O O11 0.310778 0.533277 0.721929
O O12 0.301853 0.946680 0.745563
O O13 0.560617 0.997981 0.468812
O O14 0.210787 0.754745 0.756465
O O15 0.273698 0.457427 0.639749
O O16 0.504197 0.560479 0.317204
#
# Coordination Sequence:
#
# PCOD8054722 Si02
#       8
#     4   4   4   4   4   4   4   4
#     4  10  21  42  66  96 130 172 219 270 321 398
#     4  10  26  45  65  91 139 176 224 262 338 401
#     4  10  22  37  65  98 125 168 217 272 324 398
#     4  12  24  42  66  97 131 181 219 273 338 399
#     4  12  21  41  68  99 136 164 222 283 329 388
#     4  10  20  42  70 101 127 170 223 278 327 387
#     4  10  23  39  64 101 133 169 217 278 340 386
#     4  10  23  44  66  95 133 178 213 278 323 397
#
# _framework density 20.216560000000001
#
# number of rings (size 3 to 8) (size 9 to 14) (size 15 to 20)
#    1.500    0.000    2.500    3.000    3.500    2.000 
#    6.750    1.250    0.000    0.000    0.000    0.000 
#    0.000    0.000    0.000    0.000    0.000    0.000 
#
# Total GULP energy -198291.622634 kJ/mol
# GULP energy per Si atom -12393.226415 kJ/mol
# Density = 2.017055 g / cm^3
# Si number density = 20.216560 Si / 1000 Ang^3
#
#
#
# Elastic Constant Matrix: (Units=GPa)
#
#
# Indices 1 2 3 4 5 6 
#
# 1 104.0360 9.4488 38.7280 -0.0003 -8.0430 0.0003
# 2 9.4488 118.9629 9.7022 -0.0021 -3.8290 0.0027
# 3 38.7280 9.7022 48.7467 0.0005 -20.1139 -0.0007
# 4 -0.0003 -0.0021 0.0005 21.5569 0.0007 -2.5198
# 5 -8.0430 -3.8290 -20.1139 0.0007 44.3062 -0.0008
# 6 0.0003 0.0027 -0.0007 -2.5198 -0.0008 28.3088
#
#
#
# Elastic Compliance Matrix: (Units=1/GPa)
#
#
# Indices 1 2 3 4 5 6 
#
# 1 0.013987 -0.000203 -0.012344 0.000000 -0.003082 0.000000
# 2 -0.000203 0.008548 -0.001538 0.000001 0.000003 -0.000001
# 3 -0.012344 -0.001538 0.036481 -0.000001 0.014188 0.000001
# 4 0.000000 0.000001 -0.000001 0.046877 -0.000001 0.004173
# 5 -0.003082 0.000003 0.014188 -0.000001 0.028452 0.000001
# 6 0.000000 -0.000001 0.000001 0.004173 0.000001 0.035696
#
#
# Mechanical properties :
#
#
# Convention : Reuss Voigt Hill
#
# Bulk Modulus (GPa) = 32.41969 43.05596 37.73782
# Shear Modulus (GPa) = 23.98152 33.09217 28.53684
#
# Velocity S-wave (km/s) = 3.44791 4.05023 3.76115
# Velocity P-wave (km/s) = 5.64994 6.57390 6.12935
#
# Compressibility (1/GPa) = 0.03084546
#
# Stress axis : x y z
#
# Youngs Moduli (GPa) = 71.49333 116.99051 27.41119
#
# Poissons Ratio (x) = 0.02380 0.33836
# Poissons Ratio (y) = 0.01455 0.04216
# Poissons Ratio (z) = 0.88250 0.17995
#
# Static dielectric constant tensor:
#      x y z
#    x 3.634550 -0.000010 -0.149980 
#    y -0.000010 3.682140 0.000000 
#    z -0.149980 0.000000 3.403190 
# 
# 
# High freq. dielectric constant tensor:
#      x y z
#    x 1.778850 0.000000 -0.017140 
#    y 0.000000 1.785530 0.000000 
#    z -0.017140 0.000000 1.773070 
# 
# From -- ./inp_files/34694.got.cif
#   From: 2010.06.25/outbox.cif.g09.slc.cpg/sg9_18_cif.got.tgz:34694.got - 2010.06.27 21:40:51.
