data_PCOD8054552
_publ_section_title
;
Structure prediction by ZEFSAII (Michael W. Deem and Ramdas Pophale) SiO2 
 PCOD8054552
Probable space group: C C
;
_chemical_formula_sum "Si O2"
_cell_formula_units_Z 32
_cell_length_a 16.714101
_cell_length_b 14.793060
_cell_length_c 11.343431
_cell_angle_alpha 90.000000
_cell_angle_beta 35.941974
_cell_angle_gamma 90.000000
_cell_volume 1646.258921
_symmetry_space_group_name_H-M "C C"
_symmetry_group_IT_number 9
_symmetry_cell_setting 'monoclinic'
loop_
_space_group_symop_operation_xyz
x,y,z
x,-y,1/2+z
1/2+x,1/2+y,z
1/2+x,1/2-y,1/2+z
loop_
_atom_site_type_symbol
_atom_site_label
_atom_site_fract_x
_atom_site_fract_y
_atom_site_fract_z
Si Si1 0.122940 0.685259 0.086010
Si Si2 0.340042 0.276095 0.978191
Si Si3 0.788624 0.412064 0.182692
Si Si4 0.136455 0.776230 0.517289
Si Si5 0.664872 0.076709 0.806577
Si Si6 0.327825 0.171976 0.392595
Si Si7 0.870454 0.395896 0.600402
Si Si8 0.599347 0.878857 0.869992
O O1 0.155462 0.649292 0.176562
O O2 0.968206 0.722349 0.260993
O O3 0.148998 0.608624 0.959414
O O4 0.225549 0.765968 0.941668
O O5 0.253770 0.250136 0.967623
O O6 0.289647 0.370358 0.095831
O O7 0.321794 0.195690 0.095347
O O8 0.495724 0.290263 0.753944
O O9 0.676380 0.370844 0.405395
O O10 0.777702 0.519526 0.169922
O O11 0.760598 0.368477 0.089045
O O12 0.937410 0.393751 0.059453
O O13 0.131266 0.696811 0.427792
O O14 0.685665 0.969267 0.795511
O O15 0.532140 0.093418 0.881541
O O16 0.360386 0.098019 0.254643
#
# Coordination Sequence:
#
# PCOD8054552 Si02
#       8
#     4   4   4   4   4   4   4   4
#     4  10  20  37  63  86 116 156 206 251 303 363
#     4  12  24  40  65  94 131 165 207 260 317 373
#     4  10  22  40  65  92 123 165 212 254 308 376
#     4  12  24  40  65  94 131 165 207 260 317 373
#     4  10  22  40  65  92 123 165 212 254 308 376
#     4  10  20  37  63  86 116 156 206 251 303 363
#     4  10  22  40  65  92 121 167 211 254 307 378
#     4  10  22  40  65  92 121 167 211 254 307 378
#
# _framework density 19.438009999999998
#
# number of rings (size 3 to 8) (size 9 to 14) (size 15 to 20)
#    0.000    1.500    5.000    0.000    3.500    1.000 
#    0.000    2.500    0.000    0.000    0.000    0.000 
#    0.000    0.000    0.000    0.000    0.000    0.000 
#
# Total GULP energy -198317.723951 kJ/mol
# GULP energy per Si atom -12394.857747 kJ/mol
# Density = 1.939377 g / cm^3
# Si number density = 19.438010 Si / 1000 Ang^3
#
#
#
# Elastic Constant Matrix: (Units=GPa)
#
#
# Indices 1 2 3 4 5 6 
#
# 1 72.9679 24.3206 17.2082 0.0000 11.3607 0.0000
# 2 24.3206 116.2539 41.5720 0.0000 0.0955 0.0000
# 3 17.2082 41.5720 88.2228 0.0000 12.2025 0.0000
# 4 0.0000 0.0000 0.0000 21.3997 0.0000 -4.0890
# 5 11.3607 0.0955 12.2025 0.0000 26.4461 0.0000
# 6 0.0000 0.0000 0.0000 -4.0890 0.0000 31.0577
#
#
#
# Elastic Compliance Matrix: (Units=1/GPa)
#
#
# Indices 1 2 3 4 5 6 
#
# 1 0.015909 -0.003046 -0.000773 0.000000 -0.006466 0.000000
# 2 -0.003046 0.011068 -0.005124 0.000000 0.003633 0.000000
# 3 -0.000773 -0.005124 0.014796 0.000000 -0.006476 0.000000
# 4 0.000000 0.000000 0.000000 0.047936 0.000000 0.006311
# 5 -0.006466 0.003633 -0.006476 0.000000 0.043566 0.000000
# 6 0.000000 0.000000 0.000000 0.006311 0.000000 0.033029
#
#
# Mechanical properties :
#
#
# Convention : Reuss Voigt Hill
#
# Bulk Modulus (GPa) = 41.86456 49.29401 45.57928
# Shear Modulus (GPa) = 26.02089 28.73696 27.37892
#
# Velocity S-wave (km/s) = 3.66274 3.84915 3.75710
# Velocity P-wave (km/s) = 6.28266 6.72081 6.50542
#
# Compressibility (1/GPa) = 0.02388655
#
# Stress axis : x y z
#
# Youngs Moduli (GPa) = 62.85679 90.34652 67.58585
#
# Poissons Ratio (x) = 0.27523 0.05226
# Poissons Ratio (y) = 0.19149 0.34630
# Poissons Ratio (z) = 0.04860 0.46293
#
# Static dielectric constant tensor:
#      x y z
#    x 3.537180 0.000000 0.058050 
#    y 0.000000 3.522560 0.000000 
#    z 0.058050 0.000000 3.590290 
# 
# 
# High freq. dielectric constant tensor:
#      x y z
#    x 1.762570 0.000000 0.016760 
#    y 0.000000 1.748420 0.000000 
#    z 0.016760 0.000000 1.755870 
# 
# From -- ./inp_files/7397.got.cif
#   From: 2010.06.25/outbox.cif.g09.slc.cpg/sg9_4_cif.got.tgz:7397.got - 2010.06.27 21:40:51.
