data_PCOD8054199
_publ_section_title
;
Structure prediction by ZEFSAII (Michael W. Deem and Ramdas Pophale) SiO2 
 PCOD8054199
Probable space group: C C
;
_chemical_formula_sum "Si O2"
_cell_formula_units_Z 32
_cell_length_a 13.466567
_cell_length_b 13.732081
_cell_length_c 20.196614
_cell_angle_alpha 90.000000
_cell_angle_beta 26.126663
_cell_angle_gamma 90.000000
_cell_volume 1644.662339
_symmetry_space_group_name_H-M "C C"
_symmetry_group_IT_number 9
_symmetry_cell_setting 'monoclinic'
loop_
_space_group_symop_operation_xyz
x,y,z
x,-y,1/2+z
1/2+x,1/2+y,z
1/2+x,1/2-y,1/2+z
loop_
_atom_site_type_symbol
_atom_site_label
_atom_site_fract_x
_atom_site_fract_y
_atom_site_fract_z
Si Si1 0.390620 0.053563 0.914820
Si Si2 0.032600 0.273629 0.569777
Si Si3 0.789149 0.908528 0.083207
Si Si4 0.400647 0.169008 0.433334
Si Si5 0.060501 0.557535 0.148976
Si Si6 0.778484 0.803815 0.619103
Si Si7 0.112139 0.963439 0.463161
Si Si8 0.544788 0.220741 0.909492
O O1 0.546073 0.096870 0.763155
O O2 0.150201 0.048639 0.019946
O O3 0.407524 0.125945 0.966932
O O4 0.449071 0.946275 0.906446
O O5 0.194269 0.195978 0.508416
O O6 0.065703 0.382807 0.578035
O O7 0.104755 0.285341 0.450710
O O8 0.774399 0.237545 0.730899
O O9 0.771967 0.983065 0.030721
O O10 0.872744 0.809067 0.001320
O O11 0.946596 0.945840 0.048950
O O12 0.633821 0.222586 0.271215
O O13 0.347001 0.206191 0.539353
O O14 0.090134 0.634185 0.191316
O O15 0.833884 0.494549 0.289793
O O16 0.004832 0.864084 0.499170
#
# Coordination Sequence:
#
# PCOD8054199 Si02
#       8
#     4   4   4   4   4   4   4   4
#     4  11  23  38  63  87 124 162 208 245 302 367
#     4  11  22  38  66  89 123 159 205 255 302 359
#     4  10  19  38  64  86 119 159 203 243 302 373
#     4  11  21  41  60  94 117 159 204 249 300 362
#     4   9  18  35  63  90 111 159 207 242 296 369
#     4  10  21  37  63  91 120 152 206 250 296 363
#     4  10  17  38  63  85 116 170 193 236 309 375
#     4  12  23  39  60  96 120 160 204 260 301 356
#
# _framework density 19.456880000000002
#
# number of rings (size 3 to 8) (size 9 to 14) (size 15 to 20)
#    0.000    1.500    6.250    2.250    0.000    0.000 
#    6.750    1.250    0.000    0.000    0.000    0.000 
#    0.000    0.000    0.000    0.000    0.000    0.000 
#
# Total GULP energy -198274.450077 kJ/mol
# GULP energy per Si atom -12392.153130 kJ/mol
# Density = 1.941260 g / cm^3
# Si number density = 19.456880 Si / 1000 Ang^3
#
#
#
# Elastic Constant Matrix: (Units=GPa)
#
#
# Indices 1 2 3 4 5 6 
#
# 1 69.0498 35.9717 11.3686 0.0116 -1.2418 0.0281
# 2 35.9717 115.1796 36.4083 0.0815 3.4129 -0.0090
# 3 11.3686 36.4083 71.2143 0.0321 -3.8437 0.0831
# 4 0.0116 0.0815 0.0321 27.1161 0.0452 -4.5148
# 5 -1.2418 3.4129 -3.8437 0.0452 22.7941 -0.0748
# 6 0.0281 -0.0090 0.0831 -4.5148 -0.0748 27.0199
#
#
#
# Elastic Compliance Matrix: (Units=1/GPa)
#
#
# Indices 1 2 3 4 5 6 
#
# 1 0.017368 -0.005525 0.000149 0.000004 0.001798 -0.000015
# 2 -0.005525 0.012252 -0.005548 -0.000020 -0.003071 0.000015
# 3 0.000149 -0.005548 0.017055 -0.000018 0.003715 -0.000047
# 4 0.000004 -0.000020 -0.000018 0.037934 -0.000054 0.006338
# 5 0.001798 -0.003071 0.003715 -0.000054 0.045056 0.000101
# 6 -0.000015 0.000015 -0.000047 0.006338 0.000101 0.038069
#
#
# Mechanical properties :
#
#
# Convention : Reuss Voigt Hill
#
# Bulk Modulus (GPa) = 40.27603 46.99342 43.63473
# Shear Modulus (GPa) = 25.27073 26.83236 26.05154
#
# Velocity S-wave (km/s) = 3.60781 3.71761 3.66312
# Velocity P-wave (km/s) = 6.17253 6.52936 6.35345
#
# Compressibility (1/GPa) = 0.02482866
#
# Stress axis : x y z
#
# Youngs Moduli (GPa) = 57.57650 81.61854 58.63325
#
# Poissons Ratio (x) = 0.45091 -0.00873
# Poissons Ratio (y) = 0.31809 0.32528
# Poissons Ratio (z) = -0.00857 0.45280
#
# Static dielectric constant tensor:
#      x y z
#    x 3.753730 -0.000020 -0.236950 
#    y -0.000020 3.610390 0.000100 
#    z -0.236950 0.000100 3.466780 
# 
# 
# High freq. dielectric constant tensor:
#      x y z
#    x 1.750560 0.000000 -0.018260 
#    y 0.000000 1.754760 0.000000 
#    z -0.018260 0.000000 1.741090 
# 
# From -- ./inp_files/9684.got.cif
#   From: 2010.06.25/outbox.cif.g09.slc.cpg/sg9_5_cif.got.tgz:9684.got - 2010.06.27 21:40:51.
