data_PCOD8054359
_publ_section_title
;
Structure prediction by ZEFSAII (Michael W. Deem and Ramdas Pophale) SiO2 
 PCOD8054359
Probable space group: C C
;
_chemical_formula_sum "Si O2"
_cell_formula_units_Z 32
_cell_length_a 19.954065
_cell_length_b 14.312970
_cell_length_c 13.951308
_cell_angle_alpha 90.000000
_cell_angle_beta 22.120995
_cell_angle_gamma 90.000000
_cell_volume 1500.425988
_symmetry_space_group_name_H-M "C C"
_symmetry_group_IT_number 9
_symmetry_cell_setting 'monoclinic'
loop_
_space_group_symop_operation_xyz
x,y,z
x,-y,1/2+z
1/2+x,1/2+y,z
1/2+x,1/2-y,1/2+z
loop_
_atom_site_type_symbol
_atom_site_label
_atom_site_fract_x
_atom_site_fract_y
_atom_site_fract_z
Si Si1 0.767650 0.463699 0.010300
Si Si2 0.639126 0.344465 0.348876
Si Si3 0.928549 0.853249 0.142565
Si Si4 0.600917 0.345475 0.714035
Si Si5 0.651914 0.020607 0.090888
Si Si6 0.526066 0.187783 0.365148
Si Si7 0.655357 0.695762 0.524448
Si Si8 0.330993 0.662794 0.407785
O O1 0.648475 0.427723 0.258275
O O2 0.694690 0.558298 0.059851
O O3 0.761649 0.387216 0.935086
O O4 0.969519 0.480834 0.773880
O O5 0.614806 0.243005 0.333704
O O6 0.481125 0.361770 0.631398
O O7 0.824669 0.338956 0.160271
O O8 0.809586 0.947125 0.310065
O O9 0.804264 0.764765 0.287034
O O10 0.063147 0.857148 0.876296
O O11 0.039840 0.844397 0.091957
O O12 0.418299 0.333298 0.897136
O O13 0.732300 0.259753 0.517556
O O14 0.640523 0.094387 0.193909
O O15 0.686504 0.919701 0.091710
O O16 0.523278 0.249481 0.271380
#
# Coordination Sequence:
#
# PCOD8054359 Si02
#       8
#     4   4   4   4   4   4   4   4
#     4  10  22  40  63  91 119 150 197 251 301 357
#     4  10  20  38  62  88 117 153 192 239 295 353
#     4  11  21  39  63  90 120 159 199 244 299 355
#     4  12  26  42  58  84 122 164 203 245 294 354
#     4  10  21  40  63  89 119 152 197 251 301 355
#     4   9  18  35  63  93 116 143 191 247 297 348
#     4  10  19  36  65  95 120 149 196 253 301 350
#     4  12  25  42  59  84 123 164 201 244 294 354
#
# _framework density 21.327278
#
# number of rings (size 3 to 8) (size 9 to 14) (size 15 to 20)
#    0.000    1.500    0.000    7.500    0.000    1.000 
#    0.000    7.500    0.000    0.000    0.000    0.000 
#    0.000    0.000    0.000    0.000    0.000    0.000 
#
# Total GULP energy -198445.372090 kJ/mol
# GULP energy per Si atom -12402.835756 kJ/mol
# Density = 2.127874 g / cm^3
# Si number density = 21.327278 Si / 1000 Ang^3
#
#
#
# Elastic Constant Matrix: (Units=GPa)
#
#
# Indices 1 2 3 4 5 6 
#
# 1 53.8884 9.5394 20.6182 -0.0021 -6.4145 0.0013
# 2 9.5394 132.3627 24.5594 -0.0024 -11.4821 0.0009
# 3 20.6182 24.5594 79.0899 -0.0025 -6.8637 0.0011
# 4 -0.0021 -0.0024 -0.0025 27.3468 0.0016 -10.1560
# 5 -6.4145 -11.4821 -6.8637 0.0016 32.9969 -0.0009
# 6 0.0013 0.0009 0.0011 -10.1560 -0.0009 28.9427
#
#
#
# Elastic Compliance Matrix: (Units=1/GPa)
#
#
# Indices 1 2 3 4 5 6 
#
# 1 0.020909 -0.000309 -0.005104 0.000001 0.002896 0.000000
# 2 -0.000309 0.008199 -0.002264 0.000000 0.002322 0.000000
# 3 -0.005104 -0.002264 0.014790 0.000001 0.001296 0.000000
# 4 0.000001 0.000000 0.000001 0.042047 -0.000001 0.014754
# 5 0.002896 0.002322 0.001296 -0.000001 0.031946 0.000000
# 6 0.000000 0.000000 0.000000 0.014754 0.000000 0.039728
#
#
# Mechanical properties :
#
#
# Convention : Reuss Voigt Hill
#
# Bulk Modulus (GPa) = 35.03259 41.64167 38.33713
# Shear Modulus (GPa) = 27.39926 31.89887 29.64906
#
# Velocity S-wave (km/s) = 3.58817 3.87160 3.73258
# Velocity P-wave (km/s) = 5.79900 6.28913 6.04903
#
# Compressibility (1/GPa) = 0.02854485
#
# Stress axis : x y z
#
# Youngs Moduli (GPa) = 47.82653 121.96994 67.61400
#
# Poissons Ratio (x) = 0.03766 0.34508
# Poissons Ratio (y) = 0.01477 0.15307
# Poissons Ratio (z) = 0.24409 0.27613
#
# Static dielectric constant tensor:
#      x y z
#    x 3.663810 0.000000 -0.089310 
#    y 0.000000 4.018330 0.000010 
#    z -0.089310 0.000010 3.859930 
# 
# 
# High freq. dielectric constant tensor:
#      x y z
#    x 1.826230 0.000000 -0.011810 
#    y 0.000000 1.845980 0.000000 
#    z -0.011810 0.000000 1.838080 
# 
# From -- ./inp_files/7452.got.cif
#   From: 2010.06.25/outbox.cif.g09.slc.cpg/sg9_4_cif.got.tgz:7452.got - 2010.06.27 21:40:51.
