data_PCOD8054774
_publ_section_title
;
Structure prediction by ZEFSAII (Michael W. Deem and Ramdas Pophale) SiO2 
 PCOD8054774
Probable space group: C C
;
_chemical_formula_sum "Si O2"
_cell_formula_units_Z 32
_cell_length_a 20.833084
_cell_length_b 12.277456
_cell_length_c 15.807117
_cell_angle_alpha 90.000000
_cell_angle_beta 160.720146
_cell_angle_gamma 90.000000
_cell_volume 1334.961359
_symmetry_space_group_name_H-M "C C"
_symmetry_group_IT_number 9
_symmetry_cell_setting 'monoclinic'
loop_
_space_group_symop_operation_xyz
x,y,z
x,-y,1/2+z
1/2+x,1/2+y,z
1/2+x,1/2-y,1/2+z
loop_
_atom_site_type_symbol
_atom_site_label
_atom_site_fract_x
_atom_site_fract_y
_atom_site_fract_z
Si Si1 0.758570 0.958439 0.791730
Si Si2 0.387425 0.107036 0.741192
Si Si3 0.343858 0.892953 0.434803
Si Si4 0.472713 0.541573 0.384264
Si Si5 0.149024 0.307563 0.423292
Si Si6 0.582252 0.692423 0.752698
Si Si7 0.021127 0.388354 0.098447
Si Si8 0.210139 0.888350 0.577531
O O1 0.558018 0.891145 0.524366
O O2 0.865640 0.989967 0.837993
O O3 0.708126 0.069209 0.778787
O O4 0.894631 0.885359 0.019269
O O5 0.213085 0.192073 0.543234
O O6 0.474007 0.139649 0.758132
O O7 0.298484 0.986582 0.630880
O O8 0.518152 0.807897 0.632692
O O9 0.257287 0.860349 0.417881
O O10 0.432820 0.013401 0.545143
O O11 0.173270 0.891143 0.151635
O O12 0.523134 0.430805 0.397171
O O13 0.336677 0.614679 0.156765
O O14 0.083775 0.295906 0.243614
O O15 0.647489 0.704098 0.932361
O O16 0.865623 0.340252 0.837982
#
# Coordination Sequence:
#
# PCOD8054774 Si02
#       8
#     4   4   4   4   4   4   4   4
#     4   9  19  34  56  84 111 140 182 231 277 321
#     4  10  21  35  55  84 113 142 183 232 275 324
#     4  10  21  35  55  84 113 142 183 232 275 324
#     4   9  19  34  56  84 111 140 182 231 277 321
#     4  11  20  35  58  84 112 147 183 226 278 328
#     4  11  20  35  58  84 112 147 183 226 278 328
#     4  10  21  38  57  82 113 147 184 227 273 327
#     4  10  21  38  57  82 113 147 184 227 273 327
#
# _framework density 23.970731000000001
#
# number of rings (size 3 to 8) (size 9 to 14) (size 15 to 20)
#    0.000    2.000    0.000    3.750    0.000    7.000 
#    0.000    1.250    0.000    4.500    0.000    0.000 
#    0.000    0.000    0.000    0.000    0.000    0.000 
#
# Total GULP energy -198379.599676 kJ/mol
# GULP energy per Si atom -12398.724980 kJ/mol
# Density = 2.391617 g / cm^3
# Si number density = 23.970731 Si / 1000 Ang^3
#
#
#
# Elastic Constant Matrix: (Units=GPa)
#
#
# Indices 1 2 3 4 5 6 
#
# 1 82.7461 13.1345 41.2137 -0.0010 -11.1190 -0.0032
# 2 13.1345 23.7565 12.7025 0.0012 -0.5693 0.0004
# 3 41.2137 12.7025 80.9746 -0.0004 -6.4657 0.0011
# 4 -0.0010 0.0012 -0.0004 20.3948 -0.0013 -8.8652
# 5 -11.1190 -0.5693 -6.4657 -0.0013 45.8194 -0.0057
# 6 -0.0032 0.0004 0.0011 -8.8652 -0.0057 22.9358
#
#
#
# Elastic Compliance Matrix: (Units=1/GPa)
#
#
# Indices 1 2 3 4 5 6 
#
# 1 0.017145 -0.005316 -0.007652 0.000003 0.003015 0.000005
# 2 -0.005316 0.047605 -0.004873 -0.000005 -0.001386 -0.000004
# 3 -0.007652 -0.004873 0.017047 -0.000001 0.000488 -0.000002
# 4 0.000003 -0.000005 -0.000001 0.058934 0.000005 0.022779
# 5 0.003015 -0.001386 0.000488 0.000005 0.022608 0.000008
# 6 0.000005 -0.000004 -0.000002 0.022779 0.000008 0.052405
#
#
# Mechanical properties :
#
#
# Convention : Reuss Voigt Hill
#
# Bulk Modulus (GPa) = 21.68400 35.73094 28.70747
# Shear Modulus (GPa) = 18.74083 25.85844 22.29963
#
# Velocity S-wave (km/s) = 2.79914 3.28800 3.05337
# Velocity P-wave (km/s) = 4.41731 5.41784 4.94295
#
# Compressibility (1/GPa) = 0.04611694
#
# Stress axis : x y z
#
# Youngs Moduli (GPa) = 58.32533 21.00619 58.65966
#
# Poissons Ratio (x) = 0.11166 0.44885
# Poissons Ratio (y) = 0.31004 0.28585
# Poissons Ratio (z) = 0.44629 0.10236
#
# Static dielectric constant tensor:
#      x y z
#    x 4.424380 0.000000 0.266770 
#    y 0.000000 3.723450 0.000000 
#    z 0.266770 0.000000 4.510690 
# 
# 
# High freq. dielectric constant tensor:
#      x y z
#    x 1.965750 0.000000 0.006730 
#    y 0.000000 1.899490 0.000000 
#    z 0.006730 0.000000 1.956900 
# 
# From -- ./inp_files/27480.got.cif
#   From: 2010.06.25/outbox.cif.g09.slc.cpg/sg9_14_cif.got.tgz:27480.got - 2010.06.27 21:40:51.
