data_PCOD8054127
_publ_section_title
;
Structure prediction by ZEFSAII (Michael W. Deem and Ramdas Pophale) SiO2 
 PCOD8054127
Probable space group: C M
;
_chemical_formula_sum "Si O2"
_cell_formula_units_Z 32
_cell_length_a 8.590018
_cell_length_b 22.181593
_cell_length_c 14.323599
_cell_angle_alpha 90.000000
_cell_angle_beta 30.845020
_cell_angle_gamma 90.000000
_cell_volume 1399.320554
_symmetry_space_group_name_H-M "C M"
_symmetry_group_IT_number 8
_symmetry_cell_setting 'monoclinic'
loop_
_space_group_symop_operation_xyz
x,y,z
x,-y,z
1/2+x,1/2+y,z
1/2+x,1/2-y,z
loop_
_atom_site_type_symbol
_atom_site_label
_atom_site_fract_x
_atom_site_fract_y
_atom_site_fract_z
Si Si1 0.398220 0.888659 0.483100
Si Si2 0.047602 0.851143 0.487144
Si Si3 0.078946 0.114436 0.104884
Si Si4 0.501505 0.567141 0.839077
Si Si5 0.420662 0.150293 0.108361
Si Si6 0.467696 0.067282 0.757628
Si Si7 0.265061 0.770959 0.662676
Si Si8 0.154601 0.775274 0.924207
O O1 0.210261 0.887616 0.484739
O O2 0.228338 0.937186 0.634387
O O3 0.421281 0.825780 0.528052
O O4 0.737213 0.910387 0.284823
O O5 0.272961 0.849660 0.284993
O O6 0.738259 0.884507 0.615946
O O7 0.003663 0.783748 0.550150
O O8 0.191657 0.121624 0.152195
O O9 0.306917 0.066053 0.941633
O O10 0.090683 0.173531 0.032945
O O11 0.367918 0.500000 0.926127
O O12 0.704830 0.588910 0.821770
O O13 0.236715 0.614240 0.951357
O O14 0.457317 0.218216 0.054956
O O15 0.588085 0.000000 0.672017
O O16 0.093695 0.792571 0.846804
O O17 0.004918 0.742169 0.733521
#
# Coordination Sequence:
#
# PCOD8054127 Si02
#       8
#     4   4   4   4   4   4   4   4
#     4  12  26  42  68 100 135 176 218 271 326 392
#     4  12  26  43  67 100 134 176 221 268 329 391
#     4  12  26  42  68 100 135 176 218 271 326 392
#     4  11  25  47  72  96 128 171 220 278 334 389
#     4  12  26  43  67 100 134 176 221 268 329 391
#     4  11  25  47  72  96 128 171 220 278 334 389
#     4  12  23  41  69  98 135 177 219 266 330 391
#     4  12  23  41  69  98 135 177 219 266 330 391
#
# _framework density 22.868243
#
# number of rings (size 3 to 8) (size 9 to 14) (size 15 to 20)
#    0.000    0.250    5.000    3.750    3.500    5.000 
#    0.000    0.000    0.000    0.000    0.000    0.000 
#    0.000    0.000    0.000    0.000    0.000    0.000 
#
# Total GULP energy -198375.155285 kJ/mol
# GULP energy per Si atom -12398.447205 kJ/mol
# Density = 2.281619 g / cm^3
# Si number density = 22.868243 Si / 1000 Ang^3
#
#
#
# Elastic Constant Matrix: (Units=GPa)
#
#
# Indices 1 2 3 4 5 6 
#
# 1 100.5620 13.9048 3.8701 0.0005 7.5017 -0.0011
# 2 13.9048 78.6753 8.0398 -0.0014 -0.9134 -0.0002
# 3 3.8701 8.0398 108.6158 -0.0048 8.6211 -0.0022
# 4 0.0005 -0.0014 -0.0048 13.5957 0.0006 3.1512
# 5 7.5017 -0.9134 8.6211 0.0006 44.7730 -0.0002
# 6 -0.0011 -0.0002 -0.0022 3.1512 -0.0002 23.8252
#
#
#
# Elastic Compliance Matrix: (Units=1/GPa)
#
#
# Indices 1 2 3 4 5 6 
#
# 1 0.010332 -0.001837 -0.000093 -0.000001 -0.001751 0.000001
# 2 -0.001837 0.013143 -0.000968 0.000001 0.000762 0.000000
# 3 -0.000093 -0.000968 0.009426 0.000003 -0.001819 0.000000
# 4 -0.000001 0.000001 0.000003 0.075879 -0.000001 -0.010036
# 5 -0.001751 0.000762 -0.001819 -0.000001 0.022994 0.000000
# 6 0.000001 0.000000 0.000000 -0.010036 0.000000 0.043300
#
#
# Mechanical properties :
#
#
# Convention : Reuss Voigt Hill
#
# Bulk Modulus (GPa) = 36.89323 37.72029 37.30676
# Shear Modulus (GPa) = 26.32895 33.90800 30.11847
#
# Velocity S-wave (km/s) = 3.39681 3.85483 3.63305
# Velocity P-wave (km/s) = 5.61715 6.02855 5.82648
#
# Compressibility (1/GPa) = 0.02710524
#
# Stress axis : x y z
#
# Youngs Moduli (GPa) = 96.78399 76.08682 106.08818
#
# Poissons Ratio (x) = 0.13976 0.00989
# Poissons Ratio (y) = 0.17778 0.10268
# Poissons Ratio (z) = 0.00902 0.07364
#
# Static dielectric constant tensor:
#      x y z
#    x 4.238890 0.000000 0.064610 
#    y 0.000000 4.030600 0.000000 
#    z 0.064610 0.000000 4.104220 
# 
# 
# High freq. dielectric constant tensor:
#      x y z
#    x 1.921980 0.000000 0.006730 
#    y 0.000000 1.896930 0.000000 
#    z 0.006730 0.000000 1.902020 
# 
# From -- ./inp_files/13827.got.cif
#   From: 2010.03.12/outbox.cif.g09.slc.cpg/sg8_7_cif.got.tgz:13827.got - 2010.03.31 10:45:26.
