data_PCOD8054085
_publ_section_title
;
Structure prediction by ZEFSAII (Michael W. Deem and Ramdas Pophale) SiO2 
 PCOD8054085
Probable space group: C M
;
_chemical_formula_sum "Si O2"
_cell_formula_units_Z 32
_cell_length_a 17.994485
_cell_length_b 14.442394
_cell_length_c 10.717495
_cell_angle_alpha 90.000000
_cell_angle_beta 147.670336
_cell_angle_gamma 90.000000
_cell_volume 1489.550034
_symmetry_space_group_name_H-M "C M"
_symmetry_group_IT_number 8
_symmetry_cell_setting 'monoclinic'
loop_
_space_group_symop_operation_xyz
x,y,z
x,-y,z
1/2+x,1/2+y,z
1/2+x,1/2-y,z
loop_
_atom_site_type_symbol
_atom_site_label
_atom_site_fract_x
_atom_site_fract_y
_atom_site_fract_z
Si Si1 0.885860 0.236556 0.183590
Si Si2 0.882054 0.896893 0.403732
Si Si3 0.662494 0.363045 0.186583
Si Si4 0.824001 0.604109 0.648221
Si Si5 0.676434 0.601739 0.928088
Si Si6 0.167303 0.283394 0.501436
Si Si7 0.618987 0.838714 0.155930
Si Si8 0.388923 0.603524 0.950772
O O1 0.844420 0.174294 0.241545
O O2 0.040827 0.277984 0.420417
O O3 0.781191 0.322377 0.021959
O O4 0.887328 0.174110 0.062569
O O5 0.756787 0.898522 0.326090
O O6 0.021690 0.866083 0.672108
O O7 0.898320 0.000000 0.370873
O O8 0.801485 0.376738 0.468119
O O9 0.635980 0.257875 0.108029
O O10 0.684456 0.414678 0.088088
O O11 0.536282 0.401394 0.090687
O O12 0.772125 0.500000 0.609184
O O13 0.737834 0.681667 0.600858
O O14 0.985728 0.609131 0.912505
O O15 0.711103 0.500000 0.919141
O O16 0.102427 0.314488 0.277751
O O17 0.274759 0.362399 0.690840
O O18 0.351304 0.500000 0.943094
#
# Coordination Sequence:
#
# PCOD8054085 Si02
#       8
#     4   4   4   4   4   4   4   4
#     4  12  24  43  67  93 137 174 215 261 325 395
#     4  11  25  43  66  98 130 171 218 268 328 387
#     4  11  22  41  70  97 127 169 219 274 321 380
#     4  11  22  39  66  99 133 167 213 268 327 385
#     4  11  25  45  69  96 130 174 221 268 323 386
#     4  11  24  43  65  97 130 171 217 270 326 379
#     4  11  22  41  68  97 132 167 217 273 328 377
#     4  12  24  43  69  97 127 169 220 270 326 385
#
# _framework density 21.482996
#
# number of rings (size 3 to 8) (size 9 to 14) (size 15 to 20)
#    0.000    0.750    5.000    3.375    1.750    3.000 
#    2.250    3.125    0.000    0.000    0.000    0.000 
#    0.000    0.000    0.000    0.000    0.000    0.000 
#
# Total GULP energy -198395.339165 kJ/mol
# GULP energy per Si atom -12399.708698 kJ/mol
# Density = 2.143410 g / cm^3
# Si number density = 21.482996 Si / 1000 Ang^3
#
#
#
# Elastic Constant Matrix: (Units=GPa)
#
#
# Indices 1 2 3 4 5 6 
#
# 1 81.5813 34.8551 31.7627 0.0000 13.4917 0.0000
# 2 34.8551 136.7591 49.2750 0.0000 9.4229 0.0000
# 3 31.7627 49.2750 129.8470 0.0000 15.8626 0.0000
# 4 0.0000 0.0000 0.0000 26.8946 0.0000 3.9536
# 5 13.4917 9.4229 15.8626 0.0000 30.8811 0.0000
# 6 0.0000 0.0000 0.0000 3.9536 0.0000 18.3996
#
#
#
# Elastic Compliance Matrix: (Units=1/GPa)
#
#
# Indices 1 2 3 4 5 6 
#
# 1 0.015009 -0.002764 -0.002053 0.000000 -0.004659 0.000000
# 2 -0.002764 0.009008 -0.002725 0.000000 -0.000141 0.000000
# 3 -0.002053 -0.002725 0.009631 0.000000 -0.003219 0.000000
# 4 0.000000 0.000000 0.000000 0.038395 0.000000 -0.008250
# 5 -0.004659 -0.000141 -0.003219 0.000000 0.036114 0.000000
# 6 0.000000 0.000000 0.000000 -0.008250 0.000000 0.056122
#
#
# Mechanical properties :
#
#
# Convention : Reuss Voigt Hill
#
# Bulk Modulus (GPa) = 53.87166 64.44145 59.15656
# Shear Modulus (GPa) = 26.94674 30.72137 28.83406
#
# Velocity S-wave (km/s) = 3.54549 3.78568 3.66755
# Velocity P-wave (km/s) = 6.47237 7.01214 6.74765
#
# Compressibility (1/GPa) = 0.01856264
#
# Stress axis : x y z
#
# Youngs Moduli (GPa) = 66.62831 111.00931 103.83241
#
# Poissons Ratio (x) = 0.30688 0.21318
# Poissons Ratio (y) = 0.18419 0.28295
# Poissons Ratio (z) = 0.13680 0.30250
#
# Static dielectric constant tensor:
#      x y z
#    x 3.640900 0.000000 0.002000 
#    y 0.000000 4.041150 0.000000 
#    z 0.002000 0.000000 3.967940 
# 
# 
# High freq. dielectric constant tensor:
#      x y z
#    x 1.822060 0.000000 -0.002630 
#    y 0.000000 1.859380 0.000000 
#    z -0.002630 0.000000 1.851420 
# 
# From -- ./inp_files/23333.got.cif
#   From: 2010.03.12/outbox.cif.g09.slc.cpg/sg8_12_cif.got.tgz:23333.got - 2010.03.31 10:45:26.
