data_PCOD8054288
_publ_section_title
;
Structure prediction by ZEFSAII (Michael W. Deem and Ramdas Pophale) SiO2 
 PCOD8054288
Probable space group: C C
;
_chemical_formula_sum "Si O2"
_cell_formula_units_Z 32
_cell_length_a 8.453424
_cell_length_b 11.914436
_cell_length_c 22.769992
_cell_angle_alpha 90.000000
_cell_angle_beta 139.565363
_cell_angle_gamma 90.000000
_cell_volume 1487.416776
_symmetry_space_group_name_H-M "C C"
_symmetry_group_IT_number 9
_symmetry_cell_setting 'monoclinic'
loop_
_space_group_symop_operation_xyz
x,y,z
x,-y,1/2+z
1/2+x,1/2+y,z
1/2+x,1/2-y,1/2+z
loop_
_atom_site_type_symbol
_atom_site_label
_atom_site_fract_x
_atom_site_fract_y
_atom_site_fract_z
Si Si1 0.837340 0.573501 0.062270
Si Si2 0.841821 0.977994 0.741906
Si Si3 0.609342 0.618272 0.426232
Si Si4 0.726447 0.565871 0.256078
Si Si5 0.370343 0.309401 0.428647
Si Si6 0.675661 0.434758 0.126058
Si Si7 0.774014 0.065836 0.432577
Si Si8 0.125493 0.698249 0.735628
O O1 0.766907 0.527407 0.106234
O O2 0.128726 0.593409 0.148299
O O3 0.785622 0.484704 0.994825
O O4 0.669294 0.685832 0.006839
O O5 0.919220 0.914539 0.822240
O O6 0.074477 0.987174 0.766096
O O7 0.753756 0.103258 0.732912
O O8 0.775946 0.723834 0.452763
O O9 0.432142 0.643211 0.431867
O O10 0.720195 0.474255 0.204211
O O11 0.623960 0.683019 0.201281
O O12 0.994151 0.597878 0.355415
O O13 0.286691 0.435354 0.418884
O O14 0.257131 0.275947 0.334520
O O15 0.841302 0.325277 0.165796
O O16 0.391444 0.411123 0.030392
#
# Coordination Sequence:
#
# PCOD8054288 Si02
#       8
#     4   4   4   4   4   4   4   4
#     4   9  21  39  65  90 127 167 209 263 315 379
#     4  11  22  39  63  94 126 168 211 261 312 380
#     4  10  19  39  67  93 123 169 212 255 327 377
#     4  12  24  40  63  96 127 167 214 257 318 379
#     4  10  18  39  69  88 124 170 204 262 325 369
#     4   9  21  42  62  88 130 160 208 265 312 374
#     4  10  22  41  65  92 129 168 207 269 313 378
#     4  11  21  43  64  87 130 167 203 264 320 370
#
# _framework density 21.513808000000001
#
# number of rings (size 3 to 8) (size 9 to 14) (size 15 to 20)
#    0.000    2.000    5.000    0.750    0.000    8.000 
#    2.250    1.250    0.000    0.000    0.000    0.000 
#    0.000    0.000    0.000    0.000    0.000    0.000 
#
# Total GULP energy -198250.749481 kJ/mol
# GULP energy per Si atom -12390.671843 kJ/mol
# Density = 2.146484 g / cm^3
# Si number density = 21.513808 Si / 1000 Ang^3
#
#
#
# Elastic Constant Matrix: (Units=GPa)
#
#
# Indices 1 2 3 4 5 6 
#
# 1 89.1555 39.0129 45.9908 0.0000 21.9455 0.0000
# 2 39.0129 85.3060 9.3385 0.0000 13.8589 0.0000
# 3 45.9908 9.3385 151.2986 0.0000 20.2746 0.0000
# 4 0.0000 0.0000 0.0000 9.5806 0.0000 5.7120
# 5 21.9455 13.8589 20.2746 0.0000 16.2949 0.0000
# 6 0.0000 0.0000 0.0000 5.7120 0.0000 38.2862
#
#
#
# Elastic Compliance Matrix: (Units=1/GPa)
#
#
# Indices 1 2 3 4 5 6 
#
# 1 0.019806 -0.005837 -0.003302 0.000000 -0.017603 0.000000
# 2 -0.005837 0.015414 0.001832 0.000000 -0.007528 0.000000
# 3 -0.003302 0.001832 0.008536 0.000000 -0.007732 0.000000
# 4 0.000000 0.000000 0.000000 0.114569 0.000000 -0.017093
# 5 -0.017603 -0.007528 -0.007732 0.000000 0.101099 0.000000
# 6 0.000000 0.000000 0.000000 -0.017093 0.000000 0.028669
#
#
# Mechanical properties :
#
#
# Convention : Reuss Voigt Hill
#
# Bulk Modulus (GPa) = 34.31322 57.16049 45.73686
# Shear Modulus (GPa) = 16.00399 28.26020 22.13210
#
# Velocity S-wave (km/s) = 2.73040 3.62827 3.21088
# Velocity P-wave (km/s) = 5.09158 6.64676 5.92045
#
# Compressibility (1/GPa) = 0.02914329
#
# Stress axis : x y z
#
# Youngs Moduli (GPa) = 50.48864 64.87456 117.14913
#
# Poissons Ratio (x) = 0.37867 0.38677
# Poissons Ratio (y) = 0.29470 -0.21457
# Poissons Ratio (z) = 0.16669 -0.11883
#
# Static dielectric constant tensor:
#      x y z
#    x 3.870340 0.000000 0.263130 
#    y 0.000000 3.724590 0.000000 
#    z 0.263130 0.000000 4.578030 
# 
# 
# High freq. dielectric constant tensor:
#      x y z
#    x 1.831810 0.000000 0.007530 
#    y 0.000000 1.825080 0.000000 
#    z 0.007530 0.000000 1.864200 
# 
# From -- ./inp_files/29272.got.cif
#   From: 2010.06.25/outbox.cif.g09.slc.cpg/sg9_15_cif.got.tgz:29272.got - 2010.06.27 21:40:51.
