data_PCOD8054736
_publ_section_title
;
Structure prediction by ZEFSAII (Michael W. Deem and Ramdas Pophale) SiO2 
 PCOD8054736
Probable space group: C C
;
_chemical_formula_sum "Si O2"
_cell_formula_units_Z 32
_cell_length_a 13.961407
_cell_length_b 12.924616
_cell_length_c 9.423128
_cell_angle_alpha 90.000000
_cell_angle_beta 113.509095
_cell_angle_gamma 90.000000
_cell_volume 1559.228381
_symmetry_space_group_name_H-M "C C"
_symmetry_group_IT_number 9
_symmetry_cell_setting 'monoclinic'
loop_
_space_group_symop_operation_xyz
x,y,z
x,-y,1/2+z
1/2+x,1/2+y,z
1/2+x,1/2-y,1/2+z
loop_
_atom_site_type_symbol
_atom_site_label
_atom_site_fract_x
_atom_site_fract_y
_atom_site_fract_z
Si Si1 0.891300 0.308064 0.555350
Si Si2 0.189772 0.766594 0.980809
Si Si3 0.420244 0.205673 0.585805
Si Si4 0.023952 0.398268 0.378232
Si Si5 0.024500 0.366501 0.872782
Si Si6 0.675668 0.718365 0.795724
Si Si7 0.999761 0.896756 0.806011
Si Si8 0.480639 0.405771 0.114118
O O1 0.772534 0.327723 0.441349
O O2 0.974179 0.335699 0.480811
O O3 0.922609 0.374979 0.711114
O O4 0.904192 0.188210 0.610702
O O5 0.129798 0.662632 0.894450
O O6 0.122366 0.868630 0.898872
O O7 0.299703 0.785045 0.966619
O O8 0.213057 0.748069 0.161787
O O9 0.443954 0.104002 0.696663
O O10 0.494292 0.202126 0.491681
O O11 0.444410 0.299262 0.704686
O O12 0.052382 0.516195 0.435036
O O13 0.121548 0.313259 0.848634
O O14 0.597980 0.623710 0.726624
O O15 0.961906 0.989560 0.685592
O O16 0.957708 0.925778 0.935760
#
# Coordination Sequence:
#
# PCOD8054736 Si02
#       8
#     4   4   4   4   4   4   4   4
#     4  11  21  43  63  89 128 168 204 256 319 374
#     4  10  20  43  64  88 124 170 203 252 321 374
#     4  11  23  41  63  94 130 161 208 267 311 366
#     4  11  21  42  66  90 129 169 210 253 322 377
#     4  11  25  38  65 100 124 162 216 267 302 371
#     4  10  21  42  64  87 127 167 204 255 315 374
#     4  10  22  38  63  87 123 162 204 254 310 370
#     4  10  21  39  62  89 119 165 205 252 310 372
#
# _framework density 20.522971999999999
#
# number of rings (size 3 to 8) (size 9 to 14) (size 15 to 20)
#    0.000    1.500    6.250    0.750    3.500    5.000 
#    0.000    0.000    0.000    0.000    0.000    0.000 
#    0.000    0.000    0.000    0.000    0.000    0.000 
#
# Total GULP energy -198282.345635 kJ/mol
# GULP energy per Si atom -12392.646602 kJ/mol
# Density = 2.047626 g / cm^3
# Si number density = 20.522972 Si / 1000 Ang^3
#
#
#
# Elastic Constant Matrix: (Units=GPa)
#
#
# Indices 1 2 3 4 5 6 
#
# 1 45.3549 2.8515 1.6541 0.0000 -0.0523 0.0000
# 2 2.8515 79.5631 17.2075 0.0000 -16.5259 0.0000
# 3 1.6541 17.2075 81.5754 0.0000 -2.2258 0.0000
# 4 0.0000 0.0000 0.0000 38.0273 0.0000 -3.0601
# 5 -0.0523 -16.5259 -2.2258 0.0000 31.0708 0.0000
# 6 0.0000 0.0000 0.0000 -3.0601 0.0000 11.1536
#
#
#
# Elastic Compliance Matrix: (Units=1/GPa)
#
#
# Indices 1 2 3 4 5 6 
#
# 1 0.022110 -0.000817 -0.000287 0.000000 -0.000418 0.000000
# 2 -0.000817 0.014819 -0.002900 0.000000 0.007673 0.000000
# 3 -0.000287 -0.002900 0.012859 0.000000 -0.000622 0.000000
# 4 0.000000 0.000000 0.000000 0.026891 0.000000 0.007378
# 5 -0.000418 0.007673 -0.000622 0.000000 0.036220 0.000000
# 6 0.000000 0.000000 0.000000 0.007378 0.000000 0.091682
#
#
# Mechanical properties :
#
#
# Convention : Reuss Voigt Hill
#
# Bulk Modulus (GPa) = 23.93554 27.76886 25.85220
# Shear Modulus (GPa) = 22.07356 28.36900 25.22128
#
# Velocity S-wave (km/s) = 3.28312 3.72197 3.50941
# Velocity P-wave (km/s) = 5.10490 5.65957 5.38937
#
# Compressibility (1/GPa) = 0.04177888
#
# Stress axis : x y z
#
# Youngs Moduli (GPa) = 45.22901 67.48190 77.76546
#
# Poissons Ratio (x) = 0.05514 0.02235
# Poissons Ratio (y) = 0.03696 0.22552
# Poissons Ratio (z) = 0.01300 0.19569
#
# Static dielectric constant tensor:
#      x y z
#    x 3.478550 0.000000 0.099040 
#    y 0.000000 3.548270 0.000000 
#    z 0.099040 0.000000 3.962070 
# 
# 
# High freq. dielectric constant tensor:
#      x y z
#    x 1.778010 0.000000 0.006900 
#    y 0.000000 1.792100 0.000000 
#    z 0.006900 0.000000 1.816820 
# 
# From -- ./inp_files/9081.got.cif
#   From: 2010.06.25/outbox.cif.g09.slc.cpg/sg9_5_cif.got.tgz:9081.got - 2010.06.27 21:40:51.
