data_PCOD8054050
_publ_section_title
;
Structure prediction by ZEFSAII (Michael W. Deem and Ramdas Pophale) SiO2 
 PCOD8054050
Probable space group: C M
;
_chemical_formula_sum "Si O2"
_cell_formula_units_Z 32
_cell_length_a 20.413309
_cell_length_b 8.337910
_cell_length_c 25.126387
_cell_angle_alpha 90.000000
_cell_angle_beta 156.989468
_cell_angle_gamma 90.000000
_cell_volume 1671.732137
_symmetry_space_group_name_H-M "C M"
_symmetry_group_IT_number 8
_symmetry_cell_setting 'monoclinic'
loop_
_space_group_symop_operation_xyz
x,y,z
x,-y,z
1/2+x,1/2+y,z
1/2+x,1/2-y,z
loop_
_atom_site_type_symbol
_atom_site_label
_atom_site_fract_x
_atom_site_fract_y
_atom_site_fract_z
Si Si1 0.949370 0.190450 0.650090
Si Si2 0.757767 0.813269 0.323772
Si Si3 0.622157 0.187117 0.610214
Si Si4 0.762425 0.686218 0.821285
Si Si5 0.647498 0.809981 0.353209
Si Si6 0.615871 0.314202 0.110890
Si Si7 0.928245 0.690413 0.282089
Si Si8 0.731533 0.189947 0.579459
O O1 0.813455 0.258139 0.506344
O O2 0.895916 0.251925 0.669508
O O3 0.132754 0.251794 0.769314
O O4 0.947991 0.000000 0.648685
O O5 0.644779 0.754704 0.289738
O O6 0.702792 0.707030 0.232987
O O7 0.950990 0.786855 0.483715
O O8 0.728098 0.000000 0.288929
O O9 0.734770 0.219038 0.745912
O O10 0.732062 0.244924 0.641283
O O11 0.577774 0.000000 0.572546
O O12 0.731274 0.500000 0.786671
O O13 0.947866 0.711980 0.981877
O O14 0.481577 0.753166 0.262136
O O15 0.658572 0.000000 0.363314
O O16 0.572624 0.500000 0.069998
O O17 0.743719 0.248500 0.160922
O O18 0.926893 0.500000 0.284746
O O19 0.064072 0.758004 0.425740
O O20 0.727958 0.000000 0.573045
#
# Coordination Sequence:
#
# PCOD8054050 Si02
#       8
#     4   4   4   4   4   4   4   4
#     4   8  14  28  51  77 103 133 175 219 256 300
#     4  11  20  33  55  83 110 138 175 221 266 313
#     4  11  20  33  55  83 110 138 175 221 266 313
#     4  11  22  37  55  78 108 144 178 218 266 318
#     4   8  14  27  51  80 103 129 173 223 258 298
#     4  11  22  37  55  78 108 144 178 218 266 318
#     4   8  14  28  51  77 103 133 175 219 256 300
#     4   8  14  27  51  80 103 129 173 223 258 298
#
# _framework density 19.141822999999999
#
# number of rings (size 3 to 8) (size 9 to 14) (size 15 to 20)
#    0.000    2.500    2.500    3.000    0.000    0.000 
#    0.000    1.250    0.000   15.000    0.000    0.000 
#    0.000    0.000    0.000    0.000    0.000    0.000 
#
# Total GULP energy -198268.872375 kJ/mol
# GULP energy per Si atom -12391.804523 kJ/mol
# Density = 1.909826 g / cm^3
# Si number density = 19.141823 Si / 1000 Ang^3
#
#
#
# Elastic Constant Matrix: (Units=GPa)
#
#
# Indices 1 2 3 4 5 6 
#
# 1 168.6206 17.4038 52.8957 -0.0064 30.7147 0.0023
# 2 17.4038 26.3526 4.7932 -0.0018 4.6169 -0.0020
# 3 52.8957 4.7932 84.8736 0.0118 21.6456 0.0010
# 4 -0.0064 -0.0018 0.0118 23.5556 0.0027 -2.0812
# 5 30.7147 4.6169 21.6456 0.0027 32.9740 0.0009
# 6 0.0023 -0.0020 0.0010 -2.0812 0.0009 19.3868
#
#
#
# Elastic Compliance Matrix: (Units=1/GPa)
#
#
# Indices 1 2 3 4 5 6 
#
# 1 0.008406 -0.004025 -0.003793 0.000004 -0.004776 -0.000001
# 2 -0.004025 0.040895 0.000844 0.000002 -0.002531 0.000005
# 3 -0.003793 0.000844 0.015887 -0.000008 -0.007014 -0.000001
# 4 0.000004 0.000002 -0.000008 0.042859 -0.000003 0.004601
# 5 -0.004776 -0.002531 -0.007014 -0.000003 0.039735 -0.000002
# 6 -0.000001 0.000005 -0.000001 0.004601 -0.000002 0.052076
#
#
# Mechanical properties :
#
#
# Convention : Reuss Voigt Hill
#
# Bulk Modulus (GPa) = 19.51570 47.78134 33.64852
# Shear Modulus (GPa) = 21.65578 28.83354 25.24466
#
# Velocity S-wave (km/s) = 3.36718 3.88533 3.63550
# Velocity P-wave (km/s) = 5.03335 6.71891 5.93626
#
# Compressibility (1/GPa) = 0.05124080
#
# Stress axis : x y z
#
# Youngs Moduli (GPa) = 118.96490 24.45299 62.94263
#
# Poissons Ratio (x) = 0.09841 0.23876
# Poissons Ratio (y) = 0.47879 -0.05314
# Poissons Ratio (z) = 0.45128 -0.02065
#
# Static dielectric constant tensor:
#      x y z
#    x 4.214330 0.000000 0.351630 
#    y 0.000000 3.020400 0.000000 
#    z 0.351630 0.000000 3.233240 
# 
# 
# High freq. dielectric constant tensor:
#      x y z
#    x 1.767600 0.000000 0.018580 
#    y 0.000000 1.703850 0.000000 
#    z 0.018580 0.000000 1.709130 
# 
# From -- ./inp_files/33067.got.cif
#   From: 2010.03.12/outbox.cif.g09.slc.cpg/sg8_17_cif.got.tgz:33067.got - 2010.03.31 10:45:26.
