data_PCOD8054588
_publ_section_title
;
Structure prediction by ZEFSAII (Michael W. Deem and Ramdas Pophale) SiO2 
 PCOD8054588
Probable space group: C C
;
_chemical_formula_sum "Si O2"
_cell_formula_units_Z 32
_cell_length_a 11.290046
_cell_length_b 10.953378
_cell_length_c 14.004669
_cell_angle_alpha 90.000000
_cell_angle_beta 68.491268
_cell_angle_gamma 90.000000
_cell_volume 1611.270515
_symmetry_space_group_name_H-M "C C"
_symmetry_group_IT_number 9
_symmetry_cell_setting 'monoclinic'
loop_
_space_group_symop_operation_xyz
x,y,z
x,-y,1/2+z
1/2+x,1/2+y,z
1/2+x,1/2-y,1/2+z
loop_
_atom_site_type_symbol
_atom_site_label
_atom_site_fract_x
_atom_site_fract_y
_atom_site_fract_z
Si Si1 0.073190 0.938070 0.613930
Si Si2 0.484377 0.057231 0.013814
Si Si3 0.275161 0.123314 0.617137
Si Si4 0.225567 0.647163 0.023143
Si Si5 0.344175 0.708143 0.269171
Si Si6 0.217246 0.458382 0.330918
Si Si7 0.339464 0.555118 0.601917
Si Si8 0.290560 0.226009 0.987026
O O1 0.153708 0.842613 0.525170
O O2 0.979369 0.853198 0.703842
O O3 0.168092 0.016657 0.653682
O O4 0.991217 0.037115 0.575879
O O5 0.564315 0.048817 0.890638
O O6 0.377997 0.159477 0.037935
O O7 0.578585 0.100699 0.070818
O O8 0.416729 0.929641 0.058116
O O9 0.238929 0.208689 0.537479
O O10 0.281823 0.199729 0.712086
O O11 0.297579 0.582972 0.089840
O O12 0.283953 0.611857 0.901435
O O13 0.245350 0.601522 0.321921
O O14 0.355223 0.782862 0.364454
O O15 0.267157 0.396739 0.218441
O O16 0.292274 0.635365 0.526270
#
# Coordination Sequence:
#
# PCOD8054588 Si02
#       8
#     4   4   4   4   4   4   4   4
#     4  10  25  41  63  97 129 168 221 255 324 389
#     4   9  23  40  61  94 126 165 219 259 324 382
#     4  11  22  44  64  92 134 166 214 267 320 382
#     4  10  20  38  65  87 125 167 207 267 315 375
#     4  11  23  40  64  97 123 175 213 264 325 377
#     4   9  21  40  56  97 117 164 223 247 325 376
#     4  11  21  40  66  91 129 168 211 266 319 379
#     4  11  23  41  65  95 133 167 212 273 318 378
#
# _framework density 19.860104
#
# number of rings (size 3 to 8) (size 9 to 14) (size 15 to 20)
#    0.750    1.000    3.750    0.750    5.250    1.000 
#    4.500    5.000    0.000    0.000    0.000    0.000 
#    0.000    0.000    0.000    0.000    0.000    0.000 
#
# Total GULP energy -198230.855892 kJ/mol
# GULP energy per Si atom -12389.428493 kJ/mol
# Density = 1.981490 g / cm^3
# Si number density = 19.860104 Si / 1000 Ang^3
#
#
#
# Elastic Constant Matrix: (Units=GPa)
#
#
# Indices 1 2 3 4 5 6 
#
# 1 89.2160 36.0747 33.9320 0.0000 -6.8084 0.0000
# 2 36.0747 88.0285 32.9147 0.0000 -1.2484 0.0000
# 3 33.9320 32.9147 98.6018 0.0000 4.6948 0.0000
# 4 0.0000 0.0000 0.0000 28.6619 0.0000 0.9354
# 5 -6.8084 -1.2484 4.6948 0.0000 32.5607 0.0000
# 6 0.0000 0.0000 0.0000 0.9354 0.0000 39.4962
#
#
#
# Elastic Compliance Matrix: (Units=1/GPa)
#
#
# Indices 1 2 3 4 5 6 
#
# 1 0.014742 -0.004610 -0.003698 0.000000 0.003439 0.000000
# 2 -0.004610 0.014463 -0.003244 0.000000 0.000058 0.000000
# 3 -0.003698 -0.003244 0.012627 0.000000 -0.002718 0.000000
# 4 0.000000 0.000000 0.000000 0.034917 0.000000 -0.000827
# 5 0.003439 0.000058 -0.002718 0.000000 0.031825 0.000000
# 6 0.000000 0.000000 0.000000 -0.000827 0.000000 0.025338
#
#
# Mechanical properties :
#
#
# Convention : Reuss Voigt Hill
#
# Bulk Modulus (GPa) = 53.39816 53.52099 53.45957
# Shear Modulus (GPa) = 30.62633 31.67208 31.14921
#
# Velocity S-wave (km/s) = 3.93122 3.99778 3.96464
# Velocity P-wave (km/s) = 6.89576 6.95105 6.92346
#
# Compressibility (1/GPa) = 0.01872724
#
# Stress axis : x y z
#
# Youngs Moduli (GPa) = 67.83514 69.14198 79.19631
#
# Poissons Ratio (x) = 0.31873 0.29287
# Poissons Ratio (y) = 0.31270 0.25694
# Poissons Ratio (z) = 0.25085 0.22432
#
# Static dielectric constant tensor:
#      x y z
#    x 3.553060 0.000000 -0.078760 
#    y 0.000000 3.596290 0.000000 
#    z -0.078760 0.000000 3.508990 
# 
# 
# High freq. dielectric constant tensor:
#      x y z
#    x 1.774880 0.000000 -0.001480 
#    y 0.000000 1.779690 0.000000 
#    z -0.001480 0.000000 1.757130 
# 
# From -- ./inp_files/24552.got.cif
#   From: 2010.06.25/outbox.cif.g09.slc.cpg/sg9_13_cif.got.tgz:24552.got - 2010.06.27 21:40:51.
