data_PCOD8054816
_publ_section_title
;
Structure prediction by ZEFSAII (Michael W. Deem and Ramdas Pophale) SiO2 
 PCOD8054816
Probable space group: C C
;
_chemical_formula_sum "Si O2"
_cell_formula_units_Z 32
_cell_length_a 15.058664
_cell_length_b 9.566758
_cell_length_c 17.378574
_cell_angle_alpha 90.000000
_cell_angle_beta 145.085354
_cell_angle_gamma 90.000000
_cell_volume 1432.950642
_symmetry_space_group_name_H-M "C C"
_symmetry_group_IT_number 9
_symmetry_cell_setting 'monoclinic'
loop_
_space_group_symop_operation_xyz
x,y,z
x,-y,1/2+z
1/2+x,1/2+y,z
1/2+x,1/2-y,1/2+z
loop_
_atom_site_type_symbol
_atom_site_label
_atom_site_fract_x
_atom_site_fract_y
_atom_site_fract_z
Si Si1 0.033650 0.205334 0.159650
Si Si2 0.486497 0.003526 0.061617
Si Si3 0.280647 0.337888 0.743500
Si Si4 0.452314 0.604504 0.834745
Si Si5 0.668061 0.546000 0.391200
Si Si6 0.704632 0.344955 0.634469
Si Si7 0.929285 0.558039 0.853724
Si Si8 0.728695 0.202047 0.028926
O O1 0.149102 0.159090 0.309517
O O2 0.086195 0.126315 0.120261
O O3 0.048747 0.370234 0.153194
O O4 0.860798 0.159324 0.061294
O O5 0.607525 0.132358 0.152844
O O6 0.468100 0.964967 0.957181
O O7 0.321404 0.045734 0.981682
O O8 0.385989 0.473150 0.835633
O O9 0.348829 0.198976 0.831278
O O10 0.289143 0.308016 0.658435
O O11 0.521949 0.557064 0.800941
O O12 0.309337 0.707221 0.718893
O O13 0.600076 0.670287 0.984177
O O14 0.682682 0.636661 0.480124
O O15 0.821119 0.476698 0.716426
O O16 0.083054 0.598137 0.914989
#
# Coordination Sequence:
#
# PCOD8054816 Si02
#       8
#     4   4   4   4   4   4   4   4
#     4  11  21  39  68 104 134 178 236 295 341 417
#     4  10  23  40  68  99 139 177 238 291 344 409
#     4  11  22  43  70  99 141 182 233 282 355 419
#     4  12  26  46  69 103 141 189 235 285 355 420
#     4  11  22  44  70 104 135 181 242 289 345 423
#     4  12  27  43  70 104 145 184 232 292 358 418
#     4  11  22  42  69 102 140 187 223 290 357 419
#     4  10  21  37  72 101 131 176 241 288 335 419
#
# _framework density 22.331544999999998
#
# number of rings (size 3 to 8) (size 9 to 14) (size 15 to 20)
#    0.000    1.000    5.000    1.500    5.250    1.000 
#    2.250    1.250    0.000    0.000    0.000    0.000 
#    0.000    0.000    0.000    0.000    0.000    0.000 
#
# Total GULP energy -198335.132296 kJ/mol
# GULP energy per Si atom -12395.945769 kJ/mol
# Density = 2.228072 g / cm^3
# Si number density = 22.331545 Si / 1000 Ang^3
#
#
#
# Elastic Constant Matrix: (Units=GPa)
#
#
# Indices 1 2 3 4 5 6 
#
# 1 139.5733 40.1966 34.4594 0.0000 27.0274 0.0000
# 2 40.1966 90.0219 35.2667 0.0001 7.5339 0.0000
# 3 34.4594 35.2667 95.6552 0.0001 7.8157 0.0001
# 4 0.0000 0.0001 0.0001 29.3148 0.0001 3.4343
# 5 27.0274 7.5339 7.8157 0.0001 38.4382 0.0000
# 6 0.0000 0.0000 0.0001 3.4343 0.0000 36.4202
#
#
#
# Elastic Compliance Matrix: (Units=1/GPa)
#
#
# Indices 1 2 3 4 5 6 
#
# 1 0.009635 -0.003089 -0.001859 0.000000 -0.005791 0.000000
# 2 -0.003089 0.014072 -0.004095 0.000000 0.000247 0.000000
# 3 -0.001859 -0.004095 0.012672 0.000000 -0.000467 0.000000
# 4 0.000000 0.000000 0.000000 0.034494 0.000000 -0.003253
# 5 -0.005791 0.000247 -0.000467 0.000000 0.030134 0.000000
# 6 0.000000 0.000000 0.000000 -0.003253 0.000000 0.027764
#
#
# Mechanical properties :
#
#
# Convention : Reuss Voigt Hill
#
# Bulk Modulus (GPa) = 54.66996 60.56620 57.61808
# Shear Modulus (GPa) = 32.68966 35.18982 33.93974
#
# Velocity S-wave (km/s) = 3.83016 3.97393 3.90271
# Velocity P-wave (km/s) = 6.64036 6.94524 6.79451
#
# Compressibility (1/GPa) = 0.01829158
#
# Stress axis : x y z
#
# Youngs Moduli (GPa) = 103.79147 71.06557 78.91526
#
# Poissons Ratio (x) = 0.21954 0.14668
# Poissons Ratio (y) = 0.32064 0.32318
# Poissons Ratio (z) = 0.19292 0.29103
#
# Static dielectric constant tensor:
#      x y z
#    x 4.139980 0.000000 0.266750 
#    y 0.000000 3.954080 0.000000 
#    z 0.266750 0.000000 4.082520 
# 
# 
# High freq. dielectric constant tensor:
#      x y z
#    x 1.878920 0.000000 0.026590 
#    y 0.000000 1.859170 0.000000 
#    z 0.026590 0.000000 1.881940 
# 
# From -- ./inp_files/30613.got.cif
#   From: 2010.06.25/outbox.cif.g09.slc.cpg/sg9_16_cif.got.tgz:30613.got - 2010.06.27 21:40:51.
