data_PCOD8054900
_publ_section_title
;
Structure prediction by ZEFSAII (Michael W. Deem and Ramdas Pophale) SiO2 
 PCOD8054900
Probable space group: C C
;
_chemical_formula_sum "Si O2"
_cell_formula_units_Z 28
_cell_length_a 9.000889
_cell_length_b 12.019442
_cell_length_c 12.224938
_cell_angle_alpha 90.000000
_cell_angle_beta 79.441313
_cell_angle_gamma 90.000000
_cell_volume 1300.169034
_symmetry_space_group_name_H-M "C C"
_symmetry_group_IT_number 9
_symmetry_cell_setting 'monoclinic'
loop_
_space_group_symop_operation_xyz
x,y,z
x,-y,1/2+z
1/2+x,1/2+y,z
1/2+x,1/2-y,1/2+z
loop_
_atom_site_type_symbol
_atom_site_label
_atom_site_fract_x
_atom_site_fract_y
_atom_site_fract_z
Si Si1 0.618510 0.842011 0.221810
Si Si2 0.161292 0.304610 0.675497
Si Si3 0.880756 0.329109 0.871121
Si Si4 0.340186 0.515591 0.266233
Si Si5 0.854454 0.408203 0.102995
Si Si6 0.187266 0.375354 0.440188
Si Si7 0.170364 0.093882 0.219776
O O1 0.487410 0.901511 0.173215
O O2 0.570446 0.839138 0.358320
O O3 0.644342 0.717319 0.173599
O O4 0.775577 0.914706 0.196569
O O5 0.293881 0.366565 0.722196
O O6 0.221975 0.181996 0.640959
O O7 0.114476 0.372073 0.570478
O O8 0.015755 0.304335 0.770675
O O9 0.827154 0.210518 0.922148
O O10 0.747119 0.395969 0.828514
O O11 0.927713 0.400318 0.971871
O O12 0.263166 0.494997 0.396905
O O13 0.519927 0.519541 0.252119
O O14 0.780177 0.529340 0.122276
#
# Coordination Sequence:
#
# PCOD8054900 Si02
#       7
#     4   4   4   4   4   4   4
#     4   9  21  45  65  98 131 167 226 269 324 400
#     4  11  21  41  70  92 131 180 212 273 335 381
#     4  10  23  42  64  96 134 172 223 270 325 397
#     4  10  21  39  69  95 133 169 218 270 326 392
#     4  11  23  43  67  98 133 173 224 269 330 395
#     4   8  21  41  64  92 131 165 223 266 323 396
#     4  11  22  43  67  95 137 170 220 271 329 389
#
# _framework density 21.535661000000001
#
# number of rings (size 3 to 8) (size 9 to 14) (size 15 to 20)
#    0.857    1.143    1.429    1.714    0.000    3.429 
#    2.571    2.857    0.000    0.000    0.000    0.000 
#    0.000    0.000    0.000    0.000    0.000    0.000 
#
# Total GULP energy -173451.364030 kJ/mol
# GULP energy per Si atom -12389.383145 kJ/mol
# Density = 2.148665 g / cm^3
# Si number density = 21.535661 Si / 1000 Ang^3
#
#
#
# Elastic Constant Matrix: (Units=GPa)
#
#
# Indices 1 2 3 4 5 6 
#
# 1 117.1215 22.3467 40.0210 0.0000 1.0082 0.0000
# 2 22.3467 89.5447 17.6184 0.0000 -16.4302 0.0000
# 3 40.0210 17.6184 105.8211 0.0000 -13.4866 0.0000
# 4 0.0000 0.0000 0.0000 24.9193 0.0000 1.9486
# 5 1.0082 -16.4302 -13.4866 0.0000 25.2784 0.0000
# 6 0.0000 0.0000 0.0000 1.9486 0.0000 30.0244
#
#
#
# Elastic Compliance Matrix: (Units=1/GPa)
#
#
# Indices 1 2 3 4 5 6 
#
# 1 0.010460 -0.002594 -0.004069 0.000000 -0.004274 0.000000
# 2 -0.002594 0.013452 -0.000141 0.000000 0.008772 0.000000
# 3 -0.004069 -0.000141 0.011825 0.000000 0.006380 0.000000
# 4 0.000000 0.000000 0.000000 0.040334 0.000000 -0.002618
# 5 -0.004274 0.008772 0.006380 0.000000 0.048835 0.000000
# 6 0.000000 0.000000 0.000000 -0.002618 0.000000 0.033476
#
#
# Mechanical properties :
#
#
# Convention : Reuss Voigt Hill
#
# Bulk Modulus (GPa) = 45.18656 52.49553 48.84105
# Shear Modulus (GPa) = 27.87574 31.54449 29.71011
#
# Velocity S-wave (km/s) = 3.60168 3.83136 3.71830
# Velocity P-wave (km/s) = 6.19063 6.63336 6.41582
#
# Compressibility (1/GPa) = 0.02213047
#
# Stress axis : x y z
#
# Youngs Moduli (GPa) = 95.60020 74.33734 84.56486
#
# Poissons Ratio (x) = 0.19284 0.34408
# Poissons Ratio (y) = 0.24800 0.01189
# Poissons Ratio (z) = 0.38898 0.01046
#
# Static dielectric constant tensor:
#      x y z
#    x 3.721740 0.000000 0.187130 
#    y 0.000000 3.952440 0.000000 
#    z 0.187130 0.000000 3.871010 
# 
# 
# High freq. dielectric constant tensor:
#      x y z
#    x 1.838610 0.000000 0.011530 
#    y 0.000000 1.852300 0.000000 
#    z 0.011530 0.000000 1.826740 
# 
# From -- ./inp_files/14381.got.cif
#   From: 2010.06.25/outbox.cif.g09.slc.cpg/sg9_8_cif.got.tgz:14381.got - 2010.06.27 21:40:51.
