data_PCOD8054519
_publ_section_title
;
Structure prediction by ZEFSAII (Michael W. Deem and Ramdas Pophale) SiO2 
 PCOD8054519
Probable space group: C C
;
_chemical_formula_sum "Si O2"
_cell_formula_units_Z 28
_cell_length_a 20.215061
_cell_length_b 14.090823
_cell_length_c 14.381510
_cell_angle_alpha 90.000000
_cell_angle_beta 20.395499
_cell_angle_gamma 90.000000
_cell_volume 1427.633439
_symmetry_space_group_name_H-M "C C"
_symmetry_group_IT_number 9
_symmetry_cell_setting 'monoclinic'
loop_
_space_group_symop_operation_xyz
x,y,z
x,-y,1/2+z
1/2+x,1/2+y,z
1/2+x,1/2-y,1/2+z
loop_
_atom_site_type_symbol
_atom_site_label
_atom_site_fract_x
_atom_site_fract_y
_atom_site_fract_z
Si Si1 0.784240 0.402769 0.082630
Si Si2 0.131853 0.322154 0.067290
Si Si3 0.184415 0.299502 0.791173
Si Si4 0.844581 0.576830 0.706170
Si Si5 0.544058 0.987676 0.602754
Si Si6 0.947259 0.863551 0.803988
Si Si7 0.395942 0.484989 0.526300
O O1 0.728300 0.293418 0.172959
O O2 0.857300 0.450983 0.081097
O O3 0.611535 0.466450 0.272164
O O4 0.957842 0.403419 0.779186
O O5 0.220235 0.281606 0.853707
O O6 0.293238 0.348970 0.927081
O O7 0.005665 0.414830 0.210632
O O8 0.998515 0.238278 0.282959
O O9 0.314257 0.388304 0.587995
O O10 0.964494 0.326699 0.065501
O O11 0.932647 0.491365 0.651213
O O12 0.626907 0.589157 0.018803
O O13 0.769646 0.982114 0.282717
O O14 0.873329 0.931808 0.981724
#
# Coordination Sequence:
#
# PCOD8054519 Si02
#       7
#     4   4   4   4   4   4   4
#     4  12  21  39  71  91 129 171 212 273 315 377
#     4  10  22  36  64  94 121 165 219 270 308 372
#     4  10  22  39  63  98 125 159 222 268 310 376
#     4  10  20  36  62  94 120 160 212 266 313 368
#     4  10  24  40  60  98 128 162 221 259 324 390
#     4  12  21  39  66  92 130 164 212 274 319 375
#     4  10  24  41  62  95 133 169 210 262 329 384
#
# _framework density 19.612877000000001
#
# number of rings (size 3 to 8) (size 9 to 14) (size 15 to 20)
#    0.000    1.714    2.857    4.286    6.000    0.000 
#    0.000    0.000    9.429    0.000    0.000    0.000 
#    0.000    0.000    0.000    0.000    0.000    0.000 
#
# Total GULP energy -173522.500520 kJ/mol
# GULP energy per Si atom -12394.464323 kJ/mol
# Density = 1.956824 g / cm^3
# Si number density = 19.612877 Si / 1000 Ang^3
#
#
#
# Elastic Constant Matrix: (Units=GPa)
#
#
# Indices 1 2 3 4 5 6 
#
# 1 106.8186 34.1431 43.8919 -0.0010 -6.9633 -0.0001
# 2 34.1431 82.9582 35.5350 -0.0048 15.7666 -0.0008
# 3 43.8919 35.5350 92.0226 -0.0040 9.6868 -0.0016
# 4 -0.0010 -0.0048 -0.0040 36.4652 -0.0015 11.1937
# 5 -6.9633 15.7666 9.6868 -0.0015 35.1246 0.0008
# 6 -0.0001 -0.0008 -0.0016 11.1937 0.0008 30.8584
#
#
#
# Elastic Compliance Matrix: (Units=1/GPa)
#
#
# Indices 1 2 3 4 5 6 
#
# 1 0.013336 -0.004366 -0.005314 0.000000 0.006069 0.000000
# 2 -0.004366 0.016815 -0.003630 0.000001 -0.007412 0.000000
# 3 -0.005314 -0.003630 0.015184 0.000001 -0.003611 0.000001
# 4 0.000000 0.000001 0.000001 0.030860 0.000001 -0.011194
# 5 0.006069 -0.007412 -0.003611 0.000001 0.033996 -0.000001
# 6 0.000000 0.000000 0.000001 -0.011194 -0.000001 0.036467
#
#
# Mechanical properties :
#
#
# Convention : Reuss Voigt Hill
#
# Bulk Modulus (GPa) = 53.43608 56.54883 54.99245
# Shear Modulus (GPa) = 27.85258 31.70494 29.77876
#
# Velocity S-wave (km/s) = 3.77253 4.02498 3.90080
# Velocity P-wave (km/s) = 6.80298 7.10603 6.95616
#
# Compressibility (1/GPa) = 0.01871395
#
# Stress axis : x y z
#
# Youngs Moduli (GPa) = 74.98294 59.47052 65.86087
#
# Poissons Ratio (x) = 0.25966 0.34998
# Poissons Ratio (y) = 0.32739 0.23911
# Poissons Ratio (z) = 0.39845 0.21591
#
# Static dielectric constant tensor:
#      x y z
#    x 3.670750 0.000000 -0.130970 
#    y 0.000000 3.608610 0.000000 
#    z -0.130970 0.000000 3.545200 
# 
# 
# High freq. dielectric constant tensor:
#      x y z
#    x 1.766730 0.000000 -0.021750 
#    y 0.000000 1.745180 0.000000 
#    z -0.021750 0.000000 1.757060 
# 
# From -- ./inp_files/7688.got.cif
#   From: 2010.06.25/outbox.cif.g09.slc.cpg/sg9_4_cif.got.tgz:7688.got - 2010.06.27 21:40:51.
