data_PCOD8054180
_publ_section_title
;
Structure prediction by ZEFSAII (Michael W. Deem and Ramdas Pophale) SiO2 
 PCOD8054180
Probable space group: C C
;
_chemical_formula_sum "Si O2"
_cell_formula_units_Z 24
_cell_length_a 10.199898
_cell_length_b 17.750499
_cell_length_c 8.569441
_cell_angle_alpha 90.000000
_cell_angle_beta 147.284482
_cell_angle_gamma 90.000000
_cell_volume 838.550161
_symmetry_space_group_name_H-M "C C"
_symmetry_group_IT_number 9
_symmetry_cell_setting 'monoclinic'
loop_
_space_group_symop_operation_xyz
x,y,z
x,-y,1/2+z
1/2+x,1/2+y,z
1/2+x,1/2-y,1/2+z
loop_
_atom_site_type_symbol
_atom_site_label
_atom_site_fract_x
_atom_site_fract_y
_atom_site_fract_z
Si Si1 0.185030 0.939399 0.957650
Si Si2 0.893775 0.194656 0.088141
Si Si3 0.920675 0.954705 0.979118
Si Si4 0.578154 0.925240 0.111185
Si Si5 0.260756 0.287167 0.795121
Si Si6 0.965040 0.716235 0.361160
O O1 0.121985 0.850895 0.886237
O O2 0.979524 0.997873 0.691147
O O3 0.173686 0.956178 0.131887
O O4 0.437510 0.951337 0.126006
O O5 0.731475 0.219421 0.075836
O O6 0.001370 0.261052 0.084122
O O7 0.783716 0.134316 0.859826
O O8 0.822365 0.871242 0.914243
O O9 0.703717 0.999471 0.669446
O O10 0.427628 0.875695 0.828667
O O11 0.987940 0.265392 0.584694
O O12 0.724897 0.755996 0.043009
#
# Coordination Sequence:
#
# PCOD8054180 Si02
#       6
#     4   4   4   4   4   4
#     4  10  21  40  62  93 131 175 217 270 332 397
#     4   9  19  32  56  97 124 161 209 275 333 386
#     4  10  25  40  64  97 129 174 226 269 340 404
#     4  10  20  35  60  89 136 170 206 268 333 393
#     4  11  24  38  63  95 130 170 222 284 336 394
#     4  10  17  29  53  87 124 158 200 260 326 376
#
# _framework density 28.620830999999999
#
# number of rings (size 3 to 8) (size 9 to 14) (size 15 to 20)
#    0.000    2.000    1.667    2.000    9.333    2.667 
#    0.000    0.000    0.000    6.000    0.000    0.000 
#    0.000    0.000    0.000    0.000    0.000    0.000 
#
# Total GULP energy -148671.875510 kJ/mol
# GULP energy per Si atom -12389.322959 kJ/mol
# Density = 2.855569 g / cm^3
# Si number density = 28.620831 Si / 1000 Ang^3
#
#
#
# Elastic Constant Matrix: (Units=GPa)
#
#
# Indices 1 2 3 4 5 6 
#
# 1 85.2909 7.3742 38.5797 0.0000 54.3403 0.0000
# 2 7.3742 151.5050 22.6000 0.0000 16.2245 0.0000
# 3 38.5797 22.6000 74.0758 0.0002 21.0742 0.0001
# 4 0.0000 0.0000 0.0002 30.4035 0.0001 11.7712
# 5 54.3403 16.2245 21.0742 0.0001 52.3413 0.0000
# 6 0.0000 0.0000 0.0001 11.7712 0.0000 29.8908
#
#
#
# Elastic Compliance Matrix: (Units=1/GPa)
#
#
# Indices 1 2 3 4 5 6 
#
# 1 0.042858 0.004077 -0.011911 0.000000 -0.040963 0.000000
# 2 0.004077 0.007404 -0.002852 0.000000 -0.005380 0.000000
# 3 -0.011911 -0.002852 0.018978 0.000000 0.005609 0.000000
# 4 0.000000 0.000000 0.000000 0.038808 0.000000 -0.015283
# 5 -0.040963 -0.005380 0.005609 0.000000 0.061042 0.000000
# 6 0.000000 0.000000 0.000000 -0.015283 0.000000 0.039474
#
#
# Mechanical properties :
#
#
# Convention : Reuss Voigt Hill
#
# Bulk Modulus (GPa) = 20.89088 49.77549 35.33319
# Shear Modulus (GPa) = 20.33431 38.68165 29.50798
#
# Velocity S-wave (km/s) = 2.66836 3.68029 3.21440
# Velocity P-wave (km/s) = 4.09982 5.95722 5.11356
#
# Compressibility (1/GPa) = 0.04786778
#
# Stress axis : x y z
#
# Youngs Moduli (GPa) = 23.33281 135.07109 52.69389
#
# Poissons Ratio (x) = -0.55075 0.62765
# Poissons Ratio (y) = -0.09514 0.15027
# Poissons Ratio (z) = 0.27793 0.38520
#
# Static dielectric constant tensor:
#      x y z
#    x 5.168450 0.000000 0.063130 
#    y 0.000000 5.660510 0.000000 
#    z 0.063130 0.000000 5.212950 
# 
# 
# High freq. dielectric constant tensor:
#      x y z
#    x 2.170770 0.000000 0.010670 
#    y 0.000000 2.170750 0.000000 
#    z 0.010670 0.000000 2.159600 
# 
# From -- ./inp_files/1568.got.cif
#   From: 2010.06.25/outbox.cif.g09.slc.cpg/sg9_1_cif.got.tgz:1568.got - 2010.06.27 21:40:51.
