data_PCOD8054601
_publ_section_title
;
Structure prediction by ZEFSAII (Michael W. Deem and Ramdas Pophale) SiO2 
 PCOD8054601
Probable space group: C C
;
_chemical_formula_sum "Si O2"
_cell_formula_units_Z 28
_cell_length_a 20.850366
_cell_length_b 9.901413
_cell_length_c 8.951581
_cell_angle_alpha 90.000000
_cell_angle_beta 135.218212
_cell_angle_gamma 90.000000
_cell_volume 1301.773040
_symmetry_space_group_name_H-M "C C"
_symmetry_group_IT_number 9
_symmetry_cell_setting 'monoclinic'
loop_
_space_group_symop_operation_xyz
x,y,z
x,-y,1/2+z
1/2+x,1/2+y,z
1/2+x,1/2-y,1/2+z
loop_
_atom_site_type_symbol
_atom_site_label
_atom_site_fract_x
_atom_site_fract_y
_atom_site_fract_z
Si Si1 0.243620 0.385327 0.148490
Si Si2 0.978376 0.250282 0.407373
Si Si3 0.740675 0.398599 0.802815
Si Si4 0.536842 0.533442 0.968358
Si Si5 0.436707 0.398282 0.561708
Si Si6 0.171443 0.627144 0.196777
Si Si7 0.294569 0.846376 0.229195
O O1 0.253599 0.237988 0.233816
O O2 0.342821 0.451259 0.335641
O O3 0.174093 0.480885 0.122109
O O4 0.219532 0.378899 0.936025
O O5 0.931214 0.231246 0.163995
O O6 0.898887 0.295331 0.389035
O O7 0.063375 0.351807 0.536970
O O8 0.022312 0.109089 0.532276
O O9 0.639828 0.445979 0.596855
O O10 0.803838 0.518472 0.843839
O O11 0.754599 0.381309 0.001188
O O12 0.478101 0.527336 0.719452
O O13 0.501087 0.644853 0.027872
O O14 0.224596 0.738937 0.186371
#
# Coordination Sequence:
#
# PCOD8054601 Si02
#       7
#     4   4   4   4   4   4   4
#     4  12  26  45  69 104 141 185 230 286 357 405
#     4  10  24  43  70  99 141 183 231 284 347 413
#     4  12  23  42  72 106 137 183 229 288 346 410
#     4  10  20  38  70  98 135 176 235 275 336 408
#     4  10  21  42  66 100 136 177 234 280 337 416
#     4  12  26  47  70 102 145 182 233 292 346 416
#     4  12  24  47  73  99 145 180 232 291 343 420
#
# _framework density 21.509125999999998
#
# number of rings (size 3 to 8) (size 9 to 14) (size 15 to 20)
#    0.857    0.000    2.857    5.143    2.000    1.143 
#    2.571    0.000    0.000    0.000    0.000    0.000 
#    0.000    0.000    0.000    0.000    0.000    0.000 
#
# Total GULP energy -173490.403110 kJ/mol
# GULP energy per Si atom -12392.171651 kJ/mol
# Density = 2.146017 g / cm^3
# Si number density = 21.509126 Si / 1000 Ang^3
#
#
#
# Elastic Constant Matrix: (Units=GPa)
#
#
# Indices 1 2 3 4 5 6 
#
# 1 107.0397 9.6546 38.6921 0.0000 5.9588 0.0000
# 2 9.6546 55.4359 3.0189 0.0000 -5.7370 0.0000
# 3 38.6921 3.0189 123.8002 0.0000 -16.0735 0.0000
# 4 0.0000 0.0000 0.0000 27.5540 0.0000 -8.5369
# 5 5.9588 -5.7370 -16.0735 0.0000 47.1088 0.0000
# 6 0.0000 0.0000 0.0000 -8.5369 0.0000 41.0354
#
#
#
# Elastic Compliance Matrix: (Units=1/GPa)
#
#
# Indices 1 2 3 4 5 6 
#
# 1 0.011058 -0.002023 -0.003788 0.000000 -0.002938 0.000000
# 2 -0.002023 0.018643 0.000529 0.000000 0.002707 0.000000
# 3 -0.003788 0.000529 0.009751 0.000000 0.003871 0.000000
# 4 0.000000 0.000000 0.000000 0.038793 0.000000 0.008070
# 5 -0.002938 0.002707 0.003871 0.000000 0.023249 0.000000
# 6 0.000000 0.000000 0.000000 0.008070 0.000000 0.026048
#
#
# Mechanical properties :
#
#
# Convention : Reuss Voigt Hill
#
# Bulk Modulus (GPa) = 34.61784 43.22299 38.92041
# Shear Modulus (GPa) = 33.84445 38.80033 36.32239
#
# Velocity S-wave (km/s) = 3.97103 4.25184 4.11383
# Velocity P-wave (km/s) = 6.09548 6.65154 6.37957
#
# Compressibility (1/GPa) = 0.02888684
#
# Stress axis : x y z
#
# Youngs Moduli (GPa) = 90.43537 53.64071 102.55306
#
# Poissons Ratio (x) = 0.10854 0.38847
# Poissons Ratio (y) = 0.18299 -0.05428
# Poissons Ratio (z) = 0.34257 -0.02839
#
# Static dielectric constant tensor:
#      x y z
#    x 4.017470 0.000000 -0.023370 
#    y 0.000000 3.854210 0.000000 
#    z -0.023370 0.000000 3.870300 
# 
# 
# High freq. dielectric constant tensor:
#      x y z
#    x 1.860400 0.000000 -0.003330 
#    y 0.000000 1.825950 0.000000 
#    z -0.003330 0.000000 1.851340 
# 
# From -- ./inp_files/11378.got.cif
#   From: 2010.06.25/outbox.cif.g09.slc.cpg/sg9_6_cif.got.tgz:11378.got - 2010.06.27 21:40:51.
