data_PCOD8054861
_publ_section_title
;
Structure prediction by ZEFSAII (Michael W. Deem and Ramdas Pophale) SiO2 
 PCOD8054861
Probable space group: C C
;
_chemical_formula_sum "Si O2"
_cell_formula_units_Z 32
_cell_length_a 6.797819
_cell_length_b 25.977092
_cell_length_c 8.183981
_cell_angle_alpha 90.000000
_cell_angle_beta 99.898220
_cell_angle_gamma 90.000000
_cell_volume 1423.677190
_symmetry_space_group_name_H-M "C C"
_symmetry_group_IT_number 9
_symmetry_cell_setting 'monoclinic'
loop_
_space_group_symop_operation_xyz
x,y,z
x,-y,1/2+z
1/2+x,1/2+y,z
1/2+x,1/2-y,1/2+z
loop_
_atom_site_type_symbol
_atom_site_label
_atom_site_fract_x
_atom_site_fract_y
_atom_site_fract_z
Si Si1 0.119930 0.205033 0.658530
Si Si2 0.321013 0.666336 0.860904
Si Si3 0.162875 0.902798 0.013897
Si Si4 0.889077 0.059586 0.739189
Si Si5 0.015823 0.246834 0.314813
Si Si6 0.462961 0.970994 0.197096
Si Si7 0.271036 0.060614 0.998477
Si Si8 0.102091 0.853871 0.669381
O O1 0.198952 0.148411 0.624829
O O2 0.980377 0.226082 0.492810
O O3 0.301467 0.245205 0.701623
O O4 0.995747 0.202072 0.808110
O O5 0.288472 0.615670 0.748499
O O6 0.118629 0.697927 0.833746
O O7 0.385790 0.649711 0.052583
O O8 0.374099 0.933202 0.043659
O O9 0.002021 0.939726 0.081415
O O10 0.085519 0.892039 0.821130
O O11 0.701145 0.020543 0.708413
O O12 0.046985 0.045344 0.905460
O O13 0.151610 0.204494 0.235462
O O14 0.422545 0.945684 0.369002
O O15 0.348744 0.025463 0.159132
O O16 0.260634 0.120085 0.064443
#
# Coordination Sequence:
#
# PCOD8054861 Si02
#       8
#     4   4   4   4   4   4   4   4
#     4  10  22  36  59  88 124 166 211 265 320 377
#     4  10  21  39  60  89 126 166 215 264 320 376
#     4   9  20  40  62  89 128 163 211 273 322 382
#     4   9  21  41  64  92 127 165 214 268 326 392
#     4  11  21  38  59  90 125 171 216 262 319 389
#     4  11  21  41  67  94 124 173 219 261 340 390
#     4  10  23  40  63  94 132 168 214 277 323 393
#     4  10  21  41  62  92 132 172 210 270 330 379
#
# _framework density 22.477005999999999
#
# number of rings (size 3 to 8) (size 9 to 14) (size 15 to 20)
#    0.000    2.000    1.250    2.250    1.750    2.000 
#    0.000    6.250    0.000    0.000    0.000    0.000 
#    0.000    0.000    0.000    0.000    0.000    0.000 
#
# Total GULP energy -198305.413354 kJ/mol
# GULP energy per Si atom -12394.088335 kJ/mol
# Density = 2.242585 g / cm^3
# Si number density = 22.477006 Si / 1000 Ang^3
#
#
#
# Elastic Constant Matrix: (Units=GPa)
#
#
# Indices 1 2 3 4 5 6 
#
# 1 88.0713 20.6859 30.2500 0.0000 12.1288 0.0000
# 2 20.6859 58.2336 16.2249 0.0000 6.8697 0.0000
# 3 30.2500 16.2249 111.9662 0.0000 -1.3274 0.0000
# 4 0.0000 0.0000 0.0000 32.5614 0.0000 2.9897
# 5 12.1288 6.8697 -1.3274 0.0000 25.6207 0.0000
# 6 0.0000 0.0000 0.0000 2.9897 0.0000 29.3160
#
#
#
# Elastic Compliance Matrix: (Units=1/GPa)
#
#
# Indices 1 2 3 4 5 6 
#
# 1 0.014136 -0.003370 -0.003401 0.000000 -0.005964 0.000000
# 2 -0.003370 0.019344 -0.001936 0.000000 -0.003692 0.000000
# 3 -0.003401 -0.001936 0.010162 0.000000 0.002656 0.000000
# 4 0.000000 0.000000 0.000000 0.031001 0.000000 -0.003162
# 5 -0.005964 -0.003692 0.002656 0.000000 0.042982 0.000000
# 6 0.000000 0.000000 0.000000 -0.003162 0.000000 0.034433
#
#
# Mechanical properties :
#
#
# Convention : Reuss Voigt Hill
#
# Bulk Modulus (GPa) = 38.12922 43.62139 40.87531
# Shear Modulus (GPa) = 28.05565 30.24031 29.14798
#
# Velocity S-wave (km/s) = 3.53681 3.67193 3.60501
# Velocity P-wave (km/s) = 5.80338 6.11774 5.96263
#
# Compressibility (1/GPa) = 0.02622660
#
# Stress axis : x y z
#
# Youngs Moduli (GPa) = 70.74313 51.69469 98.40276
#
# Poissons Ratio (x) = 0.17421 0.33471
# Poissons Ratio (y) = 0.23840 0.19055
# Poissons Ratio (z) = 0.24063 0.10010
#
# Static dielectric constant tensor:
#      x y z
#    x 3.675750 0.000000 -0.035600 
#    y 0.000000 4.112110 0.000000 
#    z -0.035600 0.000000 4.109440 
# 
# 
# High freq. dielectric constant tensor:
#      x y z
#    x 1.849520 0.000000 0.001030 
#    y 0.000000 1.885250 0.000000 
#    z 0.001030 0.000000 1.892540 
# 
# From -- ./inp_files/4329.got.cif
#   From: 2010.06.25/outbox.cif.g09.slc.cpg/sg9_3_cif.got.tgz:4329.got - 2010.06.27 21:40:51.
