data_PCOD8054021
_publ_section_title
;
Structure prediction by ZEFSAII (Michael W. Deem and Ramdas Pophale) SiO2 
 PCOD8054021
Probable space group: C M
;
_chemical_formula_sum "Si O2"
_cell_formula_units_Z 32
_cell_length_a 10.225050
_cell_length_b 22.899250
_cell_length_c 14.931823
_cell_angle_alpha 90.000000
_cell_angle_beta 153.339999
_cell_angle_gamma 90.000000
_cell_volume 1568.739995
_symmetry_space_group_name_H-M "C M"
_symmetry_group_IT_number 8
_symmetry_cell_setting 'monoclinic'
loop_
_space_group_symop_operation_xyz
x,y,z
x,-y,z
1/2+x,1/2+y,z
1/2+x,1/2-y,z
loop_
_atom_site_type_symbol
_atom_site_label
_atom_site_fract_x
_atom_site_fract_y
_atom_site_fract_z
Si Si1 0.809470 0.146618 0.791600
Si Si2 0.236802 0.692579 0.063931
Si Si3 0.678769 0.650049 0.468767
Si Si4 0.739800 0.433159 0.960628
Si Si5 0.610506 0.290503 0.127310
Si Si6 0.730792 0.779430 0.573429
Si Si7 0.164458 0.861340 0.743843
Si Si8 0.367672 0.432711 0.415481
O O1 0.492078 0.128196 0.629190
O O2 0.803282 0.203426 0.721038
O O3 0.948502 0.090738 0.828901
O O4 0.002129 0.157884 0.997467
O O5 0.492808 0.654108 0.263697
O O6 0.369314 0.723574 0.056717
O O7 0.137163 0.733836 0.083277
O O8 0.946244 0.657249 0.857084
O O9 0.707415 0.709970 0.544170
O O10 0.533765 0.600275 0.438650
O O11 0.685261 0.500000 0.901124
O O12 0.801155 0.395448 0.910587
O O13 0.020242 0.425737 0.195389
O O14 0.918783 0.308369 0.359050
O O15 0.977340 0.804626 0.658179
O O16 0.954868 0.904924 0.563015
O O17 0.462708 0.500000 0.470329
#
# Coordination Sequence:
#
# PCOD8054021 Si02
#       8
#     4   4   4   4   4   4   4   4
#     4  11  23  39  64  89 128 171 213 262 334 381
#     4  11  24  40  62  94 136 174 213 266 324 387
#     4  11  23  41  61  93 132 168 213 268 326 392
#     4  10  23  43  65  93 125 166 225 276 321 385
#     4  11  24  39  59  92 135 171 212 261 320 398
#     4  10  24  38  60  96 130 169 214 269 326 393
#     4  11  22  40  67  95 127 172 219 271 331 385
#     4  11  24  42  68  94 126 173 223 273 322 385
#
# _framework density 20.398537000000001
#
# number of rings (size 3 to 8) (size 9 to 14) (size 15 to 20)
#    0.000    1.250    2.500    2.625    8.750    1.500 
#    0.000    0.000    0.000    0.750    0.000    0.000 
#    0.000    0.000    0.000    0.000    0.000    0.000 
#
# Total GULP energy -198423.213850 kJ/mol
# GULP energy per Si atom -12401.450866 kJ/mol
# Density = 2.035211 g / cm^3
# Si number density = 20.398537 Si / 1000 Ang^3
#
#
#
# Elastic Constant Matrix: (Units=GPa)
#
#
# Indices 1 2 3 4 5 6 
#
# 1 104.3108 25.3245 40.2733 -0.0094 11.2668 -0.0028
# 2 25.3245 57.8154 21.9396 0.0063 5.8846 -0.0047
# 3 40.2733 21.9396 107.1474 0.0060 13.1818 -0.0255
# 4 -0.0094 0.0063 0.0060 30.6434 -0.0017 1.0839
# 5 11.2668 5.8846 13.1818 -0.0017 40.7759 -0.0067
# 6 -0.0028 -0.0047 -0.0255 1.0839 -0.0067 18.0685
#
#
#
# Elastic Compliance Matrix: (Units=1/GPa)
#
#
# Indices 1 2 3 4 5 6 
#
# 1 0.012050 -0.003762 -0.003558 0.000005 -0.001637 -0.000005
# 2 -0.003762 0.020019 -0.002560 -0.000005 -0.001022 0.000001
# 3 -0.003558 -0.002560 0.011485 -0.000003 -0.002360 0.000014
# 4 0.000005 -0.000005 -0.000003 0.032703 0.000001 -0.001962
# 5 -0.001637 -0.001022 -0.002360 0.000001 0.025887 0.000006
# 6 -0.000005 0.000001 0.000014 -0.001962 0.000006 0.055463
#
#
# Mechanical properties :
#
#
# Convention : Reuss Voigt Hill
#
# Bulk Modulus (GPa) = 42.02291 49.37205 45.69748
# Shear Modulus (GPa) = 26.98368 30.01331 28.49850
#
# Velocity S-wave (km/s) = 3.64101 3.83997 3.74182
# Velocity P-wave (km/s) = 6.19045 6.62698 6.41243
#
# Compressibility (1/GPa) = 0.02379654
#
# Stress axis : x y z
#
# Youngs Moduli (GPa) = 82.98493 49.95135 87.07272
#
# Poissons Ratio (x) = 0.18790 0.30978
# Poissons Ratio (y) = 0.31216 0.22287
# Poissons Ratio (z) = 0.29524 0.12785
#
# Static dielectric constant tensor:
#      x y z
#    x 3.688570 -0.000020 -0.076790 
#    y -0.000020 3.426720 -0.000060 
#    z -0.076790 -0.000060 4.185810 
# 
# 
# High freq. dielectric constant tensor:
#      x y z
#    x 1.802080 0.000000 -0.000880 
#    y 0.000000 1.766320 0.000000 
#    z -0.000880 0.000000 1.825730 
# 
# From -- ./inp_files/25676.got.cif
#   From: 2010.03.12/outbox.cif.g09.slc.cpg/sg8_13_cif.got.tgz:25676.got - 2010.03.31 10:45:26.
