data_PCOD8054134
_publ_section_title
;
Structure prediction by ZEFSAII (Michael W. Deem and Ramdas Pophale) SiO2 
 PCOD8054134
Probable space group: C M
;
_chemical_formula_sum "Si O2"
_cell_formula_units_Z 32
_cell_length_a 14.547097
_cell_length_b 22.456473
_cell_length_c 9.972103
_cell_angle_alpha 90.000000
_cell_angle_beta 152.170442
_cell_angle_gamma 90.000000
_cell_volume 1520.811592
_symmetry_space_group_name_H-M "C M"
_symmetry_group_IT_number 8
_symmetry_cell_setting 'monoclinic'
loop_
_space_group_symop_operation_xyz
x,y,z
x,-y,z
1/2+x,1/2+y,z
1/2+x,1/2-y,z
loop_
_atom_site_type_symbol
_atom_site_label
_atom_site_fract_x
_atom_site_fract_y
_atom_site_fract_z
Si Si1 0.171340 0.114560 0.404800
Si Si2 0.201649 0.370505 0.447127
Si Si3 0.600183 0.758477 0.669956
Si Si4 0.588157 0.362878 0.792095
Si Si5 0.541588 0.258662 0.291077
Si Si6 0.808780 0.430891 0.855848
Si Si7 0.771309 0.932138 0.807301
Si Si8 0.393444 0.120774 0.425175
O O1 0.177791 0.185966 0.426677
O O2 0.298470 0.085909 0.686956
O O3 0.266974 0.096773 0.386342
O O4 0.953144 0.086857 0.135921
O O5 0.377500 0.385017 0.571905
O O6 0.138319 0.301625 0.359742
O O7 0.274675 0.385542 0.689842
O O8 0.023772 0.413756 0.183555
O O9 0.567749 0.706877 0.736207
O O10 0.508512 0.742647 0.407744
O O11 0.491614 0.816164 0.587903
O O12 0.832512 0.769069 0.949740
O O13 0.641193 0.396560 0.723345
O O14 0.758535 0.374416 0.119697
O O15 0.774509 0.500000 0.835577
O O16 0.566559 0.926712 0.623144
O O17 0.796474 0.000000 0.790758
#
# Coordination Sequence:
#
# PCOD8054134 Si02
#       8
#     4   4   4   4   4   4   4   4
#     4  12  26  46  71 104 141 179 226 286 354 411
#     4  12  24  46  72 103 137 179 234 283 344 412
#     4  12  21  42  72  98 142 176 220 285 352 409
#     4  12  25  45  72 105 135 184 235 282 348 410
#     4  12  21  42  73 100 138 180 214 287 358 401
#     4  12  27  48  69 101 144 184 230 288 339 403
#     4  12  25  44  70  99 138 184 230 283 333 406
#     4  12  25  45  71 106 137 180 235 286 344 412
#
# _framework density 21.041398000000001
#
# number of rings (size 3 to 8) (size 9 to 14) (size 15 to 20)
#    0.000    0.000    8.750    1.500    0.000    4.000 
#    4.500    0.000    0.000    0.000    0.000    0.000 
#    0.000    0.000    0.000    0.000    0.000    0.000 
#
# Total GULP energy -198516.084756 kJ/mol
# GULP energy per Si atom -12407.255297 kJ/mol
# Density = 2.099351 g / cm^3
# Si number density = 21.041398 Si / 1000 Ang^3
#
#
#
# Elastic Constant Matrix: (Units=GPa)
#
#
# Indices 1 2 3 4 5 6 
#
# 1 102.1873 19.4520 26.4657 0.0000 6.4895 0.0000
# 2 19.4520 100.5931 28.0500 0.0000 10.0190 0.0000
# 3 26.4657 28.0500 61.1700 0.0000 -9.1048 0.0000
# 4 0.0000 0.0000 0.0000 28.1795 0.0000 -0.7733
# 5 6.4895 10.0190 -9.1048 0.0000 33.5349 0.0000
# 6 0.0000 0.0000 0.0000 -0.7733 0.0000 10.5506
#
#
#
# Elastic Compliance Matrix: (Units=1/GPa)
#
#
# Indices 1 2 3 4 5 6 
#
# 1 0.011459 -0.000382 -0.005310 0.000000 -0.003545 0.000000
# 2 -0.000382 0.012287 -0.006257 0.000000 -0.005296 0.000000
# 3 -0.005310 -0.006257 0.022870 0.000000 0.009106 0.000000
# 4 0.000000 0.000000 0.000000 0.035558 0.000000 0.002606
# 5 -0.003545 -0.005296 0.009106 0.000000 0.034560 0.000000
# 6 0.000000 0.000000 0.000000 0.002606 0.000000 0.094972
#
#
# Mechanical properties :
#
#
# Convention : Reuss Voigt Hill
#
# Bulk Modulus (GPa) = 44.01978 45.76509 44.89244
# Shear Modulus (GPa) = 20.56093 27.11851 23.83972
#
# Velocity S-wave (km/s) = 3.12936 3.59390 3.36965
# Velocity P-wave (km/s) = 5.83294 6.24650 6.04326
#
# Compressibility (1/GPa) = 0.02271706
#
# Stress axis : x y z
#
# Youngs Moduli (GPa) = 87.26642 81.38525 43.72483
#
# Poissons Ratio (x) = 0.03109 0.23220
# Poissons Ratio (y) = 0.03334 0.27360
# Poissons Ratio (z) = 0.46342 0.50926
#
# Static dielectric constant tensor:
#      x y z
#    x 3.752850 0.000000 0.036090 
#    y 0.000000 3.787280 0.000000 
#    z 0.036090 0.000000 3.918810 
# 
# 
# High freq. dielectric constant tensor:
#      x y z
#    x 1.818860 0.000000 0.002840 
#    y 0.000000 1.828630 0.000000 
#    z 0.002840 0.000000 1.835680 
# 
# From -- ./inp_files/13847.got.cif
#   From: 2010.03.12/outbox.cif.g09.slc.cpg/sg8_7_cif.got.tgz:13847.got - 2010.03.31 10:45:26.
