data_PCOD8054365
_publ_section_title
;
Structure prediction by ZEFSAII (Michael W. Deem and Ramdas Pophale) SiO2 
 PCOD8054365
Probable space group: C C
;
_chemical_formula_sum "Si O2"
_cell_formula_units_Z 28
_cell_length_a 21.655621
_cell_length_b 9.330731
_cell_length_c 9.186228
_cell_angle_alpha 90.000000
_cell_angle_beta 43.212352
_cell_angle_gamma 90.000000
_cell_volume 1270.944397
_symmetry_space_group_name_H-M "C C"
_symmetry_group_IT_number 9
_symmetry_cell_setting 'monoclinic'
loop_
_space_group_symop_operation_xyz
x,y,z
x,-y,1/2+z
1/2+x,1/2+y,z
1/2+x,1/2-y,1/2+z
loop_
_atom_site_type_symbol
_atom_site_label
_atom_site_fract_x
_atom_site_fract_y
_atom_site_fract_z
Si Si1 0.273170 0.313532 0.165980
Si Si2 0.093657 0.923395 0.654032
Si Si3 0.812643 0.014037 0.334018
Si Si4 0.958059 0.681655 0.900241
Si Si5 0.713621 0.504242 0.209236
Si Si6 0.930598 0.126168 0.875958
Si Si7 0.413874 0.074784 0.289569
O O1 0.245188 0.417445 0.348932
O O2 0.226435 0.161026 0.259146
O O3 0.253329 0.382390 0.040727
O O4 0.381996 0.300717 0.995222
O O5 0.175429 0.900391 0.399873
O O6 0.051035 0.767499 0.756184
O O7 0.135078 0.988368 0.727392
O O8 0.022984 0.038392 0.713718
O O9 0.872376 0.912318 0.333603
O O10 0.876841 0.106888 0.118787
O O11 0.963312 0.568900 0.759150
O O12 0.936053 0.592934 0.082628
O O13 0.805768 0.440239 0.989388
O O14 0.951411 0.294505 0.821963
#
# Coordination Sequence:
#
# PCOD8054365 Si02
#       7
#     4   4   4   4   4   4   4
#     4  10  21  40  63  99 131 174 230 272 326 414
#     4  12  24  44  67 100 137 173 222 287 354 399
#     4  10  19  36  70  95 124 170 236 270 317 394
#     4  11  23  41  67  94 132 177 234 271 331 414
#     4  11  26  41  67  99 141 173 222 288 354 393
#     4  11  21  38  71  94 127 176 232 267 329 411
#     4  11  24  42  69  97 130 179 238 273 325 413
#
# _framework density 22.030861999999999
#
# number of rings (size 3 to 8) (size 9 to 14) (size 15 to 20)
#    0.000    1.143    4.286    3.429    6.000    0.000 
#    0.000    2.857    0.000    0.000    0.000    0.000 
#    0.000    0.000    0.000    0.000    0.000    0.000 
#
# Total GULP energy -173630.567765 kJ/mol
# GULP energy per Si atom -12402.183412 kJ/mol
# Density = 2.198072 g / cm^3
# Si number density = 22.030862 Si / 1000 Ang^3
#
#
#
# Elastic Constant Matrix: (Units=GPa)
#
#
# Indices 1 2 3 4 5 6 
#
# 1 63.1857 23.8719 42.4899 0.0000 16.1994 0.0000
# 2 23.8719 88.4019 40.1755 0.0000 3.8678 0.0000
# 3 42.4899 40.1755 109.2078 0.0000 20.6466 0.0000
# 4 0.0000 0.0000 0.0000 37.6635 0.0000 3.6602
# 5 16.1994 3.8678 20.6466 0.0000 39.3105 0.0000
# 6 0.0000 0.0000 0.0000 3.6602 0.0000 34.2024
#
#
#
# Elastic Compliance Matrix: (Units=1/GPa)
#
#
# Indices 1 2 3 4 5 6 
#
# 1 0.022915 -0.002848 -0.006812 0.000000 -0.005585 0.000000
# 2 -0.002848 0.014010 -0.004449 0.000000 0.002132 0.000000
# 3 -0.006812 -0.004449 0.014245 0.000000 -0.004237 0.000000
# 4 0.000000 0.000000 0.000000 0.026830 0.000000 -0.002871
# 5 -0.005585 0.002132 -0.004237 0.000000 0.029755 0.000000
# 6 0.000000 0.000000 0.000000 -0.002871 0.000000 0.029545
#
#
# Mechanical properties :
#
#
# Convention : Reuss Voigt Hill
#
# Bulk Modulus (GPa) = 43.56914 52.65219 48.11067
# Shear Modulus (GPa) = 28.87370 32.51915 30.69642
#
# Velocity S-wave (km/s) = 3.62415 3.84614 3.73679
# Velocity P-wave (km/s) = 6.10999 6.60870 6.36423
#
# Compressibility (1/GPa) = 0.02295203
#
# Stress axis : x y z
#
# Youngs Moduli (GPa) = 43.63959 71.37983 70.20042
#
# Poissons Ratio (x) = 0.20327 0.47821
# Poissons Ratio (y) = 0.12427 0.31231
# Poissons Ratio (z) = 0.29728 0.31756
#
# Static dielectric constant tensor:
#      x y z
#    x 4.006720 0.000000 0.290660 
#    y 0.000000 4.007430 0.000000 
#    z 0.290660 0.000000 3.863500 
# 
# 
# High freq. dielectric constant tensor:
#      x y z
#    x 1.863460 0.000000 0.026720 
#    y 0.000000 1.872500 0.000000 
#    z 0.026720 0.000000 1.854910 
# 
# From -- ./inp_files/10428.got.cif
#   From: 2010.06.25/outbox.cif.g09.slc.cpg/sg9_6_cif.got.tgz:10428.got - 2010.06.27 21:40:51.
