data_PCOD8054078
_publ_section_title
;
Structure prediction by ZEFSAII (Michael W. Deem and Ramdas Pophale) SiO2 
 PCOD8054078
Probable space group: C M
;
_chemical_formula_sum "Si O2"
_cell_formula_units_Z 32
_cell_length_a 8.641904
_cell_length_b 20.171358
_cell_length_c 14.753154
_cell_angle_alpha 90.000000
_cell_angle_beta 140.195401
_cell_angle_gamma 90.000000
_cell_volume 1646.363372
_symmetry_space_group_name_H-M "C M"
_symmetry_group_IT_number 8
_symmetry_cell_setting 'monoclinic'
loop_
_space_group_symop_operation_xyz
x,y,z
x,-y,z
1/2+x,1/2+y,z
1/2+x,1/2-y,z
loop_
_atom_site_type_symbol
_atom_site_label
_atom_site_fract_x
_atom_site_fract_y
_atom_site_fract_z
Si Si1 0.804330 0.341074 0.204470
Si Si2 0.047671 0.342454 0.485514
Si Si3 0.690773 0.295229 0.481707
Si Si4 0.982227 0.074323 0.745916
Si Si5 0.934209 0.073957 0.932305
Si Si6 0.056635 0.684139 0.792601
Si Si7 0.145184 0.296449 0.197343
Si Si8 0.853893 0.683493 0.892465
O O1 0.640464 0.281417 0.170324
O O2 0.917214 0.378640 0.342375
O O3 0.998025 0.308892 0.223019
O O4 0.648899 0.396663 0.087457
O O5 0.189937 0.283364 0.498814
O O6 0.218545 0.395139 0.610348
O O7 0.862535 0.311473 0.474387
O O8 0.420267 0.322256 0.338230
O O9 0.803462 0.325241 0.624986
O O10 0.029112 0.072670 0.873269
O O11 0.185931 0.120602 0.794081
O O12 0.996757 0.000000 0.711370
O O13 0.697508 0.117645 0.833649
O O14 0.873071 0.000000 0.938950
O O15 0.197488 0.749673 0.824844
O O16 0.031044 0.692255 0.888116
O O17 0.013250 0.332312 0.053482
#
# Coordination Sequence:
#
# PCOD8054078 Si02
#       8
#     4   4   4   4   4   4   4   4
#     4  11  22  37  63  91 124 159 201 252 310 367
#     4  11  22  37  63  91 124 159 201 252 310 367
#     4  11  22  36  59  97 124 154 196 256 313 354
#     4  11  24  43  63  87 123 167 210 255 306 364
#     4  11  24  43  63  87 123 167 210 255 306 364
#     4  12  23  38  67  94 121 158 207 257 307 364
#     4  11  22  36  59  97 124 154 196 256 313 354
#     4  12  23  38  67  94 121 158 207 257 307 364
#
# _framework density 19.436779000000001
#
# number of rings (size 3 to 8) (size 9 to 14) (size 15 to 20)
#    0.000    0.750    5.000    5.250    3.500    1.000 
#    0.000    0.000    0.000    1.500    0.000    0.000 
#    0.000    0.000    0.000    0.000    0.000    0.000 
#
# Total GULP energy -198361.582269 kJ/mol
# GULP energy per Si atom -12397.598892 kJ/mol
# Density = 1.939254 g / cm^3
# Si number density = 19.436779 Si / 1000 Ang^3
#
#
#
# Elastic Constant Matrix: (Units=GPa)
#
#
# Indices 1 2 3 4 5 6 
#
# 1 61.0173 29.3586 18.9679 -0.0002 -7.9448 -0.0001
# 2 29.3586 116.3212 40.5243 0.0004 15.4246 0.0002
# 3 18.9679 40.5243 133.6802 -0.0016 -0.7617 -0.0011
# 4 -0.0002 0.0004 -0.0016 14.2819 -0.0009 -1.6741
# 5 -7.9448 15.4246 -0.7617 -0.0009 34.8027 -0.0005
# 6 -0.0001 0.0002 -0.0011 -1.6741 -0.0005 19.3841
#
#
#
# Elastic Compliance Matrix: (Units=1/GPa)
#
#
# Indices 1 2 3 4 5 6 
#
# 1 0.020421 -0.005713 -0.001125 0.000001 0.007169 0.000000
# 2 -0.005713 0.011908 -0.002837 -0.000001 -0.006644 -0.000001
# 3 -0.001125 -0.002837 0.008507 0.000001 0.001187 0.000001
# 4 0.000001 -0.000001 0.000001 0.070735 0.000003 0.006109
# 5 0.007169 -0.006644 0.001187 0.000003 0.033340 0.000001
# 6 0.000000 -0.000001 0.000001 0.006109 0.000001 0.052116
#
#
# Mechanical properties :
#
#
# Convention : Reuss Voigt Hill
#
# Bulk Modulus (GPa) = 46.54147 54.30226 50.42187
# Shear Modulus (GPa) = 22.36748 28.50493 25.43621
#
# Velocity S-wave (km/s) = 3.39600 3.83371 3.62147
# Velocity P-wave (km/s) = 6.27488 6.89891 6.59428
#
# Compressibility (1/GPa) = 0.02148621
#
# Stress axis : x y z
#
# Youngs Moduli (GPa) = 48.97021 83.97598 117.55064
#
# Poissons Ratio (x) = 0.47973 0.13223
# Poissons Ratio (y) = 0.27975 0.33351
# Poissons Ratio (z) = 0.05508 0.23825
#
# Static dielectric constant tensor:
#      x y z
#    x 3.482050 0.000000 -0.088040 
#    y 0.000000 3.398340 0.000000 
#    z -0.088040 0.000000 4.087450 
# 
# 
# High freq. dielectric constant tensor:
#      x y z
#    x 1.758610 0.000000 -0.007930 
#    y 0.000000 1.722730 0.000000 
#    z -0.007930 0.000000 1.784430 
# 
# From -- ./inp_files/19202.got.cif
#   From: 2010.03.12/outbox.cif.g09.slc.cpg/sg8_10_cif.got.tgz:19202.got - 2010.03.31 10:45:26.
