data_PCOD8054067
_publ_section_title
;
Structure prediction by ZEFSAII (Michael W. Deem and Ramdas Pophale) SiO2 
 PCOD8054067
Probable space group: C M
;
_chemical_formula_sum "Si O2"
_cell_formula_units_Z 32
_cell_length_a 13.324902
_cell_length_b 14.966006
_cell_length_c 11.687292
_cell_angle_alpha 90.000000
_cell_angle_beta 136.108065
_cell_angle_gamma 90.000000
_cell_volume 1615.865772
_symmetry_space_group_name_H-M "C M"
_symmetry_group_IT_number 8
_symmetry_cell_setting 'monoclinic'
loop_
_space_group_symop_operation_xyz
x,y,z
x,-y,z
1/2+x,1/2+y,z
1/2+x,1/2-y,z
loop_
_atom_site_type_symbol
_atom_site_label
_atom_site_fract_x
_atom_site_fract_y
_atom_site_fract_z
Si Si1 0.157020 0.905284 0.162480
Si Si2 0.973283 0.741961 0.631068
Si Si3 0.985804 0.600248 0.448778
Si Si4 0.430929 0.896736 0.967821
Si Si5 0.933545 0.697415 0.201598
Si Si6 0.163433 0.827911 0.399985
Si Si7 0.118713 0.895936 0.612256
Si Si8 0.120270 0.257795 0.995340
O O1 0.323921 0.903514 0.259734
O O2 0.183071 0.903416 0.320626
O O3 0.083492 0.000000 0.069970
O O4 0.064850 0.829611 0.020662
O O5 0.012668 0.654684 0.587398
O O6 0.805983 0.734117 0.529306
O O7 0.006034 0.833491 0.589042
O O8 0.067560 0.741138 0.822304
O O9 0.048719 0.500000 0.517047
O O10 0.046409 0.656517 0.391189
O O11 0.282907 0.874304 0.781335
O O12 0.563332 0.844092 0.016993
O O13 0.472914 0.000000 0.992600
O O14 0.400118 0.873032 0.074412
O O15 0.035884 0.773027 0.233795
O O16 0.793903 0.750924 0.136217
O O17 0.109474 0.873637 0.471340
O O18 0.079414 0.000000 0.602751
#
# Coordination Sequence:
#
# PCOD8054067 Si02
#       8
#     4   4   4   4   4   4   4   4
#     4   9  19  35  59  87 114 152 201 245 293 358
#     4  11  22  38  61  90 124 157 202 254 303 361
#     4   9  19  35  59  87 114 152 201 245 293 358
#     4  11  23  40  64  92 122 165 212 253 306 371
#     4  11  21  38  64  87 123 160 199 250 310 362
#     4  11  21  38  64  87 123 160 199 250 310 362
#     4  11  23  40  64  92 122 165 212 253 306 371
#     4  11  22  38  61  90 124 157 202 254 303 361
#
# _framework density 19.803625
#
# number of rings (size 3 to 8) (size 9 to 14) (size 15 to 20)
#    0.000    1.500    5.000    0.750    0.000    2.000 
#    0.000    3.750    0.000    2.250    0.000    0.000 
#    0.000    0.000    0.000    0.000    0.000    0.000 
#
# Total GULP energy -198217.705209 kJ/mol
# GULP energy per Si atom -12388.606576 kJ/mol
# Density = 1.975855 g / cm^3
# Si number density = 19.803625 Si / 1000 Ang^3
#
#
#
# Elastic Constant Matrix: (Units=GPa)
#
#
# Indices 1 2 3 4 5 6 
#
# 1 72.3850 37.1940 17.5911 0.0000 -8.6896 0.0000
# 2 37.1940 130.1842 39.3162 0.0000 2.7663 0.0000
# 3 17.5911 39.3162 77.0898 0.0000 -20.7024 0.0000
# 4 0.0000 0.0000 0.0000 27.3154 0.0000 2.3400
# 5 -8.6896 2.7663 -20.7024 0.0000 35.2844 0.0000
# 6 0.0000 0.0000 0.0000 2.3400 0.0000 21.1634
#
#
#
# Elastic Compliance Matrix: (Units=1/GPa)
#
#
# Indices 1 2 3 4 5 6 
#
# 1 0.016892 -0.004865 -0.000182 0.000000 0.004434 0.000000
# 2 -0.004865 0.011002 -0.006000 0.000000 -0.005581 0.000000
# 3 -0.000182 -0.006000 0.019215 0.000000 0.011700 0.000000
# 4 0.000000 0.000000 0.000000 0.036959 0.000000 -0.004087
# 5 0.004434 -0.005581 0.011700 0.000000 0.036735 0.000000
# 6 0.000000 0.000000 0.000000 -0.004087 0.000000 0.047703
#
#
# Mechanical properties :
#
#
# Convention : Reuss Voigt Hill
#
# Bulk Modulus (GPa) = 39.97688 51.98463 45.98075
# Shear Modulus (GPa) = 25.13336 29.12317 27.12827
#
# Velocity S-wave (km/s) = 3.56635 3.83900 3.70518
# Velocity P-wave (km/s) = 6.09827 6.77920 6.44773
#
# Compressibility (1/GPa) = 0.02501446
#
# Stress axis : x y z
#
# Youngs Moduli (GPa) = 59.20127 90.89364 52.04205
#
# Poissons Ratio (x) = 0.44221 0.00949
# Poissons Ratio (y) = 0.28802 0.31223
# Poissons Ratio (z) = 0.01080 0.54532
#
# Static dielectric constant tensor:
#      x y z
#    x 3.599980 0.000000 -0.160150 
#    y 0.000000 3.722750 0.000000 
#    z -0.160150 0.000000 3.419420 
# 
# 
# High freq. dielectric constant tensor:
#      x y z
#    x 1.771400 0.000000 -0.027150 
#    y 0.000000 1.776480 0.000000 
#    z -0.027150 0.000000 1.761270 
# 
# From -- ./inp_files/13259.got.cif
#   From: 2010.03.12/outbox.cif.g09.slc.cpg/sg8_7_cif.got.tgz:13259.got - 2010.03.31 10:45:26.
