data_PCOD8054514
_publ_section_title
;
Structure prediction by ZEFSAII (Michael W. Deem and Ramdas Pophale) SiO2 
 PCOD8054514
Probable space group: C C
;
_chemical_formula_sum "Si O2"
_cell_formula_units_Z 28
_cell_length_a 16.067083
_cell_length_b 8.284193
_cell_length_c 11.727346
_cell_angle_alpha 90.000000
_cell_angle_beta 66.520969
_cell_angle_gamma 90.000000
_cell_volume 1431.706002
_symmetry_space_group_name_H-M "C C"
_symmetry_group_IT_number 9
_symmetry_cell_setting 'monoclinic'
loop_
_space_group_symop_operation_xyz
x,y,z
x,-y,1/2+z
1/2+x,1/2+y,z
1/2+x,1/2-y,1/2+z
loop_
_atom_site_type_symbol
_atom_site_label
_atom_site_fract_x
_atom_site_fract_y
_atom_site_fract_z
Si Si1 0.333280 0.330261 0.182770
Si Si2 0.643223 0.321530 0.335217
Si Si3 0.250530 0.029604 0.120764
Si Si4 0.677013 0.963030 0.664637
Si Si5 0.603736 0.737400 0.096359
Si Si6 0.465647 0.413712 0.525860
Si Si7 0.813230 0.763729 0.456729
O O1 0.322319 0.167856 0.114210
O O2 0.248603 0.448811 0.208967
O O3 0.425393 0.415104 0.088201
O O4 0.342085 0.286399 0.310582
O O5 0.731079 0.416535 0.241207
O O6 0.621345 0.171120 0.264247
O O7 0.666096 0.250413 0.447714
O O8 0.553656 0.437163 0.395439
O O9 0.151794 0.102673 0.147182
O O10 0.287582 0.923205 0.995134
O O11 0.728481 0.880280 0.530143
O O12 0.603038 0.089415 0.658130
O O13 0.500815 0.684489 0.119708
O O14 0.393999 0.305666 0.498489
#
# Coordination Sequence:
#
# PCOD8054514 Si02
#       7
#     4   4   4   4   4   4   4
#     4  10  20  37  60  83 118 157 188 240 291 349
#     4   9  19  35  58  85 117 148 192 245 280 344
#     4  10  20  36  59  84 112 157 204 224 284 352
#     4   9  18  36  61  83 110 154 198 226 290 353
#     4   9  19  35  57  84 110 147 194 240 278 344
#     4   9  22  36  56  84 120 148 191 238 303 330
#     4  10  20  37  55  83 117 153 187 241 286 350
#
# _framework density 19.557088
#
# number of rings (size 3 to 8) (size 9 to 14) (size 15 to 20)
#    0.857    1.714    0.000    1.714    2.000    0.000 
#    2.571    4.286    0.000    0.000    0.000    0.000 
#    0.000    0.000    0.000    0.000    0.000    0.000 
#
# Total GULP energy -173486.015434 kJ/mol
# GULP energy per Si atom -12391.858245 kJ/mol
# Density = 1.951257 g / cm^3
# Si number density = 19.557088 Si / 1000 Ang^3
#
#
#
# Elastic Constant Matrix: (Units=GPa)
#
#
# Indices 1 2 3 4 5 6 
#
# 1 77.1659 49.9469 23.6669 0.0000 9.7028 0.0000
# 2 49.9469 136.3381 55.3976 0.0000 1.1915 0.0000
# 3 23.6669 55.3976 90.8807 0.0000 0.7618 0.0000
# 4 0.0000 0.0000 0.0000 33.4058 0.0000 -1.5820
# 5 9.7028 1.1915 0.7618 0.0000 29.5401 0.0000
# 6 0.0000 0.0000 0.0000 -1.5820 0.0000 29.0333
#
#
#
# Elastic Compliance Matrix: (Units=1/GPa)
#
#
# Indices 1 2 3 4 5 6 
#
# 1 0.017920 -0.006166 -0.000861 0.000000 -0.005615 0.000000
# 2 -0.006166 0.011873 -0.005646 0.000000 0.001692 0.000000
# 3 -0.000861 -0.005646 0.014668 0.000000 0.000132 0.000000
# 4 0.000000 0.000000 0.000000 0.030012 0.000000 0.001635
# 5 -0.005615 0.001692 0.000132 0.000000 0.035625 0.000000
# 6 0.000000 0.000000 0.000000 0.001635 0.000000 0.034532
#
#
# Mechanical properties :
#
#
# Convention : Reuss Voigt Hill
#
# Bulk Modulus (GPa) = 52.31367 62.48972 57.40170
# Shear Modulus (GPa) = 28.35298 30.08740 29.22019
#
# Velocity S-wave (km/s) = 3.81170 3.92655 3.86955
# Velocity P-wave (km/s) = 6.79554 7.25113 7.02703
#
# Compressibility (1/GPa) = 0.01911546
#
# Stress axis : x y z
#
# Youngs Moduli (GPa) = 55.80252 84.22604 68.17584
#
# Poissons Ratio (x) = 0.51935 0.05870
# Poissons Ratio (y) = 0.34408 0.38490
# Poissons Ratio (z) = 0.04805 0.47551
#
# Static dielectric constant tensor:
#      x y z
#    x 3.299260 0.000000 0.114270 
#    y 0.000000 3.586380 0.000000 
#    z 0.114270 0.000000 3.447160 
# 
# 
# High freq. dielectric constant tensor:
#      x y z
#    x 1.740590 0.000000 0.014190 
#    y 0.000000 1.763920 0.000000 
#    z 0.014190 0.000000 1.754910 
# 
# From -- ./inp_files/17657.got.cif
#   From: 2010.06.25/outbox.cif.g09.slc.cpg/sg9_9_cif.got.tgz:17657.got - 2010.06.27 21:40:51.
