data_PCOD8054694
_publ_section_title
;
Structure prediction by ZEFSAII (Michael W. Deem and Ramdas Pophale) SiO2 
 PCOD8054694
Probable space group: C C
;
_chemical_formula_sum "Si O2"
_cell_formula_units_Z 28
_cell_length_a 8.613827
_cell_length_b 13.387917
_cell_length_c 14.466051
_cell_angle_alpha 90.000000
_cell_angle_beta 141.145224
_cell_angle_gamma 90.000000
_cell_volume 1046.569499
_symmetry_space_group_name_H-M "C C"
_symmetry_group_IT_number 9
_symmetry_cell_setting 'monoclinic'
loop_
_space_group_symop_operation_xyz
x,y,z
x,-y,1/2+z
1/2+x,1/2+y,z
1/2+x,1/2-y,1/2+z
loop_
_atom_site_type_symbol
_atom_site_label
_atom_site_fract_x
_atom_site_fract_y
_atom_site_fract_z
Si Si1 0.243940 0.982646 0.198600
Si Si2 0.682491 0.994468 0.140615
Si Si3 0.051798 0.668567 0.354160
Si Si4 0.814226 0.129047 0.039597
Si Si5 0.463581 0.332514 0.174787
Si Si6 0.661673 0.259855 0.817001
Si Si7 0.167810 0.065704 0.462725
O O1 0.498390 0.048148 0.321984
O O2 0.058156 0.075955 0.116113
O O3 0.196930 0.908443 0.264898
O O4 0.194110 0.917749 0.084131
O O5 0.756883 0.881825 0.146138
O O6 0.664184 0.060169 0.039358
O O7 0.406112 0.004607 0.051965
O O8 0.895835 0.023163 0.313002
O O9 0.335878 0.681300 0.515953
O O10 0.041501 0.724757 0.250371
O O11 0.891954 0.730843 0.354840
O O12 0.908267 0.226214 0.142239
O O13 0.652843 0.155581 0.872254
O O14 0.700111 0.336891 0.917406
#
# Coordination Sequence:
#
# PCOD8054694 Si02
#       7
#     4   4   4   4   4   4   4
#     4  10  25  44  70 108 146 197 252 317 387 464
#     4  10  24  45  73 103 148 196 253 314 394 468
#     4  11  23  46  76 106 151 204 259 321 400 469
#     4   9  21  42  67 100 140 187 250 302 379 460
#     4  11  25  46  75 109 149 204 267 315 390 487
#     4  10  20  41  67 104 137 189 245 305 380 458
#     4  11  24  44  72 106 147 195 248 322 388 462
#
# _framework density 26.754076999999999
#
# number of rings (size 3 to 8) (size 9 to 14) (size 15 to 20)
#    0.000    1.714    1.429    2.571    6.000    0.000 
#    5.143    0.000    0.000    0.000    0.000    0.000 
#    0.000    0.000    0.000    0.000    0.000    0.000 
#
# Total GULP energy -173449.469299 kJ/mol
# GULP energy per Si atom -12389.247807 kJ/mol
# Density = 2.669318 g / cm^3
# Si number density = 26.754077 Si / 1000 Ang^3
#
#
#
# Elastic Constant Matrix: (Units=GPa)
#
#
# Indices 1 2 3 4 5 6 
#
# 1 78.6055 16.1380 22.3351 0.0000 -7.4934 0.0000
# 2 16.1380 75.2949 28.4987 0.0002 -5.6683 0.0001
# 3 22.3351 28.4987 139.7557 0.0003 -5.9828 0.0003
# 4 0.0000 0.0002 0.0003 46.4792 0.0001 -26.0142
# 5 -7.4934 -5.6683 -5.9828 0.0001 35.6619 0.0001
# 6 0.0000 0.0001 0.0003 -26.0142 0.0001 34.5293
#
#
#
# Elastic Compliance Matrix: (Units=1/GPa)
#
#
# Indices 1 2 3 4 5 6 
#
# 1 0.013860 -0.002164 -0.001676 0.000000 0.002287 0.000000
# 2 -0.002164 0.014847 -0.002619 0.000000 0.001466 0.000000
# 3 -0.001676 -0.002619 0.007982 0.000000 0.000571 0.000000
# 4 0.000000 0.000000 0.000000 0.037202 0.000000 0.028028
# 5 0.002287 0.001466 0.000571 0.000000 0.028850 0.000000
# 6 0.000000 0.000000 0.000000 0.028028 0.000000 0.050077
#
#
# Mechanical properties :
#
#
# Convention : Reuss Voigt Hill
#
# Bulk Modulus (GPa) = 42.06871 47.51107 44.78989
# Shear Modulus (GPa) = 28.79202 38.44636 33.61919
#
# Velocity S-wave (km/s) = 3.28407 3.79493 3.54870
# Velocity P-wave (km/s) = 5.48985 6.08268 5.79385
#
# Compressibility (1/GPa) = 0.02377064
#
# Stress axis : x y z
#
# Youngs Moduli (GPa) = 72.14855 67.35587 125.28763
#
# Poissons Ratio (x) = 0.14577 0.20996
# Poissons Ratio (y) = 0.15614 0.32811
# Poissons Ratio (z) = 0.12091 0.17640
#
# Static dielectric constant tensor:
#      x y z
#    x 4.774650 0.000000 -0.090600 
#    y 0.000000 4.754720 0.000000 
#    z -0.090600 0.000000 5.152350 
# 
# 
# High freq. dielectric constant tensor:
#      x y z
#    x 2.063550 0.000000 -0.005660 
#    y 0.000000 2.061850 0.000000 
#    z -0.005660 0.000000 2.090200 
# 
# From -- ./inp_files/23484.got.cif
#   From: 2010.06.25/outbox.cif.g09.slc.cpg/sg9_12_cif.got.tgz:23484.got - 2010.06.27 21:40:51.
