data_PCOD8054440
_publ_section_title
;
Structure prediction by ZEFSAII (Michael W. Deem and Ramdas Pophale) SiO2 
 PCOD8054440
Probable space group: C C
;
_chemical_formula_sum "Si O2"
_cell_formula_units_Z 20
_cell_length_a 7.550212
_cell_length_b 21.699030
_cell_length_c 5.358498
_cell_angle_alpha 90.000000
_cell_angle_beta 122.141986
_cell_angle_gamma 90.000000
_cell_volume 743.341980
_symmetry_space_group_name_H-M "C C"
_symmetry_group_IT_number 9
_symmetry_cell_setting 'monoclinic'
loop_
_space_group_symop_operation_xyz
x,y,z
x,-y,1/2+z
1/2+x,1/2+y,z
1/2+x,1/2-y,1/2+z
loop_
_atom_site_type_symbol
_atom_site_label
_atom_site_fract_x
_atom_site_fract_y
_atom_site_fract_z
Si Si1 0.766800 0.154455 0.240620
Si Si2 0.098492 0.520410 0.100458
Si Si3 0.563028 0.529782 0.958637
Si Si4 0.141404 0.841406 0.712918
Si Si5 0.094608 0.294656 0.111494
O O1 0.635904 0.092470 0.115511
O O2 0.742330 0.182355 0.496919
O O3 0.013351 0.142146 0.372029
O O4 0.692065 0.199587 0.961169
O O5 0.972225 0.503344 0.260129
O O6 0.312444 0.480224 0.272580
O O7 0.662218 0.496704 0.277406
O O8 0.604791 0.603093 0.991107
O O9 0.051820 0.777596 0.527935
O O10 0.384526 0.834498 0.952587
#
# Coordination Sequence:
#
# PCOD8054440 Si02
#       5
#     4   4   4   4   4
#     4  12  27  50  75 108 154 189 249 305 367 436
#     4  10  19  40  74 103 137 196 232 288 381 416
#     4  10  22  40  74 104 136 201 231 292 380 417
#     4  12  27  51  78 105 160 186 253 305 368 439
#     4  12  31  45  77 116 139 206 245 300 372 442
#
# _framework density 26.905515000000001
#
# number of rings (size 3 to 8) (size 9 to 14) (size 15 to 20)
#    0.000    0.800    6.000    1.200    5.600    4.800 
#    0.000    6.000    0.000    0.000    0.000    0.000 
#    0.000    0.000    0.000    0.000    0.000    0.000 
#
# Total GULP energy -124001.154663 kJ/mol
# GULP energy per Si atom -12400.115466 kJ/mol
# Density = 2.684428 g / cm^3
# Si number density = 26.905515 Si / 1000 Ang^3
#
#
#
# Elastic Constant Matrix: (Units=GPa)
#
#
# Indices 1 2 3 4 5 6 
#
# 1 137.9200 11.5979 43.5689 0.0000 -39.6175 0.0000
# 2 11.5979 160.9751 32.5405 0.0000 -26.6943 0.0000
# 3 43.5689 32.5405 139.9689 0.0000 -39.8993 0.0000
# 4 0.0000 0.0000 0.0000 40.0072 0.0000 -5.5150
# 5 -39.6175 -26.6943 -39.8993 0.0000 50.0710 0.0000
# 6 0.0000 0.0000 0.0000 -5.5150 0.0000 18.0136
#
#
#
# Elastic Compliance Matrix: (Units=1/GPa)
#
#
# Indices 1 2 3 4 5 6 
#
# 1 0.009574 0.000709 -0.001136 0.000000 0.007048 0.000000
# 2 0.000709 0.006922 -0.000800 0.000000 0.003614 0.000000
# 3 -0.001136 -0.000800 0.009454 0.000000 0.006208 0.000000
# 4 0.000000 0.000000 0.000000 0.026097 0.000000 0.007990
# 5 0.007048 0.003614 0.006208 0.000000 0.032422 0.000000
# 6 0.000000 0.000000 0.000000 0.007990 0.000000 0.057960
#
#
# Mechanical properties :
#
#
# Convention : Reuss Voigt Hill
#
# Bulk Modulus (GPa) = 42.56038 68.25315 55.40677
# Shear Modulus (GPa) = 32.74088 45.02882 38.88485
#
# Velocity S-wave (km/s) = 3.49217 4.09539 3.80575
# Velocity P-wave (km/s) = 5.66685 6.91273 6.32056
#
# Compressibility (1/GPa) = 0.02349603
#
# Stress axis : x y z
#
# Youngs Moduli (GPa) = 104.44521 144.46679 105.77991
#
# Poissons Ratio (x) = -0.10237 0.12015
# Poissons Ratio (y) = -0.07401 0.08459
# Poissons Ratio (z) = 0.11864 0.11553
#
# Static dielectric constant tensor:
#      x y z
#    x 5.249490 0.000000 -0.459530 
#    y 0.000000 4.856110 0.000000 
#    z -0.459530 0.000000 5.282110 
# 
# 
# High freq. dielectric constant tensor:
#      x y z
#    x 2.105060 0.000000 -0.003470 
#    y 0.000000 2.085880 0.000000 
#    z -0.003470 0.000000 2.083700 
# 
# From -- ./inp_files/583.got.cif
#   From: 2010.06.25/outbox.cif.g09.slc.cpg/sg9_1_cif.got.tgz:583.got - 2010.06.27 21:40:51.
