data_PCOD8054564
_publ_section_title
;
Structure prediction by ZEFSAII (Michael W. Deem and Ramdas Pophale) SiO2 
 PCOD8054564
Probable space group: C C
;
_chemical_formula_sum "Si O2"
_cell_formula_units_Z 32
_cell_length_a 15.422276
_cell_length_b 15.363904
_cell_length_c 9.180028
_cell_angle_alpha 90.000000
_cell_angle_beta 136.487279
_cell_angle_gamma 90.000000
_cell_volume 1497.641452
_symmetry_space_group_name_H-M "C C"
_symmetry_group_IT_number 9
_symmetry_cell_setting 'monoclinic'
loop_
_space_group_symop_operation_xyz
x,y,z
x,-y,1/2+z
1/2+x,1/2+y,z
1/2+x,1/2-y,1/2+z
loop_
_atom_site_type_symbol
_atom_site_label
_atom_site_fract_x
_atom_site_fract_y
_atom_site_fract_z
Si Si1 0.642680 0.621452 0.731470
Si Si2 0.021834 0.483056 0.783766
Si Si3 0.942195 0.055577 0.687225
Si Si4 0.071916 0.128405 0.334959
Si Si5 0.197420 0.514643 0.744579
Si Si6 0.353549 0.157993 0.197236
Si Si7 0.772734 0.560190 0.383628
Si Si8 0.869846 0.840010 0.374033
O O1 0.522065 0.624561 0.690969
O O2 0.606512 0.668670 0.534855
O O3 0.688069 0.524070 0.752059
O O4 0.755883 0.671887 0.946840
O O5 0.982587 0.384344 0.787819
O O6 0.894957 0.540524 0.632477
O O7 0.071226 0.495551 0.681349
O O8 0.143162 0.516713 0.022563
O O9 0.923804 0.086442 0.830694
O O10 0.019464 0.967778 0.796756
O O11 0.810825 0.044319 0.441391
O O12 0.194659 0.130485 0.381324
O O13 0.963694 0.182857 0.121249
O O14 0.241709 0.616867 0.784879
O O15 0.302383 0.094237 0.259228
O O16 0.362015 0.253126 0.273175
#
# Coordination Sequence:
#
# PCOD8054564 Si02
#       8
#     4   4   4   4   4   4   4   4
#     4  10  20  37  66  92 120 162 226 270 311 385
#     4  11  22  39  65  95 127 177 224 264 321 404
#     4  10  20  38  63  93 125 168 216 266 321 392
#     4  10  20  37  66  92 120 162 226 270 311 385
#     4  11  22  39  65  95 127 177 224 264 321 404
#     4  11  24  41  63  94 134 171 210 271 339 386
#     4  10  20  38  63  93 125 168 216 266 321 392
#     4  11  24  41  63  94 134 171 210 271 339 386
#
# _framework density 21.36693
#
# number of rings (size 3 to 8) (size 9 to 14) (size 15 to 20)
#    0.000    1.500    2.500    5.250    3.500    2.000 
#    0.000    2.500    0.000    0.000    0.000    0.000 
#    0.000    0.000    0.000    0.000    0.000    0.000 
#
# Total GULP energy -198269.459690 kJ/mol
# GULP energy per Si atom -12391.841231 kJ/mol
# Density = 2.131830 g / cm^3
# Si number density = 21.366930 Si / 1000 Ang^3
#
#
#
# Elastic Constant Matrix: (Units=GPa)
#
#
# Indices 1 2 3 4 5 6 
#
# 1 103.6227 29.1907 22.3184 0.0000 2.9047 0.0000
# 2 29.1907 62.4523 15.8492 0.0000 -6.0509 0.0000
# 3 22.3184 15.8492 176.9812 0.0000 -4.6547 0.0000
# 4 0.0000 0.0000 0.0000 19.9244 0.0000 -10.1357
# 5 2.9047 -6.0509 -4.6547 0.0000 36.4683 0.0000
# 6 0.0000 0.0000 0.0000 -10.1357 0.0000 23.8268
#
#
#
# Elastic Compliance Matrix: (Units=1/GPa)
#
#
# Indices 1 2 3 4 5 6 
#
# 1 0.011404 -0.005257 -0.001018 0.000000 -0.001911 0.000000
# 2 -0.005257 0.019046 -0.000952 0.000000 0.003457 0.000000
# 3 -0.001018 -0.000952 0.005882 0.000000 0.000674 0.000000
# 4 0.000000 0.000000 0.000000 0.064050 0.000000 0.027246
# 5 -0.001911 0.003457 0.000674 0.000000 0.028233 0.000000
# 6 0.000000 0.000000 0.000000 0.027246 0.000000 0.053560
#
#
# Mechanical properties :
#
#
# Convention : Reuss Voigt Hill
#
# Bulk Modulus (GPa) = 45.70669 53.08588 49.39628
# Shear Modulus (GPa) = 24.51934 34.42376 29.47155
#
# Velocity S-wave (km/s) = 3.39121 4.01818 3.71793
# Velocity P-wave (km/s) = 6.06395 6.81370 6.44973
#
# Compressibility (1/GPa) = 0.02187863
#
# Stress axis : x y z
#
# Youngs Moduli (GPa) = 87.68789 52.50444 170.02193
#
# Poissons Ratio (x) = 0.27603 0.17301
# Poissons Ratio (y) = 0.46099 0.16181
# Poissons Ratio (z) = 0.08923 0.04997
#
# Static dielectric constant tensor:
#      x y z
#    x 4.160770 0.000000 -0.032070 
#    y 0.000000 3.347660 0.000000 
#    z -0.032070 0.000000 4.108840 
# 
# 
# High freq. dielectric constant tensor:
#      x y z
#    x 1.851680 0.000000 -0.002230 
#    y 0.000000 1.775680 0.000000 
#    z -0.002230 0.000000 1.865820 
# 
# From -- ./inp_files/9732.got.cif
#   From: 2010.06.25/outbox.cif.g09.slc.cpg/sg9_5_cif.got.tgz:9732.got - 2010.06.27 21:40:51.
