data_PCOD8054810
_publ_section_title
;
Structure prediction by ZEFSAII (Michael W. Deem and Ramdas Pophale) SiO2 
 PCOD8054810
Probable space group: C C
;
_chemical_formula_sum "Si O2"
_cell_formula_units_Z 28
_cell_length_a 11.391620
_cell_length_b 21.845717
_cell_length_c 5.472567
_cell_angle_alpha 90.000000
_cell_angle_beta 115.073803
_cell_angle_gamma 90.000000
_cell_volume 1233.551518
_symmetry_space_group_name_H-M "C C"
_symmetry_group_IT_number 9
_symmetry_cell_setting 'monoclinic'
loop_
_space_group_symop_operation_xyz
x,y,z
x,-y,1/2+z
1/2+x,1/2+y,z
1/2+x,1/2-y,1/2+z
loop_
_atom_site_type_symbol
_atom_site_label
_atom_site_fract_x
_atom_site_fract_y
_atom_site_fract_z
Si Si1 0.931750 0.352239 0.129210
Si Si2 0.523992 0.254016 0.431750
Si Si3 0.651712 0.813949 0.651233
Si Si4 0.530125 0.034174 0.467615
Si Si5 0.335171 0.466046 0.217656
Si Si6 0.652343 0.678887 0.434977
Si Si7 0.417096 0.351883 0.030685
O O1 0.040982 0.358265 0.437264
O O2 0.959432 0.400568 0.937815
O O3 0.783668 0.359988 0.087507
O O4 0.935672 0.281275 0.048159
O O5 0.615168 0.200949 0.398723
O O6 0.608655 0.310573 0.615168
O O7 0.426766 0.283558 0.150119
O O8 0.666582 0.748489 0.538092
O O9 0.784544 0.853082 0.754261
O O10 0.682562 0.045309 0.587972
O O11 0.486662 0.004923 0.170188
O O12 0.377009 0.492390 0.518931
O O13 0.409187 0.402158 0.238289
O O14 0.543090 0.638426 0.473685
#
# Coordination Sequence:
#
# PCOD8054810 Si02
#       7
#     4   4   4   4   4   4   4
#     4  11  23  39  66  92 132 171 219 271 336 392
#     4  10  21  37  63  96 129 170 217 270 331 397
#     4  10  21  37  62  95 126 169 220 268 331 390
#     4  10  24  44  66  98 129 173 228 282 324 389
#     4  10  24  43  69  96 131 171 228 279 330 384
#     4  10  22  39  57  96 135 170 208 266 340 403
#     4  11  23  39  65  95 132 168 220 272 332 397
#
# _framework density 22.698689000000002
#
# number of rings (size 3 to 8) (size 9 to 14) (size 15 to 20)
#    0.000    1.714    0.000    4.286   10.000    3.429 
#    0.000    1.429    0.000    0.000    0.000    0.000 
#    0.000    0.000    0.000    0.000    0.000    0.000 
#
# Total GULP energy -173508.822325 kJ/mol
# GULP energy per Si atom -12393.487309 kJ/mol
# Density = 2.264703 g / cm^3
# Si number density = 22.698689 Si / 1000 Ang^3
#
#
#
# Elastic Constant Matrix: (Units=GPa)
#
#
# Indices 1 2 3 4 5 6 
#
# 1 155.8932 51.6936 59.8892 0.0000 3.5468 0.0000
# 2 51.6936 74.6083 18.4149 0.0000 -4.4140 0.0000
# 3 59.8892 18.4149 87.7139 0.0000 -6.9918 0.0000
# 4 0.0000 0.0000 0.0000 28.8043 0.0000 -14.4721
# 5 3.5468 -4.4140 -6.9918 0.0000 35.9697 0.0000
# 6 0.0000 0.0000 0.0000 -14.4721 0.0000 35.1476
#
#
#
# Elastic Compliance Matrix: (Units=1/GPa)
#
#
# Indices 1 2 3 4 5 6 
#
# 1 0.011042 -0.006236 -0.006478 0.000000 -0.003113 0.000000
# 2 -0.006236 0.017707 0.000775 0.000000 0.002938 0.000000
# 3 -0.006478 0.000775 0.015967 0.000000 0.003838 0.000000
# 4 0.000000 0.000000 0.000000 0.043772 0.000000 0.018023
# 5 -0.003113 0.002938 0.003838 0.000000 0.029215 0.000000
# 6 0.000000 0.000000 0.000000 0.018023 0.000000 0.035873
#
#
# Mechanical properties :
#
#
# Convention : Reuss Voigt Hill
#
# Bulk Modulus (GPa) = 47.99220 64.24566 56.11893
# Shear Modulus (GPa) = 27.11495 32.53216 29.82355
#
# Velocity S-wave (km/s) = 3.45999 3.78989 3.62869
# Velocity P-wave (km/s) = 6.09517 6.89320 6.50643
#
# Compressibility (1/GPa) = 0.02083672
#
# Stress axis : x y z
#
# Youngs Moduli (GPa) = 90.56333 56.47609 62.62846
#
# Poissons Ratio (x) = 0.35218 0.40572
# Poissons Ratio (y) = 0.56474 -0.04851
# Poissons Ratio (z) = 0.58669 -0.04374
#
# Static dielectric constant tensor:
#      x y z
#    x 4.071360 0.000000 -0.252500 
#    y 0.000000 3.842940 0.000000 
#    z -0.252500 0.000000 4.264890 
# 
# 
# High freq. dielectric constant tensor:
#      x y z
#    x 1.887020 0.000000 -0.016540 
#    y 0.000000 1.877600 0.000000 
#    z -0.016540 0.000000 1.889790 
# 
# From -- ./inp_files/1775.got.cif
#   From: 2010.06.25/outbox.cif.g09.slc.cpg/sg9_1_cif.got.tgz:1775.got - 2010.06.27 21:40:51.
