data_PCOD8054151
_publ_section_title
;
Structure prediction by ZEFSAII (Michael W. Deem and Ramdas Pophale) SiO2 
 PCOD8054151
Probable space group: C M
;
_chemical_formula_sum "Si O2"
_cell_formula_units_Z 32
_cell_length_a 14.473390
_cell_length_b 9.448497
_cell_length_c 28.931803
_cell_angle_alpha 90.000000
_cell_angle_beta 28.095222
_cell_angle_gamma 90.000000
_cell_volume 1863.255970
_symmetry_space_group_name_H-M "C M"
_symmetry_group_IT_number 8
_symmetry_cell_setting 'monoclinic'
loop_
_space_group_symop_operation_xyz
x,y,z
x,-y,z
1/2+x,1/2+y,z
1/2+x,1/2-y,z
loop_
_atom_site_type_symbol
_atom_site_label
_atom_site_fract_x
_atom_site_fract_y
_atom_site_fract_z
Si Si1 0.767790 0.334854 0.352930
Si Si2 0.365996 0.666026 0.220990
Si Si3 0.462867 0.665581 0.560944
Si Si4 0.553546 0.835407 0.703873
Si Si5 0.203465 0.658404 0.848870
Si Si6 0.700800 0.836047 0.194530
Si Si7 0.790697 0.664751 0.066735
Si Si8 0.501467 0.339196 0.644776
O O1 0.739063 0.500000 0.353918
O O2 0.756245 0.249906 0.310118
O O3 0.595166 0.270756 0.461504
O O4 0.968386 0.309479 0.292770
O O5 0.327578 0.500000 0.245278
O O6 0.279709 0.715946 0.209678
O O7 0.597661 0.703692 0.122113
O O8 0.504715 0.500000 0.542488
O O9 0.521657 0.726646 0.584919
O O10 0.232178 0.695855 0.659065
O O11 0.353911 0.760834 0.810859
O O12 0.623173 0.764745 0.624524
O O13 0.512402 0.000000 0.714791
O O14 0.225181 0.500000 0.859676
O O15 0.273442 0.661557 0.764053
O O16 0.978733 0.708455 0.952755
O O17 0.808040 0.748780 0.107065
O O18 0.753887 0.000000 0.164027
O O19 0.788865 0.500000 0.080178
O O20 0.583665 0.500000 0.610740
#
# Coordination Sequence:
#
# PCOD8054151 Si02
#       8
#     4   4   4   4   4   4   4   4
#     4   9  18  32  50  70  96 126 156 191 232 279
#     4   9  18  33  50  72  97 121 154 195 235 277
#     4   9  17  31  50  70  93 128 162 187 228 284
#     4   9  17  30  47  69  94 120 157 201 230 261
#     4   8  16  32  50  67  94 129 157 186 232 282
#     4   9  18  32  49  72  97 121 154 195 234 277
#     4   9  17  32  51  69  95 126 156 190 231 281
#     4   8  16  32  49  65  92 127 160 187 226 281
#
# _framework density 17.174237999999999
#
# number of rings (size 3 to 8) (size 9 to 14) (size 15 to 20)
#    0.750    2.500    0.000    0.000    0.000    2.000 
#    2.250    4.375    0.000    0.000    0.000    0.000 
#    0.000    0.000    0.000    0.000    0.000    0.000 
#
# Total GULP energy -198210.467306 kJ/mol
# GULP energy per Si atom -12388.154207 kJ/mol
# Density = 1.713515 g / cm^3
# Si number density = 17.174238 Si / 1000 Ang^3
#
#
#
# Elastic Constant Matrix: (Units=GPa)
#
#
# Indices 1 2 3 4 5 6 
#
# 1 83.7792 26.1563 8.1008 0.0000 9.1124 0.0001
# 2 26.1563 45.6216 17.1120 0.0002 -0.8340 0.0000
# 3 8.1008 17.1120 62.2432 0.0006 2.7672 0.0009
# 4 0.0000 0.0002 0.0006 22.2033 0.0006 2.1695
# 5 9.1124 -0.8340 2.7672 0.0006 18.8001 0.0001
# 6 0.0001 0.0000 0.0009 2.1695 0.0001 23.3140
#
#
#
# Elastic Compliance Matrix: (Units=1/GPa)
#
#
# Indices 1 2 3 4 5 6 
#
# 1 0.015701 -0.009500 0.000932 0.000000 -0.008169 0.000000
# 2 -0.009500 0.030270 -0.007398 0.000000 0.007037 0.000000
# 3 0.000932 -0.007398 0.018132 0.000000 -0.003449 -0.000001
# 4 0.000000 0.000000 0.000000 0.045452 -0.000002 -0.004229
# 5 -0.008169 0.007037 -0.003449 -0.000002 0.057970 0.000000
# 6 0.000000 0.000000 -0.000001 -0.004229 0.000000 0.043286
#
#
# Mechanical properties :
#
#
# Convention : Reuss Voigt Hill
#
# Bulk Modulus (GPa) = 31.08630 32.70914 31.89772
# Shear Modulus (GPa) = 19.72640 22.21515 20.97078
#
# Velocity S-wave (km/s) = 3.39278 3.60045 3.49816
# Velocity P-wave (km/s) = 5.78686 6.03085 5.91012
#
# Compressibility (1/GPa) = 0.03216852
#
# Stress axis : x y z
#
# Youngs Moduli (GPa) = 63.69173 33.03608 55.15114
#
# Poissons Ratio (x) = 0.31386 -0.05138
# Poissons Ratio (y) = 0.60510 0.40802
# Poissons Ratio (z) = -0.05934 0.24441
#
# Static dielectric constant tensor:
#      x y z
#    x 3.081290 0.000000 0.007520 
#    y 0.000000 3.094150 0.000000 
#    z 0.007520 0.000000 3.232910 
# 
# 
# High freq. dielectric constant tensor:
#      x y z
#    x 1.648170 0.000000 -0.001150 
#    y 0.000000 1.650060 0.000000 
#    z -0.001150 0.000000 1.658040 
# 
# From -- ./inp_files/26466.got.cif
#   From: 2010.03.12/outbox.cif.g09.slc.cpg/sg8_14_cif.got.tgz:26466.got - 2010.03.31 10:45:26.
