data_PCOD8054541
_publ_section_title
;
Structure prediction by ZEFSAII (Michael W. Deem and Ramdas Pophale) SiO2 
 PCOD8054541
Probable space group: C C
;
_chemical_formula_sum "Si O2"
_cell_formula_units_Z 32
_cell_length_a 13.633364
_cell_length_b 23.565141
_cell_length_c 13.494485
_cell_angle_alpha 90.000000
_cell_angle_beta 158.467912
_cell_angle_gamma 90.000000
_cell_volume 1591.189011
_symmetry_space_group_name_H-M "C C"
_symmetry_group_IT_number 9
_symmetry_cell_setting 'monoclinic'
loop_
_space_group_symop_operation_xyz
x,y,z
x,-y,1/2+z
1/2+x,1/2+y,z
1/2+x,1/2-y,1/2+z
loop_
_atom_site_type_symbol
_atom_site_label
_atom_site_fract_x
_atom_site_fract_y
_atom_site_fract_z
Si Si1 0.930830 0.711985 0.317510
Si Si2 0.448068 0.422465 0.876280
Si Si3 0.138204 0.287318 0.422039
Si Si4 0.816514 0.605480 0.334751
Si Si5 0.957083 0.288265 0.620001
Si Si6 0.942377 0.354403 0.415983
Si Si7 0.442990 0.599850 0.151214
Si Si8 0.829692 0.040923 0.855856
O O1 0.921537 0.662697 0.387675
O O2 0.944612 0.686614 0.219334
O O3 0.186053 0.745951 0.592595
O O4 0.528472 0.427855 0.836211
O O5 0.447577 0.479840 0.938582
O O6 0.138302 0.406402 0.582598
O O7 0.641708 0.374884 0.106832
O O8 0.240283 0.346157 0.468527
O O9 0.868184 0.260153 0.123478
O O10 0.048994 0.301089 0.451410
O O11 0.721297 0.618298 0.358709
O O12 0.044866 0.556885 0.541639
O O13 0.558699 0.583948 0.030400
O O14 0.701810 0.254062 0.343812
O O15 0.974111 0.340604 0.561573
O O16 0.309231 0.550519 0.956530
#
# Coordination Sequence:
#
# PCOD8054541 Si02
#       8
#     4   4   4   4   4   4   4   4
#     4  10  21  38  60  88 121 162 200 245 307 370
#     4  11  23  42  63  87 121 161 206 263 309 363
#     4  11  22  35  59  93 125 163 198 239 309 378
#     4  10  22  41  61  87 121 154 202 254 309 370
#     4  10  20  37  60  87 126 164 194 246 305 355
#     4  11  22  38  61  91 125 158 209 255 297 372
#     4   9  25  40  64  87 129 156 202 262 307 371
#     4  10  23  43  60  86 116 162 203 254 319 353
#
# _framework density 20.110747
#
# number of rings (size 3 to 8) (size 9 to 14) (size 15 to 20)
#    0.750    1.000    0.000    4.500    5.250    1.000 
#    4.500    0.000    0.000    0.000    0.000    0.000 
#    0.000    0.000    0.000    0.000    0.000    0.000 
#
# Total GULP energy -198216.950703 kJ/mol
# GULP energy per Si atom -12388.559419 kJ/mol
# Density = 2.006497 g / cm^3
# Si number density = 20.110747 Si / 1000 Ang^3
#
#
#
# Elastic Constant Matrix: (Units=GPa)
#
#
# Indices 1 2 3 4 5 6 
#
# 1 107.2201 50.8904 21.1742 -0.0046 -1.7380 -0.0023
# 2 50.8904 83.2110 24.0553 -0.0024 -2.0053 -0.0020
# 3 21.1742 24.0553 114.5084 -0.0176 11.5222 -0.0107
# 4 -0.0046 -0.0024 -0.0176 41.6263 -0.0051 -6.8091
# 5 -1.7380 -2.0053 11.5222 -0.0051 28.8845 -0.0019
# 6 -0.0023 -0.0020 -0.0107 -6.8091 -0.0019 33.6739
#
#
#
# Elastic Compliance Matrix: (Units=1/GPa)
#
#
# Indices 1 2 3 4 5 6 
#
# 1 0.013218 -0.007821 -0.000861 0.000001 0.000596 0.000000
# 2 -0.007821 0.017539 -0.002410 -0.000001 0.001708 0.000000
# 3 -0.000861 -0.002410 0.009815 0.000004 -0.004134 0.000004
# 4 0.000001 -0.000001 0.000004 0.024845 0.000003 0.005024
# 5 0.000596 0.001708 -0.004134 0.000003 0.036424 0.000001
# 6 0.000000 0.000000 0.000004 0.005024 0.000001 0.030712
#
#
# Mechanical properties :
#
#
# Convention : Reuss Voigt Hill
#
# Bulk Modulus (GPa) = 54.38594 55.24217 54.81406
# Shear Modulus (GPa) = 31.08162 34.75824 32.91993
#
# Velocity S-wave (km/s) = 3.93558 4.16184 4.05029
# Velocity P-wave (km/s) = 6.91040 7.11500 7.01345
#
# Compressibility (1/GPa) = 0.01838710
#
# Stress axis : x y z
#
# Youngs Moduli (GPa) = 75.65228 57.01708 101.88939
#
# Poissons Ratio (x) = 0.44592 0.08776
# Poissons Ratio (y) = 0.59166 0.24557
# Poissons Ratio (z) = 0.06516 0.13742
#
# Static dielectric constant tensor:
#      x y z
#    x 3.778220 0.000000 0.147340 
#    y 0.000000 3.389080 0.000000 
#    z 0.147340 0.000000 3.734660 
# 
# 
# High freq. dielectric constant tensor:
#      x y z
#    x 1.781580 0.000000 0.012560 
#    y 0.000000 1.763690 0.000000 
#    z 0.012560 0.000000 1.801220 
# 
# From -- ./inp_files/26185.got.cif
#   From: 2010.06.25/outbox.cif.g09.slc.cpg/sg9_14_cif.got.tgz:26185.got - 2010.06.27 21:40:51.
