data_PCOD8054921
_publ_section_title
;
Structure prediction by ZEFSAII (Michael W. Deem and Ramdas Pophale) SiO2 
 PCOD8054921
Probable space group: C C
;
_chemical_formula_sum "Si O2"
_cell_formula_units_Z 28
_cell_length_a 11.574285
_cell_length_b 8.881190
_cell_length_c 15.045798
_cell_angle_alpha 90.000000
_cell_angle_beta 114.716271
_cell_angle_gamma 90.000000
_cell_volume 1404.923423
_symmetry_space_group_name_H-M "C C"
_symmetry_group_IT_number 9
_symmetry_cell_setting 'monoclinic'
loop_
_space_group_symop_operation_xyz
x,y,z
x,-y,1/2+z
1/2+x,1/2+y,z
1/2+x,1/2-y,1/2+z
loop_
_atom_site_type_symbol
_atom_site_label
_atom_site_fract_x
_atom_site_fract_y
_atom_site_fract_z
Si Si1 0.272150 0.174836 0.016150
Si Si2 0.133609 0.323311 0.317982
Si Si3 0.739545 0.330293 0.014308
Si Si4 0.250532 0.370123 0.850129
Si Si5 0.345095 0.824511 0.226527
Si Si6 0.984517 0.881662 0.033590
Si Si7 0.168900 0.105946 0.165230
O O1 0.414782 0.248147 0.067986
O O2 0.195960 0.200343 0.083475
O O3 0.198121 0.257350 0.910654
O O4 0.277351 0.997861 0.994583
O O5 0.232533 0.277638 0.427301
O O6 0.153420 0.496333 0.299286
O O7 0.160636 0.219677 0.242869
O O8 0.989474 0.312185 0.306060
O O9 0.840836 0.273608 0.120977
O O10 0.605456 0.319180 0.020946
O O11 0.261503 0.283468 0.760966
O O12 0.385078 0.440780 0.926969
O O13 0.287935 0.992696 0.216700
O O14 0.034642 0.015954 0.113631
#
# Coordination Sequence:
#
# PCOD8054921 Si02
#       7
#     4   4   4   4   4   4   4
#     4   8  18  40  63  87 117 162 204 247 307 358
#     4  12  24  38  61  96 122 161 204 253 308 366
#     4  10  21  40  65  87 124 162 204 257 302 363
#     4  10  21  40  62  90 122 159 206 248 310 360
#     4  10  23  42  60  90 123 161 207 250 307 362
#     4   8  18  40  65  79 122 161 199 251 307 346
#     4  10  23  40  62  91 122 162 208 248 307 367
#
# _framework density 19.929912999999999
#
# number of rings (size 3 to 8) (size 9 to 14) (size 15 to 20)
#    0.857    1.714    1.429    0.857    2.000    6.857 
#    5.143    2.857    0.000    0.000    0.000    0.000 
#    0.000    0.000    0.000    0.000    0.000    0.000 
#
# Total GULP energy -173465.057190 kJ/mol
# GULP energy per Si atom -12390.361228 kJ/mol
# Density = 1.988455 g / cm^3
# Si number density = 19.929913 Si / 1000 Ang^3
#
#
#
# Elastic Constant Matrix: (Units=GPa)
#
#
# Indices 1 2 3 4 5 6 
#
# 1 67.4755 47.3480 16.4422 0.0000 -6.0354 0.0000
# 2 47.3480 113.9852 67.1006 0.0000 -21.8902 0.0000
# 3 16.4422 67.1006 115.7453 0.0000 -14.3582 0.0000
# 4 0.0000 0.0000 0.0000 28.2728 0.0000 -3.7291
# 5 -6.0354 -21.8902 -14.3582 0.0000 27.8914 0.0000
# 6 0.0000 0.0000 0.0000 -3.7291 0.0000 34.7334
#
#
#
# Elastic Compliance Matrix: (Units=1/GPa)
#
#
# Indices 1 2 3 4 5 6 
#
# 1 0.021856 -0.011481 0.003226 0.000000 -0.002621 0.000000
# 2 -0.011481 0.020729 -0.009268 0.000000 0.009013 0.000000
# 3 0.003226 -0.009268 0.013608 0.000000 0.000429 0.000000
# 4 0.000000 0.000000 0.000000 0.035878 0.000000 0.003852
# 5 -0.002621 0.009013 0.000429 0.000000 0.042581 0.000000
# 6 0.000000 0.000000 0.000000 0.003852 0.000000 0.029204
#
#
# Mechanical properties :
#
#
# Convention : Reuss Voigt Hill
#
# Bulk Modulus (GPa) = 47.28943 62.10971 54.69957
# Shear Modulus (GPa) = 24.27760 29.26720 26.77240
#
# Velocity S-wave (km/s) = 3.49398 3.83627 3.66912
# Velocity P-wave (km/s) = 6.32903 7.13122 6.74207
#
# Compressibility (1/GPa) = 0.02114638
#
# Stress axis : x y z
#
# Youngs Moduli (GPa) = 45.75393 48.24141 73.48833
#
# Poissons Ratio (x) = 0.55386 -0.23708
# Poissons Ratio (y) = 0.52531 0.68110
# Poissons Ratio (z) = -0.14760 0.44711
#
# Static dielectric constant tensor:
#      x y z
#    x 3.435100 0.000000 0.085330 
#    y 0.000000 3.431440 0.000000 
#    z 0.085330 0.000000 3.791790 
# 
# 
# High freq. dielectric constant tensor:
#      x y z
#    x 1.763620 0.000000 -0.002470 
#    y 0.000000 1.765330 0.000000 
#    z -0.002470 0.000000 1.783460 
# 
# From -- ./inp_files/24267.got.cif
#   From: 2010.06.25/outbox.cif.g09.slc.cpg/sg9_13_cif.got.tgz:24267.got - 2010.06.27 21:40:51.
