data_PCOD8054388
_publ_section_title
;
Structure prediction by ZEFSAII (Michael W. Deem and Ramdas Pophale) SiO2 
 PCOD8054388
Probable space group: C C
;
_chemical_formula_sum "Si O2"
_cell_formula_units_Z 32
_cell_length_a 9.560577
_cell_length_b 22.122150
_cell_length_c 14.370054
_cell_angle_alpha 90.000000
_cell_angle_beta 149.561440
_cell_angle_gamma 90.000000
_cell_volume 1539.739059
_symmetry_space_group_name_H-M "C C"
_symmetry_group_IT_number 9
_symmetry_cell_setting 'monoclinic'
loop_
_space_group_symop_operation_xyz
x,y,z
x,-y,1/2+z
1/2+x,1/2+y,z
1/2+x,1/2-y,1/2+z
loop_
_atom_site_type_symbol
_atom_site_label
_atom_site_fract_x
_atom_site_fract_y
_atom_site_fract_z
Si Si1 0.226160 0.441477 0.763410
Si Si2 0.427252 0.979892 0.937250
Si Si3 0.986690 0.257799 0.861871
Si Si4 0.854160 0.996517 0.530073
Si Si5 0.263385 0.884309 0.982083
Si Si6 0.317800 0.156008 0.106625
Si Si7 0.784571 0.873314 0.409195
Si Si8 0.900706 0.260071 0.009633
O O1 0.061166 0.482154 0.596789
O O2 0.026661 0.387409 0.676288
O O3 0.317431 0.479795 0.904538
O O4 0.496537 0.415821 0.870201
O O5 0.156580 0.013341 0.741934
O O6 0.344875 0.914697 0.930854
O O7 0.637004 0.970504 0.972616
O O8 0.991431 0.309390 0.787290
O O9 0.681904 0.239483 0.732892
O O10 0.190296 0.201520 0.954818
O O11 0.087956 0.277134 0.023624
O O12 0.810620 0.923679 0.505478
O O13 0.513468 0.890688 0.196867
O O14 0.195852 0.813376 0.923783
O O15 0.061653 0.120498 0.005680
O O16 0.762216 0.806171 0.440664
#
# Coordination Sequence:
#
# PCOD8054388 Si02
#       8
#     4   4   4   4   4   4   4   4
#     4  12  28  46  66 105 145 179 230 286 351 401
#     4  12  28  44  69  99 137 182 230 284 344 409
#     4   8  18  37  63  97 125 172 231 264 332 404
#     4  12  26  46  70 103 134 184 231 283 345 413
#     4  12  24  45  67  99 141 178 227 292 342 404
#     4  10  21  41  67  97 135 184 218 288 336 408
#     4  10  22  42  74  96 133 182 228 285 337 409
#     4  10  19  37  66 102 124 175 227 270 335 408
#
# _framework density 20.782741000000001
#
# number of rings (size 3 to 8) (size 9 to 14) (size 15 to 20)
#    0.000    1.500    5.000    1.500    8.750    0.000 
#    4.500    0.000    0.000    0.000    0.000    0.000 
#    0.000    0.000    0.000    0.000    0.000    0.000 
#
# Total GULP energy -198247.224526 kJ/mol
# GULP energy per Si atom -12390.451533 kJ/mol
# Density = 2.073544 g / cm^3
# Si number density = 20.782741 Si / 1000 Ang^3
#
#
#
# Elastic Constant Matrix: (Units=GPa)
#
#
# Indices 1 2 3 4 5 6 
#
# 1 82.1209 48.9606 29.9307 0.0068 6.8788 0.0034
# 2 48.9606 112.8341 38.3813 0.0029 1.2497 0.0016
# 3 29.9307 38.3813 104.6943 -0.0007 8.0191 0.0110
# 4 0.0068 0.0029 -0.0007 25.2691 0.0003 1.7612
# 5 6.8788 1.2497 8.0191 0.0003 25.4785 0.0028
# 6 0.0034 0.0016 0.0110 1.7612 0.0028 21.7136
#
#
#
# Elastic Compliance Matrix: (Units=1/GPa)
#
#
# Indices 1 2 3 4 5 6 
#
# 1 0.017287 -0.006711 -0.002202 -0.000004 -0.003645 0.000000
# 2 -0.006711 0.012743 -0.002914 0.000000 0.002104 0.000001
# 3 -0.002202 -0.002914 0.011470 0.000002 -0.002872 -0.000005
# 4 -0.000004 0.000000 0.000002 0.039799 0.000000 -0.003228
# 5 -0.003645 0.002104 -0.002872 0.000000 0.041034 -0.000003
# 6 0.000000 0.000001 -0.000005 -0.003228 -0.000003 0.046316
#
#
# Mechanical properties :
#
#
# Convention : Reuss Voigt Hill
#
# Bulk Modulus (GPa) = 56.04374 59.35494 57.69934
# Shear Modulus (GPa) = 25.22061 26.65068 25.93565
#
# Velocity S-wave (km/s) = 3.48736 3.58487 3.53645
# Velocity P-wave (km/s) = 6.57576 6.76438 6.67074
#
# Compressibility (1/GPa) = 0.01784321
#
# Stress axis : x y z
#
# Youngs Moduli (GPa) = 57.84853 78.47660 87.18746
#
# Poissons Ratio (x) = 0.52669 0.19202
# Poissons Ratio (y) = 0.38824 0.25406
# Poissons Ratio (z) = 0.12741 0.22868
#
# Static dielectric constant tensor:
#      x y z
#    x 3.540650 0.000000 -0.207810 
#    y 0.000000 3.823000 -0.000010 
#    z -0.207810 -0.000010 4.111300 
# 
# 
# High freq. dielectric constant tensor:
#      x y z
#    x 1.786290 0.000000 -0.021920 
#    y 0.000000 1.815100 0.000000 
#    z -0.021920 0.000000 1.840270 
# 
# From -- ./inp_files/10154.got.cif
#   From: 2010.06.25/outbox.cif.g09.slc.cpg/sg9_6_cif.got.tgz:10154.got - 2010.06.27 21:40:51.
