data_PCOD8054537
_publ_section_title
;
Structure prediction by ZEFSAII (Michael W. Deem and Ramdas Pophale) SiO2 
 PCOD8054537
Probable space group: C C
;
_chemical_formula_sum "Si O2"
_cell_formula_units_Z 32
_cell_length_a 17.728744
_cell_length_b 8.891905
_cell_length_c 9.597193
_cell_angle_alpha 90.000000
_cell_angle_beta 105.929310
_cell_angle_gamma 90.000000
_cell_volume 1454.828952
_symmetry_space_group_name_H-M "C C"
_symmetry_group_IT_number 9
_symmetry_cell_setting 'monoclinic'
loop_
_space_group_symop_operation_xyz
x,y,z
x,-y,1/2+z
1/2+x,1/2+y,z
1/2+x,1/2-y,1/2+z
loop_
_atom_site_type_symbol
_atom_site_label
_atom_site_fract_x
_atom_site_fract_y
_atom_site_fract_z
Si Si1 0.347010 0.819317 0.090430
Si Si2 0.099449 0.171589 0.903132
Si Si3 0.427461 0.671589 0.752765
Si Si4 0.148455 0.983886 0.168519
Si Si5 0.196500 0.550099 0.363007
Si Si6 0.830410 0.449902 0.792889
Si Si7 0.179900 0.680683 0.065466
Si Si8 0.878455 0.016114 0.987378
O O1 0.263455 0.750001 0.077947
O O2 0.399384 0.678191 0.069669
O O3 0.376067 0.908129 0.244126
O O4 0.343792 0.944895 0.965321
O O5 0.166048 0.296113 0.915890
O O6 0.013455 0.238815 0.827948
O O7 0.118701 0.028683 0.812320
O O8 0.100707 0.111694 0.062148
O O9 0.360862 0.796113 0.740006
O O10 0.426203 0.611694 0.593749
O O11 0.408209 0.528684 0.843577
O O12 0.239276 0.030451 0.210273
O O13 0.127526 0.821809 0.086228
O O14 0.183119 0.555105 0.190576
O O15 0.150843 0.408130 0.411770
O O16 0.287634 0.530452 0.445624
#
# Coordination Sequence:
#
# PCOD8054537 Si02
#       8
#     4   4   4   4   4   4   4   4
#     4   9  19  34  55  86 111 141 192 239 274 327
#     4  11  23  38  57  87 119 149 187 239 291 334
#     4  11  23  38  57  87 119 149 187 239 291 334
#     4  10  20  37  59  83 112 152 194 231 277 345
#     4  10  20  37  60  84 113 150 194 235 279 342
#     4  10  20  37  60  84 113 150 194 235 279 342
#     4   9  19  34  55  86 111 141 192 239 274 327
#     4  10  20  37  59  83 112 152 194 231 277 345
#
# _framework density 21.995712000000001
#
# number of rings (size 3 to 8) (size 9 to 14) (size 15 to 20)
#    0.000    2.000    0.000    4.500    0.000    6.000 
#    0.000    6.250    0.000    0.000    0.000    0.000 
#    0.000    0.000    0.000    0.000    0.000    0.000 
#
# Total GULP energy -198282.281536 kJ/mol
# GULP energy per Si atom -12392.642596 kJ/mol
# Density = 2.194565 g / cm^3
# Si number density = 21.995712 Si / 1000 Ang^3
#
#
#
# Elastic Constant Matrix: (Units=GPa)
#
#
# Indices 1 2 3 4 5 6 
#
# 1 60.1081 23.2360 16.7418 0.0000 4.9344 0.0000
# 2 23.2360 60.7036 36.3872 0.0000 -6.6035 0.0000
# 3 16.7418 36.3872 74.7100 0.0000 -18.1140 0.0000
# 4 0.0000 0.0000 0.0000 49.3338 0.0000 -7.6093
# 5 4.9344 -6.6035 -18.1140 0.0000 25.1276 0.0000
# 6 0.0000 0.0000 0.0000 -7.6093 0.0000 21.5274
#
#
#
# Elastic Compliance Matrix: (Units=1/GPa)
#
#
# Indices 1 2 3 4 5 6 
#
# 1 0.020924 -0.006912 -0.003344 0.000000 -0.008336 0.000000
# 2 -0.006912 0.025678 -0.010897 0.000000 0.000250 0.000000
# 3 -0.003344 -0.010897 0.022911 0.000000 0.014309 0.000000
# 4 0.000000 0.000000 0.000000 0.021439 0.000000 0.007578
# 5 -0.008336 0.000250 0.014309 0.000000 0.051815 0.000000
# 6 0.000000 0.000000 0.000000 0.007578 0.000000 0.049131
#
#
# Mechanical properties :
#
#
# Convention : Reuss Voigt Hill
#
# Bulk Modulus (GPa) = 36.75303 38.69464 37.72384
# Shear Modulus (GPa) = 20.55309 27.14154 23.84731
#
# Velocity S-wave (km/s) = 3.06013 3.51657 3.29626
# Velocity P-wave (km/s) = 5.40660 5.84110 5.62805
#
# Compressibility (1/GPa) = 0.02720864
#
# Stress axis : x y z
#
# Youngs Moduli (GPa) = 47.79160 38.94330 43.64714
#
# Poissons Ratio (x) = 0.26917 0.14594
# Poissons Ratio (y) = 0.33033 0.47562
# Poissons Ratio (z) = 0.15979 0.42437
#
# Static dielectric constant tensor:
#      x y z
#    x 3.641670 0.000000 -0.430680 
#    y 0.000000 4.338220 0.000000 
#    z -0.430680 0.000000 4.302070 
# 
# 
# High freq. dielectric constant tensor:
#      x y z
#    x 1.831260 0.000000 -0.029810 
#    y 0.000000 1.860730 0.000000 
#    z -0.029810 0.000000 1.868070 
# 
# From -- ./inp_files/11323.got.cif
#   From: 2010.06.25/outbox.cif.g09.slc.cpg/sg9_6_cif.got.tgz:11323.got - 2010.06.27 21:40:51.
