data_PCOD8054272
_publ_section_title
;
Structure prediction by ZEFSAII (Michael W. Deem and Ramdas Pophale) SiO2 
 PCOD8054272
Probable space group: C C
;
_chemical_formula_sum "Si O2"
_cell_formula_units_Z 28
_cell_length_a 16.307083
_cell_length_b 10.165695
_cell_length_c 9.324161
_cell_angle_alpha 90.000000
_cell_angle_beta 47.171962
_cell_angle_gamma 90.000000
_cell_volume 1133.606744
_symmetry_space_group_name_H-M "C C"
_symmetry_group_IT_number 9
_symmetry_cell_setting 'monoclinic'
loop_
_space_group_symop_operation_xyz
x,y,z
x,-y,1/2+z
1/2+x,1/2+y,z
1/2+x,1/2-y,1/2+z
loop_
_atom_site_type_symbol
_atom_site_label
_atom_site_fract_x
_atom_site_fract_y
_atom_site_fract_z
Si Si1 0.591620 0.668874 0.007410
Si Si2 0.657033 0.477879 0.706353
Si Si3 0.322929 0.210664 0.138922
Si Si4 0.510337 0.093511 0.736943
Si Si5 0.264624 0.558880 0.512747
Si Si6 0.304853 0.667616 0.174414
Si Si7 0.372601 0.145238 0.379495
O O1 0.587370 0.586580 0.160428
O O2 0.501021 0.788916 0.127422
O O3 0.569845 0.571096 0.898836
O O4 0.713105 0.731438 0.842283
O O5 0.705302 0.365036 0.754688
O O6 0.761146 0.558226 0.522003
O O7 0.323064 0.347902 0.057809
O O8 0.347948 0.240876 0.274816
O O9 0.424748 0.119366 0.966186
O O10 0.636478 0.096860 0.641268
O O11 0.478303 0.948977 0.715868
O O12 0.334990 0.576066 0.277562
O O13 0.264376 0.415689 0.584601
O O14 0.397655 0.765344 0.991983
#
# Coordination Sequence:
#
# PCOD8054272 Si02
#       7
#     4   4   4   4   4   4   4
#     4  10  20  40  65 101 137 179 234 287 355 416
#     4  10  18  37  69  93 133 186 226 283 350 425
#     4  11  21  39  69  98 141 185 240 291 362 423
#     4  10  24  38  69 107 140 183 239 303 349 433
#     4  11  23  44  70 100 152 186 235 299 366 417
#     4  10  22  41  68  98 137 192 233 287 358 427
#     4  10  22  39  68 103 134 187 241 290 354 429
#
# _framework density 24.699922000000001
#
# number of rings (size 3 to 8) (size 9 to 14) (size 15 to 20)
#    0.000    1.714    4.286    0.857    4.000    0.000 
#    0.000    2.857    3.143    1.714    0.000    0.000 
#    0.000    0.000    0.000    0.000    0.000    0.000 
#
# Total GULP energy -173449.727767 kJ/mol
# GULP energy per Si atom -12389.266269 kJ/mol
# Density = 2.464370 g / cm^3
# Si number density = 24.699922 Si / 1000 Ang^3
#
#
#
# Elastic Constant Matrix: (Units=GPa)
#
#
# Indices 1 2 3 4 5 6 
#
# 1 67.8492 40.8781 45.2414 0.0000 28.1143 0.0000
# 2 40.8781 113.0199 68.9820 0.0000 22.6318 0.0000
# 3 45.2414 68.9820 111.5153 0.0000 36.3264 0.0000
# 4 0.0000 0.0000 0.0000 58.2301 0.0000 2.6194
# 5 28.1143 22.6318 36.3264 0.0000 38.9241 0.0000
# 6 0.0000 0.0000 0.0000 2.6194 0.0000 40.7749
#
#
#
# Elastic Compliance Matrix: (Units=1/GPa)
#
#
# Indices 1 2 3 4 5 6 
#
# 1 0.024657 -0.004491 -0.003268 0.000000 -0.012148 0.000000
# 2 -0.004491 0.015033 -0.008171 0.000000 0.002128 0.000000
# 3 -0.003268 -0.008171 0.018723 0.000000 -0.010362 0.000000
# 4 0.000000 0.000000 0.000000 0.017223 0.000000 -0.001106
# 5 -0.012148 0.002128 -0.010362 0.000000 0.042899 0.000000
# 6 0.000000 0.000000 0.000000 -0.001106 0.000000 0.024596
#
#
# Mechanical properties :
#
#
# Convention : Reuss Voigt Hill
#
# Bulk Modulus (GPa) = 37.65870 66.95417 52.30644
# Shear Modulus (GPa) = 27.19732 36.73803 31.96768
#
# Velocity S-wave (km/s) = 3.32190 3.86083 3.60146
# Velocity P-wave (km/s) = 5.47658 6.85861 6.20619
#
# Compressibility (1/GPa) = 0.02655429
#
# Stress axis : x y z
#
# Youngs Moduli (GPa) = 40.55610 66.51976 53.41037
#
# Poissons Ratio (x) = 0.29874 0.17454
# Poissons Ratio (y) = 0.18214 0.43640
# Poissons Ratio (z) = 0.13253 0.54351
#
# Static dielectric constant tensor:
#      x y z
#    x 3.976600 0.000000 0.227930 
#    y 0.000000 4.884470 0.000000 
#    z 0.227930 0.000000 4.709040 
# 
# 
# High freq. dielectric constant tensor:
#      x y z
#    x 1.951070 0.000000 0.016980 
#    y 0.000000 1.994700 0.000000 
#    z 0.016980 0.000000 1.984550 
# 
# From -- ./inp_files/10608.got.cif
#   From: 2010.06.25/outbox.cif.g09.slc.cpg/sg9_6_cif.got.tgz:10608.got - 2010.06.27 21:40:51.
