data_PCOD8054044
_publ_section_title
;
Structure prediction by ZEFSAII (Michael W. Deem and Ramdas Pophale) SiO2 
 PCOD8054044
Probable space group: C M
;
_chemical_formula_sum "Si O2"
_cell_formula_units_Z 16
_cell_length_a 10.355706
_cell_length_b 12.696665
_cell_length_c 5.020123
_cell_angle_alpha 90.000000
_cell_angle_beta 89.553828
_cell_angle_gamma 90.000000
_cell_volume 660.040468
_symmetry_space_group_name_H-M "C M"
_symmetry_group_IT_number 8
_symmetry_cell_setting 'monoclinic'
loop_
_space_group_symop_operation_xyz
x,y,z
x,-y,z
1/2+x,1/2+y,z
1/2+x,1/2-y,z
loop_
_atom_site_type_symbol
_atom_site_label
_atom_site_fract_x
_atom_site_fract_y
_atom_site_fract_z
Si Si1 0.972420 0.316387 0.783930
Si Si2 0.318746 0.877478 0.269375
Si Si3 0.055431 0.116052 0.526259
Si Si4 0.836735 0.000000 0.294905
Si Si5 0.666438 0.000000 0.801007
O O1 0.917416 0.352447 0.502737
O O2 0.030361 0.198864 0.761765
O O3 0.084557 0.396304 0.868613
O O4 0.859767 0.314216 0.005125
O O5 0.173683 0.842092 0.344953
O O6 0.324271 0.000000 0.199447
O O7 0.091204 0.000000 0.650496
O O8 0.925716 0.103693 0.347847
O O9 0.714427 0.000000 0.495680
O O10 0.791079 0.000000 0.991364
#
# Coordination Sequence:
#
# PCOD8054044 Si02
#       5
#     4   4   4   2   2
#     4  12  25  46  78 112 147 195 249 308 371 434
#     4  11  23  48  75 108 146 195 253 305 363 440
#     4   9  26  51  74 109 151 199 246 302 372 443
#     4  10  26  48  72 106 152 196 242 299 375 440
#     4  12  24  44  78 108 152 188 248 309 371 434
#
# _framework density 24.240939999999998
#
# number of rings (size 3 to 8) (size 9 to 14) (size 15 to 20)
#    0.750    0.500    2.500    1.500    3.500    6.000 
#    0.000    0.000    0.000    0.000    0.000    0.000 
#    0.000    0.000    0.000    0.000    0.000    0.000 
#
# Total GULP energy -99226.973288 kJ/mol
# GULP energy per Si atom -12403.371661 kJ/mol
# Density = 2.418577 g / cm^3
# Si number density = 24.240940 Si / 1000 Ang^3
#
#
#
# Elastic Constant Matrix: (Units=GPa)
#
#
# Indices 1 2 3 4 5 6 
#
# 1 110.3617 55.5654 27.5229 0.0000 -27.0104 0.0000
# 2 55.5654 140.7462 57.0470 0.0000 -24.5250 0.0000
# 3 27.5229 57.0470 117.6862 0.0000 -25.5495 0.0000
# 4 0.0000 0.0000 0.0000 31.0273 0.0000 -16.3605
# 5 -27.0104 -24.5250 -25.5495 0.0000 54.5785 0.0000
# 6 0.0000 0.0000 0.0000 -16.3605 0.0000 22.4819
#
#
#
# Elastic Compliance Matrix: (Units=1/GPa)
#
#
# Indices 1 2 3 4 5 6 
#
# 1 0.012128 -0.004078 0.000051 0.000000 0.004193 0.000000
# 2 -0.004078 0.010455 -0.003932 0.000000 0.000839 0.000000
# 3 0.000051 -0.003932 0.011146 0.000000 0.003476 0.000000
# 4 0.000000 0.000000 0.000000 0.052297 0.000000 0.038058
# 5 0.004193 0.000839 0.003476 0.000000 0.022402 0.000000
# 6 0.000000 0.000000 0.000000 0.038058 0.000000 0.072176
#
#
# Mechanical properties :
#
#
# Convention : Reuss Voigt Hill
#
# Bulk Modulus (GPa) = 56.14690 72.11828 64.13259
# Shear Modulus (GPa) = 24.69641 36.86144 30.77893
#
# Velocity S-wave (km/s) = 3.19531 3.90375 3.56716
# Velocity P-wave (km/s) = 6.06841 7.08055 6.59393
#
# Compressibility (1/GPa) = 0.01781042
#
# Stress axis : x y z
#
# Youngs Moduli (GPa) = 82.45448 95.64962 89.71896
#
# Poissons Ratio (x) = 0.39005 -0.00455
# Poissons Ratio (y) = 0.33624 0.35277
# Poissons Ratio (z) = -0.00419 0.37609
#
# Static dielectric constant tensor:
#      x y z
#    x 4.441600 0.000000 -0.200960 
#    y 0.000000 4.444630 0.000000 
#    z -0.200960 0.000000 4.051950 
# 
# 
# High freq. dielectric constant tensor:
#      x y z
#    x 1.971950 0.000000 -0.015750 
#    y 0.000000 1.959640 0.000000 
#    z -0.015750 0.000000 1.952250 
# 
# From -- ./inp_files/2244.got.cif
#   From: 2010.03.12/outbox.cif.g09.slc.cpg/sg8_2_cif.got.tgz:2244.got - 2010.03.31 10:45:26.
