data_PCOD8054908
_publ_section_title
;
Structure prediction by ZEFSAII (Michael W. Deem and Ramdas Pophale) SiO2 
 PCOD8054908
Probable space group: C C
;
_chemical_formula_sum "Si O2"
_cell_formula_units_Z 20
_cell_length_a 17.408210
_cell_length_b 11.588583
_cell_length_c 7.707405
_cell_angle_alpha 90.000000
_cell_angle_beta 148.311104
_cell_angle_gamma 90.000000
_cell_volume 816.780982
_symmetry_space_group_name_H-M "C C"
_symmetry_group_IT_number 9
_symmetry_cell_setting 'monoclinic'
loop_
_space_group_symop_operation_xyz
x,y,z
x,-y,1/2+z
1/2+x,1/2+y,z
1/2+x,1/2-y,1/2+z
loop_
_atom_site_type_symbol
_atom_site_label
_atom_site_fract_x
_atom_site_fract_y
_atom_site_fract_z
Si Si1 0.080690 0.442486 0.652660
Si Si2 0.333100 0.149158 0.884782
Si Si3 0.198470 0.942491 0.780899
Si Si4 0.889581 0.858960 0.216775
Si Si5 0.446059 0.850843 0.048771
O O1 0.000842 0.387430 0.667574
O O2 0.040403 0.369796 0.404202
O O3 0.020257 0.574507 0.534687
O O4 0.255222 0.440103 0.017619
O O5 0.238748 0.130200 0.529340
O O6 0.258903 0.074513 0.898872
O O7 0.334608 0.281073 0.949819
O O8 0.023937 0.940108 0.415931
O O9 0.278322 0.887436 0.765995
O O10 0.944555 0.781069 0.483729
#
# Coordination Sequence:
#
# PCOD8054908 Si02
#       5
#     4   4   4   4   4
#     4  10  22  39  62  89 119 157 198 241 295 350
#     4  10  21  40  60  86 124 156 191 246 297 346
#     4  10  22  39  62  89 119 157 198 241 295 350
#     4  12  22  38  66  90 114 158 202 240 292 352
#     4  10  21  40  60  86 124 156 191 246 297 346
#
# _framework density 24.486367000000001
#
# number of rings (size 3 to 8) (size 9 to 14) (size 15 to 20)
#    0.000    1.600    0.000    7.200    0.000    1.600 
#    0.000    4.000    0.000    0.000    0.000    0.000 
#    0.000    0.000    0.000    0.000    0.000    0.000 
#
# Total GULP energy -123926.885468 kJ/mol
# GULP energy per Si atom -12392.688547 kJ/mol
# Density = 2.443064 g / cm^3
# Si number density = 24.486367 Si / 1000 Ang^3
#
#
#
# Elastic Constant Matrix: (Units=GPa)
#
#
# Indices 1 2 3 4 5 6 
#
# 1 124.4091 23.7702 83.7315 0.0000 11.3414 0.0000
# 2 23.7702 38.4690 44.1249 0.0000 31.9484 0.0000
# 3 83.7315 44.1249 161.0848 0.0000 54.5601 0.0000
# 4 0.0000 0.0000 0.0000 10.7191 0.0000 -1.1272
# 5 11.3414 31.9484 54.5601 0.0000 70.4492 0.0000
# 6 0.0000 0.0000 0.0000 -1.1272 0.0000 21.3591
#
#
#
# Elastic Compliance Matrix: (Units=1/GPa)
#
#
# Indices 1 2 3 4 5 6 
#
# 1 0.013634 -0.004193 -0.007916 0.000000 0.005837 0.000000
# 2 -0.004193 0.049322 -0.005400 0.000000 -0.017510 0.000000
# 3 -0.007916 -0.005400 0.014289 0.000000 -0.007343 0.000000
# 4 0.000000 0.000000 0.000000 0.093812 0.000000 0.004951
# 5 0.005837 -0.017510 -0.007343 0.000000 0.026882 0.000000
# 6 0.000000 0.000000 0.000000 0.004951 0.000000 0.047080
#
#
# Mechanical properties :
#
#
# Convention : Reuss Voigt Hill
#
# Bulk Modulus (GPa) = 23.68114 69.69068 46.68591
# Shear Modulus (GPa) = 17.00031 31.99458 24.49744
#
# Velocity S-wave (km/s) = 2.63777 3.61865 3.16642
# Velocity P-wave (km/s) = 4.35537 6.78103 5.69875
#
# Compressibility (1/GPa) = 0.04222770
#
# Stress axis : x y z
#
# Youngs Moduli (GPa) = 73.34364 20.27490 69.98556
#
# Poissons Ratio (x) = 0.08501 0.55398
# Poissons Ratio (y) = 0.30752 0.37794
# Poissons Ratio (z) = 0.58056 0.10949
#
# Static dielectric constant tensor:
#      x y z
#    x 4.536850 0.000000 0.197170 
#    y 0.000000 3.966370 0.000000 
#    z 0.197170 0.000000 4.185280 
# 
# 
# High freq. dielectric constant tensor:
#      x y z
#    x 1.988710 0.000000 0.001280 
#    y 0.000000 1.934060 0.000000 
#    z 0.001280 0.000000 1.973130 
# 
# From -- ./inp_files/4786.got.cif
#   From: 2010.06.25/outbox.cif.g09.slc.cpg/sg9_3_cif.got.tgz:4786.got - 2010.06.27 21:40:51.
