data_PCOD8054387
_publ_section_title
;
Structure prediction by ZEFSAII (Michael W. Deem and Ramdas Pophale) SiO2 
 PCOD8054387
Probable space group: C C
;
_chemical_formula_sum "Si O2"
_cell_formula_units_Z 32
_cell_length_a 21.348126
_cell_length_b 9.156329
_cell_length_c 27.655723
_cell_angle_alpha 90.000000
_cell_angle_beta 161.828042
_cell_angle_gamma 90.000000
_cell_volume 1685.930553
_symmetry_space_group_name_H-M "C C"
_symmetry_group_IT_number 9
_symmetry_cell_setting 'monoclinic'
loop_
_space_group_symop_operation_xyz
x,y,z
x,-y,1/2+z
1/2+x,1/2+y,z
1/2+x,1/2-y,1/2+z
loop_
_atom_site_type_symbol
_atom_site_label
_atom_site_fract_x
_atom_site_fract_y
_atom_site_fract_z
Si Si1 0.969020 0.642002 0.193920
Si Si2 0.718459 0.593786 0.553723
Si Si3 0.399616 0.623694 0.712678
Si Si4 0.979642 0.529379 0.412342
Si Si5 0.058698 0.556600 0.070666
Si Si6 0.868733 0.284683 0.261916
Si Si7 0.414992 0.349378 0.333936
Si Si8 0.798685 0.337845 0.467138
O O1 0.901372 0.475686 0.155932
O O2 0.826162 0.743777 0.123623
O O3 0.201642 0.680775 0.378943
O O4 0.944969 0.684444 0.120058
O O5 0.812923 0.689610 0.665539
O O6 0.580308 0.698113 0.418806
O O7 0.576466 0.467140 0.471829
O O8 0.452343 0.682699 0.804658
O O9 0.608988 0.559545 0.844556
O O10 0.222720 0.504941 0.585799
O O11 0.875172 0.440845 0.293185
O O12 0.926782 0.699854 0.372302
O O13 0.919979 0.468171 0.421342
O O14 0.197847 0.696820 0.164724
O O15 0.191639 0.413239 0.178477
O O16 0.913639 0.581797 0.009088
#
# Coordination Sequence:
#
# PCOD8054387 Si02
#       8
#     4   4   4   4   4   4   4   4
#     4  10  20  35  65  85 115 153 207 244 292 359
#     4  11  20  38  56  95 117 158 196 251 310 338
#     4   9  18  34  62  94 107 147 201 263 281 346
#     4  11  20  37  62  91 114 159 204 249 302 355
#     4  10  24  39  57  90 125 162 195 253 299 368
#     4  11  24  34  60  89 131 150 192 255 313 352
#     4  10  19  37  65  85 120 152 213 247 298 352
#     4  10  21  36  61  87 121 155 202 244 297 356
#
# _framework density 18.980616999999999
#
# number of rings (size 3 to 8) (size 9 to 14) (size 15 to 20)
#    0.750    1.000    3.750    0.750    5.250    0.000 
#    0.000    0.000    5.500    0.000    0.000    0.000 
#    0.000    0.000    0.000    0.000    0.000    0.000 
#
# Total GULP energy -198274.723716 kJ/mol
# GULP energy per Si atom -12392.170232 kJ/mol
# Density = 1.893742 g / cm^3
# Si number density = 18.980617 Si / 1000 Ang^3
#
#
#
# Elastic Constant Matrix: (Units=GPa)
#
#
# Indices 1 2 3 4 5 6 
#
# 1 130.3065 33.3005 52.8615 -0.0241 -2.9109 0.0043
# 2 33.3005 88.6342 34.9273 -0.0091 -4.9576 -0.0060
# 3 52.8615 34.9273 80.9294 -0.0333 -15.1071 -0.0701
# 4 -0.0241 -0.0091 -0.0333 28.7846 -0.0359 -6.9245
# 5 -2.9109 -4.9576 -15.1071 -0.0359 30.2658 -0.0056
# 6 0.0043 -0.0060 -0.0701 -6.9245 -0.0056 26.1186
#
#
#
# Elastic Compliance Matrix: (Units=1/GPa)
#
#
# Indices 1 2 3 4 5 6 
#
# 1 0.010796 -0.001483 -0.006907 -0.000008 -0.002652 -0.000023
# 2 -0.001483 0.013814 -0.005070 -0.000006 -0.000411 -0.000012
# 3 -0.006907 -0.005070 0.020706 0.000044 0.008841 0.000069
# 4 -0.000008 -0.000006 0.000044 0.037108 0.000066 0.009838
# 5 -0.002652 -0.000411 0.008841 0.000066 0.037131 0.000049
# 6 -0.000023 -0.000012 0.000069 0.009838 0.000049 0.040895
#
#
# Mechanical properties :
#
#
# Convention : Reuss Voigt Hill
#
# Bulk Modulus (GPa) = 54.35588 60.22763 57.29175
# Shear Modulus (GPa) = 25.83949 28.95252 27.39600
#
# Velocity S-wave (km/s) = 3.69367 3.90984 3.80329
# Velocity P-wave (km/s) = 6.84767 7.22374 7.03822
#
# Compressibility (1/GPa) = 0.01839727
#
# Stress axis : x y z
#
# Youngs Moduli (GPa) = 92.62912 72.38836 48.29437
#
# Poissons Ratio (x) = 0.10733 0.33356
# Poissons Ratio (y) = 0.13734 0.24486
# Poissons Ratio (z) = 0.63977 0.36702
#
# Static dielectric constant tensor:
#      x y z
#    x 3.244930 -0.000020 -0.172840 
#    y -0.000020 3.318370 -0.000190 
#    z -0.172840 -0.000190 3.558820 
# 
# 
# High freq. dielectric constant tensor:
#      x y z
#    x 1.718250 0.000000 -0.021950 
#    y 0.000000 1.719960 -0.000010 
#    z -0.021950 -0.000010 1.742510 
# 
# From -- ./inp_files/36945.got.cif
#   From: 2010.06.25/outbox.cif.g09.slc.cpg/sg9_19_cif.got.tgz:36945.got - 2010.06.27 21:40:51.
