data_PCOD8054832
_publ_section_title
;
Structure prediction by ZEFSAII (Michael W. Deem and Ramdas Pophale) SiO2 
 PCOD8054832
Probable space group: C C
;
_chemical_formula_sum "Si O2"
_cell_formula_units_Z 32
_cell_length_a 11.539883
_cell_length_b 21.480830
_cell_length_c 7.875971
_cell_angle_alpha 90.000000
_cell_angle_beta 51.822164
_cell_angle_gamma 90.000000
_cell_volume 1534.730732
_symmetry_space_group_name_H-M "C C"
_symmetry_group_IT_number 9
_symmetry_cell_setting 'monoclinic'
loop_
_space_group_symop_operation_xyz
x,y,z
x,-y,1/2+z
1/2+x,1/2+y,z
1/2+x,1/2-y,1/2+z
loop_
_atom_site_type_symbol
_atom_site_label
_atom_site_fract_x
_atom_site_fract_y
_atom_site_fract_z
Si Si1 0.551360 0.704909 0.945730
Si Si2 0.515681 0.556133 0.661287
Si Si3 0.746386 0.348362 0.827085
Si Si4 0.318482 0.392786 0.048081
Si Si5 0.759344 0.774850 0.526283
Si Si6 0.562154 0.846470 0.466299
Si Si7 0.989048 0.072304 0.066819
Si Si8 0.513341 0.717362 0.343706
O O1 0.684085 0.747304 0.762680
O O2 0.421293 0.699627 0.924435
O O3 0.592619 0.633760 0.963273
O O4 0.499074 0.739305 0.163107
O O5 0.650674 0.604898 0.530607
O O6 0.395057 0.565028 0.622445
O O7 0.577530 0.486110 0.567427
O O8 0.439491 0.557788 0.916805
O O9 0.653013 0.329971 0.743961
O O10 0.905947 0.380256 0.647942
O O11 0.777783 0.283494 0.888798
O O12 0.143847 0.388916 0.250024
O O13 0.351459 0.414421 0.823459
O O14 0.369141 0.321197 0.030200
O O15 0.668878 0.833890 0.532118
O O16 0.516548 0.777807 0.452417
#
# Coordination Sequence:
#
# PCOD8054832 Si02
#       8
#     4   4   4   4   4   4   4   4
#     4  11  23  36  58  95 126 160 208 260 316 379
#     4  11  21  42  67  85 118 160 222 270 298 370
#     4  10  21  38  61  89 123 172 201 255 322 375
#     4  10  22  38  62  90 118 162 211 258 309 374
#     4  11  21  37  59  91 132 165 199 254 322 387
#     4  11  21  37  59  90 128 163 196 253 326 387
#     4  11  22  39  65  91 113 162 222 263 305 367
#     4   9  21  35  57  89 126 162 205 245 308 387
#
# _framework density 20.850563000000001
#
# number of rings (size 3 to 8) (size 9 to 14) (size 15 to 20)
#    0.000    1.500    3.750    2.250    7.000    0.000 
#    0.000    0.000    2.750    1.500    0.000    0.000 
#    0.000    0.000    0.000    0.000    0.000    0.000 
#
# Total GULP energy -198213.584617 kJ/mol
# GULP energy per Si atom -12388.349039 kJ/mol
# Density = 2.080311 g / cm^3
# Si number density = 20.850563 Si / 1000 Ang^3
#
#
#
# Elastic Constant Matrix: (Units=GPa)
#
#
# Indices 1 2 3 4 5 6 
#
# 1 61.2539 11.2989 41.5215 0.0000 1.5216 0.0000
# 2 11.2989 68.9776 30.7469 0.0000 6.0141 0.0000
# 3 41.5215 30.7469 131.2979 0.0000 0.9193 0.0000
# 4 0.0000 0.0000 0.0000 24.8053 0.0000 8.3006
# 5 1.5216 6.0141 0.9193 0.0000 40.0103 0.0000
# 6 0.0000 0.0000 0.0000 8.3006 0.0000 14.7885
#
#
#
# Elastic Compliance Matrix: (Units=1/GPa)
#
#
# Indices 1 2 3 4 5 6 
#
# 1 0.020810 -0.000477 -0.006465 0.000000 -0.000571 0.000000
# 2 -0.000477 0.016421 -0.003678 0.000000 -0.002366 0.000000
# 3 -0.006465 -0.003678 0.010518 0.000000 0.000557 0.000000
# 4 0.000000 0.000000 0.000000 0.049637 0.000000 -0.027861
# 5 -0.000571 -0.002366 0.000557 0.000000 0.025358 0.000000
# 6 0.000000 0.000000 0.000000 -0.027861 0.000000 0.083258
#
#
# Mechanical properties :
#
#
# Convention : Reuss Voigt Hill
#
# Bulk Modulus (GPa) = 37.72307 47.62934 42.67621
# Shear Modulus (GPa) = 21.17922 27.78495 24.48209
#
# Velocity S-wave (km/s) = 3.19056 3.65441 3.43033
# Velocity P-wave (km/s) = 5.63066 6.37958 6.01678
#
# Compressibility (1/GPa) = 0.02650898
#
# Stress axis : x y z
#
# Youngs Moduli (GPa) = 48.05329 60.89615 95.07278
#
# Poissons Ratio (x) = 0.02905 0.61467
# Poissons Ratio (y) = 0.02293 0.34968
# Poissons Ratio (z) = 0.31068 0.22398
#
# Static dielectric constant tensor:
#      x y z
#    x 3.825630 0.000000 0.175670 
#    y 0.000000 3.744490 0.000000 
#    z 0.175670 0.000000 3.962800 
# 
# 
# High freq. dielectric constant tensor:
#      x y z
#    x 1.789000 0.000000 0.024310 
#    y 0.000000 1.799610 0.000000 
#    z 0.024310 0.000000 1.823670 
# 
# From -- ./inp_files/8368.got.cif
#   From: 2010.06.25/outbox.cif.g09.slc.cpg/sg9_5_cif.got.tgz:8368.got - 2010.06.27 21:40:51.
