data_PCOD8054042
_publ_section_title
;
Structure prediction by ZEFSAII (Michael W. Deem and Ramdas Pophale) SiO2 
 PCOD8054042
Probable space group: C M
;
_chemical_formula_sum "Si O2"
_cell_formula_units_Z 20
_cell_length_a 12.059473
_cell_length_b 16.516049
_cell_length_c 4.792470
_cell_angle_alpha 90.000000
_cell_angle_beta 51.516330
_cell_angle_gamma 90.000000
_cell_volume 747.199710
_symmetry_space_group_name_H-M "C M"
_symmetry_group_IT_number 8
_symmetry_cell_setting 'monoclinic'
loop_
_space_group_symop_operation_xyz
x,y,z
x,-y,z
1/2+x,1/2+y,z
1/2+x,1/2-y,z
loop_
_atom_site_type_symbol
_atom_site_label
_atom_site_fract_x
_atom_site_fract_y
_atom_site_fract_z
Si Si1 0.768120 0.904491 0.274760
Si Si2 0.617778 0.835215 0.010244
Si Si3 0.819443 0.664780 0.687231
Si Si4 0.968608 0.822765 0.348730
Si Si5 0.669079 0.595509 0.422756
O O1 0.642932 0.862923 0.653384
O O2 0.757934 0.000000 0.305377
O O3 0.745916 0.873749 0.993804
O O4 0.921079 0.877207 0.159519
O O5 0.602960 0.736159 0.059205
O O6 0.468616 0.873020 0.348742
O O7 0.794276 0.637077 0.044113
O O8 0.691308 0.626241 0.703670
O O9 0.834258 0.763836 0.638225
O O10 0.016130 0.877197 0.537975
O O11 0.679264 0.500000 0.392072
#
# Coordination Sequence:
#
# PCOD8054042 Si02
#       5
#     4   4   4   4   4
#     4  12  24  43  66  97 127 164 212 266 313 366
#     4  10  25  41  69  90 130 167 214 251 318 378
#     4  10  25  41  69  90 130 167 214 251 318 378
#     4  10  25  44  67  92 128 172 212 254 313 384
#     4  12  24  43  66  97 127 164 212 266 313 366
#
# _framework density 26.766605999999999
#
# number of rings (size 3 to 8) (size 9 to 14) (size 15 to 20)
#    1.200    0.000    0.000    5.400    0.000    9.600 
#    0.000    4.000    0.000    0.000    0.000    0.000 
#    0.000    0.000    0.000    0.000    0.000    0.000 
#
# Total GULP energy -124074.997680 kJ/mol
# GULP energy per Si atom -12407.499768 kJ/mol
# Density = 2.670568 g / cm^3
# Si number density = 26.766606 Si / 1000 Ang^3
#
#
#
# Elastic Constant Matrix: (Units=GPa)
#
#
# Indices 1 2 3 4 5 6 
#
# 1 121.5470 34.1958 6.9008 0.0000 -2.1295 0.0000
# 2 34.1958 211.2010 18.9675 0.0000 11.3684 0.0000
# 3 6.9008 18.9675 43.9551 0.0000 12.9849 0.0000
# 4 0.0000 0.0000 0.0000 34.7802 0.0000 11.6668
# 5 -2.1295 11.3684 12.9849 0.0000 42.4712 0.0000
# 6 0.0000 0.0000 0.0000 11.6668 0.0000 46.6572
#
#
#
# Elastic Compliance Matrix: (Units=1/GPa)
#
#
# Indices 1 2 3 4 5 6 
#
# 1 0.008696 -0.001370 -0.001112 0.000000 0.001142 0.000000
# 2 -0.001370 0.005162 -0.001741 0.000000 -0.000918 0.000000
# 3 -0.001112 -0.001741 0.025894 0.000000 -0.007506 0.000000
# 4 0.000000 0.000000 0.000000 0.031384 0.000000 -0.007848
# 5 0.001142 -0.000918 -0.007506 0.000000 0.026143 0.000000
# 6 0.000000 0.000000 0.000000 -0.007848 0.000000 0.023395
#
#
# Mechanical properties :
#
#
# Convention : Reuss Voigt Hill
#
# Bulk Modulus (GPa) = 31.94218 55.20350 43.57284
# Shear Modulus (GPa) = 35.82790 45.89099 40.85945
#
# Velocity S-wave (km/s) = 3.66256 4.14513 3.91129
# Velocity P-wave (km/s) = 5.46309 6.60138 6.05902
#
# Compressibility (1/GPa) = 0.03130656
#
# Stress axis : x y z
#
# Youngs Moduli (GPa) = 114.99913 193.70865 38.61912
#
# Poissons Ratio (x) = 0.26530 0.04293
# Poissons Ratio (y) = 0.15750 0.06725
# Poissons Ratio (z) = 0.12784 0.33733
#
# Static dielectric constant tensor:
#      x y z
#    x 4.796490 0.000000 -0.320640 
#    y 0.000000 4.434150 0.000000 
#    z -0.320640 0.000000 4.834790 
# 
# 
# High freq. dielectric constant tensor:
#      x y z
#    x 2.097770 0.000000 -0.033250 
#    y 0.000000 2.068410 0.000000 
#    z -0.033250 0.000000 2.116700 
# 
# From -- ./inp_files/2625.got.cif
#   From: 2010.03.12/outbox.cif.g09.slc.cpg/sg8_2_cif.got.tgz:2625.got - 2010.03.31 10:45:26.
