data_PCOD8054377
_publ_section_title
;
Structure prediction by ZEFSAII (Michael W. Deem and Ramdas Pophale) SiO2 
 PCOD8054377
Probable space group: C C
;
_chemical_formula_sum "Si O2"
_cell_formula_units_Z 32
_cell_length_a 20.326591
_cell_length_b 8.032035
_cell_length_c 25.253657
_cell_angle_alpha 90.000000
_cell_angle_beta 21.538131
_cell_angle_gamma 90.000000
_cell_volume 1513.640976
_symmetry_space_group_name_H-M "C C"
_symmetry_group_IT_number 9
_symmetry_cell_setting 'monoclinic'
loop_
_space_group_symop_operation_xyz
x,y,z
x,-y,1/2+z
1/2+x,1/2+y,z
1/2+x,1/2-y,1/2+z
loop_
_atom_site_type_symbol
_atom_site_label
_atom_site_fract_x
_atom_site_fract_y
_atom_site_fract_z
Si Si1 0.944660 0.065238 0.238390
Si Si2 0.621717 0.991926 0.220735
Si Si3 0.011512 0.991907 0.856850
Si Si4 0.800754 0.754197 0.948904
Si Si5 0.832509 0.245810 0.628642
Si Si6 0.624666 0.677730 0.673644
Si Si7 0.008583 0.677749 0.403932
Si Si8 0.188623 0.565240 0.839143
O O1 0.832206 0.147217 0.370476
O O2 0.816641 0.999974 0.288770
O O3 0.042377 0.894667 0.181759
O O4 0.094206 0.197166 0.106185
O O5 0.434898 0.901032 0.350692
O O6 0.785739 0.863972 0.110667
O O7 0.645600 0.119883 0.153344
O O8 0.629542 0.116281 0.264910
O O9 0.003677 0.116264 0.812681
O O10 0.987636 0.119864 0.924237
O O11 0.198342 0.901024 0.726879
O O12 0.847500 0.863956 0.966904
O O13 0.801076 0.147217 0.707058
O O14 0.039050 0.302841 0.471358
O O15 0.816625 0.592148 0.538795
O O16 0.090933 0.605358 0.395764
#
# Coordination Sequence:
#
# PCOD8054377 Si02
#       8
#     4   4   4   4   4   4   4   4
#     4  11  25  44  62  92 135 170 212 261 326 390
#     4   9  20  35  66  97 120 161 214 265 320 366
#     4   9  20  35  66  97 120 161 214 265 320 366
#     4  10  22  42  66  92 125 168 214 266 315 381
#     4  10  22  42  66  92 125 168 214 266 315 381
#     4  10  19  37  62  92 127 158 209 268 313 373
#     4  10  19  37  62  92 127 158 209 268 313 373
#     4  11  25  44  62  92 135 170 212 261 326 390
#
# _framework density 21.141076999999999
#
# number of rings (size 3 to 8) (size 9 to 14) (size 15 to 20)
#    0.000    2.000    2.500    0.000    3.500    2.000 
#    4.500    2.500    0.000    0.000    0.000    0.000 
#    0.000    0.000    0.000    0.000    0.000    0.000 
#
# Total GULP energy -198212.166023 kJ/mol
# GULP energy per Si atom -12388.260376 kJ/mol
# Density = 2.109296 g / cm^3
# Si number density = 21.141077 Si / 1000 Ang^3
#
#
#
# Elastic Constant Matrix: (Units=GPa)
#
#
# Indices 1 2 3 4 5 6 
#
# 1 139.6543 70.8031 56.8597 0.0035 -21.6937 0.0005
# 2 70.8031 134.5051 49.7588 0.0171 -12.4403 -0.0015
# 3 56.8597 49.7588 112.1149 0.0360 -14.2045 0.0081
# 4 0.0035 0.0171 0.0360 31.9496 0.0021 1.1749
# 5 -21.6937 -12.4403 -14.2045 0.0021 33.8193 -0.0018
# 6 0.0005 -0.0015 0.0081 1.1749 -0.0018 29.7123
#
#
#
# Elastic Compliance Matrix: (Units=1/GPa)
#
#
# Indices 1 2 3 4 5 6 
#
# 1 0.011389 -0.004381 -0.003285 0.000004 0.004315 0.000001
# 2 -0.004381 0.010674 -0.002508 -0.000002 0.000063 0.000001
# 3 -0.003285 -0.002508 0.011951 -0.000012 0.001990 -0.000003
# 4 0.000004 -0.000002 -0.000012 0.031345 -0.000005 -0.001239
# 5 0.004315 0.000063 0.001990 -0.000005 0.033195 0.000002
# 6 0.000001 0.000001 -0.000003 -0.001239 0.000002 0.033705
#
#
# Mechanical properties :
#
#
# Convention : Reuss Voigt Hill
#
# Bulk Modulus (GPa) = 73.17101 82.34640 77.75870
# Shear Modulus (GPa) = 31.81413 33.01974 32.41693
#
# Velocity S-wave (km/s) = 3.88345 3.95635 3.92007
# Velocity P-wave (km/s) = 7.40231 7.73988 7.57297
#
# Compressibility (1/GPa) = 0.01366661
#
# Stress axis : x y z
#
# Youngs Moduli (GPa) = 87.80087 93.68300 83.67804
#
# Poissons Ratio (x) = 0.41042 0.27490
# Poissons Ratio (y) = 0.38465 0.20983
# Poissons Ratio (z) = 0.28844 0.23492
#
# Static dielectric constant tensor:
#      x y z
#    x 3.598380 0.000000 0.132110 
#    y 0.000000 4.335290 0.000020 
#    z 0.132110 0.000020 3.844610 
# 
# 
# High freq. dielectric constant tensor:
#      x y z
#    x 1.800630 0.000000 0.011590 
#    y 0.000000 1.848280 0.000000 
#    z 0.011590 0.000000 1.831650 
# 
# From -- ./inp_files/36949.got.cif
#   From: 2010.06.25/outbox.cif.g09.slc.cpg/sg9_19_cif.got.tgz:36949.got - 2010.06.27 21:40:51.
