data_PCOD8054968
_publ_section_title
;
Structure prediction by ZEFSAII (Michael W. Deem and Ramdas Pophale) SiO2 
 PCOD8054968
Probable space group: C C
;
_chemical_formula_sum "Si O2"
_cell_formula_units_Z 28
_cell_length_a 7.155584
_cell_length_b 22.537095
_cell_length_c 8.616882
_cell_angle_alpha 90.000000
_cell_angle_beta 106.291678
_cell_angle_gamma 90.000000
_cell_volume 1333.812387
_symmetry_space_group_name_H-M "C C"
_symmetry_group_IT_number 9
_symmetry_cell_setting 'monoclinic'
loop_
_space_group_symop_operation_xyz
x,y,z
x,-y,1/2+z
1/2+x,1/2+y,z
1/2+x,1/2-y,1/2+z
loop_
_atom_site_type_symbol
_atom_site_label
_atom_site_fract_x
_atom_site_fract_y
_atom_site_fract_z
Si Si1 0.955670 0.423009 0.621220
Si Si2 0.274699 0.986380 0.868099
Si Si3 0.279960 0.363841 0.862297
Si Si4 0.002186 0.732546 0.436555
Si Si5 0.050375 0.765183 0.796560
Si Si6 0.277937 0.827184 0.373003
Si Si7 0.601315 0.579165 0.617609
O O1 0.862620 0.445082 0.758256
O O2 0.945071 0.473144 0.484750
O O3 0.831812 0.366374 0.534991
O O4 0.179641 0.406591 0.710421
O O5 0.106847 0.028364 0.752169
O O6 0.187440 0.944277 0.977314
O O7 0.111528 0.325632 0.902582
O O8 0.438312 0.326192 0.804440
O O9 0.381951 0.400491 0.026199
O O10 0.027211 0.740952 0.621746
O O11 0.083547 0.789521 0.362907
O O12 0.775693 0.723073 0.365183
O O13 0.965220 0.714903 0.891453
O O14 0.230035 0.865388 0.208192
#
# Coordination Sequence:
#
# PCOD8054968 Si02
#       7
#     4   4   4   4   4   4   4
#     4  10  21  41  63  91 122 160 205 260 301 366
#     4   9  22  41  66  86 120 163 208 255 314 352
#     4  11  24  37  64  96 122 159 210 247 304 372
#     4  11  23  39  61  94 128 164 199 248 301 373
#     4  11  23  39  61  94 128 164 199 248 301 373
#     4  10  22  40  62  94 128 160 208 242 304 374
#     4  10  21  41  63  91 122 160 205 260 301 366
#
# _framework density 20.992456000000001
#
# number of rings (size 3 to 8) (size 9 to 14) (size 15 to 20)
#    0.000    1.714    0.000    3.429    6.000    5.714 
#    0.000    0.000    6.286    0.000    0.000    0.000 
#    0.000    0.000    0.000    0.000    0.000    0.000 
#
# Total GULP energy -173578.058719 kJ/mol
# GULP energy per Si atom -12398.432766 kJ/mol
# Density = 2.094468 g / cm^3
# Si number density = 20.992456 Si / 1000 Ang^3
#
#
#
# Elastic Constant Matrix: (Units=GPa)
#
#
# Indices 1 2 3 4 5 6 
#
# 1 143.6417 61.2476 53.7237 0.0000 20.6173 0.0000
# 2 61.2476 113.6951 52.9648 0.0000 8.7935 0.0000
# 3 53.7237 52.9648 129.3457 0.0000 15.8702 0.0000
# 4 0.0000 0.0000 0.0000 38.7073 0.0000 3.5519
# 5 20.6173 8.7935 15.8702 0.0000 44.5005 0.0000
# 6 0.0000 0.0000 0.0000 3.5519 0.0000 13.1423
#
#
#
# Elastic Compliance Matrix: (Units=1/GPa)
#
#
# Indices 1 2 3 4 5 6 
#
# 1 0.009942 -0.004165 -0.002050 0.000000 -0.003052 0.000000
# 2 -0.004165 0.012628 -0.003526 0.000000 0.000692 0.000000
# 3 -0.002050 -0.003526 0.010274 0.000000 -0.002018 0.000000
# 4 0.000000 0.000000 0.000000 0.026492 0.000000 -0.007160
# 5 -0.003052 0.000692 -0.002018 0.000000 0.024469 0.000000
# 6 0.000000 0.000000 0.000000 -0.007160 0.000000 0.078025
#
#
# Mechanical properties :
#
#
# Convention : Reuss Voigt Hill
#
# Bulk Modulus (GPa) = 74.83151 80.28386 77.55769
# Shear Modulus (GPa) = 26.91561 33.85312 30.38436
#
# Velocity S-wave (km/s) = 3.58461 4.02012 3.80859
# Velocity P-wave (km/s) = 7.27027 7.73793 7.50774
#
# Compressibility (1/GPa) = 0.01336335
#
# Stress axis : x y z
#
# Youngs Moduli (GPa) = 100.57928 79.18741 97.33441
#
# Poissons Ratio (x) = 0.32983 0.19949
# Poissons Ratio (y) = 0.41893 0.34320
# Poissons Ratio (z) = 0.20614 0.27921
#
# Static dielectric constant tensor:
#      x y z
#    x 3.748670 0.000000 0.124490 
#    y 0.000000 4.108530 0.000000 
#    z 0.124490 0.000000 4.032300 
# 
# 
# High freq. dielectric constant tensor:
#      x y z
#    x 1.802590 0.000000 0.008820 
#    y 0.000000 1.837080 0.000000 
#    z 0.008820 0.000000 1.843130 
# 
# From -- ./inp_files/4178.got.cif
#   From: 2010.06.25/outbox.cif.g09.slc.cpg/sg9_3_cif.got.tgz:4178.got - 2010.06.27 21:40:51.
