data_PCOD8054989
_publ_section_title
;
Structure prediction by ZEFSAII (Michael W. Deem and Ramdas Pophale) SiO2 
 PCOD8054989
Probable space group: C C
;
_chemical_formula_sum "Si O2"
_cell_formula_units_Z 28
_cell_length_a 21.958003
_cell_length_b 13.812938
_cell_length_c 9.235598
_cell_angle_alpha 90.000000
_cell_angle_beta 30.166758
_cell_angle_gamma 90.000000
_cell_volume 1407.653983
_symmetry_space_group_name_H-M "C C"
_symmetry_group_IT_number 9
_symmetry_cell_setting 'monoclinic'
loop_
_space_group_symop_operation_xyz
x,y,z
x,-y,1/2+z
1/2+x,1/2+y,z
1/2+x,1/2-y,1/2+z
loop_
_atom_site_type_symbol
_atom_site_label
_atom_site_fract_x
_atom_site_fract_y
_atom_site_fract_z
Si Si1 0.345560 0.569648 0.196300
Si Si2 0.511972 0.227410 0.858789
Si Si3 0.734645 0.211263 0.926194
Si Si4 0.142178 0.388046 0.335307
Si Si5 0.547487 0.567715 0.218137
Si Si6 0.651087 0.902284 0.864504
Si Si7 0.087532 0.893820 0.304350
O O1 0.258818 0.571055 0.512191
O O2 0.273530 0.608212 0.206326
O O3 0.404462 0.462377 0.044087
O O4 0.458011 0.641088 0.002953
O O5 0.374619 0.261905 0.130861
O O6 0.544171 0.165095 0.934796
O O7 0.583911 0.329274 0.713287
O O8 0.548666 0.169717 0.637909
O O9 0.681724 0.186721 0.877484
O O10 0.692753 0.123953 0.116587
O O11 0.680498 0.308254 0.104422
O O12 0.090385 0.490255 0.502201
O O13 0.633427 0.486770 0.116154
O O14 0.570007 0.568420 0.002106
#
# Coordination Sequence:
#
# PCOD8054989 Si02
#       7
#     4   4   4   4   4   4   4
#     4   9  21  38  70  89 119 163 221 268 310 358
#     4  11  24  42  64  96 129 168 211 269 321 394
#     4  12  25  40  67  94 134 167 213 266 329 384
#     4  11  24  41  66  96 125 171 217 263 323 374
#     4  10  21  41  67  94 122 161 226 266 315 366
#     4  11  22  43  64  93 129 166 219 265 318 378
#     4  10  23  39  66  96 124 164 209 273 322 374
#
# _framework density 19.891252000000001
#
# number of rings (size 3 to 8) (size 9 to 14) (size 15 to 20)
#    0.857    0.571    1.429    5.143    6.000    0.000 
#    2.571    0.000    0.000    0.000    0.000    0.000 
#    0.000    0.000    0.000    0.000    0.000    0.000 
#
# Total GULP energy -173470.301397 kJ/mol
# GULP energy per Si atom -12390.735814 kJ/mol
# Density = 1.984598 g / cm^3
# Si number density = 19.891252 Si / 1000 Ang^3
#
#
#
# Elastic Constant Matrix: (Units=GPa)
#
#
# Indices 1 2 3 4 5 6 
#
# 1 81.3289 26.8641 28.3650 0.0000 19.3640 0.0000
# 2 26.8641 100.3362 31.8296 0.0000 4.3640 0.0000
# 3 28.3650 31.8296 61.4824 0.0000 13.1280 0.0000
# 4 0.0000 0.0000 0.0000 31.9842 0.0000 3.3759
# 5 19.3640 4.3640 13.1280 0.0000 28.8614 0.0000
# 6 0.0000 0.0000 0.0000 3.3759 0.0000 30.5033
#
#
#
# Elastic Compliance Matrix: (Units=1/GPa)
#
#
# Indices 1 2 3 4 5 6 
#
# 1 0.016865 -0.002707 -0.004487 0.000000 -0.008865 0.000000
# 2 -0.002707 0.012392 -0.005709 0.000000 0.002539 0.000000
# 3 -0.004487 -0.005709 0.022664 0.000000 -0.006436 0.000000
# 4 0.000000 0.000000 0.000000 0.031635 0.000000 -0.003501
# 5 -0.008865 0.002539 -0.006436 0.000000 0.043140 0.000000
# 6 0.000000 0.000000 0.000000 -0.003501 0.000000 0.033171
#
#
# Mechanical properties :
#
#
# Convention : Reuss Voigt Hill
#
# Bulk Modulus (GPa) = 38.28843 46.36276 42.32559
# Shear Modulus (GPa) = 25.72324 28.67571 27.19948
#
# Velocity S-wave (km/s) = 3.60000 3.80099 3.70186
# Velocity P-wave (km/s) = 6.04737 6.52856 6.29257
#
# Compressibility (1/GPa) = 0.02611755
#
# Stress axis : x y z
#
# Youngs Moduli (GPa) = 59.29287 80.69924 44.12232
#
# Poissons Ratio (x) = 0.21843 0.19796
# Poissons Ratio (y) = 0.16049 0.25188
# Poissons Ratio (z) = 0.26603 0.46068
#
# Static dielectric constant tensor:
#      x y z
#    x 3.555290 0.000000 0.205080 
#    y 0.000000 3.828170 0.000000 
#    z 0.205080 0.000000 3.513870 
# 
# 
# High freq. dielectric constant tensor:
#      x y z
#    x 1.774910 0.000000 0.022500 
#    y 0.000000 1.786470 0.000000 
#    z 0.022500 0.000000 1.756890 
# 
# From -- ./inp_files/11758.got.cif
#   From: 2010.06.25/outbox.cif.g09.slc.cpg/sg9_6_cif.got.tgz:11758.got - 2010.06.27 21:40:51.
