data_PCOD8054005
_publ_section_title
;
Structure prediction by ZEFSAII (Michael W. Deem and Ramdas Pophale) SiO2 
 PCOD8054005
Probable space group: C M
;
_chemical_formula_sum "Si O2"
_cell_formula_units_Z 28
_cell_length_a 14.047670
_cell_length_b 20.641728
_cell_length_c 5.129539
_cell_angle_alpha 90.000000
_cell_angle_beta 71.802680
_cell_angle_gamma 90.000000
_cell_volume 1413.013107
_symmetry_space_group_name_H-M "C M"
_symmetry_group_IT_number 8
_symmetry_cell_setting 'monoclinic'
loop_
_space_group_symop_operation_xyz
x,y,z
x,-y,z
1/2+x,1/2+y,z
1/2+x,1/2-y,z
loop_
_atom_site_type_symbol
_atom_site_label
_atom_site_fract_x
_atom_site_fract_y
_atom_site_fract_z
Si Si1 0.219340 0.746315 0.700240
Si Si2 0.156043 0.879456 0.938390
Si Si3 0.763118 0.573219 0.347336
Si Si4 0.901151 0.314783 0.314611
Si Si5 0.503930 0.767175 0.713065
Si Si6 0.432756 0.422876 0.198627
Si Si7 0.369097 0.646540 0.759654
O O1 0.188106 0.803853 0.926691
O O2 0.304278 0.768806 0.424302
O O3 0.123755 0.728000 0.607495
O O4 0.264614 0.686354 0.825976
O O5 0.180530 0.906087 0.630136
O O6 0.217418 0.918626 0.100402
O O7 0.039233 0.887531 0.087724
O O8 0.794634 0.500000 0.364236
O O9 0.866078 0.612607 0.286858
O O10 0.963598 0.316338 0.529394
O O11 0.968205 0.287658 0.027863
O O12 0.464717 0.694952 0.683504
O O13 0.445683 0.500000 0.172525
O O14 0.380331 0.402944 0.511320
O O15 0.363406 0.396839 0.023783
#
# Coordination Sequence:
#
# PCOD8054005 Si02
#       7
#     4   4   4   4   4   4   4
#     4  10  23  39  65  88 126 155 202 262 305 358
#     4  11  23  37  60  90 119 160 199 251 309 362
#     4  11  21  37  58  85 122 157 195 242 302 368
#     4  10  23  37  58  92 119 156 201 244 312 361
#     4  11  22  40  61  88 122 152 200 261 304 359
#     4  12  24  40  60  88 129 164 203 246 301 378
#     4  11  23  40  60  93 118 164 202 246 313 362
#
# _framework density 19.815811
#
# number of rings (size 3 to 8) (size 9 to 14) (size 15 to 20)
#    0.000    1.143    1.429    6.857    2.000    4.571 
#    0.000    0.000    0.000    5.143    0.000    0.000 
#    0.000    0.000    0.000    0.000    0.000    0.000 
#
# Total GULP energy -173654.277857 kJ/mol
# GULP energy per Si atom -12403.876990 kJ/mol
# Density = 1.977071 g / cm^3
# Si number density = 19.815811 Si / 1000 Ang^3
#
#
#
# Elastic Constant Matrix: (Units=GPa)
#
#
# Indices 1 2 3 4 5 6 
#
# 1 131.5277 36.6955 29.5099 0.0000 2.4597 0.0000
# 2 36.6955 92.5822 26.7470 0.0000 2.1512 0.0000
# 3 29.5099 26.7470 83.3853 0.0000 12.9017 0.0000
# 4 0.0000 0.0000 0.0000 25.6059 0.0000 4.8837
# 5 2.4597 2.1512 12.9017 0.0000 26.1298 0.0000
# 6 0.0000 0.0000 0.0000 4.8837 0.0000 17.8102
#
#
#
# Elastic Compliance Matrix: (Units=1/GPa)
#
#
# Indices 1 2 3 4 5 6 
#
# 1 0.008915 -0.002877 -0.002316 0.000000 0.000541 0.000000
# 2 -0.002877 0.012856 -0.003231 0.000000 0.000808 0.000000
# 3 -0.002316 -0.003231 0.014913 0.000000 -0.006879 0.000000
# 4 0.000000 0.000000 0.000000 0.041209 0.000000 -0.011300
# 5 0.000541 0.000808 -0.006879 0.000000 0.041550 0.000000
# 6 0.000000 0.000000 0.000000 -0.011300 0.000000 0.059246
#
#
# Mechanical properties :
#
#
# Convention : Reuss Voigt Hill
#
# Bulk Modulus (GPa) = 50.41098 54.82222 52.61660
# Shear Modulus (GPa) = 24.73438 28.21204 26.47321
#
# Velocity S-wave (km/s) = 3.53684 3.77731 3.65905
# Velocity P-wave (km/s) = 6.49415 6.83740 6.66798
#
# Compressibility (1/GPa) = 0.01983695
#
# Stress axis : x y z
#
# Youngs Moduli (GPa) = 112.16878 77.78414 67.05678
#
# Poissons Ratio (x) = 0.22379 0.15530
# Poissons Ratio (y) = 0.32272 0.21663
# Poissons Ratio (z) = 0.25977 0.25128
#
# Static dielectric constant tensor:
#      x y z
#    x 3.698250 0.000000 0.198560 
#    y 0.000000 3.644920 0.000000 
#    z 0.198560 0.000000 3.680630 
# 
# 
# High freq. dielectric constant tensor:
#      x y z
#    x 1.765170 0.000000 0.017840 
#    y 0.000000 1.761130 0.000000 
#    z 0.017840 0.000000 1.780770 
# 
# From -- ./inp_files/4051.got.cif
#   From: 2010.03.12/outbox.cif.g09.slc.cpg/sg8_3_cif.got.tgz:4051.got - 2010.03.31 10:45:26.
