data_PCOD8054972
_publ_section_title
;
Structure prediction by ZEFSAII (Michael W. Deem and Ramdas Pophale) SiO2 
 PCOD8054972
Probable space group: C C
;
_chemical_formula_sum "Si O2"
_cell_formula_units_Z 20
_cell_length_a 7.085465
_cell_length_b 11.543160
_cell_length_c 12.764642
_cell_angle_alpha 90.000000
_cell_angle_beta 43.912595
_cell_angle_gamma 90.000000
_cell_volume 724.078877
_symmetry_space_group_name_H-M "C C"
_symmetry_group_IT_number 9
_symmetry_cell_setting 'monoclinic'
loop_
_space_group_symop_operation_xyz
x,y,z
x,-y,1/2+z
1/2+x,1/2+y,z
1/2+x,1/2-y,1/2+z
loop_
_atom_site_type_symbol
_atom_site_label
_atom_site_fract_x
_atom_site_fract_y
_atom_site_fract_z
Si Si1 0.156240 0.132531 0.142200
Si Si2 0.785365 0.490725 0.382125
Si Si3 0.301766 0.621615 0.617914
Si Si4 0.555879 0.799503 0.887919
Si Si5 0.121124 0.886212 0.201929
O O1 0.354794 0.241241 0.083354
O O2 0.864214 0.179244 0.295054
O O3 0.227977 0.017808 0.183694
O O4 0.193342 0.102474 0.005635
O O5 0.501495 0.551331 0.457502
O O6 0.986111 0.418915 0.223348
O O7 0.966629 0.596205 0.349660
O O8 0.392906 0.595674 0.702438
O O9 0.506886 0.672929 0.853284
O O10 0.369124 0.802684 0.066448
#
# Coordination Sequence:
#
# PCOD8054972 Si02
#       5
#     4   4   4   4   4
#     4  10  22  41  63  93 130 172 206 269 323 379
#     4  10  21  41  64  92 126 173 206 267 323 380
#     4  10  22  40  69  86 130 169 216 261 327 376
#     4  10  21  42  66  91 133 170 211 269 320 378
#     4  10  24  42  66  96 131 170 215 266 321 385
#
# _framework density 27.621300999999999
#
# number of rings (size 3 to 8) (size 9 to 14) (size 15 to 20)
#    0.000    2.400    4.000    0.000    8.400    0.000 
#    3.600    2.000    0.000    0.000    0.000    0.000 
#    0.000    0.000    0.000    0.000    0.000    0.000 
#
# Total GULP energy -123899.247298 kJ/mol
# GULP energy per Si atom -12389.924730 kJ/mol
# Density = 2.755843 g / cm^3
# Si number density = 27.621301 Si / 1000 Ang^3
#
#
#
# Elastic Constant Matrix: (Units=GPa)
#
#
# Indices 1 2 3 4 5 6 
#
# 1 36.4755 32.5045 33.9715 -0.0030 -1.8047 0.0014
# 2 32.5045 235.6761 69.4577 0.0034 -7.5883 -0.0007
# 3 33.9715 69.4577 150.0592 0.0086 -19.1351 -0.0038
# 4 -0.0030 0.0034 0.0086 45.9287 0.0010 4.5494
# 5 -1.8047 -7.5883 -19.1351 0.0010 33.4416 -0.0011
# 6 0.0014 -0.0007 -0.0038 4.5494 -0.0011 37.5066
#
#
#
# Elastic Compliance Matrix: (Units=1/GPa)
#
#
# Indices 1 2 3 4 5 6 
#
# 1 0.036749 -0.003012 -0.007292 0.000004 -0.002873 -0.000003
# 2 -0.003012 0.005161 -0.001703 0.000000 0.000034 0.000000
# 3 -0.007292 -0.001703 0.009712 -0.000002 0.004777 0.000002
# 4 0.000004 0.000000 -0.000002 0.022038 -0.000002 -0.002673
# 5 -0.002873 0.000034 0.004777 -0.000002 0.032489 0.000002
# 6 -0.000003 0.000000 0.000002 -0.002673 0.000002 0.026986
#
#
# Mechanical properties :
#
#
# Convention : Reuss Voigt Hill
#
# Bulk Modulus (GPa) = 36.21940 77.11980 56.66960
# Shear Modulus (GPa) = 30.05689 42.46052 36.25870
#
# Velocity S-wave (km/s) = 3.30233 3.92502 3.62706
# Velocity P-wave (km/s) = 5.26135 6.96578 6.17268
#
# Compressibility (1/GPa) = 0.02760951
#
# Stress axis : x y z
#
# Youngs Moduli (GPa) = 27.21192 193.74298 102.96370
#
# Poissons Ratio (x) = 0.58353 0.75077
# Poissons Ratio (y) = 0.08196 0.17533
# Poissons Ratio (z) = 0.19842 0.32992
#
# Static dielectric constant tensor:
#      x y z
#    x 4.450560 0.000000 -0.204120 
#    y 0.000000 5.467350 0.000000 
#    z -0.204120 0.000000 5.234050 
# 
# 
# High freq. dielectric constant tensor:
#      x y z
#    x 2.081880 0.000000 -0.010110 
#    y 0.000000 2.149590 0.000000 
#    z -0.010110 0.000000 2.115390 
# 
# From -- ./inp_files/4677.got.cif
#   From: 2010.06.25/outbox.cif.g09.slc.cpg/sg9_3_cif.got.tgz:4677.got - 2010.06.27 21:40:51.
