data_PCOD8054307
_publ_section_title
;
Structure prediction by ZEFSAII (Michael W. Deem and Ramdas Pophale) SiO2 
 PCOD8054307
Probable space group: C C
;
_chemical_formula_sum "Si O2"
_cell_formula_units_Z 32
_cell_length_a 11.889766
_cell_length_b 28.069851
_cell_length_c 5.206892
_cell_angle_alpha 90.000000
_cell_angle_beta 58.835095
_cell_angle_gamma 90.000000
_cell_volume 1486.976407
_symmetry_space_group_name_H-M "C C"
_symmetry_group_IT_number 9
_symmetry_cell_setting 'monoclinic'
loop_
_space_group_symop_operation_xyz
x,y,z
x,-y,1/2+z
1/2+x,1/2+y,z
1/2+x,1/2-y,1/2+z
loop_
_atom_site_type_symbol
_atom_site_label
_atom_site_fract_x
_atom_site_fract_y
_atom_site_fract_z
Si Si1 0.136590 0.115781 0.700600
Si Si2 0.748837 0.649782 0.065691
Si Si3 0.426247 0.302629 0.425804
Si Si4 0.551446 0.160320 0.770367
Si Si5 0.538891 0.733964 0.293649
Si Si6 0.188641 0.628778 0.117489
Si Si7 0.777977 0.023198 0.909352
Si Si8 0.567940 0.516226 0.958078
O O1 0.204313 0.112798 0.341733
O O2 0.052024 0.069497 0.873455
O O3 0.036500 0.158151 0.812717
O O4 0.244731 0.123555 0.795596
O O5 0.656316 0.696065 0.165391
O O6 0.895329 0.665485 0.952267
O O7 0.434250 0.274800 0.686317
O O8 0.287669 0.327384 0.537338
O O9 0.456187 0.266881 0.156184
O O10 0.605409 0.214280 0.680220
O O11 0.602324 0.126867 0.478586
O O12 0.596225 0.137411 0.983911
O O13 0.265018 0.579288 0.979887
O O14 0.710535 0.006747 0.722307
O O15 0.930900 0.008137 0.713224
O O16 0.644153 0.486276 0.642976
#
# Coordination Sequence:
#
# PCOD8054307 Si02
#       8
#     4   4   4   4   4   4   4   4
#     4  10  20  39  63  94 124 162 209 260 333 375
#     4  10  23  41  65  86 129 174 214 265 310 390
#     4  10  21  38  62  95 126 158 213 277 320 379
#     4  12  26  43  63  92 132 184 218 262 319 398
#     4  10  23  41  63  91 121 172 221 270 321 367
#     4  12  25  40  66 100 132 171 216 272 334 392
#     4  10  21  38  62  95 129 163 197 265 339 390
#     4  10  19  32  60  95 125 154 192 263 328 387
#
# _framework density 21.520178000000001
#
# number of rings (size 3 to 8) (size 9 to 14) (size 15 to 20)
#    0.000    1.500    0.000    5.250    3.500    6.000 
#    0.000    0.000    0.000   15.000    0.000    0.000 
#    0.000    0.000    0.000    0.000    0.000    0.000 
#
# Total GULP energy -198292.050912 kJ/mol
# GULP energy per Si atom -12393.253182 kJ/mol
# Density = 2.147120 g / cm^3
# Si number density = 21.520178 Si / 1000 Ang^3
#
#
#
# Elastic Constant Matrix: (Units=GPa)
#
#
# Indices 1 2 3 4 5 6 
#
# 1 113.1692 21.0875 53.8323 0.0000 22.2319 0.0000
# 2 21.0875 106.6431 33.4797 0.0000 11.5967 0.0000
# 3 53.8323 33.4797 111.6802 0.0000 37.9936 0.0000
# 4 0.0000 0.0000 0.0000 35.5332 0.0000 1.5088
# 5 22.2319 11.5967 37.9936 0.0000 48.7946 0.0000
# 6 0.0000 0.0000 0.0000 1.5088 0.0000 19.6063
#
#
#
# Elastic Compliance Matrix: (Units=1/GPa)
#
#
# Indices 1 2 3 4 5 6 
#
# 1 0.011555 -0.000589 -0.004965 0.000000 -0.001259 0.000000
# 2 -0.000589 0.010381 -0.002830 0.000000 0.000004 0.000000
# 3 -0.004965 -0.002830 0.015232 0.000000 -0.008926 0.000000
# 4 0.000000 0.000000 0.000000 0.028235 0.000000 -0.002173
# 5 -0.001259 0.000004 -0.008926 0.000000 0.028017 0.000000
# 6 0.000000 0.000000 0.000000 -0.002173 0.000000 0.051171
#
#
# Mechanical properties :
#
#
# Convention : Reuss Voigt Hill
#
# Bulk Modulus (GPa) = 49.01715 60.92128 54.96921
# Shear Modulus (GPa) = 29.73370 35.65971 32.69671
#
# Velocity S-wave (km/s) = 3.72111 4.07509 3.90211
# Velocity P-wave (km/s) = 6.42565 7.10719 6.77499
#
# Compressibility (1/GPa) = 0.02040102
#
# Stress axis : x y z
#
# Youngs Moduli (GPa) = 86.54161 96.32559 65.65062
#
# Poissons Ratio (x) = 0.05677 0.32595
# Poissons Ratio (y) = 0.05100 0.18577
# Poissons Ratio (z) = 0.42967 0.27257
#
# Static dielectric constant tensor:
#      x y z
#    x 4.225730 0.000000 0.808290 
#    y 0.000000 3.874320 0.000000 
#    z 0.808290 0.000000 4.399980 
# 
# 
# High freq. dielectric constant tensor:
#      x y z
#    x 1.840610 0.000000 0.040360 
#    y 0.000000 1.839310 0.000000 
#    z 0.040360 0.000000 1.846480 
# 
# From -- ./inp_files/2268.got.cif
#   From: 2010.06.25/outbox.cif.g09.slc.cpg/sg9_2_cif.got.tgz:2268.got - 2010.06.27 21:40:51.
