data_PCOD8054256
_publ_section_title
;
Structure prediction by ZEFSAII (Michael W. Deem and Ramdas Pophale) SiO2 
 PCOD8054256
Probable space group: C C
;
_chemical_formula_sum "Si O2"
_cell_formula_units_Z 32
_cell_length_a 10.450052
_cell_length_b 16.262134
_cell_length_c 8.452951
_cell_angle_alpha 90.000000
_cell_angle_beta 73.136910
_cell_angle_gamma 90.000000
_cell_volume 1374.727353
_symmetry_space_group_name_H-M "C C"
_symmetry_group_IT_number 9
_symmetry_cell_setting 'monoclinic'
loop_
_space_group_symop_operation_xyz
x,y,z
x,-y,1/2+z
1/2+x,1/2+y,z
1/2+x,1/2-y,1/2+z
loop_
_atom_site_type_symbol
_atom_site_label
_atom_site_fract_x
_atom_site_fract_y
_atom_site_fract_z
Si Si1 0.051460 0.922712 0.165760
Si Si2 0.250320 0.589217 0.705874
Si Si3 0.101927 0.906757 0.787210
Si Si4 0.586727 0.989096 0.529832
Si Si5 0.718428 0.738592 0.067469
Si Si6 0.531270 0.113748 0.326663
Si Si7 0.830977 0.168885 0.259861
Si Si8 0.484787 0.716884 0.927620
O O1 0.061242 0.847257 0.287236
O O2 0.896330 0.942693 0.198111
O O3 0.126320 0.000520 0.216913
O O4 0.118292 0.901042 0.972078
O O5 0.207811 0.537951 0.568593
O O6 0.251356 0.687294 0.675593
O O7 0.146511 0.573674 0.881912
O O8 0.215258 0.847897 0.664932
O O9 0.950499 0.883957 0.792296
O O10 0.499198 0.933330 0.677034
O O11 0.483745 0.054596 0.487107
O O12 0.816579 0.748996 0.878019
O O13 0.570936 0.746737 0.047418
O O14 0.691426 0.120070 0.303380
O O15 0.454169 0.200111 0.340641
O O16 0.852556 0.184766 0.063290
#
# Coordination Sequence:
#
# PCOD8054256 Si02
#       8
#     4   4   4   4   4   4   4   4
#     4  12  22  37  61  94 122 155 207 264 306 359
#     4  11  19  35  57  94 119 157 189 250 312 352
#     4  11  22  36  61  91 124 154 205 254 311 362
#     4  10  19  30  58  82 120 143 191 239 301 359
#     4  10  21  38  56  86 125 166 191 245 312 367
#     4  10  19  35  54  88 111 155 187 245 305 354
#     4  10  18  37  56  84 122 156 192 244 297 366
#     4  10  22  36  57  85 121 160 202 251 300 365
#
# _framework density 23.277341
#
# number of rings (size 3 to 8) (size 9 to 14) (size 15 to 20)
#    0.000    1.500    3.750    4.500    1.750    0.000 
#    0.000    0.000    0.000    4.500    0.000    0.000 
#    0.000    0.000    0.000    0.000    0.000    0.000 
#
# Total GULP energy -198221.344418 kJ/mol
# GULP energy per Si atom -12388.834026 kJ/mol
# Density = 2.322436 g / cm^3
# Si number density = 23.277341 Si / 1000 Ang^3
#
#
#
# Elastic Constant Matrix: (Units=GPa)
#
#
# Indices 1 2 3 4 5 6 
#
# 1 10.2648 0.6649 1.9956 0.0000 5.2653 0.0000
# 2 0.6649 174.7126 91.6337 0.0000 6.6386 0.0000
# 3 1.9956 91.6337 153.6920 0.0000 13.2885 0.0000
# 4 0.0000 0.0000 0.0000 37.7008 0.0000 -1.9890
# 5 5.2653 6.6386 13.2885 0.0000 12.4071 0.0000
# 6 0.0000 0.0000 0.0000 -1.9890 0.0000 22.8152
#
#
#
# Elastic Compliance Matrix: (Units=1/GPa)
#
#
# Indices 1 2 3 4 5 6 
#
# 1 0.126022 -0.000059 0.003328 0.000000 -0.057014 0.000000
# 2 -0.000059 0.008338 -0.005055 0.000000 0.000978 0.000000
# 3 0.003328 -0.005055 0.010321 0.000000 -0.009762 0.000000
# 4 0.000000 0.000000 0.000000 0.026647 0.000000 0.002323
# 5 -0.057014 0.000978 -0.009762 0.000000 0.114727 0.000000
# 6 0.000000 0.000000 0.000000 0.002323 0.000000 0.044033
#
#
# Mechanical properties :
#
#
# Convention : Reuss Voigt Hill
#
# Bulk Modulus (GPa) = 7.08666 58.58422 32.83544
# Shear Modulus (GPa) = 13.13383 30.87633 22.00508
#
# Velocity S-wave (km/s) = 2.37793 3.64600 3.07798
# Velocity P-wave (km/s) = 3.25430 6.55340 5.17385
#
# Compressibility (1/GPa) = 0.14111015
#
# Stress axis : x y z
#
# Youngs Moduli (GPa) = 7.93512 119.93225 96.88743
#
# Poissons Ratio (x) = 0.00706 -0.32247
# Poissons Ratio (y) = 0.00047 0.48977
# Poissons Ratio (z) = -0.02641 0.60626
#
# Static dielectric constant tensor:
#      x y z
#    x 3.621690 0.000000 0.124780 
#    y 0.000000 4.484110 0.000000 
#    z 0.124780 0.000000 4.800960 
# 
# 
# High freq. dielectric constant tensor:
#      x y z
#    x 1.868800 0.000000 0.018340 
#    y 0.000000 1.925840 0.000000 
#    z 0.018340 0.000000 1.939420 
# 
# From -- ./inp_files/7588.got.cif
#   From: 2010.06.25/outbox.cif.g09.slc.cpg/sg9_4_cif.got.tgz:7588.got - 2010.06.27 21:40:51.
