data_PCOD8054255
_publ_section_title
;
Structure prediction by ZEFSAII (Michael W. Deem and Ramdas Pophale) SiO2 
 PCOD8054255
Probable space group: C C
;
_chemical_formula_sum "Si O2"
_cell_formula_units_Z 32
_cell_length_a 13.662832
_cell_length_b 18.842878
_cell_length_c 11.503413
_cell_angle_alpha 90.000000
_cell_angle_beta 147.346483
_cell_angle_gamma 90.000000
_cell_volume 1597.910177
_symmetry_space_group_name_H-M "C C"
_symmetry_group_IT_number 9
_symmetry_cell_setting 'monoclinic'
loop_
_space_group_symop_operation_xyz
x,y,z
x,-y,1/2+z
1/2+x,1/2+y,z
1/2+x,1/2-y,1/2+z
loop_
_atom_site_type_symbol
_atom_site_label
_atom_site_fract_x
_atom_site_fract_y
_atom_site_fract_z
Si Si1 0.387320 0.417798 0.346170
Si Si2 0.233655 0.180288 0.699467
Si Si3 0.812343 0.860369 0.029642
Si Si4 0.106647 0.326515 0.187801
Si Si5 0.606648 0.826515 0.460091
Si Si6 0.693578 0.285509 0.410877
Si Si7 0.887320 0.917798 0.863068
Si Si8 0.733655 0.319712 0.702440
O O1 0.301416 0.408054 0.132806
O O2 0.239391 0.392107 0.292127
O O3 0.432932 0.500000 0.400230
O O4 0.572289 0.375681 0.554645
O O5 0.403558 0.152494 0.795260
O O6 0.294905 0.187740 0.895415
O O7 0.169816 0.256871 0.591346
O O8 0.072290 0.124319 0.524531
O O9 0.993218 0.814612 0.210516
O O10 0.659468 0.799551 0.876767
O O11 0.801417 0.908054 0.904625
O O12 0.169816 0.256871 0.182883
O O13 0.111259 0.310563 0.328558
O O14 0.903558 0.347506 0.946453
O O15 0.739391 0.892107 0.621252
O O16 0.794905 0.312260 0.628993
#
# Coordination Sequence:
#
# PCOD8054255 Si02
#       8
#     4   4   4   4   4   4   4   4
#     4  11  26  43  65  96 135 172 211 272 338 390
#     4  11  22  41  68  98 129 170 225 275 324 386
#     4  10  20  38  66  94 118 162 211 266 331 376
#     4  12  24  40  67 100 129 178 224 268 323 398
#     4  12  24  40  67 100 129 178 224 268 323 398
#     4  10  18  36  66  98 114 156 219 278 315 368
#     4  11  26  43  65  96 135 172 211 272 338 390
#     4  11  22  41  68  98 129 170 225 275 324 386
#
# _framework density 20.026156
#
# number of rings (size 3 to 8) (size 9 to 14) (size 15 to 20)
#    0.000    1.000    5.000    2.250    1.750    2.000 
#    0.000    0.000    5.500    0.000    0.000    0.000 
#    0.000    0.000    0.000    0.000    0.000    0.000 
#
# Total GULP energy -198423.233509 kJ/mol
# GULP energy per Si atom -12401.452094 kJ/mol
# Density = 1.998058 g / cm^3
# Si number density = 20.026156 Si / 1000 Ang^3
#
#
#
# Elastic Constant Matrix: (Units=GPa)
#
#
# Indices 1 2 3 4 5 6 
#
# 1 106.5561 21.2228 42.4726 0.0000 -14.5516 0.0000
# 2 21.2228 100.5153 24.8290 0.0000 4.3443 0.0000
# 3 42.4726 24.8290 89.6113 0.0000 -5.8634 0.0000
# 4 0.0000 0.0000 0.0000 22.9524 0.0000 2.0340
# 5 -14.5516 4.3443 -5.8634 0.0000 36.4703 0.0000
# 6 0.0000 0.0000 0.0000 2.0340 0.0000 21.2640
#
#
#
# Elastic Compliance Matrix: (Units=1/GPa)
#
#
# Indices 1 2 3 4 5 6 
#
# 1 0.012318 -0.001516 -0.005139 0.000000 0.004269 0.000000
# 2 -0.001516 0.010980 -0.002475 0.000000 -0.002311 0.000000
# 3 -0.005139 -0.002475 0.014316 0.000000 0.000546 0.000000
# 4 0.000000 0.000000 0.000000 0.043941 0.000000 -0.004203
# 5 0.004269 -0.002311 0.000546 0.000000 0.029486 0.000000
# 6 0.000000 0.000000 0.000000 -0.004203 0.000000 0.047430
#
#
# Mechanical properties :
#
#
# Convention : Reuss Voigt Hill
#
# Bulk Modulus (GPa) = 51.66669 52.63681 52.15175
# Shear Modulus (GPa) = 27.29516 30.01457 28.65487
#
# Velocity S-wave (km/s) = 3.69586 3.87559 3.78679
# Velocity P-wave (km/s) = 6.63838 6.80941 6.72444
#
# Compressibility (1/GPa) = 0.01935483
#
# Stress axis : x y z
#
# Youngs Moduli (GPa) = 81.18183 91.07436 69.84969
#
# Poissons Ratio (x) = 0.13806 0.35895
# Poissons Ratio (y) = 0.12307 0.17288
# Poissons Ratio (z) = 0.41719 0.22541
#
# Static dielectric constant tensor:
#      x y z
#    x 3.920720 0.000000 -0.115830 
#    y 0.000000 3.445090 0.000000 
#    z -0.115830 0.000000 3.824590 
# 
# 
# High freq. dielectric constant tensor:
#      x y z
#    x 1.795860 0.000000 -0.005190 
#    y 0.000000 1.757280 0.000000 
#    z -0.005190 0.000000 1.791550 
# 
# From -- ./inp_files/18523.got.cif
#   From: 2010.06.25/outbox.cif.g09.slc.cpg/sg9_10_cif.got.tgz:18523.got - 2010.06.27 21:40:51.
