data_PCOD8054761
_publ_section_title
;
Structure prediction by ZEFSAII (Michael W. Deem and Ramdas Pophale) SiO2 
 PCOD8054761
Probable space group: C C
;
_chemical_formula_sum "Si O2"
_cell_formula_units_Z 32
_cell_length_a 8.719492
_cell_length_b 18.172915
_cell_length_c 11.330049
_cell_angle_alpha 90.000000
_cell_angle_beta 56.205503
_cell_angle_gamma 90.000000
_cell_volume 1491.998529
_symmetry_space_group_name_H-M "C C"
_symmetry_group_IT_number 9
_symmetry_cell_setting 'monoclinic'
loop_
_space_group_symop_operation_xyz
x,y,z
x,-y,1/2+z
1/2+x,1/2+y,z
1/2+x,1/2-y,1/2+z
loop_
_atom_site_type_symbol
_atom_site_label
_atom_site_fract_x
_atom_site_fract_y
_atom_site_fract_z
Si Si1 0.196190 0.578094 0.479980
Si Si2 0.767200 0.665423 0.287467
Si Si3 0.641575 0.921594 0.583503
Si Si4 0.890840 0.807384 0.334317
Si Si5 0.092648 0.812592 0.617671
Si Si6 0.954624 0.889998 0.072689
Si Si7 0.683548 0.223868 0.367009
Si Si8 0.919317 0.046654 0.168964
O O1 0.085251 0.500650 0.547067
O O2 0.264286 0.609767 0.577869
O O3 0.095872 0.643631 0.446038
O O4 0.373415 0.555622 0.326883
O O5 0.765842 0.735756 0.373677
O O6 0.702287 0.694272 0.190180
O O7 0.620470 0.612526 0.409404
O O8 0.962385 0.625128 0.191055
O O9 0.777866 0.873916 0.441854
O O10 0.742247 0.937463 0.663090
O O11 0.956180 0.828998 0.174409
O O12 0.060958 0.777374 0.339101
O O13 0.214512 0.765629 0.476282
O O14 0.879373 0.785837 0.719076
O O15 0.084762 0.896155 0.571797
O O16 0.994259 0.965996 0.120569
#
# Coordination Sequence:
#
# PCOD8054761 Si02
#       8
#     4   4   4   4   4   4   4   4
#     4  10  21  46  70  95 135 188 224 280 350 404
#     4  12  25  41  66 101 138 172 230 288 340 407
#     4  11  24  44  69 100 138 181 229 285 344 412
#     4  12  25  42  69 101 134 180 230 280 348 413
#     4  11  24  45  66  99 133 178 224 283 345 404
#     4  11  23  42  70  98 134 179 228 277 348 409
#     4  11  24  45  71  99 134 180 229 283 343 414
#     4  10  20  45  69  91 134 184 222 276 346 407
#
# _framework density 21.447741000000001
#
# number of rings (size 3 to 8) (size 9 to 14) (size 15 to 20)
#    0.000    1.000    5.000    3.000    3.500    0.000 
#    6.750    0.000    0.000    0.000    0.000    0.000 
#    0.000    0.000    0.000    0.000    0.000    0.000 
#
# Total GULP energy -198235.127339 kJ/mol
# GULP energy per Si atom -12389.695459 kJ/mol
# Density = 2.139892 g / cm^3
# Si number density = 21.447741 Si / 1000 Ang^3
#
#
#
# Elastic Constant Matrix: (Units=GPa)
#
#
# Indices 1 2 3 4 5 6 
#
# 1 64.9655 14.7144 14.1929 0.0000 9.0534 0.0000
# 2 14.7144 103.3613 28.8853 0.0000 5.7505 0.0000
# 3 14.1929 28.8853 72.4217 0.0000 17.2291 0.0000
# 4 0.0000 0.0000 0.0000 34.8535 0.0000 11.4228
# 5 9.0534 5.7505 17.2291 0.0000 29.9730 0.0000
# 6 0.0000 0.0000 0.0000 11.4228 0.0000 31.2432
#
#
#
# Elastic Compliance Matrix: (Units=1/GPa)
#
#
# Indices 1 2 3 4 5 6 
#
# 1 0.016668 -0.001689 -0.001706 0.000000 -0.003730 0.000000
# 2 -0.001689 0.011065 -0.004285 0.000000 0.000850 0.000000
# 3 -0.001706 -0.004285 0.017994 0.000000 -0.009006 0.000000
# 4 0.000000 0.000000 0.000000 0.032597 0.000000 -0.011918
# 5 -0.003730 0.000850 -0.009006 0.000000 0.039504 0.000000
# 6 0.000000 0.000000 0.000000 -0.011918 0.000000 0.036364
#
#
# Mechanical properties :
#
#
# Convention : Reuss Voigt Hill
#
# Bulk Modulus (GPa) = 32.92835 39.59263 36.26049
# Shear Modulus (GPa) = 27.82836 31.41100 29.61968
#
# Velocity S-wave (km/s) = 3.60598 3.83108 3.72023
# Velocity P-wave (km/s) = 5.72046 6.17006 5.94951
#
# Compressibility (1/GPa) = 0.03036897
#
# Stress axis : x y z
#
# Youngs Moduli (GPa) = 59.99633 90.37268 55.57501
#
# Poissons Ratio (x) = 0.15261 0.09479
# Poissons Ratio (y) = 0.10131 0.23812
# Poissons Ratio (z) = 0.10233 0.38722
#
# Static dielectric constant tensor:
#      x y z
#    x 3.649630 0.000000 0.296300 
#    y 0.000000 4.395160 0.000000 
#    z 0.296300 0.000000 3.873800 
# 
# 
# High freq. dielectric constant tensor:
#      x y z
#    x 1.819420 0.000000 0.031820 
#    y 0.000000 1.866290 0.000000 
#    z 0.031820 0.000000 1.841520 
# 
# From -- ./inp_files/15054.got.cif
#   From: 2010.06.25/outbox.cif.g09.slc.cpg/sg9_8_cif.got.tgz:15054.got - 2010.06.27 21:40:51.
