data_PCOD8054871
_publ_section_title
;
Structure prediction by ZEFSAII (Michael W. Deem and Ramdas Pophale) SiO2 
 PCOD8054871
Probable space group: C C
;
_chemical_formula_sum "Si O2"
_cell_formula_units_Z 28
_cell_length_a 6.959562
_cell_length_b 30.728722
_cell_length_c 5.232349
_cell_angle_alpha 90.000000
_cell_angle_beta 85.183018
_cell_angle_gamma 90.000000
_cell_volume 1115.029797
_symmetry_space_group_name_H-M "C C"
_symmetry_group_IT_number 9
_symmetry_cell_setting 'monoclinic'
loop_
_space_group_symop_operation_xyz
x,y,z
x,-y,1/2+z
1/2+x,1/2+y,z
1/2+x,1/2-y,1/2+z
loop_
_atom_site_type_symbol
_atom_site_label
_atom_site_fract_x
_atom_site_fract_y
_atom_site_fract_z
Si Si1 0.683470 0.270740 0.165770
Si Si2 0.520870 0.514631 0.298726
Si Si3 0.956367 0.891892 0.658979
Si Si4 0.421428 0.653998 0.671452
Si Si5 0.903296 0.299311 0.638560
Si Si6 0.073837 0.384405 0.452734
Si Si7 0.941725 0.477729 0.319396
O O1 0.477214 0.295885 0.210303
O O2 0.797240 0.275463 0.416864
O O3 0.621966 0.220390 0.131697
O O4 0.801997 0.290706 0.919257
O O5 0.404921 0.510104 0.582037
O O6 0.565136 0.564201 0.224976
O O7 0.713860 0.487956 0.351794
O O8 0.037013 0.873275 0.380639
O O9 0.725557 0.900830 0.652150
O O10 0.994988 0.858130 0.881715
O O11 0.192818 0.643958 0.726397
O O12 0.916711 0.351520 0.592761
O O13 0.971337 0.425801 0.335910
O O14 0.035936 0.503136 0.550060
#
# Coordination Sequence:
#
# PCOD8054871 Si02
#       7
#     4   4   4   4   4   4   4
#     4  12  27  47  76 112 147 194 242 292 372 428
#     4  10  21  39  62  95 132 184 237 297 350 428
#     4  10  23  40  69  96 140 186 235 299 360 427
#     4  10  24  44  71 100 143 183 243 291 368 430
#     4  12  28  46  79 107 154 190 243 301 358 447
#     4  10  27  45  72 102 149 184 247 298 376 414
#     4  10  24  41  65  94 141 183 239 300 358 424
#
# _framework density 25.111435
#
# number of rings (size 3 to 8) (size 9 to 14) (size 15 to 20)
#    0.857    0.571    0.000    3.429    6.000    8.000 
#    0.000    0.000    0.000    0.000    0.000    0.000 
#    0.000    0.000    0.000    0.000    0.000    0.000 
#
# Total GULP energy -173488.869345 kJ/mol
# GULP energy per Si atom -12392.062096 kJ/mol
# Density = 2.505428 g / cm^3
# Si number density = 25.111435 Si / 1000 Ang^3
#
#
#
# Elastic Constant Matrix: (Units=GPa)
#
#
# Indices 1 2 3 4 5 6 
#
# 1 61.2450 15.4306 5.2093 0.0000 7.6993 0.0000
# 2 15.4306 106.0067 11.5256 0.0000 11.7703 0.0000
# 3 5.2093 11.5256 176.1117 0.0000 19.6589 0.0000
# 4 0.0000 0.0000 0.0000 37.5448 0.0000 4.7670
# 5 7.6993 11.7703 19.6589 0.0000 23.4467 0.0000
# 6 0.0000 0.0000 0.0000 4.7670 0.0000 40.1814
#
#
#
# Elastic Compliance Matrix: (Units=1/GPa)
#
#
# Indices 1 2 3 4 5 6 
#
# 1 0.017431 -0.002017 0.000157 0.000000 -0.004843 0.000000
# 2 -0.002017 0.010225 -0.000122 0.000000 -0.004369 0.000000
# 3 0.000157 -0.000122 0.006267 0.000000 -0.005245 0.000000
# 4 0.000000 0.000000 0.000000 0.027042 0.000000 -0.003208
# 5 -0.004843 -0.004369 -0.005245 0.000000 0.050831 0.000000
# 6 0.000000 0.000000 0.000000 -0.003208 0.000000 0.025268
#
#
# Mechanical properties :
#
#
# Convention : Reuss Voigt Hill
#
# Bulk Modulus (GPa) = 33.37709 45.29940 39.33825
# Shear Modulus (GPa) = 33.10935 40.98109 37.04522
#
# Velocity S-wave (km/s) = 3.63505 4.04415 3.84504
# Velocity P-wave (km/s) = 5.56224 6.31548 5.95079
#
# Compressibility (1/GPa) = 0.02996067
#
# Stress axis : x y z
#
# Youngs Moduli (GPa) = 57.36750 97.79720 159.56523
#
# Poissons Ratio (x) = 0.19723 -0.02505
# Poissons Ratio (y) = 0.11569 0.01945
# Poissons Ratio (z) = -0.00901 0.01192
#
# Static dielectric constant tensor:
#      x y z
#    x 4.168610 0.000000 0.007750 
#    y 0.000000 4.347030 0.000000 
#    z 0.007750 0.000000 5.155290 
# 
# 
# High freq. dielectric constant tensor:
#      x y z
#    x 1.978510 0.000000 0.005670 
#    y 0.000000 2.000470 0.000000 
#    z 0.005670 0.000000 2.020210 
# 
# From -- ./inp_files/1155.got.cif
#   From: 2010.06.25/outbox.cif.g09.slc.cpg/sg9_1_cif.got.tgz:1155.got - 2010.06.27 21:40:51.
