data_PCOD8054081
_publ_section_title
;
Structure prediction by ZEFSAII (Michael W. Deem and Ramdas Pophale) SiO2 
 PCOD8054081
Probable space group: C M
;
_chemical_formula_sum "Si O2"
_cell_formula_units_Z 24
_cell_length_a 7.495051
_cell_length_b 17.722872
_cell_length_c 9.571609
_cell_angle_alpha 90.000000
_cell_angle_beta 90.039351
_cell_angle_gamma 90.000000
_cell_volume 1271.433178
_symmetry_space_group_name_H-M "C M"
_symmetry_group_IT_number 8
_symmetry_cell_setting 'monoclinic'
loop_
_space_group_symop_operation_xyz
x,y,z
x,-y,z
1/2+x,1/2+y,z
1/2+x,1/2-y,z
loop_
_atom_site_type_symbol
_atom_site_label
_atom_site_fract_x
_atom_site_fract_y
_atom_site_fract_z
Si Si1 0.313410 0.662490 0.966160
Si Si2 0.400152 0.837184 0.966481
Si Si3 0.105786 0.910798 0.465491
Si Si4 0.402202 0.087817 0.676714
Si Si5 0.106941 0.089524 0.152367
Si Si6 0.809381 0.912198 0.676194
O O1 0.357610 0.749758 0.976819
O O2 0.365928 0.634173 0.812548
O O3 0.106779 0.646143 0.998363
O O4 0.427723 0.617567 0.078898
O O5 0.346478 0.865769 0.813200
O O6 0.285801 0.881509 0.079837
O O7 0.281202 0.883287 0.548813
O O8 0.106093 0.877036 0.309845
O O9 0.929812 0.883363 0.548015
O O10 0.105978 0.000000 0.454527
O O11 0.605675 0.103253 0.633592
O O12 0.368326 0.000000 0.709903
O O13 0.108463 0.000000 0.150676
O O14 0.843419 0.000000 0.709311
#
# Coordination Sequence:
#
# PCOD8054081 Si02
#       6
#     4   4   4   4   4   4
#     4  11  22  38  61  85 121 156 196 245 295 342
#     4  11  22  38  61  85 121 156 196 245 295 342
#     4   9  19  35  57  85 117 149 188 239 290 344
#     4   9  18  34  58  86 112 145 194 244 289 341
#     4  11  23  39  61  89 120 159 198 237 291 354
#     4   9  18  34  58  86 112 145 194 244 289 341
#
# _framework density 18.876335999999998
#
# number of rings (size 3 to 8) (size 9 to 14) (size 15 to 20)
#    0.000    2.000    1.667    2.000    0.000    4.667 
#    0.000    5.000    0.000    0.000    0.000    0.000 
#    0.000    0.000    0.000    0.000    0.000    0.000 
#
# Total GULP energy -148831.390456 kJ/mol
# GULP energy per Si atom -12402.615871 kJ/mol
# Density = 1.883337 g / cm^3
# Si number density = 18.876336 Si / 1000 Ang^3
#
#
#
# Elastic Constant Matrix: (Units=GPa)
#
#
# Indices 1 2 3 4 5 6 
#
# 1 137.2235 32.5240 98.8859 0.0000 -17.4152 0.0000
# 2 32.5240 71.8122 47.3996 0.0000 -16.0990 0.0000
# 3 98.8859 47.3996 173.9941 0.0000 -21.4646 0.0000
# 4 0.0000 0.0000 0.0000 -0.7533 0.0000 -0.2450
# 5 -17.4152 -16.0990 -21.4646 0.0000 -177.0669 0.0000
# 6 0.0000 0.0000 0.0000 -0.2450 0.0000 21.2937
#
#
#
# Elastic Compliance Matrix: (Units=1/GPa)
#
#
# Indices 1 2 3 4 5 6 
#
# 1 0.012408 -0.001227 -0.006753 0.000000 -0.000290 0.000000
# 2 -0.001227 0.016933 -0.004030 0.000000 -0.000930 0.000000
# 3 -0.006753 -0.004030 0.010651 0.000000 -0.000261 0.000000
# 4 0.000000 0.000000 0.000000 -1.322559 0.000000 -0.015215
# 5 -0.000290 -0.000930 -0.000261 0.000000 -0.005503 0.000000
# 6 0.000000 0.000000 0.000000 -0.015215 0.000000 0.046787
#
#
# Mechanical properties :
#
#
# Convention : Reuss Voigt Hill
#
# Bulk Modulus (GPa) = 62.61532 82.29431 72.45482
# Shear Modulus (GPa) = -4.12562 -17.69061 -10.90812
#
# Velocity S-wave (km/s) = -1.47998 -3.06467 -2.40651
# Velocity P-wave (km/s) = 5.50662 5.58285 5.54487
#
# Compressibility (1/GPa) = 0.01597053
#
# Stress axis : x y z
#
# Youngs Moduli (GPa) = 80.59337 59.05798 93.88650
#
# Poissons Ratio (x) = 0.07247 0.63404
# Poissons Ratio (y) = 0.09890 0.37837
# Poissons Ratio (z) = 0.54427 0.23801
#
# Static dielectric constant tensor:
#      x y z
#    x 4.943050 0.000000 -0.019700 
#    y 0.000000 3.321870 0.000000 
#    z -0.019700 0.000000 3.628000 
# 
# 
# High freq. dielectric constant tensor:
#      x y z
#    x 1.751050 0.000000 -0.000160 
#    y 0.000000 1.718590 0.000000 
#    z -0.000160 0.000000 1.731250 
# 
# From -- ./inp_files/8152.got.cif
#   From: 2010.03.12/outbox.cif.g09.slc.cpg/sg8_5_cif.got.tgz:8152.got - 2010.03.31 10:45:26.
