data_PCOD8054553
_publ_section_title
;
Structure prediction by ZEFSAII (Michael W. Deem and Ramdas Pophale) SiO2 
 PCOD8054553
Probable space group: C C
;
_chemical_formula_sum "Si O2"
_cell_formula_units_Z 32
_cell_length_a 8.949504
_cell_length_b 11.248814
_cell_length_c 23.688902
_cell_angle_alpha 90.000000
_cell_angle_beta 147.902222
_cell_angle_gamma 90.000000
_cell_volume 1267.197106
_symmetry_space_group_name_H-M "C C"
_symmetry_group_IT_number 9
_symmetry_cell_setting 'monoclinic'
loop_
_space_group_symop_operation_xyz
x,y,z
x,-y,1/2+z
1/2+x,1/2+y,z
1/2+x,1/2-y,1/2+z
loop_
_atom_site_type_symbol
_atom_site_label
_atom_site_fract_x
_atom_site_fract_y
_atom_site_fract_z
Si Si1 0.648060 0.934910 0.231340
Si Si2 0.645534 0.391006 0.539731
Si Si3 0.665014 0.830176 0.512090
Si Si4 0.072045 0.506447 0.389307
Si Si5 0.303190 0.737808 0.494759
Si Si6 0.854519 0.163054 0.336864
Si Si7 0.760155 0.269204 0.685338
Si Si8 0.804214 0.346486 0.221389
O O1 0.403317 0.019895 0.130021
O O2 0.889096 0.023139 0.333562
O O3 0.775279 0.860582 0.219465
O O4 0.529594 0.848320 0.242383
O O5 0.366003 0.465355 0.457423
O O6 0.630221 0.336778 0.472562
O O7 0.671945 0.277853 0.590820
O O8 0.534684 0.944697 0.438521
O O9 0.501318 0.812778 0.517312
O O10 0.614968 0.711962 0.456852
O O11 0.000479 0.841391 0.631971
O O12 0.071679 0.650076 0.392519
O O13 0.828742 0.465265 0.268071
O O14 0.492968 0.654466 0.595834
O O15 0.574700 0.176416 0.287435
O O16 0.844744 0.232131 0.274008
#
# Coordination Sequence:
#
# PCOD8054553 Si02
#       8
#     4   4   4   4   4   4   4   4
#     4  11  20  37  64  85 120 167 202 256 308 360
#     4  10  22  39  60  87 125 159 202 257 303 364
#     4  10  22  41  64  92 128 161 207 261 310 366
#     4  10  23  41  62  91 125 162 200 263 308 363
#     4  12  21  42  63  91 122 165 209 247 313 375
#     4  10  23  43  61  93 129 158 207 265 305 370
#     4  10  20  37  63  89 119 165 206 245 315 369
#     4  11  21  40  65  90 124 161 211 250 310 375
#
# _framework density 25.252582
#
# number of rings (size 3 to 8) (size 9 to 14) (size 15 to 20)
#    0.000    1.500    5.000    0.750    0.000    2.000 
#    0.000   10.000    0.000    0.000    0.000    0.000 
#    0.000    0.000    0.000    0.000    0.000    0.000 
#
# Total GULP energy -198270.194817 kJ/mol
# GULP energy per Si atom -12391.887176 kJ/mol
# Density = 2.519511 g / cm^3
# Si number density = 25.252582 Si / 1000 Ang^3
#
#
#
# Elastic Constant Matrix: (Units=GPa)
#
#
# Indices 1 2 3 4 5 6 
#
# 1 107.7722 61.9458 3.2259 0.0000 -17.1429 0.0000
# 2 61.9458 88.9606 8.7548 0.0000 -7.8662 0.0000
# 3 3.2259 8.7548 39.6482 0.0002 3.1833 0.0001
# 4 0.0000 0.0000 0.0002 34.2448 0.0001 -3.4330
# 5 -17.1429 -7.8662 3.1833 0.0001 26.6827 0.0000
# 6 0.0000 0.0000 0.0001 -3.4330 0.0000 36.0196
#
#
#
# Elastic Compliance Matrix: (Units=1/GPa)
#
#
# Indices 1 2 3 4 5 6 
#
# 1 0.016844 -0.011114 0.000483 0.000000 0.007487 0.000000
# 2 -0.011114 0.019203 -0.003248 0.000000 -0.001092 0.000000
# 3 0.000483 -0.003248 0.026203 0.000000 -0.003774 0.000000
# 4 0.000000 0.000000 0.000000 0.029483 0.000000 0.002810
# 5 0.007487 -0.001092 -0.003774 0.000000 0.042416 0.000000
# 6 0.000000 0.000000 0.000000 0.002810 0.000000 0.028031
#
#
# Mechanical properties :
#
#
# Convention : Reuss Voigt Hill
#
# Bulk Modulus (GPa) = 28.99416 42.69265 35.84340
# Shear Modulus (GPa) = 24.82179 30.21972 27.52076
#
# Velocity S-wave (km/s) = 3.13859 3.46309 3.30482
# Velocity P-wave (km/s) = 4.96396 5.73878 5.36537
#
# Compressibility (1/GPa) = 0.03448970
#
# Stress axis : x y z
#
# Youngs Moduli (GPa) = 59.36973 52.07486 38.16387
#
# Poissons Ratio (x) = 0.57876 -0.01841
# Poissons Ratio (y) = 0.65984 0.12397
# Poissons Ratio (z) = -0.02865 0.16916
#
# Static dielectric constant tensor:
#      x y z
#    x 4.644070 0.000000 -0.169740 
#    y 0.000000 4.448500 0.000000 
#    z -0.169740 0.000000 4.938330 
# 
# 
# High freq. dielectric constant tensor:
#      x y z
#    x 2.002740 0.000000 -0.015540 
#    y 0.000000 1.990250 0.000000 
#    z -0.015540 0.000000 2.014800 
# 
# From -- ./inp_files/29255.got.cif
#   From: 2010.06.25/outbox.cif.g09.slc.cpg/sg9_15_cif.got.tgz:29255.got - 2010.06.27 21:40:51.
