data_PCOD8054296
_publ_section_title
;
Structure prediction by ZEFSAII (Michael W. Deem and Ramdas Pophale) SiO2 
 PCOD8054296
Probable space group: C C
;
_chemical_formula_sum "Si O2"
_cell_formula_units_Z 32
_cell_length_a 10.561875
_cell_length_b 14.127426
_cell_length_c 15.624111
_cell_angle_alpha 90.000000
_cell_angle_beta 36.733007
_cell_angle_gamma 90.000000
_cell_volume 1394.323978
_symmetry_space_group_name_H-M "C C"
_symmetry_group_IT_number 9
_symmetry_cell_setting 'monoclinic'
loop_
_space_group_symop_operation_xyz
x,y,z
x,-y,1/2+z
1/2+x,1/2+y,z
1/2+x,1/2-y,1/2+z
loop_
_atom_site_type_symbol
_atom_site_label
_atom_site_fract_x
_atom_site_fract_y
_atom_site_fract_z
Si Si1 0.411750 0.042983 0.661090
Si Si2 0.011613 0.837384 0.322070
Si Si3 0.249635 0.331701 0.638404
Si Si4 0.992430 0.817702 0.674030
Si Si5 0.455164 0.211708 0.867463
Si Si6 0.188120 0.549054 0.671695
Si Si7 0.326585 0.488336 0.853857
Si Si8 0.075561 0.898568 0.874608
O O1 0.236039 0.118038 0.729040
O O2 0.555904 0.082620 0.659601
O O3 0.570801 0.022091 0.495717
O O4 0.307245 0.944963 0.751806
O O5 0.046819 0.737623 0.254554
O O6 0.865655 0.823980 0.484759
O O7 0.892466 0.901363 0.315382
O O8 0.401903 0.291188 0.630555
O O9 0.168089 0.437787 0.700372
O O10 0.243182 0.805658 0.535693
O O11 0.903972 0.752762 0.799644
O O12 0.923927 0.927859 0.723575
O O13 0.580610 0.112193 0.803859
O O14 0.596618 0.287908 0.842256
O O15 0.435924 0.580490 0.535041
O O16 0.432940 0.451943 0.882675
#
# Coordination Sequence:
#
# PCOD8054296 Si02
#       8
#     4   4   4   4   4   4   4   4
#     4  10  18  41  69  83 124 173 206 258 330 372
#     4  11  24  41  67  91 131 168 220 258 327 379
#     4  12  24  40  61 100 127 170 211 269 312 390
#     4  11  23  39  65 100 126 163 222 263 330 370
#     4  11  22  40  65  95 130 166 209 280 314 388
#     4  11  21  40  62  93 128 165 217 262 317 386
#     4   9  21  41  63  89 125 171 211 264 313 387
#     4   9  19  38  64  91 121 164 214 250 329 376
#
# _framework density 22.950189000000002
#
# number of rings (size 3 to 8) (size 9 to 14) (size 15 to 20)
#    0.000    1.500    5.000    2.250    5.250    1.000 
#    4.500    2.500    0.000    0.000    0.000    0.000 
#    0.000    0.000    0.000    0.000    0.000    0.000 
#
# Total GULP energy -198291.175232 kJ/mol
# GULP energy per Si atom -12393.198452 kJ/mol
# Density = 2.289795 g / cm^3
# Si number density = 22.950189 Si / 1000 Ang^3
#
#
#
# Elastic Constant Matrix: (Units=GPa)
#
#
# Indices 1 2 3 4 5 6 
#
# 1 18.5694 1.1032 17.1454 -0.0017 5.3761 0.0004
# 2 1.1032 177.2418 71.3511 -0.0050 4.8739 0.0016
# 3 17.1454 71.3511 130.6337 -0.0122 1.0961 0.0032
# 4 -0.0017 -0.0050 -0.0122 43.3442 0.0049 0.7652
# 5 5.3761 4.8739 1.0961 0.0049 18.8336 -0.0011
# 6 0.0004 0.0016 0.0032 0.7652 -0.0011 19.3660
#
#
#
# Elastic Compliance Matrix: (Units=1/GPa)
#
#
# Indices 1 2 3 4 5 6 
#
# 1 0.070351 0.004842 -0.011705 0.000002 -0.020654 -0.000001
# 2 0.004842 0.007617 -0.004770 0.000000 -0.003076 0.000000
# 3 -0.011705 -0.004770 0.011764 0.000002 0.003891 -0.000001
# 4 0.000002 0.000000 0.000002 0.023087 -0.000007 -0.000912
# 5 -0.020654 -0.003076 0.003891 -0.000007 0.059562 0.000004
# 6 -0.000001 0.000000 -0.000001 -0.000912 0.000004 0.051673
#
#
# Mechanical properties :
#
#
# Convention : Reuss Voigt Hill
#
# Bulk Modulus (GPa) = 15.04516 56.18270 35.61393
# Shear Modulus (GPa) = 18.55462 32.09844 25.32653
#
# Velocity S-wave (km/s) = 2.84645 3.74386 3.32557
# Velocity P-wave (km/s) = 4.16807 6.57435 5.50431
#
# Compressibility (1/GPa) = 0.06646656
#
# Stress axis : x y z
#
# Youngs Moduli (GPa) = 14.21435 131.29195 85.00631
#
# Poissons Ratio (x) = -0.63572 0.99499
# Poissons Ratio (y) = -0.06883 0.40547
# Poissons Ratio (z) = 0.16638 0.62624
#
# Static dielectric constant tensor:
#      x y z
#    x 3.720170 0.000000 -0.053820 
#    y 0.000000 4.531520 0.000010 
#    z -0.053820 0.000010 4.325390 
# 
# 
# High freq. dielectric constant tensor:
#      x y z
#    x 1.859750 0.000000 -0.004250 
#    y 0.000000 1.919930 0.000000 
#    z -0.004250 0.000000 1.912680 
# 
# From -- ./inp_files/7490.got.cif
#   From: 2010.06.25/outbox.cif.g09.slc.cpg/sg9_4_cif.got.tgz:7490.got - 2010.06.27 21:40:51.
