data_PCOD8054227
_publ_section_title
;
Structure prediction by ZEFSAII (Michael W. Deem and Ramdas Pophale) SiO2 
 PCOD8054227
Probable space group: C C
;
_chemical_formula_sum "Si O2"
_cell_formula_units_Z 32
_cell_length_a 20.200828
_cell_length_b 10.430019
_cell_length_c 9.187829
_cell_angle_alpha 90.000000
_cell_angle_beta 126.743490
_cell_angle_gamma 90.000000
_cell_volume 1551.222611
_symmetry_space_group_name_H-M "C C"
_symmetry_group_IT_number 9
_symmetry_cell_setting 'monoclinic'
loop_
_space_group_symop_operation_xyz
x,y,z
x,-y,1/2+z
1/2+x,1/2+y,z
1/2+x,1/2-y,1/2+z
loop_
_atom_site_type_symbol
_atom_site_label
_atom_site_fract_x
_atom_site_fract_y
_atom_site_fract_z
Si Si1 0.614550 0.434841 0.174400
Si Si2 0.290513 0.338836 0.231802
Si Si3 0.735803 0.338899 0.879261
Si Si4 0.015433 0.099860 0.826791
Si Si5 0.882690 0.508284 0.989741
Si Si6 0.440058 0.835797 0.832963
Si Si7 0.258372 0.786795 0.223301
Si Si8 0.827312 0.943288 0.995220
O O1 0.665472 0.555833 0.298129
O O2 0.564241 0.376732 0.242227
O O3 0.674662 0.322674 0.199021
O O4 0.552796 0.482164 0.966959
O O5 0.219486 0.249584 0.212775
O O6 0.355808 0.239856 0.251498
O O7 0.321648 0.419756 0.410966
O O8 0.268046 0.428242 0.062480
O O9 0.826907 0.401141 0.993811
O O10 0.733998 0.256483 0.024863
O O11 0.015378 0.233380 0.920116
O O12 0.921438 0.067251 0.667412
O O13 0.933113 0.592239 0.170208
O O14 0.951438 0.439192 0.977114
O O15 0.822025 0.594865 0.811797
O O16 0.301144 0.662407 0.344502
#
# Coordination Sequence:
#
# PCOD8054227 Si02
#       8
#     4   4   4   4   4   4   4   4
#     4  11  24  38  63  93 133 171 215 264 334 396
#     4  10  21  36  60  97 130 160 213 275 322 371
#     4  10  21  35  62  92 123 164 216 270 314 382
#     4  11  22  40  60  94 133 172 210 267 336 392
#     4  10  18  34  60  95 119 153 215 276 314 359
#     4  10  20  36  61  91 127 167 206 271 324 380
#     4  11  20  37  63  96 124 169 223 268 318 383
#     4  11  22  38  65  96 131 170 216 273 324 383
#
# _framework density 20.628890999999999
#
# number of rings (size 3 to 8) (size 9 to 14) (size 15 to 20)
#    0.000    1.500    5.000    2.250    1.750    0.000 
#    0.000    1.250    2.750    0.000    0.000    0.000 
#    0.000    0.000    0.000    0.000    0.000    0.000 
#
# Total GULP energy -198284.304584 kJ/mol
# GULP energy per Si atom -12392.769037 kJ/mol
# Density = 2.058194 g / cm^3
# Si number density = 20.628891 Si / 1000 Ang^3
#
#
#
# Elastic Constant Matrix: (Units=GPa)
#
#
# Indices 1 2 3 4 5 6 
#
# 1 67.8555 17.4349 12.9629 0.0000 -19.3801 0.0000
# 2 17.4349 61.3027 11.4891 0.0000 -5.3363 0.0000
# 3 12.9629 11.4891 61.4874 0.0000 -14.0335 0.0000
# 4 0.0000 0.0000 0.0000 31.5394 0.0000 -20.3786
# 5 -19.3801 -5.3363 -14.0335 0.0000 36.9810 0.0000
# 6 0.0000 0.0000 0.0000 -20.3786 0.0000 40.1320
#
#
#
# Elastic Compliance Matrix: (Units=1/GPa)
#
#
# Indices 1 2 3 4 5 6 
#
# 1 0.018533 -0.004306 -0.001125 0.000000 0.008664 0.000000
# 2 -0.004306 0.017967 -0.002598 0.000000 -0.000650 0.000000
# 3 -0.001125 -0.002598 0.018356 0.000000 0.006001 0.000000
# 4 0.000000 0.000000 0.000000 0.047189 0.000000 0.023962
# 5 0.008664 -0.000650 0.006001 0.000000 0.033765 0.000000
# 6 0.000000 0.000000 0.000000 0.023962 0.000000 0.037085
#
#
# Mechanical properties :
#
#
# Convention : Reuss Voigt Hill
#
# Bulk Modulus (GPa) = 25.77410 30.49105 28.13257
# Shear Modulus (GPa) = 24.76645 31.64772 28.20709
#
# Velocity S-wave (km/s) = 3.46868 3.92107 3.70179
# Velocity P-wave (km/s) = 5.34450 5.94243 5.65138
#
# Compressibility (1/GPa) = 0.03879864
#
# Stress axis : x y z
#
# Youngs Moduli (GPa) = 53.95775 55.65631 54.47873
#
# Poissons Ratio (x) = 0.23965 0.06130
# Poissons Ratio (y) = 0.23233 0.14152
# Poissons Ratio (z) = 0.06071 0.14458
#
# Static dielectric constant tensor:
#      x y z
#    x 3.931400 0.000000 -0.408420 
#    y 0.000000 3.986350 0.000000 
#    z -0.408420 0.000000 3.620670 
# 
# 
# High freq. dielectric constant tensor:
#      x y z
#    x 1.800410 0.000000 -0.037590 
#    y 0.000000 1.807270 0.000000 
#    z -0.037590 0.000000 1.789300 
# 
# From -- ./inp_files/10638.got.cif
#   From: 2010.06.25/outbox.cif.g09.slc.cpg/sg9_6_cif.got.tgz:10638.got - 2010.06.27 21:40:51.
