data_PCOD8054206
_publ_section_title
;
Structure prediction by ZEFSAII (Michael W. Deem and Ramdas Pophale) SiO2 
 PCOD8054206
Probable space group: C C
;
_chemical_formula_sum "Si O2"
_cell_formula_units_Z 32
_cell_length_a 13.949121
_cell_length_b 18.895728
_cell_length_c 14.425710
_cell_angle_alpha 90.000000
_cell_angle_beta 159.856591
_cell_angle_gamma 90.000000
_cell_volume 1309.406048
_symmetry_space_group_name_H-M "C C"
_symmetry_group_IT_number 9
_symmetry_cell_setting 'monoclinic'
loop_
_space_group_symop_operation_xyz
x,y,z
x,-y,1/2+z
1/2+x,1/2+y,z
1/2+x,1/2-y,1/2+z
loop_
_atom_site_type_symbol
_atom_site_label
_atom_site_fract_x
_atom_site_fract_y
_atom_site_fract_z
Si Si1 0.138240 0.962742 0.590610
Si Si2 0.091895 0.048229 0.725602
Si Si3 0.137588 0.200967 0.716318
Si Si4 0.603905 0.872199 0.085310
Si Si5 0.012939 0.453614 0.759798
Si Si6 0.486493 0.203511 0.657214
Si Si7 0.432966 0.204832 0.806735
Si Si8 0.137259 0.295787 0.932268
O O1 0.337009 0.985762 0.685472
O O2 0.858092 0.926700 0.295168
O O3 0.079930 0.028608 0.605709
O O4 0.304597 0.908455 0.806046
O O5 0.082534 0.133355 0.730353
O O6 0.823211 0.014310 0.533820
O O7 0.365496 0.024128 0.029406
O O8 0.272056 0.166121 0.744416
O O9 0.835616 0.236547 0.432163
O O10 0.634446 0.847274 0.218361
O O11 0.598219 0.806773 0.007886
O O12 0.053955 0.369152 0.808163
O O13 0.683551 0.271945 0.848436
O O14 0.448739 0.163096 0.722623
O O15 0.247573 0.276192 0.621696
O O16 0.954356 0.233909 0.716442
#
# Coordination Sequence:
#
# PCOD8054206 Si02
#       8
#     4   4   4   4   4   4   4   4
#     4  11  25  46  64  90 132 173 221 279 323 377
#     4  12  25  45  70  95 126 177 219 270 336 392
#     4  10  21  39  63  93 127 159 203 264 330 393
#     4  11  21  38  62  90 133 175 219 273 315 386
#     4  11  25  44  68  94 134 169 220 280 322 390
#     4  10  18  31  56  87 125 166 212 260 318 380
#     4   8  16  31  51  78 119 157 190 251 309 364
#     4  11  21  36  62  99 136 174 210 261 339 404
#
# _framework density 24.438561
#
# number of rings (size 3 to 8) (size 9 to 14) (size 15 to 20)
#    0.000    1.500    0.000    6.750    0.000    3.000 
#    4.500    0.000    0.000    0.000    0.000    0.000 
#    0.000    0.000    0.000    0.000    0.000    0.000 
#
# Total GULP energy -198256.167939 kJ/mol
# GULP energy per Si atom -12391.010496 kJ/mol
# Density = 2.438294 g / cm^3
# Si number density = 24.438561 Si / 1000 Ang^3
#
#
#
# Elastic Constant Matrix: (Units=GPa)
#
#
# Indices 1 2 3 4 5 6 
#
# 1 104.8363 6.8817 22.3758 -0.0050 8.1477 -0.0012
# 2 6.8817 31.0391 14.2196 -0.0053 0.3959 -0.0031
# 3 22.3758 14.2196 128.6680 -0.0241 7.3539 -0.0140
# 4 -0.0050 -0.0053 -0.0241 25.8092 -0.0046 -5.1151
# 5 8.1477 0.3959 7.3539 -0.0046 45.3927 -0.0013
# 6 -0.0012 -0.0031 -0.0140 -5.1151 -0.0013 36.0926
#
#
#
# Elastic Compliance Matrix: (Units=1/GPa)
#
#
# Indices 1 2 3 4 5 6 
#
# 1 0.010079 -0.001530 -0.001495 0.000000 -0.001554 0.000000
# 2 -0.001530 0.034172 -0.003542 0.000004 0.000550 0.000002
# 3 -0.001495 -0.003542 0.008485 0.000008 -0.001075 0.000004
# 4 0.000000 0.000004 0.000008 0.039866 0.000003 0.005650
# 5 -0.001554 0.000550 -0.001075 0.000003 0.022478 0.000001
# 6 0.000000 0.000002 0.000004 0.005650 0.000001 0.028507
#
#
# Mechanical properties :
#
#
# Convention : Reuss Voigt Hill
#
# Bulk Modulus (GPa) = 25.25092 39.05527 32.15309
# Shear Modulus (GPa) = 29.42538 36.19666 32.81102
#
# Velocity S-wave (km/s) = 3.47371 3.85272 3.66811
# Velocity P-wave (km/s) = 5.14235 5.98389 5.57901
#
# Compressibility (1/GPa) = 0.03960252
#
# Stress axis : x y z
#
# Youngs Moduli (GPa) = 99.21704 29.26349 117.85784
#
# Poissons Ratio (x) = 0.04477 0.17618
# Poissons Ratio (y) = 0.15180 0.41744
# Poissons Ratio (z) = 0.14832 0.10365
#
# Static dielectric constant tensor:
#      x y z
#    x 4.967720 -0.000010 -0.012820 
#    y -0.000010 3.694040 -0.000020 
#    z -0.012820 -0.000020 4.502430 
# 
# 
# High freq. dielectric constant tensor:
#      x y z
#    x 2.004150 0.000000 0.002570 
#    y 0.000000 1.909470 0.000000 
#    z 0.002570 0.000000 1.989370 
# 
# From -- ./inp_files/2539.got.cif
#   From: 2010.06.25/outbox.cif.g09.slc.cpg/sg9_2_cif.got.tgz:2539.got - 2010.06.27 21:40:51.
