data_PCOD8054457
_publ_section_title
;
Structure prediction by ZEFSAII (Michael W. Deem and Ramdas Pophale) SiO2 
 PCOD8054457
Probable space group: C C
;
_chemical_formula_sum "Si O2"
_cell_formula_units_Z 32
_cell_length_a 27.583517
_cell_length_b 6.728707
_cell_length_c 9.077504
_cell_angle_alpha 90.000000
_cell_angle_beta 122.715269
_cell_angle_gamma 90.000000
_cell_volume 1417.532638
_symmetry_space_group_name_H-M "C C"
_symmetry_group_IT_number 9
_symmetry_cell_setting 'monoclinic'
loop_
_space_group_symop_operation_xyz
x,y,z
x,-y,1/2+z
1/2+x,1/2+y,z
1/2+x,1/2-y,1/2+z
loop_
_atom_site_type_symbol
_atom_site_label
_atom_site_fract_x
_atom_site_fract_y
_atom_site_fract_z
Si Si1 0.758260 0.081712 0.727480
Si Si2 0.925260 0.363215 0.673997
Si Si3 0.366140 0.755895 0.025001
Si Si4 0.370102 0.471152 0.261610
Si Si5 0.096127 0.264831 0.237602
Si Si6 0.589154 0.623103 0.549518
Si Si7 0.683911 0.105146 0.340792
Si Si8 0.500518 0.913534 0.532272
O O1 0.707870 0.172371 0.540941
O O2 0.802088 0.991351 0.677694
O O3 0.732828 0.915381 0.795307
O O4 0.796631 0.240090 0.885241
O O5 0.882548 0.519319 0.525863
O O6 0.971135 0.303401 0.623862
O O7 0.955859 0.463420 0.862255
O O8 0.883876 0.183902 0.652869
O O9 0.389139 0.683806 0.224769
O O10 0.398944 0.610800 0.958918
O O11 0.100934 0.138898 0.395370
O O12 0.154700 0.386579 0.303720
O O13 0.084493 0.109254 0.085661
O O14 0.045764 0.426308 0.168439
O O15 0.640613 0.721920 0.725225
O O16 0.529762 0.737382 0.487424
#
# Coordination Sequence:
#
# PCOD8054457 Si02
#       8
#     4   4   4   4   4   4   4   4
#     4  10  19  44  64  92 128 181 212 263 330 376
#     4  12  24  45  64  99 129 178 219 274 333 390
#     4  10  23  41  63  95 129 171 225 268 320 393
#     4  10  23  41  63  94 130 171 222 270 320 390
#     4  11  26  43  67 104 128 170 228 270 331 413
#     4  11  26  43  68 102 130 171 222 277 328 410
#     4  11  22  44  69  92 140 174 216 270 339 393
#     4  11  25  45  68  90 138 174 214 276 341 391
#
# _framework density 22.574435999999999
#
# number of rings (size 3 to 8) (size 9 to 14) (size 15 to 20)
#    0.750    0.500    5.000    0.000    5.250    2.000 
#    2.250    2.500    0.000    0.000    0.000    0.000 
#    0.000    0.000    0.000    0.000    0.000    0.000 
#
# Total GULP energy -198215.398821 kJ/mol
# GULP energy per Si atom -12388.462426 kJ/mol
# Density = 2.252306 g / cm^3
# Si number density = 22.574436 Si / 1000 Ang^3
#
#
#
# Elastic Constant Matrix: (Units=GPa)
#
#
# Indices 1 2 3 4 5 6 
#
# 1 105.9191 31.7315 11.2885 0.0000 -21.5729 0.0000
# 2 31.7315 69.0267 2.3263 0.0000 -6.6041 0.0000
# 3 11.2885 2.3263 71.3163 0.0000 -8.1665 0.0000
# 4 0.0000 0.0000 0.0000 30.7442 0.0000 -8.1580
# 5 -21.5729 -6.6041 -8.1665 0.0000 30.3709 0.0000
# 6 0.0000 0.0000 0.0000 -8.1580 0.0000 21.7436
#
#
#
# Elastic Compliance Matrix: (Units=1/GPa)
#
#
# Indices 1 2 3 4 5 6 
#
# 1 0.012598 -0.005032 -0.000960 0.000000 0.007596 0.000000
# 2 -0.005032 0.016806 0.000266 0.000000 0.000151 0.000000
# 3 -0.000960 0.000266 0.014542 0.000000 0.003286 0.000000
# 4 0.000000 0.000000 0.000000 0.036123 0.000000 0.013553
# 5 0.007596 0.000151 0.003286 0.000000 0.039238 0.000000
# 6 0.000000 0.000000 0.000000 0.013553 0.000000 0.051075
#
#
# Mechanical properties :
#
#
# Convention : Reuss Voigt Hill
#
# Bulk Modulus (GPa) = 30.77641 37.43939 34.10790
# Shear Modulus (GPa) = 25.95156 29.96614 27.95885
#
# Velocity S-wave (km/s) = 3.39425 3.64735 3.52308
# Velocity P-wave (km/s) = 5.38741 5.86161 5.62950
#
# Compressibility (1/GPa) = 0.03249242
#
# Stress axis : x y z
#
# Youngs Moduli (GPa) = 79.37618 59.50257 68.76808
#
# Poissons Ratio (x) = 0.29943 0.06603
# Poissons Ratio (y) = 0.39944 -0.01827
# Poissons Ratio (z) = 0.07621 -0.01581
#
# Static dielectric constant tensor:
#      x y z
#    x 4.184700 0.000000 -0.096380 
#    y 0.000000 3.730330 0.000000 
#    z -0.096380 0.000000 4.041790 
# 
# 
# High freq. dielectric constant tensor:
#      x y z
#    x 1.894500 0.000000 -0.013270 
#    y 0.000000 1.862990 0.000000 
#    z -0.013270 0.000000 1.902400 
# 
# From -- ./inp_files/12598.got.cif
#   From: 2010.06.25/outbox.cif.g09.slc.cpg/sg9_7_cif.got.tgz:12598.got - 2010.06.27 21:40:51.
