data_PCOD8054558
_publ_section_title
;
Structure prediction by ZEFSAII (Michael W. Deem and Ramdas Pophale) SiO2 
 PCOD8054558
Probable space group: C C
;
_chemical_formula_sum "Si O2"
_cell_formula_units_Z 32
_cell_length_a 21.402463
_cell_length_b 9.865936
_cell_length_c 8.375811
_cell_angle_alpha 90.000000
_cell_angle_beta 121.391681
_cell_angle_gamma 90.000000
_cell_volume 1509.721271
_symmetry_space_group_name_H-M "C C"
_symmetry_group_IT_number 9
_symmetry_cell_setting 'monoclinic'
loop_
_space_group_symop_operation_xyz
x,y,z
x,-y,1/2+z
1/2+x,1/2+y,z
1/2+x,1/2-y,1/2+z
loop_
_atom_site_type_symbol
_atom_site_label
_atom_site_fract_x
_atom_site_fract_y
_atom_site_fract_z
Si Si1 0.001890 0.855841 0.646450
Si Si2 0.689901 0.798220 0.718170
Si Si3 0.853498 0.799664 0.932734
Si Si4 0.358954 0.431269 0.280110
Si Si5 0.693249 0.068485 0.563391
Si Si6 0.051441 0.399292 0.052355
Si Si7 0.991887 0.344921 0.642205
Si Si8 0.558598 0.607777 0.560660
O O1 0.030929 0.703374 0.665255
O O2 0.918266 0.862954 0.475338
O O3 0.057503 0.954174 0.622777
O O4 0.005251 0.888273 0.837536
O O5 0.639141 0.666083 0.627017
O O6 0.681693 0.904559 0.560218
O O7 0.771975 0.740132 0.831521
O O8 0.673665 0.882424 0.859466
O O9 0.872990 0.885708 0.118093
O O10 0.905907 0.668675 0.982646
O O11 0.864771 0.905076 0.801694
O O12 0.275888 0.390298 0.224289
O O13 0.634413 0.131725 0.607181
O O14 0.037701 0.551361 0.095114
O O15 0.995955 0.380649 0.832316
O O16 0.025369 0.196410 0.659306
#
# Coordination Sequence:
#
# PCOD8054558 Si02
#       8
#     4   4   4   4   4   4   4   4
#     4  12  25  40  63  95 126 165 211 257 320 377
#     4  10  22  39  64  93 128 164 210 262 319 376
#     4  10  21  40  63  94 127 167 207 262 317 376
#     4  10  20  38  63  93 122 160 211 257 308 375
#     4  10  20  37  64  92 123 160 208 258 310 371
#     4  12  23  40  62  96 128 165 211 258 320 376
#     4  12  23  41  63  91 128 163 211 262 313 378
#     4  12  24  41  62  92 126 162 211 264 313 377
#
# _framework density 21.195965000000001
#
# number of rings (size 3 to 8) (size 9 to 14) (size 15 to 20)
#    0.000    1.000    5.000    2.250    1.750    0.000 
#    0.000    2.500    0.000    0.000    0.000    0.000 
#    0.000    0.000    0.000    0.000    0.000    0.000 
#
# Total GULP energy -198356.326293 kJ/mol
# GULP energy per Si atom -12397.270393 kJ/mol
# Density = 2.114772 g / cm^3
# Si number density = 21.195965 Si / 1000 Ang^3
#
#
#
# Elastic Constant Matrix: (Units=GPa)
#
#
# Indices 1 2 3 4 5 6 
#
# 1 103.7856 34.3298 16.6865 0.0000 21.8241 0.0000
# 2 34.3298 62.8385 21.7348 0.0000 10.4335 0.0000
# 3 16.6865 21.7348 76.4174 0.0000 10.4763 0.0000
# 4 0.0000 0.0000 0.0000 28.5961 0.0000 5.9885
# 5 21.8241 10.4335 10.4763 0.0000 38.7800 0.0000
# 6 0.0000 0.0000 0.0000 5.9885 0.0000 34.4625
#
#
#
# Elastic Compliance Matrix: (Units=1/GPa)
#
#
# Indices 1 2 3 4 5 6 
#
# 1 0.012826 -0.005971 -0.000346 0.000000 -0.005518 0.000000
# 2 -0.005971 0.020906 -0.004498 0.000000 -0.001049 0.000000
# 3 -0.000346 -0.004498 0.014796 0.000000 -0.002592 0.000000
# 4 0.000000 0.000000 0.000000 0.036290 0.000000 -0.006306
# 5 -0.005518 -0.001049 -0.002592 0.000000 0.029875 0.000000
# 6 0.000000 0.000000 0.000000 -0.006306 0.000000 0.030113
#
#
# Mechanical properties :
#
#
# Convention : Reuss Voigt Hill
#
# Bulk Modulus (GPa) = 37.17814 43.17152 40.17483
# Shear Modulus (GPa) = 28.50558 31.72041 30.11299
#
# Velocity S-wave (km/s) = 3.67121 3.87270 3.77330
# Velocity P-wave (km/s) = 5.96227 6.35681 6.16270
#
# Compressibility (1/GPa) = 0.02689752
#
# Stress axis : x y z
#
# Youngs Moduli (GPa) = 77.96374 47.83267 67.58406
#
# Poissons Ratio (x) = 0.28563 0.02337
# Poissons Ratio (y) = 0.46556 0.30402
# Poissons Ratio (z) = 0.02696 0.21517
#
# Static dielectric constant tensor:
#      x y z
#    x 4.060090 0.000000 0.193790 
#    y 0.000000 3.664740 0.000000 
#    z 0.193790 0.000000 3.923550 
# 
# 
# High freq. dielectric constant tensor:
#      x y z
#    x 1.843640 0.000000 0.007080 
#    y 0.000000 1.798640 0.000000 
#    z 0.007080 0.000000 1.835960 
# 
# From -- ./inp_files/11336.got.cif
#   From: 2010.06.25/outbox.cif.g09.slc.cpg/sg9_6_cif.got.tgz:11336.got - 2010.06.27 21:40:51.
