data_PCOD8054577
_publ_section_title
;
Structure prediction by ZEFSAII (Michael W. Deem and Ramdas Pophale) SiO2 
 PCOD8054577
Probable space group: C C
;
_chemical_formula_sum "Si O2"
_cell_formula_units_Z 32
_cell_length_a 17.655837
_cell_length_b 9.417041
_cell_length_c 20.767460
_cell_angle_alpha 90.000000
_cell_angle_beta 25.633742
_cell_angle_gamma 90.000000
_cell_volume 1493.789857
_symmetry_space_group_name_H-M "C C"
_symmetry_group_IT_number 9
_symmetry_cell_setting 'monoclinic'
loop_
_space_group_symop_operation_xyz
x,y,z
x,-y,1/2+z
1/2+x,1/2+y,z
1/2+x,1/2-y,1/2+z
loop_
_atom_site_type_symbol
_atom_site_label
_atom_site_fract_x
_atom_site_fract_y
_atom_site_fract_z
Si Si1 0.993470 0.387989 0.472890
Si Si2 0.919644 0.341188 0.953857
Si Si3 0.233013 0.423050 0.627336
Si Si4 0.635369 0.940435 0.069207
Si Si5 0.581721 0.396685 0.127377
Si Si6 0.178884 0.280543 0.215714
Si Si7 0.697056 0.186239 0.936548
Si Si8 0.973429 0.808961 0.750932
O O1 0.972773 0.554653 0.472369
O O2 0.816114 0.329798 0.641160
O O3 0.016473 0.302458 0.388024
O O4 0.155924 0.340177 0.392934
O O5 0.067660 0.342894 0.785959
O O6 0.899617 0.183400 0.999691
O O7 0.732767 0.377423 0.064627
O O8 0.191576 0.463117 0.585955
O O9 0.275455 0.566497 0.633769
O O10 0.788893 0.838071 0.925413
O O11 0.587536 0.056309 0.052463
O O12 0.470654 0.837477 0.211367
O O13 0.405028 0.321454 0.288939
O O14 0.538530 0.563843 0.154747
O O15 0.633733 0.334240 0.017231
O O16 0.116449 0.217110 0.196374
#
# Coordination Sequence:
#
# PCOD8054577 Si02
#       8
#     4   4   4   4   4   4   4   4
#     4  11  23  40  61  88 130 164 202 255 320 375
#     4  11  22  39  61  95 120 162 209 262 304 366
#     4  10  22  35  61  93 123 152 209 266 302 360
#     4  10  22  37  58  89 125 152 209 253 315 361
#     4  11  22  39  63  90 124 161 213 254 310 368
#     4  10  20  38  60  89 121 157 205 251 311 364
#     4  11  24  40  60  92 127 165 203 259 318 377
#     4  10  21  36  62  90 116 159 204 264 296 361
#
# _framework density 21.422021999999998
#
# number of rings (size 3 to 8) (size 9 to 14) (size 15 to 20)
#    0.000    1.500    2.500    3.000    5.250    1.000 
#    0.000    6.250    0.000    0.000    0.000    0.000 
#    0.000    0.000    0.000    0.000    0.000    0.000 
#
# Total GULP energy -198302.095889 kJ/mol
# GULP energy per Si atom -12393.880993 kJ/mol
# Density = 2.137326 g / cm^3
# Si number density = 21.422022 Si / 1000 Ang^3
#
#
#
# Elastic Constant Matrix: (Units=GPa)
#
#
# Indices 1 2 3 4 5 6 
#
# 1 63.9420 21.4725 12.1160 -0.0006 8.6459 -0.0003
# 2 21.4725 105.8094 45.9413 -0.0082 15.7045 -0.0002
# 3 12.1160 45.9413 84.4836 -0.0104 11.2714 -0.0003
# 4 -0.0006 -0.0082 -0.0104 45.9846 0.0004 5.4789
# 5 8.6459 15.7045 11.2714 0.0004 21.2658 0.0009
# 6 -0.0003 -0.0002 -0.0003 5.4789 0.0009 30.6423
#
#
#
# Elastic Compliance Matrix: (Units=1/GPa)
#
#
# Indices 1 2 3 4 5 6 
#
# 1 0.017249 -0.002599 -0.000410 0.000000 -0.004876 0.000000
# 2 -0.002599 0.013517 -0.006227 0.000001 -0.005625 0.000000
# 3 -0.000410 -0.006227 0.015760 0.000003 -0.003588 0.000000
# 4 0.000000 0.000001 0.000003 0.022220 -0.000002 -0.003973
# 5 -0.004876 -0.005625 -0.003588 -0.000002 0.055062 -0.000001
# 6 0.000000 0.000000 0.000000 -0.003973 -0.000001 0.033345
#
#
# Mechanical properties :
#
#
# Convention : Reuss Voigt Hill
#
# Bulk Modulus (GPa) = 35.64487 45.92162 40.78325
# Shear Modulus (GPa) = 27.03048 31.22558 29.12803
#
# Velocity S-wave (km/s) = 3.55605 3.82205 3.69144
# Velocity P-wave (km/s) = 5.79104 6.40004 6.10314
#
# Compressibility (1/GPa) = 0.02805452
#
# Stress axis : x y z
#
# Youngs Moduli (GPa) = 57.97475 73.98091 63.45004
#
# Poissons Ratio (x) = 0.19225 0.02601
# Poissons Ratio (y) = 0.15065 0.39512
# Poissons Ratio (z) = 0.02377 0.46070
#
# Static dielectric constant tensor:
#      x y z
#    x 3.462850 0.000000 0.201940 
#    y 0.000000 4.190030 0.000010 
#    z 0.201940 0.000010 3.886760 
# 
# 
# High freq. dielectric constant tensor:
#      x y z
#    x 1.796510 0.000000 0.017380 
#    y 0.000000 1.853600 0.000000 
#    z 0.017380 0.000000 1.847050 
# 
# From -- ./inp_files/11340.got.cif
#   From: 2010.06.25/outbox.cif.g09.slc.cpg/sg9_6_cif.got.tgz:11340.got - 2010.06.27 21:40:51.
