data_PCOD8054503
_publ_section_title
;
Structure prediction by ZEFSAII (Michael W. Deem and Ramdas Pophale) SiO2 
 PCOD8054503
Probable space group: C C
;
_chemical_formula_sum "Si O2"
_cell_formula_units_Z 32
_cell_length_a 12.558406
_cell_length_b 7.762715
_cell_length_c 15.517271
_cell_angle_alpha 90.000000
_cell_angle_beta 118.348321
_cell_angle_gamma 90.000000
_cell_volume 1331.325598
_symmetry_space_group_name_H-M "C C"
_symmetry_group_IT_number 9
_symmetry_cell_setting 'monoclinic'
loop_
_space_group_symop_operation_xyz
x,y,z
x,-y,1/2+z
1/2+x,1/2+y,z
1/2+x,1/2-y,1/2+z
loop_
_atom_site_type_symbol
_atom_site_label
_atom_site_fract_x
_atom_site_fract_y
_atom_site_fract_z
Si Si1 0.375000 0.232821 0.841920
Si Si2 0.470893 0.970795 0.531835
Si Si3 0.047354 0.089529 0.284079
Si Si4 0.188159 0.278069 0.641683
Si Si5 0.111904 0.801857 0.620349
Si Si6 0.885882 0.005413 0.989225
Si Si7 0.750731 0.352695 0.987112
Si Si8 0.832833 0.881659 0.149419
O O1 0.471437 0.262679 0.803643
O O2 0.246755 0.178062 0.746222
O O3 0.355653 0.408671 0.889096
O O4 0.423095 0.077021 0.918237
O O5 0.546343 0.815972 0.605399
O O6 0.559441 0.131484 0.555483
O O7 0.358939 0.014871 0.549919
O O8 0.090422 0.184989 0.213845
O O9 0.163238 0.048819 0.387196
O O10 0.969479 0.912717 0.239808
O O11 0.185843 0.171585 0.552639
O O12 0.265101 0.449390 0.658173
O O13 0.257120 0.788347 0.653257
O O14 0.032325 0.958880 0.549388
O O15 0.808190 0.181098 0.966280
O O16 0.842427 0.879587 0.049587
#
# Coordination Sequence:
#
# PCOD8054503 Si02
#       8
#     4   4   4   4   4   4   4   4
#     4  11  21  38  63  93 131 166 211 271 330 379
#     4  10  20  38  61  91 125 163 213 264 316 381
#     4  10  20  35  65  96 126 172 218 259 328 386
#     4   9  19  38  61  90 126 167 212 264 319 384
#     4   9  19  40  67  90 126 172 220 261 321 396
#     4   9  20  36  60  91 124 169 213 264 326 379
#     4  10  20  39  63  90 126 172 222 258 312 396
#     4   8  17  36  60  89 122 163 215 261 310 385
#
# _framework density 24.036193999999998
#
# number of rings (size 3 to 8) (size 9 to 14) (size 15 to 20)
#    0.000    2.500    1.250    2.250    5.250    0.000 
#    6.750    0.000    2.750    0.000    0.000    0.000 
#    0.000    0.000    0.000    0.000    0.000    0.000 
#
# Total GULP energy -198220.693102 kJ/mol
# GULP energy per Si atom -12388.793319 kJ/mol
# Density = 2.398149 g / cm^3
# Si number density = 24.036194 Si / 1000 Ang^3
#
#
#
# Elastic Constant Matrix: (Units=GPa)
#
#
# Indices 1 2 3 4 5 6 
#
# 1 127.2219 44.9431 51.8017 0.0000 10.8302 0.0000
# 2 44.9431 62.9705 32.7332 0.0000 -5.4364 0.0000
# 3 51.8017 32.7332 157.7861 0.0000 11.8277 0.0000
# 4 0.0000 0.0000 0.0000 3.8592 0.0000 -3.2597
# 5 10.8302 -5.4364 11.8277 0.0000 30.4993 0.0000
# 6 0.0000 0.0000 0.0000 -3.2597 0.0000 30.8488
#
#
#
# Elastic Compliance Matrix: (Units=1/GPa)
#
#
# Indices 1 2 3 4 5 6 
#
# 1 0.011826 -0.007883 -0.001882 0.000000 -0.004875 0.000000
# 2 -0.007883 0.023747 -0.002951 0.000000 0.008177 0.000000
# 3 -0.001882 -0.002951 0.007783 0.000000 -0.002876 0.000000
# 4 0.000000 0.000000 0.000000 0.284517 0.000000 0.030064
# 5 -0.004875 0.008177 -0.002876 0.000000 0.037092 0.000000
# 6 0.000000 0.000000 0.000000 0.030064 0.000000 0.035593
#
#
# Mechanical properties :
#
#
# Convention : Reuss Voigt Hill
#
# Bulk Modulus (GPa) = 55.79111 67.43716 61.61414
# Shear Modulus (GPa) = 11.57498 27.60816 19.59157
#
# Velocity S-wave (km/s) = 2.19684 3.39279 2.85807
# Velocity P-wave (km/s) = 5.44945 6.59283 6.04822
#
# Compressibility (1/GPa) = 0.01792400
#
# Stress axis : x y z
#
# Youngs Moduli (GPa) = 84.55643 42.11068 128.47983
#
# Poissons Ratio (x) = 0.33198 0.24177
# Poissons Ratio (y) = 0.66659 0.37916
# Poissons Ratio (z) = 0.15912 0.12428
#
# Static dielectric constant tensor:
#      x y z
#    x 4.909080 0.000000 0.465030 
#    y 0.000000 4.110700 0.000000 
#    z 0.465030 0.000000 4.461020 
# 
# 
# High freq. dielectric constant tensor:
#      x y z
#    x 1.969970 0.000000 0.011590 
#    y 0.000000 1.930980 0.000000 
#    z 0.011590 0.000000 1.948740 
# 
# From -- ./inp_files/24288.got.cif
#   From: 2010.06.25/outbox.cif.g09.slc.cpg/sg9_13_cif.got.tgz:24288.got - 2010.06.27 21:40:51.
