data_PCOD8054585
_publ_section_title
;
Structure prediction by ZEFSAII (Michael W. Deem and Ramdas Pophale) SiO2 
 PCOD8054585
Probable space group: C C
;
_chemical_formula_sum "Si O2"
_cell_formula_units_Z 28
_cell_length_a 11.193017
_cell_length_b 21.158835
_cell_length_c 5.098414
_cell_angle_alpha 90.000000
_cell_angle_beta 74.601987
_cell_angle_gamma 90.000000
_cell_volume 1164.121135
_symmetry_space_group_name_H-M "C C"
_symmetry_group_IT_number 9
_symmetry_cell_setting 'monoclinic'
loop_
_space_group_symop_operation_xyz
x,y,z
x,-y,1/2+z
1/2+x,1/2+y,z
1/2+x,1/2-y,1/2+z
loop_
_atom_site_type_symbol
_atom_site_label
_atom_site_fract_x
_atom_site_fract_y
_atom_site_fract_z
Si Si1 0.370240 0.847573 0.765010
Si Si2 0.525070 0.162751 0.658238
Si Si3 0.228887 0.040909 0.556891
Si Si4 0.855380 0.967479 0.463391
Si Si5 0.022071 0.139146 0.771179
Si Si6 0.111388 0.205485 0.248699
Si Si7 0.584032 0.024893 0.590749
O O1 0.433960 0.855702 0.447376
O O2 0.245611 0.808867 0.787718
O O3 0.454106 0.812902 0.937121
O O4 0.346282 0.915006 0.919326
O O5 0.612766 0.219905 0.692308
O O6 0.607429 0.100023 0.549261
O O7 0.106369 0.083347 0.603091
O O8 0.231041 0.982658 0.354571
O O9 0.887293 0.892822 0.407683
O O10 0.917523 0.008751 0.195779
O O11 0.708721 0.982042 0.563657
O O12 0.011833 0.190351 0.540222
O O13 0.080620 0.167460 0.002084
O O14 0.507357 0.993618 0.396694
#
# Coordination Sequence:
#
# PCOD8054585 Si02
#       7
#     4   4   4   4   4   4   4
#     4  11  25  44  68 101 137 177 245 283 343 430
#     4  12  25  47  71  97 141 188 234 296 351 412
#     4  11  21  36  64 101 131 176 216 283 347 407
#     4  10  20  38  63  98 140 178 219 280 350 417
#     4  11  21  40  67  98 146 175 227 289 341 424
#     4  11  25  46  67 102 139 185 244 287 346 418
#     4  10  23  43  66  99 138 173 233 286 340 426
#
# _framework density 24.052479999999999
#
# number of rings (size 3 to 8) (size 9 to 14) (size 15 to 20)
#    0.000    1.143    0.000    7.714    0.000    3.429 
#   15.429    0.000    0.000    0.000    0.000    0.000 
#    0.000    0.000    0.000    0.000    0.000    0.000 
#
# Total GULP energy -173505.799635 kJ/mol
# GULP energy per Si atom -12393.271402 kJ/mol
# Density = 2.399774 g / cm^3
# Si number density = 24.052480 Si / 1000 Ang^3
#
#
#
# Elastic Constant Matrix: (Units=GPa)
#
#
# Indices 1 2 3 4 5 6 
#
# 1 67.3141 41.3496 21.3284 0.0000 9.6525 0.0000
# 2 41.3496 132.4155 22.3311 0.0000 13.0376 0.0000
# 3 21.3284 22.3311 126.1749 0.0000 36.5577 0.0000
# 4 0.0000 0.0000 0.0000 45.1047 0.0000 8.3526
# 5 9.6525 13.0376 36.5577 0.0000 33.8645 0.0000
# 6 0.0000 0.0000 0.0000 8.3526 0.0000 25.8517
#
#
#
# Elastic Compliance Matrix: (Units=1/GPa)
#
#
# Indices 1 2 3 4 5 6 
#
# 1 0.019007 -0.005494 -0.001868 0.000000 -0.001286 0.000000
# 2 -0.005494 0.009486 -0.000212 0.000000 -0.001857 0.000000
# 3 -0.001868 -0.000212 0.011788 0.000000 -0.012111 0.000000
# 4 0.000000 0.000000 0.000000 0.023582 0.000000 -0.007619
# 5 -0.001286 -0.001857 -0.012111 0.000000 0.043686 0.000000
# 6 0.000000 0.000000 0.000000 -0.007619 0.000000 0.041144
#
#
# Mechanical properties :
#
#
# Convention : Reuss Voigt Hill
#
# Bulk Modulus (GPa) = 39.78800 55.10253 47.44526
# Shear Modulus (GPa) = 29.03316 37.02385 33.02851
#
# Velocity S-wave (km/s) = 3.47807 3.92764 3.70967
# Velocity P-wave (km/s) = 5.71903 6.59754 6.17393
#
# Compressibility (1/GPa) = 0.02513321
#
# Stress axis : x y z
#
# Youngs Moduli (GPa) = 52.61332 105.41719 84.83248
#
# Poissons Ratio (x) = 0.57912 0.15846
# Poissons Ratio (y) = 0.28904 0.01800
# Poissons Ratio (z) = 0.09828 0.02237
#
# Static dielectric constant tensor:
#      x y z
#    x 4.067420 0.000000 0.309610 
#    y 0.000000 4.339040 0.000000 
#    z 0.309610 0.000000 6.074870 
# 
# 
# High freq. dielectric constant tensor:
#      x y z
#    x 1.932300 0.000000 0.015800 
#    y 0.000000 1.949130 0.000000 
#    z 0.015800 0.000000 1.987870 
# 
# From -- ./inp_files/1835.got.cif
#   From: 2010.06.25/outbox.cif.g09.slc.cpg/sg9_1_cif.got.tgz:1835.got - 2010.06.27 21:40:51.
