data_PCOD8054397
_publ_section_title
;
Structure prediction by ZEFSAII (Michael W. Deem and Ramdas Pophale) SiO2 
 PCOD8054397
Probable space group: C C
;
_chemical_formula_sum "Si O2"
_cell_formula_units_Z 24
_cell_length_a 14.763444
_cell_length_b 8.856518
_cell_length_c 14.874804
_cell_angle_alpha 90.000000
_cell_angle_beta 38.690091
_cell_angle_gamma 90.000000
_cell_volume 1215.784981
_symmetry_space_group_name_H-M "C C"
_symmetry_group_IT_number 9
_symmetry_cell_setting 'monoclinic'
loop_
_space_group_symop_operation_xyz
x,y,z
x,-y,1/2+z
1/2+x,1/2+y,z
1/2+x,1/2-y,1/2+z
loop_
_atom_site_type_symbol
_atom_site_label
_atom_site_fract_x
_atom_site_fract_y
_atom_site_fract_z
Si Si1 0.851900 0.109843 0.687110
Si Si2 0.359805 0.037102 0.145929
Si Si3 0.369070 0.425198 0.846012
Si Si4 0.540885 0.441235 0.880994
Si Si5 0.056006 0.588456 0.835987
Si Si6 0.044653 0.359949 0.148127
O O1 0.857285 0.290304 0.680134
O O2 0.709366 0.034242 0.754808
O O3 0.981148 0.039158 0.528077
O O4 0.857098 0.063519 0.786598
O O5 0.196163 0.975539 0.261826
O O6 0.449242 0.940759 0.147304
O O7 0.428653 0.016875 0.993999
O O8 0.433716 0.503286 0.886405
O O9 0.478897 0.305242 0.716396
O O10 0.212964 0.348215 0.987332
O O11 0.555424 0.267629 0.843788
O O12 0.035819 0.542835 0.747407
#
# Coordination Sequence:
#
# PCOD8054397 Si02
#       6
#     4   4   4   4   4   4
#     4  10  19  38  60  83 112 152 194 235 279 337
#     4  10  21  38  61  85 112 151 196 236 282 336
#     4  11  23  38  59  87 119 150 192 238 287 341
#     4   9  20  34  59  85 111 150 196 230 277 347
#     4   9  18  36  60  81 112 153 193 229 280 341
#     4  11  23  38  59  87 118 152 191 238 287 340
#
# _framework density 19.740331999999999
#
# number of rings (size 3 to 8) (size 9 to 14) (size 15 to 20)
#    0.000    2.000    3.333    0.000    9.333    0.000 
#    0.000    3.333    0.000    0.000    0.000    0.000 
#    0.000    0.000    0.000    0.000    0.000    0.000 
#
# Total GULP energy -148743.735292 kJ/mol
# GULP energy per Si atom -12395.311274 kJ/mol
# Density = 1.969540 g / cm^3
# Si number density = 19.740332 Si / 1000 Ang^3
#
#
#
# Elastic Constant Matrix: (Units=GPa)
#
#
# Indices 1 2 3 4 5 6 
#
# 1 118.8610 11.2816 35.5937 0.0000 0.0644 0.0000
# 2 11.2816 21.1855 13.4669 0.0000 5.5814 0.0000
# 3 35.5937 13.4669 123.0511 0.0000 -6.4918 0.0000
# 4 0.0000 0.0000 0.0000 20.8863 0.0000 4.3777
# 5 0.0644 5.5814 -6.4918 0.0000 42.6469 0.0000
# 6 0.0000 0.0000 0.0000 4.3777 0.0000 26.7507
#
#
#
# Elastic Compliance Matrix: (Units=1/GPa)
#
#
# Indices 1 2 3 4 5 6 
#
# 1 0.009452 -0.003573 -0.002338 0.000000 0.000097 0.000000
# 2 -0.003573 0.054610 -0.005363 0.000000 -0.007958 0.000000
# 3 -0.002338 -0.005363 0.009503 0.000000 0.002152 0.000000
# 4 0.000000 0.000000 0.000000 0.049579 0.000000 -0.008113
# 5 0.000097 -0.007958 0.002152 0.000000 0.024817 0.000000
# 6 0.000000 0.000000 0.000000 -0.008113 0.000000 0.038710
#
#
# Mechanical properties :
#
#
# Convention : Reuss Voigt Hill
#
# Bulk Modulus (GPa) = 19.60082 42.64243 31.12163
# Shear Modulus (GPa) = 22.10176 31.57380 26.83778
#
# Velocity S-wave (km/s) = 3.34971 4.00366 3.69119
# Velocity P-wave (km/s) = 4.99115 6.55904 5.82806
#
# Compressibility (1/GPa) = 0.05101828
#
# Stress axis : x y z
#
# Youngs Moduli (GPa) = 105.79319 18.31153 105.22481
#
# Poissons Ratio (x) = 0.06543 0.24602
# Poissons Ratio (y) = 0.37800 0.56431
# Poissons Ratio (z) = 0.24735 0.09820
#
# Static dielectric constant tensor:
#      x y z
#    x 4.008610 0.000000 -0.072510 
#    y 0.000000 3.029010 0.000000 
#    z -0.072510 0.000000 3.948750 
# 
# 
# High freq. dielectric constant tensor:
#      x y z
#    x 1.785750 0.000000 -0.000680 
#    y 0.000000 1.710460 0.000000 
#    z -0.000680 0.000000 1.792300 
# 
# From -- ./inp_files/6854.got.cif
#   From: 2010.06.25/outbox.cif.g09.slc.cpg/sg9_4_cif.got.tgz:6854.got - 2010.06.27 21:40:51.
