data_PCOD8054965
_publ_section_title
;
Structure prediction by ZEFSAII (Michael W. Deem and Ramdas Pophale) SiO2 
 PCOD8054965
Probable space group: C C
;
_chemical_formula_sum "Si O2"
_cell_formula_units_Z 32
_cell_length_a 19.011411
_cell_length_b 5.186582
_cell_length_c 13.430604
_cell_angle_alpha 90.000000
_cell_angle_beta 95.575700
_cell_angle_gamma 90.000000
_cell_volume 1318.048795
_symmetry_space_group_name_H-M "C C"
_symmetry_group_IT_number 9
_symmetry_cell_setting 'monoclinic'
loop_
_space_group_symop_operation_xyz
x,y,z
x,-y,1/2+z
1/2+x,1/2+y,z
1/2+x,1/2-y,1/2+z
loop_
_atom_site_type_symbol
_atom_site_label
_atom_site_fract_x
_atom_site_fract_y
_atom_site_fract_z
Si Si1 0.583630 0.120469 0.322090
Si Si2 0.917280 0.385222 0.018150
Si Si3 0.658665 0.653222 0.572144
Si Si4 0.780175 0.540953 0.203632
Si Si5 0.925599 0.362778 0.787330
Si Si6 0.366434 0.602622 0.610809
Si Si7 0.164134 0.872400 0.836479
Si Si8 0.576948 0.850671 0.056795
O O1 0.504891 0.048328 0.273751
O O2 0.615773 0.391592 0.289971
O O3 0.583817 0.130410 0.440156
O O4 0.630709 0.887457 0.287599
O O5 0.895518 0.680090 0.035941
O O6 0.994778 0.332637 0.074400
O O7 0.864058 0.178963 0.061730
O O8 0.915787 0.314838 0.902077
O O9 0.735189 0.668361 0.635956
O O10 0.669849 0.646128 0.455722
O O11 0.619309 0.394724 0.604112
O O12 0.611175 0.888865 0.605819
O O13 0.861658 0.445028 0.238779
O O14 0.787915 0.799968 0.134706
O O15 0.742925 0.603616 0.303583
O O16 0.914415 0.103345 0.719008
#
# Coordination Sequence:
#
# PCOD8054965 Si02
#       8
#     4   4   4   4   4   4   4   4
#     4   9  20  42  66  95 125 169 226 273 331 399
#     4  11  22  46  68  97 138 180 230 286 347 394
#     4  10  21  41  62  95 132 167 221 276 329 412
#     4  10  25  44  63 103 133 178 223 272 342 414
#     4   9  24  46  67 103 134 178 228 291 336 417
#     4  10  26  40  65 101 132 182 228 276 344 412
#     4  10  22  41  67  91 129 177 213 274 339 388
#     4   9  20  38  68  93 125 173 221 276 334 396
#
# _framework density 24.278310000000001
#
# number of rings (size 3 to 8) (size 9 to 14) (size 15 to 20)
#    0.750    1.500    0.000    0.750    1.750   11.000 
#    4.500    0.000    0.000    0.000    0.000    0.000 
#    0.000    0.000    0.000    0.000    0.000    0.000 
#
# Total GULP energy -198219.024584 kJ/mol
# GULP energy per Si atom -12388.689036 kJ/mol
# Density = 2.422305 g / cm^3
# Si number density = 24.278310 Si / 1000 Ang^3
#
#
#
# Elastic Constant Matrix: (Units=GPa)
#
#
# Indices 1 2 3 4 5 6 
#
# 1 68.8320 16.9834 -10.5409 0.0000 23.8187 0.0000
# 2 16.9834 123.4201 25.0661 0.0000 7.0162 0.0000
# 3 -10.5409 25.0661 73.3273 0.0000 10.7710 0.0000
# 4 0.0000 0.0000 0.0000 21.1974 0.0000 -0.9066
# 5 23.8187 7.0162 10.7710 0.0000 41.4505 0.0000
# 6 0.0000 0.0000 0.0000 -0.9066 0.0000 28.5462
#
#
#
# Elastic Compliance Matrix: (Units=1/GPa)
#
#
# Indices 1 2 3 4 5 6 
#
# 1 0.020747 -0.003344 0.006023 0.000000 -0.012921 0.000000
# 2 -0.003344 0.009267 -0.003847 0.000000 0.001352 0.000000
# 3 0.006023 -0.003847 0.016875 0.000000 -0.007195 0.000000
# 4 0.000000 0.000000 0.000000 0.047240 0.000000 0.001500
# 5 -0.012921 0.001352 -0.007195 0.000000 0.033191 0.000000
# 6 0.000000 0.000000 0.000000 0.001500 0.000000 0.035079
#
#
# Mechanical properties :
#
#
# Convention : Reuss Voigt Hill
#
# Bulk Modulus (GPa) = 22.44470 36.51072 29.47771
# Shear Modulus (GPa) = 27.84210 33.84353 30.84282
#
# Velocity S-wave (km/s) = 3.39010 3.73766 3.56811
# Velocity P-wave (km/s) = 4.95868 5.80498 5.39844
#
# Compressibility (1/GPa) = 0.04455395
#
# Stress axis : x y z
#
# Youngs Moduli (GPa) = 48.20054 107.91029 59.25821
#
# Poissons Ratio (x) = 0.36081 -0.35693
# Poissons Ratio (y) = 0.16117 0.22797
# Poissons Ratio (z) = -0.29032 0.41514
#
# Static dielectric constant tensor:
#      x y z
#    x 4.415430 0.000000 -0.053250 
#    y 0.000000 4.163510 0.000000 
#    z -0.053250 0.000000 4.441640 
# 
# 
# High freq. dielectric constant tensor:
#      x y z
#    x 1.967450 0.000000 -0.012870 
#    y 0.000000 1.941220 0.000000 
#    z -0.012870 0.000000 1.984900 
# 
# From -- ./inp_files/27056.got.cif
#   From: 2010.06.25/outbox.cif.g09.slc.cpg/sg9_14_cif.got.tgz:27056.got - 2010.06.27 21:40:51.
