data_PCOD8054695
_publ_section_title
;
Structure prediction by ZEFSAII (Michael W. Deem and Ramdas Pophale) SiO2 
 PCOD8054695
Probable space group: C C
;
_chemical_formula_sum "Si O2"
_cell_formula_units_Z 32
_cell_length_a 10.439150
_cell_length_b 14.246158
_cell_length_c 14.414076
_cell_angle_alpha 90.000000
_cell_angle_beta 40.621970
_cell_angle_gamma 90.000000
_cell_volume 1395.642734
_symmetry_space_group_name_H-M "C C"
_symmetry_group_IT_number 9
_symmetry_cell_setting 'monoclinic'
loop_
_space_group_symop_operation_xyz
x,y,z
x,-y,1/2+z
1/2+x,1/2+y,z
1/2+x,1/2-y,1/2+z
loop_
_atom_site_type_symbol
_atom_site_label
_atom_site_fract_x
_atom_site_fract_y
_atom_site_fract_z
Si Si1 0.542970 0.000101 0.390360
Si Si2 0.556191 0.618719 0.453988
Si Si3 0.506115 0.360227 0.776354
Si Si4 0.594137 0.146695 0.721351
Si Si5 0.413985 0.816923 0.857179
Si Si6 0.643670 0.028314 0.528273
Si Si7 0.801324 0.151994 0.041836
Si Si8 0.978563 0.054820 0.106457
O O1 0.428344 0.088454 0.410248
O O2 0.500368 0.991255 0.524710
O O3 0.775942 0.007368 0.247927
O O4 0.494749 0.901208 0.366607
O O5 0.613691 0.611048 0.313059
O O6 0.332319 0.652942 0.590136
O O7 0.706632 0.691710 0.417301
O O8 0.602971 0.520620 0.479710
O O9 0.504874 0.249138 0.761282
O O10 0.597417 0.410698 0.633640
O O11 0.280199 0.392185 0.906732
O O12 0.521528 0.079725 0.676544
O O13 0.585433 0.810069 0.686696
O O14 0.425120 0.725622 0.914745
O O15 0.777713 0.946324 0.499781
O O16 0.928702 0.140755 0.065422
#
# Coordination Sequence:
#
# PCOD8054695 Si02
#       8
#     4   4   4   4   4   4   4   4
#     4   9  20  41  66  90 131 175 215 271 338 388
#     4  10  22  43  60  96 132 173 220 271 337 399
#     4  10  21  37  71  95 124 176 223 271 337 396
#     4  10  20  41  67  94 131 168 225 278 327 400
#     4  11  25  42  65  98 131 175 226 270 331 408
#     4  10  20  43  66  90 128 179 211 277 345 387
#     4  11  23  45  68  93 135 175 221 278 337 398
#     4   9  19  44  65  90 134 171 219 276 336 394
#
# _framework density 22.928504
#
# number of rings (size 3 to 8) (size 9 to 14) (size 15 to 20)
#    0.000    2.000    5.000    0.000    5.250    2.000 
#    6.750    0.000    0.000    0.000    0.000    0.000 
#    0.000    0.000    0.000    0.000    0.000    0.000 
#
# Total GULP energy -198301.851045 kJ/mol
# GULP energy per Si atom -12393.865690 kJ/mol
# Density = 2.287632 g / cm^3
# Si number density = 22.928504 Si / 1000 Ang^3
#
#
#
# Elastic Constant Matrix: (Units=GPa)
#
#
# Indices 1 2 3 4 5 6 
#
# 1 92.9216 24.2252 44.1525 0.0002 46.7368 0.0003
# 2 24.2252 130.6027 44.6033 -0.0005 26.1833 0.0006
# 3 44.1525 44.6033 68.4546 0.0007 20.9702 0.0002
# 4 0.0002 -0.0005 0.0007 44.1890 -0.0003 10.5261
# 5 46.7368 26.1833 20.9702 -0.0003 43.0407 -0.0002
# 6 0.0003 0.0006 0.0002 10.5261 -0.0002 22.0234
#
#
#
# Elastic Compliance Matrix: (Units=1/GPa)
#
#
# Indices 1 2 3 4 5 6 
#
# 1 0.031523 0.005153 -0.014391 0.000000 -0.030353 -0.000001
# 2 0.005153 0.011124 -0.007975 0.000000 -0.008477 -0.000001
# 3 -0.014391 -0.007975 0.026816 -0.000001 0.007414 0.000000
# 4 0.000000 0.000000 -0.000001 0.025538 0.000000 -0.012206
# 5 -0.030353 -0.008477 0.007414 0.000000 0.057739 0.000001
# 6 -0.000001 -0.000001 0.000000 -0.012206 0.000001 0.051240
#
#
# Mechanical properties :
#
#
# Convention : Reuss Voigt Hill
#
# Bulk Modulus (GPa) = 28.54161 57.54899 43.04530
# Shear Modulus (GPa) = 19.99320 33.78383 26.88851
#
# Velocity S-wave (km/s) = 2.95613 3.84271 3.42820
# Velocity P-wave (km/s) = 4.91190 6.69644 5.87236
#
# Compressibility (1/GPa) = 0.03503657
#
# Stress axis : x y z
#
# Youngs Moduli (GPa) = 31.72243 89.89499 37.29153
#
# Poissons Ratio (x) = -0.46323 0.53668
# Poissons Ratio (y) = -0.16347 0.29740
# Poissons Ratio (z) = 0.45653 0.71691
#
# Static dielectric constant tensor:
#      x y z
#    x 4.346320 0.000000 0.563600 
#    y 0.000000 3.943080 0.000000 
#    z 0.563600 0.000000 4.161640 
# 
# 
# High freq. dielectric constant tensor:
#      x y z
#    x 1.905520 0.000000 0.027870 
#    y 0.000000 1.895250 0.000000 
#    z 0.027870 0.000000 1.894180 
# 
# From -- ./inp_files/24835.got.cif
#   From: 2010.06.25/outbox.cif.g09.slc.cpg/sg9_13_cif.got.tgz:24835.got - 2010.06.27 21:40:51.
