data_PCOD8054622
_publ_section_title
;
Structure prediction by ZEFSAII (Michael W. Deem and Ramdas Pophale) SiO2 
 PCOD8054622
Probable space group: C C
;
_chemical_formula_sum "Si O2"
_cell_formula_units_Z 28
_cell_length_a 8.847649
_cell_length_b 12.163371
_cell_length_c 14.380116
_cell_angle_alpha 90.000000
_cell_angle_beta 68.206782
_cell_angle_gamma 90.000000
_cell_volume 1436.944732
_symmetry_space_group_name_H-M "C C"
_symmetry_group_IT_number 9
_symmetry_cell_setting 'monoclinic'
loop_
_space_group_symop_operation_xyz
x,y,z
x,-y,1/2+z
1/2+x,1/2+y,z
1/2+x,1/2-y,1/2+z
loop_
_atom_site_type_symbol
_atom_site_label
_atom_site_fract_x
_atom_site_fract_y
_atom_site_fract_z
Si Si1 0.664190 0.717839 0.506960
Si Si2 0.974604 0.502511 0.187612
Si Si3 0.696230 0.808695 0.695049
Si Si4 0.046777 0.737603 0.609960
Si Si5 0.018550 0.212627 0.911957
Si Si6 0.866091 0.637499 0.040732
Si Si7 0.725436 0.487182 0.405945
O O1 0.652538 0.723258 0.622016
O O2 0.511295 0.776288 0.494665
O O3 0.660236 0.592315 0.475820
O O4 0.826444 0.780974 0.435532
O O5 0.910123 0.542958 0.103362
O O6 0.829300 0.521534 0.293174
O O7 0.132913 0.570411 0.183271
O O8 0.026774 0.376414 0.168577
O O9 0.615105 0.767933 0.807087
O O10 0.890162 0.814818 0.665237
O O11 0.062522 0.718932 0.495257
O O12 0.204761 0.799427 0.613293
O O13 0.069572 0.085152 0.911159
O O14 0.841304 0.583441 0.946243
#
# Coordination Sequence:
#
# PCOD8054622 Si02
#       7
#     4   4   4   4   4   4   4
#     4  10  22  40  62  87 127 154 206 253 300 364
#     4  11  22  39  65  89 122 165 202 248 313 357
#     4  10  20  39  64  90 120 164 202 251 307 359
#     4  10  22  40  62  87 127 154 206 253 300 364
#     4  10  20  39  64  90 120 164 202 251 307 359
#     4  10  24  40  60  92 122 156 208 256 294 364
#     4  11  22  39  65  89 122 165 202 248 313 357
#
# _framework density 19.485786999999998
#
# number of rings (size 3 to 8) (size 9 to 14) (size 15 to 20)
#    0.000    1.714    2.857    1.714    0.000    5.714 
#    0.000    1.429    0.000    0.000    0.000    0.000 
#    0.000    0.000    0.000    0.000    0.000    0.000 
#
# Total GULP energy -173641.957579 kJ/mol
# GULP energy per Si atom -12402.996970 kJ/mol
# Density = 1.944144 g / cm^3
# Si number density = 19.485787 Si / 1000 Ang^3
#
#
#
# Elastic Constant Matrix: (Units=GPa)
#
#
# Indices 1 2 3 4 5 6 
#
# 1 120.5206 42.0614 17.1896 0.0000 -22.3198 0.0000
# 2 42.0614 89.5118 9.2778 0.0000 -8.8532 0.0000
# 3 17.1896 9.2778 92.8385 0.0000 -10.1537 0.0000
# 4 0.0000 0.0000 0.0000 32.0423 0.0000 -5.9943
# 5 -22.3198 -8.8532 -10.1537 0.0000 21.1933 0.0000
# 6 0.0000 0.0000 0.0000 -5.9943 0.0000 29.6624
#
#
#
# Elastic Compliance Matrix: (Units=1/GPa)
#
#
# Indices 1 2 3 4 5 6 
#
# 1 0.011864 -0.004490 -0.000619 0.000000 0.010323 0.000000
# 2 -0.004490 0.013392 -0.000435 0.000000 0.000657 0.000000
# 3 -0.000619 -0.000435 0.011438 0.000000 0.004646 0.000000
# 4 0.000000 0.000000 0.000000 0.032435 0.000000 0.006555
# 5 0.010323 0.000657 0.004646 0.000000 0.060557 0.000000
# 6 0.000000 0.000000 0.000000 0.006555 0.000000 0.035037
#
#
# Mechanical properties :
#
#
# Convention : Reuss Voigt Hill
#
# Bulk Modulus (GPa) = 39.05410 48.88096 43.96753
# Shear Modulus (GPa) = 27.12294 32.20240 29.66267
#
# Velocity S-wave (km/s) = 3.73491 4.06964 3.90586
# Velocity P-wave (km/s) = 6.21975 6.87187 6.55392
#
# Compressibility (1/GPa) = 0.02560550
#
# Stress axis : x y z
#
# Youngs Moduli (GPa) = 84.28632 74.67368 87.43064
#
# Poissons Ratio (x) = 0.33528 0.05412
# Poissons Ratio (y) = 0.37844 0.03804
# Poissons Ratio (z) = 0.05218 0.03249
#
# Static dielectric constant tensor:
#      x y z
#    x 3.685870 0.000000 -0.074290 
#    y 0.000000 3.561480 0.000000 
#    z -0.074290 0.000000 3.675250 
# 
# 
# High freq. dielectric constant tensor:
#      x y z
#    x 1.760290 0.000000 -0.004160 
#    y 0.000000 1.754180 0.000000 
#    z -0.004160 0.000000 1.767480 
# 
# From -- ./inp_files/22540.got.cif
#   From: 2010.06.25/outbox.cif.g09.slc.cpg/sg9_12_cif.got.tgz:22540.got - 2010.06.27 21:40:51.
