data_PCOD8054396
_publ_section_title
;
Structure prediction by ZEFSAII (Michael W. Deem and Ramdas Pophale) SiO2 
 PCOD8054396
Probable space group: C C
;
_chemical_formula_sum "Si O2"
_cell_formula_units_Z 32
_cell_length_a 5.071975
_cell_length_b 24.518407
_cell_length_c 11.905626
_cell_angle_alpha 90.000000
_cell_angle_beta 90.119316
_cell_angle_gamma 90.000000
_cell_volume 1480.541714
_symmetry_space_group_name_H-M "C C"
_symmetry_group_IT_number 9
_symmetry_cell_setting 'monoclinic'
loop_
_space_group_symop_operation_xyz
x,y,z
x,-y,1/2+z
1/2+x,1/2+y,z
1/2+x,1/2-y,1/2+z
loop_
_atom_site_type_symbol
_atom_site_label
_atom_site_fract_x
_atom_site_fract_y
_atom_site_fract_z
Si Si1 0.801890 0.656207 0.363950
Si Si2 0.905183 0.909093 0.180007
Si Si3 0.800774 0.901649 0.931093
Si Si4 0.894582 0.685908 0.978576
Si Si5 0.339277 0.906663 0.640864
Si Si6 0.402965 0.161340 0.722616
Si Si7 0.335988 0.468861 0.717404
Si Si8 0.892663 0.252463 0.022239
O O1 0.496354 0.647028 0.394079
O O2 0.856115 0.642075 0.233909
O O3 0.862688 0.718114 0.400247
O O4 0.999744 0.618914 0.438377
O O5 0.693665 0.863842 0.215174
O O6 0.191965 0.886938 0.211412
O O7 0.854919 0.966837 0.237433
O O8 0.890229 0.923909 0.049704
O O9 0.831609 0.950662 0.845691
O O10 0.876086 0.688964 0.844241
O O11 0.849744 0.623736 0.020967
O O12 0.677605 0.725607 0.032162
O O13 0.175570 0.705092 0.026834
O O14 0.575644 0.949663 0.652033
O O15 0.077479 0.942379 0.650321
O O16 0.354623 0.206074 0.625837
#
# Coordination Sequence:
#
# PCOD8054396 Si02
#       8
#     4   4   4   4   4   4   4   4
#     4  10  20  38  64  84 121 160 214 269 295 370
#     4  12  22  43  67  96 131 170 212 272 320 380
#     4  10  19  38  59  94 119 164 210 265 307 365
#     4  12  28  42  66  95 136 172 207 268 333 374
#     4  10  23  43  61  95 131 166 218 266 315 379
#     4  12  27  44  65  99 131 162 222 266 324 381
#     4  10  23  39  68  95 129 175 218 253 331 382
#     4  12  24  43  66  94 124 173 217 261 321 387
#
# _framework density 21.613710000000001
#
# number of rings (size 3 to 8) (size 9 to 14) (size 15 to 20)
#    0.000    1.000    2.500    3.750    3.500    2.000 
#    0.000    0.000    0.000    0.000    0.000    0.000 
#    0.000    0.000    0.000    0.000    0.000    0.000 
#
# Total GULP energy -198442.297834 kJ/mol
# GULP energy per Si atom -12402.643615 kJ/mol
# Density = 2.156452 g / cm^3
# Si number density = 21.613710 Si / 1000 Ang^3
#
#
#
# Elastic Constant Matrix: (Units=GPa)
#
#
# Indices 1 2 3 4 5 6 
#
# 1 96.3075 15.2674 20.0211 0.0000 -10.6017 0.0000
# 2 15.2674 84.9235 27.7718 0.0000 -9.6897 0.0000
# 3 20.0211 27.7718 77.9709 0.0000 -0.7295 0.0000
# 4 0.0000 0.0000 0.0000 19.5415 0.0000 6.9971
# 5 -10.6017 -9.6897 -0.7295 0.0000 19.3988 0.0000
# 6 0.0000 0.0000 0.0000 6.9971 0.0000 34.7358
#
#
#
# Elastic Compliance Matrix: (Units=1/GPa)
#
#
# Indices 1 2 3 4 5 6 
#
# 1 0.011704 -0.000510 -0.002767 0.000000 0.006038 0.000000
# 2 -0.000510 0.014217 -0.004871 0.000000 0.006640 0.000000
# 3 -0.002767 -0.004871 0.015239 0.000000 -0.003372 0.000000
# 4 0.000000 0.000000 0.000000 0.055151 0.000000 -0.011110
# 5 0.006038 0.006640 -0.003372 0.000000 0.058039 0.000000
# 6 0.000000 0.000000 0.000000 -0.011110 0.000000 0.031027
#
#
# Mechanical properties :
#
#
# Convention : Reuss Voigt Hill
#
# Bulk Modulus (GPa) = 40.21840 42.81362 41.51601
# Shear Modulus (GPa) = 23.81383 27.81132 25.81258
#
# Velocity S-wave (km/s) = 3.32293 3.59101 3.45957
# Velocity P-wave (km/s) = 5.77674 6.08649 5.93364
#
# Compressibility (1/GPa) = 0.02486424
#
# Stress axis : x y z
#
# Youngs Moduli (GPa) = 85.43954 70.33594 65.62042
#
# Poissons Ratio (x) = 0.03590 0.18158
# Poissons Ratio (y) = 0.04361 0.31963
# Poissons Ratio (z) = 0.23642 0.34259
#
# Static dielectric constant tensor:
#      x y z
#    x 4.153600 0.000000 -0.043560 
#    y 0.000000 3.697810 0.000000 
#    z -0.043560 0.000000 3.945070 
# 
# 
# High freq. dielectric constant tensor:
#      x y z
#    x 1.868540 0.000000 0.000360 
#    y 0.000000 1.839200 0.000000 
#    z 0.000360 0.000000 1.846050 
# 
# From -- ./inp_files/13504.got.cif
#   From: 2010.06.25/outbox.cif.g09.slc.cpg/sg9_7_cif.got.tgz:13504.got - 2010.06.27 21:40:51.
