data_PCOD8054517
_publ_section_title
;
Structure prediction by ZEFSAII (Michael W. Deem and Ramdas Pophale) SiO2 
 PCOD8054517
Probable space group: C C
;
_chemical_formula_sum "Si O2"
_cell_formula_units_Z 32
_cell_length_a 12.944494
_cell_length_b 18.722991
_cell_length_c 9.000909
_cell_angle_alpha 90.000000
_cell_angle_beta 136.413181
_cell_angle_gamma 90.000000
_cell_volume 1504.011991
_symmetry_space_group_name_H-M "C C"
_symmetry_group_IT_number 9
_symmetry_cell_setting 'monoclinic'
loop_
_space_group_symop_operation_xyz
x,y,z
x,-y,1/2+z
1/2+x,1/2+y,z
1/2+x,1/2-y,1/2+z
loop_
_atom_site_type_symbol
_atom_site_label
_atom_site_fract_x
_atom_site_fract_y
_atom_site_fract_z
Si Si1 0.784640 0.437368 0.946130
Si Si2 0.208343 0.194232 0.559312
Si Si3 0.987491 0.974173 0.157752
Si Si4 0.949941 0.555669 0.304994
Si Si5 0.200778 0.348303 0.611543
Si Si6 0.942351 0.673618 0.049763
Si Si7 0.989542 0.826454 0.059765
Si Si8 0.274342 0.498778 0.677980
O O1 0.616861 0.468113 0.763964
O O2 0.858647 0.432619 0.861611
O O3 0.773390 0.356642 0.999428
O O4 0.887295 0.485073 0.160102
O O5 0.210451 0.278278 0.513310
O O6 0.039070 0.176454 0.435394
O O7 0.284930 0.185411 0.802549
O O8 0.062719 0.896037 0.212435
O O9 0.924679 0.971428 0.258539
O O10 0.834127 0.989297 0.907267
O O11 0.924574 0.624505 0.175105
O O12 0.127542 0.548779 0.522010
O O13 0.041231 0.361892 0.523159
O O14 0.235407 0.421807 0.561133
O O15 0.312225 0.339170 0.866966
O O16 0.015857 0.750804 0.171707
#
# Coordination Sequence:
#
# PCOD8054517 Si02
#       8
#     4   4   4   4   4   4   4   4
#     4  12  23  37  59  89 122 154 193 242 295 348
#     4  10  20  36  60  85 111 147 190 238 287 342
#     4  11  22  38  59  84 114 151 193 236 286 346
#     4  12  23  37  59  89 122 154 193 242 295 348
#     4   9  18  35  59  82 108 146 193 234 281 344
#     4  10  20  36  60  85 111 147 190 238 287 342
#     4   9  18  35  59  82 108 146 193 234 281 344
#     4  11  22  38  59  84 114 151 193 236 286 346
#
# _framework density 21.276427000000002
#
# number of rings (size 3 to 8) (size 9 to 14) (size 15 to 20)
#    0.000    1.500    0.000    8.250    0.000    0.000 
#    0.000    1.250    0.000   24.000    0.000    1.750 
#    0.000    0.000    0.000    0.000    0.000    0.000 
#
# Total GULP energy -198209.780261 kJ/mol
# GULP energy per Si atom -12388.111266 kJ/mol
# Density = 2.122800 g / cm^3
# Si number density = 21.276427 Si / 1000 Ang^3
#
#
#
# Elastic Constant Matrix: (Units=GPa)
#
#
# Indices 1 2 3 4 5 6 
#
# 1 115.3158 34.8398 17.4067 0.0000 -4.1026 0.0000
# 2 34.8398 78.0108 15.9729 0.0000 -18.2698 0.0000
# 3 17.4067 15.9729 59.5958 0.0000 5.3833 0.0000
# 4 0.0000 0.0000 0.0000 26.3078 0.0000 -3.3611
# 5 -4.1026 -18.2698 5.3833 0.0000 30.7167 0.0000
# 6 0.0000 0.0000 0.0000 -3.3611 0.0000 39.7267
#
#
#
# Elastic Compliance Matrix: (Units=1/GPa)
#
#
# Indices 1 2 3 4 5 6 
#
# 1 0.010240 -0.004453 -0.001709 0.000000 -0.000982 0.000000
# 2 -0.004453 0.018364 -0.004627 0.000000 0.011139 0.000000
# 3 -0.001709 -0.004627 0.019090 0.000000 -0.006326 0.000000
# 4 0.000000 0.000000 0.000000 0.038427 0.000000 0.003251
# 5 -0.000982 0.011139 -0.006326 0.000000 0.040158 0.000000
# 6 0.000000 0.000000 0.000000 0.003251 0.000000 0.025447
#
#
# Mechanical properties :
#
#
# Convention : Reuss Voigt Hill
#
# Bulk Modulus (GPa) = 38.29110 43.26235 40.77672
# Shear Modulus (GPa) = 27.47096 31.66378 29.56737
#
# Velocity S-wave (km/s) = 3.59715 3.86192 3.73188
# Velocity P-wave (km/s) = 5.94043 6.34535 6.14622
#
# Compressibility (1/GPa) = 0.02611573
#
# Stress axis : x y z
#
# Youngs Moduli (GPa) = 97.65321 54.45540 52.38229
#
# Poissons Ratio (x) = 0.24251 0.08951
# Poissons Ratio (y) = 0.43489 0.24239
# Poissons Ratio (z) = 0.16686 0.25198
#
# Static dielectric constant tensor:
#      x y z
#    x 3.760200 0.000000 0.295320 
#    y 0.000000 4.144600 0.000000 
#    z 0.295320 0.000000 3.641620 
# 
# 
# High freq. dielectric constant tensor:
#      x y z
#    x 1.834920 0.000000 0.038400 
#    y 0.000000 1.845860 0.000000 
#    z 0.038400 0.000000 1.809230 
# 
# From -- ./inp_files/8279.got.cif
#   From: 2010.06.25/outbox.cif.g09.slc.cpg/sg9_5_cif.got.tgz:8279.got - 2010.06.27 21:40:51.
