data_PCOD8054041
_publ_section_title
;
Structure prediction by ZEFSAII (Michael W. Deem and Ramdas Pophale) SiO2 
 PCOD8054041
Probable space group: C M
;
_chemical_formula_sum "Si O2"
_cell_formula_units_Z 20
_cell_length_a 7.731951
_cell_length_b 23.549866
_cell_length_c 5.055304
_cell_angle_alpha 90.000000
_cell_angle_beta 122.016031
_cell_angle_gamma 90.000000
_cell_volume 780.493590
_symmetry_space_group_name_H-M "C M"
_symmetry_group_IT_number 8
_symmetry_cell_setting 'monoclinic'
loop_
_space_group_symop_operation_xyz
x,y,z
x,-y,z
1/2+x,1/2+y,z
1/2+x,1/2-y,z
loop_
_atom_site_type_symbol
_atom_site_label
_atom_site_fract_x
_atom_site_fract_y
_atom_site_fract_z
Si Si1 0.188920 0.066751 0.686780
Si Si2 0.929255 0.933571 0.972862
Si Si3 0.020245 0.369927 0.689193
Si Si4 0.721629 0.300975 0.190203
Si Si5 0.288002 0.730231 0.773107
O O1 0.406922 0.100366 0.846387
O O2 0.087077 0.085297 0.875947
O O3 0.239718 0.000000 0.707242
O O4 0.023081 0.084787 0.329849
O O5 0.705250 0.907774 0.736498
O O6 0.893453 0.000000 0.928324
O O7 0.828045 0.361672 0.334362
O O8 0.101781 0.304352 0.767997
O O9 0.483331 0.311979 0.925537
O O10 0.834090 0.280499 0.015330
O O11 0.733826 0.255039 0.441915
#
# Coordination Sequence:
#
# PCOD8054041 Si02
#       5
#     4   4   4   4   4
#     4  10  24  46  71 105 140 176 231 289 349 423
#     4  10  24  46  71 105 140 176 231 289 349 423
#     4  12  25  44  76  98 144 184 239 276 366 400
#     4  12  25  45  65  96 135 183 233 283 336 405
#     4  12  25  45  65  96 135 183 233 283 336 405
#
# _framework density 25.62481
#
# number of rings (size 3 to 8) (size 9 to 14) (size 15 to 20)
#    0.000    0.800    4.000    1.800    0.000   11.200 
#    0.000    6.000    0.000    0.000    0.000    0.000 
#    0.000    0.000    0.000    0.000    0.000    0.000 
#
# Total GULP energy -123886.731375 kJ/mol
# GULP energy per Si atom -12388.673138 kJ/mol
# Density = 2.556649 g / cm^3
# Si number density = 25.624810 Si / 1000 Ang^3
#
#
#
# Elastic Constant Matrix: (Units=GPa)
#
#
# Indices 1 2 3 4 5 6 
#
# 1 106.5218 47.5000 43.4536 0.0000 26.2987 0.0000
# 2 47.5000 51.6677 22.7926 0.0000 12.4255 0.0000
# 3 43.4536 22.7926 95.7602 0.0000 -3.5864 0.0000
# 4 0.0000 0.0000 0.0000 19.3969 0.0000 -0.3276
# 5 26.2987 12.4255 -3.5864 0.0000 50.7836 0.0000
# 6 0.0000 0.0000 0.0000 -0.3276 0.0000 41.1294
#
#
#
# Elastic Compliance Matrix: (Units=1/GPa)
#
#
# Indices 1 2 3 4 5 6 
#
# 1 0.019767 -0.013792 -0.005960 0.000000 -0.007283 0.000000
# 2 -0.013792 0.033009 -0.001637 0.000000 -0.001050 0.000000
# 3 -0.005960 -0.001637 0.013704 0.000000 0.004455 0.000000
# 4 0.000000 0.000000 0.000000 0.051561 0.000000 0.000411
# 5 -0.007283 -0.001050 0.004455 0.000000 0.024034 0.000000
# 6 0.000000 0.000000 0.000000 0.000411 0.000000 0.024317
#
#
# Mechanical properties :
#
#
# Convention : Reuss Voigt Hill
#
# Bulk Modulus (GPa) = 42.19244 53.49355 47.84300
# Shear Modulus (GPa) = 23.03390 31.60890 27.32140
#
# Velocity S-wave (km/s) = 3.00140 3.51597 3.26883
# Velocity P-wave (km/s) = 5.33970 6.11586 5.74091
#
# Compressibility (1/GPa) = 0.02370093
#
# Stress axis : x y z
#
# Youngs Moduli (GPa) = 50.58907 30.29491 72.97263
#
# Poissons Ratio (x) = 0.41783 0.43490
# Poissons Ratio (y) = 0.69773 0.11949
# Poissons Ratio (z) = 0.30150 0.04961
#
# Static dielectric constant tensor:
#      x y z
#    x 4.748990 0.000000 0.280700 
#    y 0.000000 4.663530 0.000000 
#    z 0.280700 0.000000 4.545100 
# 
# 
# High freq. dielectric constant tensor:
#      x y z
#    x 2.043600 0.000000 0.017910 
#    y 0.000000 2.034430 0.000000 
#    z 0.017910 0.000000 2.017160 
# 
# From -- ./inp_files/1767.got.cif
#   From: 2010.03.12/outbox.cif.g09.slc.cpg/sg8_1_cif.got.tgz:1767.got - 2010.03.31 10:45:26.
