data_PCOD8054923
_publ_section_title
;
Structure prediction by ZEFSAII (Michael W. Deem and Ramdas Pophale) SiO2 
 PCOD8054923
Probable space group: C C
;
_chemical_formula_sum "Si O2"
_cell_formula_units_Z 32
_cell_length_a 25.819175
_cell_length_b 6.124987
_cell_length_c 9.290493
_cell_angle_alpha 90.000000
_cell_angle_beta 73.110165
_cell_angle_gamma 90.000000
_cell_volume 1405.843662
_symmetry_space_group_name_H-M "C C"
_symmetry_group_IT_number 9
_symmetry_cell_setting 'monoclinic'
loop_
_space_group_symop_operation_xyz
x,y,z
x,-y,1/2+z
1/2+x,1/2+y,z
1/2+x,1/2-y,1/2+z
loop_
_atom_site_type_symbol
_atom_site_label
_atom_site_fract_x
_atom_site_fract_y
_atom_site_fract_z
Si Si1 0.375000 0.788748 0.506400
Si Si2 0.174784 0.770646 0.190418
Si Si3 0.139111 0.461034 0.455003
Si Si4 0.331683 0.495072 0.290723
Si Si5 0.492129 0.113435 0.822065
Si Si6 0.586246 0.582282 0.344459
Si Si7 0.293243 0.197685 0.571764
Si Si8 0.531841 0.192447 0.509839
O O1 0.365804 0.644964 0.371427
O O2 0.369133 0.656048 0.659514
O O3 0.437676 0.849324 0.453932
O O4 0.336562 0.002037 0.537432
O O5 0.172432 0.646399 0.344410
O O6 0.232116 0.897765 0.129592
O O7 0.122707 0.927428 0.211796
O O8 0.171784 0.580534 0.074055
O O9 0.132320 0.233502 0.376382
O O10 0.078969 0.542001 0.537692
O O11 0.296262 0.335466 0.420638
O O12 0.298279 0.647568 0.208209
O O13 0.539606 0.292182 0.798686
O O14 0.481869 0.133620 0.658447
O O15 0.514840 0.882050 0.862320
O O16 0.552748 0.439905 0.488623
#
# Coordination Sequence:
#
# PCOD8054923 Si02
#       8
#     4   4   4   4   4   4   4   4
#     4  11  26  45  70  95 135 180 235 289 348 402
#     4  11  23  40  68  97 134 177 216 271 334 404
#     4  10  21  40  62  96 135 170 216 268 329 400
#     4  10  25  46  66 100 133 173 234 289 341 417
#     4  11  25  40  66  93 131 172 223 282 331 394
#     4  10  22  39  64  98 133 172 226 262 333 400
#     4  11  24  44  70 100 138 181 229 285 347 405
#     4  10  22  40  62  95 131 173 215 274 329 400
#
# _framework density 22.762134
#
# number of rings (size 3 to 8) (size 9 to 14) (size 15 to 20)
#    0.000    1.500    0.000    4.500    5.250    7.000 
#    0.000    0.000    0.000    0.000    0.000    0.000 
#    0.000    0.000    0.000    0.000    0.000    0.000 
#
# Total GULP energy -198260.143967 kJ/mol
# GULP energy per Si atom -12391.258998 kJ/mol
# Density = 2.271033 g / cm^3
# Si number density = 22.762134 Si / 1000 Ang^3
#
#
#
# Elastic Constant Matrix: (Units=GPa)
#
#
# Indices 1 2 3 4 5 6 
#
# 1 81.1421 24.1236 36.7538 0.0000 -29.7550 0.0000
# 2 24.1236 97.7761 37.4431 0.0000 -14.3671 0.0000
# 3 36.7538 37.4431 120.5747 0.0000 -6.3949 0.0000
# 4 0.0000 0.0000 0.0000 29.2750 0.0000 1.3006
# 5 -29.7550 -14.3671 -6.3949 0.0000 33.5514 0.0000
# 6 0.0000 0.0000 0.0000 1.3006 0.0000 20.7804
#
#
#
# Elastic Compliance Matrix: (Units=1/GPa)
#
#
# Indices 1 2 3 4 5 6 
#
# 1 0.021463 -0.000617 -0.005410 0.000000 0.017739 0.000000
# 2 -0.000617 0.012283 -0.003411 0.000000 0.004062 0.000000
# 3 -0.005410 -0.003411 0.010779 0.000000 -0.004204 0.000000
# 4 0.000000 0.000000 0.000000 0.034254 0.000000 -0.002144
# 5 0.017739 0.004062 -0.004204 0.000000 0.046475 0.000000
# 6 0.000000 0.000000 0.000000 -0.002144 0.000000 0.048256
#
#
# Mechanical properties :
#
#
# Convention : Reuss Voigt Hill
#
# Bulk Modulus (GPa) = 38.98789 55.12598 47.05693
# Shear Modulus (GPa) = 24.88367 30.13287 27.50827
#
# Velocity S-wave (km/s) = 3.30995 3.64237 3.48013
# Velocity P-wave (km/s) = 5.63678 6.47766 6.07179
#
# Compressibility (1/GPa) = 0.02564899
#
# Stress axis : x y z
#
# Youngs Moduli (GPa) = 46.59210 81.41515 92.77425
#
# Poissons Ratio (x) = 0.05025 0.50190
# Poissons Ratio (y) = 0.02875 0.31642
# Poissons Ratio (z) = 0.25206 0.27768
#
# Static dielectric constant tensor:
#      x y z
#    x 3.879970 0.000000 -0.145940 
#    y 0.000000 4.244970 0.000000 
#    z -0.145940 0.000000 4.356940 
# 
# 
# High freq. dielectric constant tensor:
#      x y z
#    x 1.883510 0.000000 -0.003660 
#    y 0.000000 1.898340 0.000000 
#    z -0.003660 0.000000 1.914730 
# 
# From -- ./inp_files/12568.got.cif
#   From: 2010.06.25/outbox.cif.g09.slc.cpg/sg9_7_cif.got.tgz:12568.got - 2010.06.27 21:40:51.
