data_PCOD8054818
_publ_section_title
;
Structure prediction by ZEFSAII (Michael W. Deem and Ramdas Pophale) SiO2 
 PCOD8054818
Probable space group: C C
;
_chemical_formula_sum "Si O2"
_cell_formula_units_Z 28
_cell_length_a 7.712354
_cell_length_b 28.371315
_cell_length_c 8.552394
_cell_angle_alpha 90.000000
_cell_angle_beta 128.839165
_cell_angle_gamma 90.000000
_cell_volume 1457.609202
_symmetry_space_group_name_H-M "C C"
_symmetry_group_IT_number 9
_symmetry_cell_setting 'monoclinic'
loop_
_space_group_symop_operation_xyz
x,y,z
x,-y,1/2+z
1/2+x,1/2+y,z
1/2+x,1/2-y,1/2+z
loop_
_atom_site_type_symbol
_atom_site_label
_atom_site_fract_x
_atom_site_fract_y
_atom_site_fract_z
Si Si1 0.662900 0.190584 0.652500
Si Si2 0.129376 0.557014 0.069596
Si Si3 0.124189 0.809415 0.307069
Si Si4 0.393540 0.981846 0.729785
Si Si5 0.157704 0.942986 0.889975
Si Si6 0.393542 0.781677 0.729785
Si Si7 0.393544 0.867090 0.229786
O O1 0.482511 0.183574 0.413501
O O2 0.582079 0.166468 0.764424
O O3 0.893544 0.165745 0.729781
O O4 0.700087 0.247382 0.692671
O O5 0.072781 0.512701 0.926966
O O6 0.012791 0.602740 0.930749
O O7 0.032005 0.550354 0.188371
O O8 0.393540 0.563704 0.229786
O O9 0.304570 0.816426 0.546068
O O10 0.087001 0.752617 0.266901
O O11 0.205020 0.833529 0.195150
O O12 0.255073 0.949646 0.771199
O O13 0.214299 0.012701 0.532604
O O14 0.274289 0.897259 0.028822
#
# Coordination Sequence:
#
# PCOD8054818 Si02
#       7
#     4   4   4   4   4   4   4
#     4   9  19  38  54  78 106 142 180 228 259 317
#     4  10  21  38  56  84 107 143 175 221 263 319
#     4   9  19  38  54  78 106 142 180 228 259 317
#     4   9  20  39  62  76 106 142 188 210 256 323
#     4  10  21  38  56  84 107 143 175 221 263 319
#     4   8  18  39  58  73 102 146 192 213 266 309
#     4  11  24  32  52  87 114 134 180 215 280 318
#
# _framework density 19.209538999999999
#
# number of rings (size 3 to 8) (size 9 to 14) (size 15 to 20)
#    0.857    1.714    0.000    0.857    0.000    6.857 
#    0.000    2.857    0.000    0.000    0.000    0.000 
#    0.000    0.000    0.000    0.000    0.000    0.000 
#
# Total GULP energy -173526.627976 kJ/mol
# GULP energy per Si atom -12394.759141 kJ/mol
# Density = 1.916582 g / cm^3
# Si number density = 19.209539 Si / 1000 Ang^3
#
#
#
# Elastic Constant Matrix: (Units=GPa)
#
#
# Indices 1 2 3 4 5 6 
#
# 1 155.5718 51.2653 52.8922 0.0000 -12.8637 0.0000
# 2 51.2653 60.6243 25.0787 0.0000 -13.8284 0.0000
# 3 52.8922 25.0787 111.2882 0.0000 -0.3131 0.0000
# 4 0.0000 0.0000 0.0000 10.9219 0.0000 -13.6200
# 5 -12.8637 -13.8284 -0.3131 0.0000 35.1101 0.0000
# 6 0.0000 0.0000 0.0000 -13.6200 0.0000 19.5386
#
#
#
# Elastic Compliance Matrix: (Units=1/GPa)
#
#
# Indices 1 2 3 4 5 6 
#
# 1 0.009803 -0.006794 -0.003125 0.000000 0.000888 0.000000
# 2 -0.006794 0.024877 -0.002357 0.000000 0.007288 0.000000
# 3 -0.003125 -0.002357 0.010997 0.000000 -0.001975 0.000000
# 4 0.000000 0.000000 0.000000 0.700502 0.000000 0.488309
# 5 0.000888 0.007288 -0.001975 0.000000 0.031660 0.000000
# 6 0.000000 0.000000 0.000000 0.488309 0.000000 0.391573
#
#
# Mechanical properties :
#
#
# Convention : Reuss Voigt Hill
#
# Bulk Modulus (GPa) = 47.33793 65.10628 56.22210
# Shear Modulus (GPa) = 4.16318 26.33065 15.24691
#
# Velocity S-wave (km/s) = 1.47375 3.70632 2.82035
# Velocity P-wave (km/s) = 5.25284 7.23063 6.31959
#
# Compressibility (1/GPa) = 0.02112471
#
# Stress axis : x y z
#
# Youngs Moduli (GPa) = 102.01242 40.19702 90.93704
#
# Poissons Ratio (x) = 0.27310 0.28422
# Poissons Ratio (y) = 0.69307 0.21430
# Poissons Ratio (z) = 0.31883 0.09473
#
# Static dielectric constant tensor:
#      x y z
#    x 3.373730 0.000000 0.039630 
#    y 0.000000 3.206210 0.000000 
#    z 0.039630 0.000000 3.600300 
# 
# 
# High freq. dielectric constant tensor:
#      x y z
#    x 1.737760 0.000000 0.002420 
#    y 0.000000 1.724580 0.000000 
#    z 0.002420 0.000000 1.760320 
# 
# From -- ./inp_files/4425.got.cif
#   From: 2010.06.25/outbox.cif.g09.slc.cpg/sg9_3_cif.got.tgz:4425.got - 2010.06.27 21:40:51.
