data_PCOD8054958
_publ_section_title
;
Structure prediction by ZEFSAII (Michael W. Deem and Ramdas Pophale) SiO2 
 PCOD8054958
Probable space group: C C
;
_chemical_formula_sum "Si O2"
_cell_formula_units_Z 24
_cell_length_a 8.483555
_cell_length_b 11.381655
_cell_length_c 17.485839
_cell_angle_alpha 90.000000
_cell_angle_beta 129.375004
_cell_angle_gamma 90.000000
_cell_volume 1305.134032
_symmetry_space_group_name_H-M "C C"
_symmetry_group_IT_number 9
_symmetry_cell_setting 'monoclinic'
loop_
_space_group_symop_operation_xyz
x,y,z
x,-y,1/2+z
1/2+x,1/2+y,z
1/2+x,1/2-y,1/2+z
loop_
_atom_site_type_symbol
_atom_site_label
_atom_site_fract_x
_atom_site_fract_y
_atom_site_fract_z
Si Si1 0.754330 0.410495 0.339700
Si Si2 0.246090 0.810312 0.170308
Si Si3 0.940172 0.508931 0.616874
Si Si4 0.803620 0.277074 0.506987
Si Si5 0.080539 0.434380 0.004742
Si Si6 0.357976 0.554592 0.199882
O O1 0.739656 0.340086 0.257164
O O2 0.742724 0.315198 0.403300
O O3 0.568074 0.500443 0.292204
O O4 0.964128 0.484643 0.407193
O O5 0.384319 0.694846 0.200161
O O6 0.346696 0.918501 0.156868
O O7 0.020146 0.788577 0.068873
O O8 0.814129 0.388003 0.567488
O O9 0.933108 0.580913 0.533991
O O10 0.178017 0.474902 0.706275
O O11 0.628445 0.191263 0.483532
O O12 0.288192 0.500789 0.095925
#
# Coordination Sequence:
#
# PCOD8054958 Si02
#       6
#     4   4   4   4   4   4
#     4  11  22  37  63  92 115 168 196 238 314 348
#     4  11  20  39  65  84 124 158 198 253 295 350
#     4   8  20  37  60  86 115 158 195 245 298 341
#     4  10  21  41  60  86 126 156 201 249 291 360
#     4   9  20  42  57  84 124 154 202 244 293 354
#     4   9  21  40  57  84 124 150 198 255 281 359
#
# _framework density 18.388916999999999
#
# number of rings (size 3 to 8) (size 9 to 14) (size 15 to 20)
#    1.000    1.333    3.333    0.000    0.000    8.000 
#    0.000    0.000    0.000    0.000    0.000    0.000 
#    0.000    0.000    0.000    0.000    0.000    0.000 
#
# Total GULP energy -148729.826156 kJ/mol
# GULP energy per Si atom -12394.152180 kJ/mol
# Density = 1.834706 g / cm^3
# Si number density = 18.388917 Si / 1000 Ang^3
#
#
#
# Elastic Constant Matrix: (Units=GPa)
#
#
# Indices 1 2 3 4 5 6 
#
# 1 43.2602 49.1268 15.2358 0.0000 -4.7564 0.0000
# 2 49.1268 124.5392 28.1926 0.0000 -7.5786 0.0000
# 3 15.2358 28.1926 72.5940 0.0000 4.7760 0.0000
# 4 0.0000 0.0000 0.0000 34.8063 0.0000 3.7781
# 5 -4.7564 -7.5786 4.7760 0.0000 24.3815 0.0000
# 6 0.0000 0.0000 0.0000 3.7781 0.0000 42.0052
#
#
#
# Elastic Compliance Matrix: (Units=1/GPa)
#
#
# Indices 1 2 3 4 5 6 
#
# 1 0.042693 -0.015910 -0.003043 0.000000 0.003979 0.000000
# 2 -0.015910 0.015029 -0.002635 0.000000 0.002084 0.000000
# 3 -0.003043 -0.002635 0.015733 0.000000 -0.004494 0.000000
# 4 0.000000 0.000000 0.000000 0.029014 0.000000 -0.002610
# 5 0.003979 0.002084 -0.004494 0.000000 0.043319 0.000000
# 6 0.000000 0.000000 0.000000 -0.002610 0.000000 0.024041
#
#
# Mechanical properties :
#
#
# Convention : Reuss Voigt Hill
#
# Bulk Modulus (GPa) = 33.02631 47.27822 40.15227
# Shear Modulus (GPa) = 22.41181 30.09447 26.25314
#
# Velocity S-wave (km/s) = 3.49487 4.04982 3.78254
# Velocity P-wave (km/s) = 5.85529 6.90175 6.39994
#
# Compressibility (1/GPa) = 0.03027889
#
# Stress axis : x y z
#
# Youngs Moduli (GPa) = 23.42323 66.53918 63.56150
#
# Poissons Ratio (x) = 1.05863 0.19343
# Poissons Ratio (y) = 0.37266 0.16746
# Poissons Ratio (z) = 0.07128 0.17530
#
# Static dielectric constant tensor:
#      x y z
#    x 3.073050 0.000000 0.088880 
#    y 0.000000 3.378080 0.000000 
#    z 0.088880 0.000000 3.311650 
# 
# 
# High freq. dielectric constant tensor:
#      x y z
#    x 1.688300 0.000000 0.006580 
#    y 0.000000 1.719240 0.000000 
#    z 0.006580 0.000000 1.710230 
# 
# From -- ./inp_files/14207.got.cif
#   From: 2010.06.25/outbox.cif.g09.slc.cpg/sg9_8_cif.got.tgz:14207.got - 2010.06.27 21:40:51.
