data_PCOD8054949
_publ_section_title
;
Structure prediction by ZEFSAII (Michael W. Deem and Ramdas Pophale) SiO2 
 PCOD8054949
Probable space group: C C
;
_chemical_formula_sum "Si O2"
_cell_formula_units_Z 32
_cell_length_a 20.067658
_cell_length_b 7.476265
_cell_length_c 22.521305
_cell_angle_alpha 90.000000
_cell_angle_beta 154.249044
_cell_angle_gamma 90.000000
_cell_volume 1467.996478
_symmetry_space_group_name_H-M "C C"
_symmetry_group_IT_number 9
_symmetry_cell_setting 'monoclinic'
loop_
_space_group_symop_operation_xyz
x,y,z
x,-y,1/2+z
1/2+x,1/2+y,z
1/2+x,1/2-y,1/2+z
loop_
_atom_site_type_symbol
_atom_site_label
_atom_site_fract_x
_atom_site_fract_y
_atom_site_fract_z
Si Si1 0.788640 0.554176 0.859970
Si Si2 0.723456 0.574751 0.434211
Si Si3 0.132242 0.383543 0.602635
Si Si4 0.041193 0.598031 0.750535
Si Si5 0.605899 0.479171 0.601831
Si Si6 0.533198 0.761437 0.824405
Si Si7 0.254802 0.455650 0.825398
Si Si8 0.690979 0.808292 0.070524
O O1 0.687621 0.447170 0.730694
O O2 0.722840 0.751810 0.820318
O O3 0.793658 0.446296 0.924962
O O4 0.955003 0.572617 0.966069
O O5 0.597424 0.730777 0.332614
O O6 0.636549 0.399004 0.384614
O O7 0.861810 0.618551 0.590497
O O8 0.158262 0.170894 0.616655
O O9 0.223859 0.467633 0.730879
O O10 0.194206 0.485938 0.594697
O O11 0.078251 0.432948 0.822677
O O12 0.139278 0.580057 0.769046
O O13 0.426725 0.476472 0.473936
O O14 0.651769 0.325413 0.592922
O O15 0.353626 0.728203 0.670794
O O16 0.560741 0.789995 0.916339
#
# Coordination Sequence:
#
# PCOD8054949 Si02
#       8
#     4   4   4   4   4   4   4   4
#     4  10  21  40  69 102 146 177 225 299 365 421
#     4  12  28  46  73 108 140 190 242 299 361 426
#     4  10  22  41  65 101 139 184 230 295 354 418
#     4  12  28  46  73 108 140 190 242 299 361 426
#     4  10  24  39  65 107 141 180 230 293 360 424
#     4  12  28  50  72  98 150 196 240 296 352 424
#     4  10  21  40  69 102 146 177 225 299 365 421
#     4  12  26  44  72  98 140 198 238 284 348 442
#
# _framework density 21.798418000000002
#
# number of rings (size 3 to 8) (size 9 to 14) (size 15 to 20)
#    0.000    1.000    3.750    1.500    7.000    2.000 
#    0.000    0.000    0.000    0.000    0.000    0.000 
#    0.000    0.000    0.000    0.000    0.000    0.000 
#
# Total GULP energy -198479.188576 kJ/mol
# GULP energy per Si atom -12404.949286 kJ/mol
# Density = 2.174880 g / cm^3
# Si number density = 21.798418 Si / 1000 Ang^3
#
#
#
# Elastic Constant Matrix: (Units=GPa)
#
#
# Indices 1 2 3 4 5 6 
#
# 1 62.2333 34.9638 16.5452 0.0000 -6.9246 -0.0001
# 2 34.9638 103.7883 35.7949 0.0001 -15.1270 0.0002
# 3 16.5452 35.7949 125.0233 0.0007 -17.4044 -0.0005
# 4 0.0000 0.0001 0.0007 28.7511 0.0003 3.2634
# 5 -6.9246 -15.1270 -17.4044 0.0003 24.0659 0.0000
# 6 -0.0001 0.0002 -0.0005 3.2634 0.0000 18.5124
#
#
#
# Elastic Compliance Matrix: (Units=1/GPa)
#
#
# Indices 1 2 3 4 5 6 
#
# 1 0.019925 -0.006297 -0.000652 0.000000 0.001303 0.000000
# 2 -0.006297 0.013253 -0.002284 0.000000 0.004867 0.000000
# 3 -0.000652 -0.002284 0.009466 0.000000 0.005222 0.000000
# 4 0.000000 0.000000 0.000000 0.035491 -0.000001 -0.006256
# 5 0.001303 0.004867 0.005222 -0.000001 0.048764 0.000000
# 6 0.000000 0.000000 0.000000 -0.006256 0.000000 0.055121
#
#
# Mechanical properties :
#
#
# Convention : Reuss Voigt Hill
#
# Bulk Modulus (GPa) = 41.36116 51.73916 46.55016
# Shear Modulus (GPa) = 23.97557 27.84861 25.91209
#
# Velocity S-wave (km/s) = 3.32004 3.57816 3.45151
# Velocity P-wave (km/s) = 5.80624 6.39201 6.10615
#
# Compressibility (1/GPa) = 0.02417727
#
# Stress axis : x y z
#
# Youngs Moduli (GPa) = 50.18835 75.45249 105.64486
#
# Poissons Ratio (x) = 0.47515 0.06893
# Poissons Ratio (y) = 0.31605 0.24125
# Poissons Ratio (z) = 0.03275 0.17230
#
# Static dielectric constant tensor:
#      x y z
#    x 3.694880 0.000000 -0.107030 
#    y 0.000000 4.183860 0.000000 
#    z -0.107030 0.000000 4.110310 
# 
# 
# High freq. dielectric constant tensor:
#      x y z
#    x 1.845070 0.000000 -0.004590 
#    y 0.000000 1.864550 0.000000 
#    z -0.004590 0.000000 1.873250 
# 
# From -- ./inp_files/34068.got.cif
#   From: 2010.06.25/outbox.cif.g09.slc.cpg/sg9_18_cif.got.tgz:34068.got - 2010.06.27 21:40:51.
