data_PCOD8054181
_publ_section_title
;
Structure prediction by ZEFSAII (Michael W. Deem and Ramdas Pophale) SiO2 
 PCOD8054181
Probable space group: C C
;
_chemical_formula_sum "Si O2"
_cell_formula_units_Z 24
_cell_length_a 14.731742
_cell_length_b 16.564390
_cell_length_c 14.235237
_cell_angle_alpha 90.000000
_cell_angle_beta 159.815550
_cell_angle_gamma 90.000000
_cell_volume 1198.582906
_symmetry_space_group_name_H-M "C C"
_symmetry_group_IT_number 9
_symmetry_cell_setting 'monoclinic'
loop_
_space_group_symop_operation_xyz
x,y,z
x,-y,1/2+z
1/2+x,1/2+y,z
1/2+x,1/2-y,1/2+z
loop_
_atom_site_type_symbol
_atom_site_label
_atom_site_fract_x
_atom_site_fract_y
_atom_site_fract_z
Si Si1 0.134670 0.302844 0.360210
Si Si2 0.479994 0.582672 0.694399
Si Si3 0.781610 0.052142 0.884264
Si Si4 0.046026 0.592316 0.953076
Si Si5 0.008740 0.606472 0.118874
Si Si6 0.537157 0.517015 0.945567
O O1 0.428625 0.268267 0.644492
O O2 0.141540 0.366117 0.280925
O O3 0.037708 0.344775 0.360951
O O4 0.455920 0.488892 0.637183
O O5 0.735471 0.626172 0.901927
O O6 0.500783 0.582832 0.827098
O O7 0.237620 0.634492 0.414273
O O8 0.970296 0.064410 0.977038
O O9 0.545996 0.989378 0.631715
O O10 0.009101 0.644223 0.014155
O O11 0.828240 0.521687 0.727828
O O12 0.335951 0.555549 0.235010
#
# Coordination Sequence:
#
# PCOD8054181 Si02
#       6
#     4   4   4   4   4   4
#     4  12  26  36  53  78 121 163 177 212 266 354
#     4  10  17  30  50  81 104 126 170 226 297 311
#     4   9  21  33  52  77 112 138 188 214 284 323
#     4  11  19  35  52  78 104 146 189 216 281 318
#     4   9  18  31  54  76 104 134 167 247 275 310
#     4  11  19  31  59  78 107 141 173 253 273 322
#
# _framework density 20.023647
#
# number of rings (size 3 to 8) (size 9 to 14) (size 15 to 20)
#    1.000    0.667    3.333    3.000    2.333    0.000 
#    0.000    0.000    0.000    0.000    0.000    7.000 
#    0.000    0.000    0.000    0.000    0.000    0.000 
#
# Total GULP energy -148675.689063 kJ/mol
# GULP energy per Si atom -12389.640755 kJ/mol
# Density = 1.997807 g / cm^3
# Si number density = 20.023647 Si / 1000 Ang^3
#
#
#
# Elastic Constant Matrix: (Units=GPa)
#
#
# Indices 1 2 3 4 5 6 
#
# 1 118.7720 19.3305 18.4705 0.0022 -0.7843 -0.0002
# 2 19.3305 30.4342 1.8979 0.0040 3.2310 -0.0028
# 3 18.4705 1.8979 94.8398 0.0113 6.0042 -0.0081
# 4 0.0022 0.0040 0.0113 14.9026 0.0006 7.4674
# 5 -0.7843 3.2310 6.0042 0.0006 32.8007 0.0010
# 6 -0.0002 -0.0028 -0.0081 7.4674 0.0010 17.9308
#
#
#
# Elastic Compliance Matrix: (Units=1/GPa)
#
#
# Indices 1 2 3 4 5 6 
#
# 1 0.009721 -0.006184 -0.001844 0.000003 0.001179 -0.000003
# 2 -0.006184 0.037159 0.000710 -0.000016 -0.003938 0.000013
# 3 -0.001844 0.000710 0.011024 -0.000014 -0.002132 0.000011
# 4 0.000003 -0.000016 -0.000014 0.084798 0.000004 -0.035315
# 5 0.001179 -0.003938 -0.002132 0.000004 0.031294 -0.000005
# 6 -0.000003 0.000013 0.000011 -0.035315 -0.000005 0.070477
#
#
# Mechanical properties :
#
#
# Convention : Reuss Voigt Hill
#
# Bulk Modulus (GPa) = 23.11190 35.93819 29.52504
# Shear Modulus (GPa) = 18.27945 26.74997 22.51471
#
# Velocity S-wave (km/s) = 3.02469 3.65899 3.35685
# Velocity P-wave (km/s) = 4.87501 5.98646 5.45910
#
# Compressibility (1/GPa) = 0.04326775
#
# Stress axis : x y z
#
# Youngs Moduli (GPa) = 102.87483 26.91102 90.71124
#
# Poissons Ratio (x) = 0.16642 0.16727
# Poissons Ratio (y) = 0.63620 -0.06442
# Poissons Ratio (z) = 0.18970 -0.01911
#
# Static dielectric constant tensor:
#      x y z
#    x 3.963700 0.000000 -0.086060 
#    y 0.000000 2.929580 0.000000 
#    z -0.086060 0.000000 3.616820 
# 
# 
# High freq. dielectric constant tensor:
#      x y z
#    x 1.800490 0.000000 0.002140 
#    y 0.000000 1.705850 0.000000 
#    z 0.002140 0.000000 1.792690 
# 
# From -- ./inp_files/26078.got.cif
#   From: 2010.06.25/outbox.cif.g09.slc.cpg/sg9_14_cif.got.tgz:26078.got - 2010.06.27 21:40:51.
