data_PCOD8054886
_publ_section_title
;
Structure prediction by ZEFSAII (Michael W. Deem and Ramdas Pophale) SiO2 
 PCOD8054886
Probable space group: C C
;
_chemical_formula_sum "Si O2"
_cell_formula_units_Z 24
_cell_length_a 8.626490
_cell_length_b 24.959443
_cell_length_c 9.816439
_cell_angle_alpha 90.000000
_cell_angle_beta 149.160581
_cell_angle_gamma 90.000000
_cell_volume 1083.503050
_symmetry_space_group_name_H-M "C C"
_symmetry_group_IT_number 9
_symmetry_cell_setting 'monoclinic'
loop_
_space_group_symop_operation_xyz
x,y,z
x,-y,1/2+z
1/2+x,1/2+y,z
1/2+x,1/2-y,1/2+z
loop_
_atom_site_type_symbol
_atom_site_label
_atom_site_fract_x
_atom_site_fract_y
_atom_site_fract_z
Si Si1 0.739860 0.561237 0.197730
Si Si2 0.960989 0.281156 0.479534
Si Si3 0.685996 0.438859 0.145630
Si Si4 0.089805 0.397697 0.220134
Si Si5 0.749330 0.218839 0.900839
Si Si6 0.511768 0.102381 0.136407
O O1 0.786380 0.499529 0.192369
O O2 0.867613 0.581094 0.436956
O O3 0.908706 0.597229 0.214006
O O4 0.380551 0.565085 0.936828
O O5 0.111900 0.285788 0.446656
O O6 0.004822 0.335527 0.594386
O O7 0.614032 0.265003 0.189413
O O8 0.902867 0.401096 0.219281
O O9 0.756500 0.427700 0.356363
O O10 0.337528 0.424527 0.853588
O O11 0.210733 0.337157 0.292994
O O12 0.596049 0.264178 0.688741
#
# Coordination Sequence:
#
# PCOD8054886 Si02
#       6
#     4   4   4   4   4   4
#     4  12  26  43  64  98 140 170 209 275 332 384
#     4  10  21  39  66  96 124 165 220 271 314 380
#     4  12  24  43  70  94 128 179 228 258 313 393
#     4  12  25  44  67  99 131 172 219 269 327 385
#     4  10  21  39  66  96 124 165 219 271 316 380
#     4  12  25  44  67  99 131 173 219 268 328 384
#
# _framework density 22.150378
#
# number of rings (size 3 to 8) (size 9 to 14) (size 15 to 20)
#    0.000    0.667    1.667    7.000    4.667    0.000 
#    0.000    5.000    0.000    0.000    0.000    0.000 
#    0.000    0.000    0.000    0.000    0.000    0.000 
#
# Total GULP energy -148798.904491 kJ/mol
# GULP energy per Si atom -12399.908708 kJ/mol
# Density = 2.209996 g / cm^3
# Si number density = 22.150378 Si / 1000 Ang^3
#
#
#
# Elastic Constant Matrix: (Units=GPa)
#
#
# Indices 1 2 3 4 5 6 
#
# 1 65.7675 4.7608 18.2090 0.0000 5.4037 0.0000
# 2 4.7608 120.8063 27.6669 0.0000 -10.6434 0.0000
# 3 18.2090 27.6669 173.3279 0.0000 -6.5504 0.0000
# 4 0.0000 0.0000 0.0000 54.4086 0.0000 -8.6545
# 5 5.4037 -10.6434 -6.5504 0.0000 22.5522 0.0000
# 6 0.0000 0.0000 0.0000 -8.6545 0.0000 22.6681
#
#
#
# Elastic Compliance Matrix: (Units=1/GPa)
#
#
# Indices 1 2 3 4 5 6 
#
# 1 0.016126 -0.000643 -0.001768 0.000000 -0.004681 0.000000
# 2 -0.000643 0.008934 -0.001207 0.000000 0.004020 0.000000
# 3 -0.001768 -0.001207 0.006210 0.000000 0.001658 0.000000
# 4 0.000000 0.000000 0.000000 0.019568 0.000000 0.007471
# 5 -0.004681 0.004020 0.001658 0.000000 0.047842 0.000000
# 6 0.000000 0.000000 0.000000 0.007471 0.000000 0.046967
#
#
# Mechanical properties :
#
#
# Convention : Reuss Voigt Hill
#
# Bulk Modulus (GPa) = 41.60746 51.24168 46.42457
# Shear Modulus (GPa) = 31.07641 40.54344 35.80992
#
# Velocity S-wave (km/s) = 3.74969 4.28293 4.02515
# Velocity P-wave (km/s) = 6.12958 6.90230 6.52738
#
# Compressibility (1/GPa) = 0.02403415
#
# Stress axis : x y z
#
# Youngs Moduli (GPa) = 62.01231 111.93801 161.01903
#
# Poissons Ratio (x) = 0.07197 0.28474
# Poissons Ratio (y) = 0.03987 0.19427
# Poissons Ratio (z) = 0.10966 0.13506
#
# Static dielectric constant tensor:
#      x y z
#    x 3.649310 0.000000 -0.012280 
#    y 0.000000 4.032010 0.000000 
#    z -0.012280 0.000000 4.292850 
# 
# 
# High freq. dielectric constant tensor:
#      x y z
#    x 1.846840 0.000000 -0.003390 
#    y 0.000000 1.883860 0.000000 
#    z -0.003390 0.000000 1.895590 
# 
# From -- ./inp_files/683.got.cif
#   From: 2010.06.25/outbox.cif.g09.slc.cpg/sg9_1_cif.got.tgz:683.got - 2010.06.27 21:40:51.
