data_PCOD8054808
_publ_section_title
;
Structure prediction by ZEFSAII (Michael W. Deem and Ramdas Pophale) SiO2 
 PCOD8054808
Probable space group: C C
;
_chemical_formula_sum "Si O2"
_cell_formula_units_Z 32
_cell_length_a 21.789623
_cell_length_b 17.255140
_cell_length_c 13.352545
_cell_angle_alpha 90.000000
_cell_angle_beta 161.533892
_cell_angle_gamma 90.000000
_cell_volume 1590.157565
_symmetry_space_group_name_H-M "C C"
_symmetry_group_IT_number 9
_symmetry_cell_setting 'monoclinic'
loop_
_space_group_symop_operation_xyz
x,y,z
x,-y,1/2+z
1/2+x,1/2+y,z
1/2+x,1/2-y,1/2+z
loop_
_atom_site_type_symbol
_atom_site_label
_atom_site_fract_x
_atom_site_fract_y
_atom_site_fract_z
Si Si1 0.688150 0.532969 0.837750
Si Si2 0.090940 0.528386 0.889894
Si Si3 0.910670 0.967807 0.257562
Si Si4 0.450007 0.296938 0.280587
Si Si5 0.777886 0.804200 0.383938
Si Si6 0.195363 0.817110 0.484031
Si Si7 0.517277 0.818432 0.155488
Si Si8 0.884965 0.024377 0.999354
O O1 0.557336 0.529503 0.534769
O O2 0.592708 0.469114 0.764672
O O3 0.678634 0.615163 0.877492
O O4 0.906029 0.515187 0.146620
O O5 0.031209 0.611424 0.754843
O O6 0.190635 0.479098 0.955146
O O7 0.244910 0.532131 0.218641
O O8 0.973992 0.878912 0.375024
O O9 0.919509 0.980800 0.154682
O O10 0.603067 0.234822 0.555568
O O11 0.243830 0.259959 0.993603
O O12 0.487952 0.305645 0.219545
O O13 0.724198 0.805218 0.419584
O O14 0.970468 0.756058 0.653120
O O15 0.795028 0.891289 0.371397
O O16 0.353023 0.835099 0.816554
#
# Coordination Sequence:
#
# PCOD8054808 Si02
#       8
#     4   4   4   4   4   4   4   4
#     4  11  24  38  66  93 130 167 215 259 327 374
#     4  11  24  38  66  93 130 167 215 259 327 374
#     4  11  24  43  65  94 129 168 214 271 317 377
#     4  10  21  37  63  90 124 165 216 262 311 374
#     4  10  21  37  63  90 124 165 216 262 311 374
#     4  10  21  37  62  91 126 164 216 264 310 377
#     4  10  21  37  62  91 126 164 216 264 310 377
#     4  11  24  43  65  94 129 168 214 271 317 377
#
# _framework density 20.123792000000002
#
# number of rings (size 3 to 8) (size 9 to 14) (size 15 to 20)
#    0.000    1.500    2.500    3.000   14.000    0.000 
#    0.000    1.250    0.000    0.000    0.000    0.000 
#    0.000    0.000    0.000    0.000    0.000    0.000 
#
# Total GULP energy -198272.429481 kJ/mol
# GULP energy per Si atom -12392.026843 kJ/mol
# Density = 2.007799 g / cm^3
# Si number density = 20.123792 Si / 1000 Ang^3
#
#
#
# Elastic Constant Matrix: (Units=GPa)
#
#
# Indices 1 2 3 4 5 6 
#
# 1 126.8339 28.1124 33.4416 0.0000 11.1284 0.0000
# 2 28.1124 108.6059 19.4894 0.0000 -8.7473 0.0000
# 3 33.4416 19.4894 52.1675 -0.0001 9.6017 -0.0001
# 4 0.0000 0.0000 -0.0001 40.9727 0.0000 9.0343
# 5 11.1284 -8.7473 9.6017 0.0000 33.7291 0.0000
# 6 0.0000 0.0000 -0.0001 9.0343 0.0000 48.6739
#
#
#
# Elastic Compliance Matrix: (Units=1/GPa)
#
#
# Indices 1 2 3 4 5 6 
#
# 1 0.009858 -0.001790 -0.005241 0.000000 -0.002225 0.000000
# 2 -0.001790 0.010681 -0.003652 0.000000 0.004400 0.000000
# 3 -0.005241 -0.003652 0.025063 0.000000 -0.006353 0.000000
# 4 0.000000 0.000000 0.000000 0.025448 0.000000 -0.004723
# 5 -0.002225 0.004400 -0.006353 0.000000 0.033332 0.000000
# 6 0.000000 0.000000 0.000000 -0.004723 0.000000 0.021422
#
#
# Mechanical properties :
#
#
# Convention : Reuss Voigt Hill
#
# Bulk Modulus (GPa) = 41.26505 49.96600 45.61553
# Shear Modulus (GPa) = 32.20628 38.44606 35.32617
#
# Velocity S-wave (km/s) = 4.00485 4.37564 4.19435
# Velocity P-wave (km/s) = 6.47574 7.10011 6.79510
#
# Compressibility (1/GPa) = 0.02423358
#
# Stress axis : x y z
#
# Youngs Moduli (GPa) = 101.43727 93.62485 39.90012
#
# Poissons Ratio (x) = 0.16763 0.20912
# Poissons Ratio (y) = 0.18162 0.14573
# Poissons Ratio (z) = 0.53165 0.34196
#
# Static dielectric constant tensor:
#      x y z
#    x 4.413650 0.000000 0.520070 
#    y 0.000000 3.726430 0.000000 
#    z 0.520070 0.000000 3.583290 
# 
# 
# High freq. dielectric constant tensor:
#      x y z
#    x 1.814120 0.000000 0.027680 
#    y 0.000000 1.785360 0.000000 
#    z 0.027680 0.000000 1.748470 
# 
# From -- ./inp_files/21019.got.cif
#   From: 2010.06.25/outbox.cif.g09.slc.cpg/sg9_11_cif.got.tgz:21019.got - 2010.06.27 21:40:51.
