data_PCOD8054209
_publ_section_title
;
Structure prediction by ZEFSAII (Michael W. Deem and Ramdas Pophale) SiO2 
 PCOD8054209
Probable space group: C C
;
_chemical_formula_sum "Si O2"
_cell_formula_units_Z 32
_cell_length_a 31.417877
_cell_length_b 8.138440
_cell_length_c 20.544871
_cell_angle_alpha 90.000000
_cell_angle_beta 20.013298
_cell_angle_gamma 90.000000
_cell_volume 1797.835461
_symmetry_space_group_name_H-M "C C"
_symmetry_group_IT_number 9
_symmetry_cell_setting 'monoclinic'
loop_
_space_group_symop_operation_xyz
x,y,z
x,-y,1/2+z
1/2+x,1/2+y,z
1/2+x,1/2-y,1/2+z
loop_
_atom_site_type_symbol
_atom_site_label
_atom_site_fract_x
_atom_site_fract_y
_atom_site_fract_z
Si Si1 0.053480 0.735346 0.334640
Si Si2 0.449999 0.454338 0.022528
Si Si3 0.722147 0.678602 0.121158
Si Si4 0.266339 0.306530 0.391093
Si Si5 0.528127 0.649462 0.724926
Si Si6 0.820890 0.337195 0.946012
Si Si7 0.108012 0.428006 0.193753
Si Si8 0.918680 0.829283 0.925387
O O1 0.041408 0.822379 0.282439
O O2 0.030855 0.539382 0.358824
O O3 0.195558 0.755527 0.155219
O O4 0.958737 0.843634 0.515394
O O5 0.362697 0.381615 0.202654
O O6 0.587894 0.385417 0.836280
O O7 0.397402 0.398775 0.028278
O O8 0.706944 0.809439 0.085425
O O9 0.809697 0.533942 0.967647
O O10 0.785700 0.769536 0.090580
O O11 0.169373 0.179376 0.494929
O O12 0.341127 0.215834 0.341654
O O13 0.182670 0.454383 0.538672
O O14 0.435946 0.777346 0.823535
O O15 0.477882 0.463503 0.790325
O O16 0.009803 0.325992 0.293496
#
# Coordination Sequence:
#
# PCOD8054209 Si02
#       8
#     4   4   4   4   4   4   4   4
#     4   8  16  31  48  69  96 129 164 200 244 296
#     4   9  20  33  48  72 102 131 162 203 258 307
#     4  10  18  32  53  75  97 129 173 210 244 300
#     4  10  19  33  50  73 102 131 163 208 260 304
#     4   9  17  31  53  73  95 131 171 206 245 296
#     4   9  17  31  53  73  95 131 171 206 245 296
#     4   9  17  31  52  74  94 127 169 209 248 297
#     4  10  18  32  53  75  97 129 173 210 244 300
#
# _framework density 17.79918
#
# number of rings (size 3 to 8) (size 9 to 14) (size 15 to 20)
#    0.000    3.000    0.000    5.250    0.000    1.000 
#    0.000    5.000    0.000   21.000    0.000    0.000 
#    0.000    0.000    0.000    0.000    0.000    0.000 
#
# Total GULP energy -198213.212136 kJ/mol
# GULP energy per Si atom -12388.325759 kJ/mol
# Density = 1.775867 g / cm^3
# Si number density = 17.799180 Si / 1000 Ang^3
#
#
#
# Elastic Constant Matrix: (Units=GPa)
#
#
# Indices 1 2 3 4 5 6 
#
# 1 44.0872 16.1815 41.3293 -0.0011 -8.8066 -0.0008
# 2 16.1815 112.6046 35.2943 0.0000 5.7040 0.0001
# 3 41.3293 35.2943 78.6482 0.0006 1.1512 0.0008
# 4 -0.0011 0.0000 0.0006 27.5190 0.0006 -4.1930
# 5 -8.8066 5.7040 1.1512 0.0006 34.4179 0.0002
# 6 -0.0008 0.0001 0.0008 -4.1930 0.0002 26.3623
#
#
#
# Elastic Compliance Matrix: (Units=1/GPa)
#
#
# Indices 1 2 3 4 5 6 
#
# 1 0.050544 0.000498 -0.026986 0.000003 0.013753 0.000003
# 2 0.000498 0.010423 -0.004918 0.000000 -0.001435 0.000000
# 3 -0.026986 -0.004918 0.029206 -0.000002 -0.007067 -0.000002
# 4 0.000003 0.000000 -0.000002 0.037241 0.000000 0.005923
# 5 0.013753 -0.001435 -0.007067 0.000000 0.033048 0.000000
# 6 0.000003 0.000000 -0.000002 0.005923 0.000000 0.038875
#
#
# Mechanical properties :
#
#
# Convention : Reuss Voigt Hill
#
# Bulk Modulus (GPa) = 36.54668 46.77225 41.65946
# Shear Modulus (GPa) = 18.43177 27.16216 22.79696
#
# Velocity S-wave (km/s) = 3.22147 3.91069 3.58269
# Velocity P-wave (km/s) = 5.86639 6.83565 6.36948
#
# Compressibility (1/GPa) = 0.02736227
#
# Stress axis : x y z
#
# Youngs Moduli (GPa) = 19.78463 95.93839 34.23898
#
# Poissons Ratio (x) = -0.04781 0.92397
# Poissons Ratio (y) = -0.00986 0.16840
# Poissons Ratio (z) = 0.53390 0.47187
#
# Static dielectric constant tensor:
#      x y z
#    x 3.135920 0.000000 -0.276160 
#    y 0.000000 3.821420 0.000000 
#    z -0.276160 0.000000 3.225300 
# 
# 
# High freq. dielectric constant tensor:
#      x y z
#    x 1.671320 0.000000 -0.036430 
#    y 0.000000 1.708310 0.000000 
#    z -0.036430 0.000000 1.658850 
# 
# From -- ./inp_files/21458.got.cif
#   From: 2010.06.25/outbox.cif.g09.slc.cpg/sg9_11_cif.got.tgz:21458.got - 2010.06.27 21:40:51.
