data_PCOD8054771
_publ_section_title
;
Structure prediction by ZEFSAII (Michael W. Deem and Ramdas Pophale) SiO2 
 PCOD8054771
Probable space group: C C
;
_chemical_formula_sum "Si O2"
_cell_formula_units_Z 28
_cell_length_a 21.124628
_cell_length_b 12.323229
_cell_length_c 5.335149
_cell_angle_alpha 90.000000
_cell_angle_beta 128.733055
_cell_angle_gamma 90.000000
_cell_volume 1083.411584
_symmetry_space_group_name_H-M "C C"
_symmetry_group_IT_number 9
_symmetry_cell_setting 'monoclinic'
loop_
_space_group_symop_operation_xyz
x,y,z
x,-y,1/2+z
1/2+x,1/2+y,z
1/2+x,1/2-y,1/2+z
loop_
_atom_site_type_symbol
_atom_site_label
_atom_site_fract_x
_atom_site_fract_y
_atom_site_fract_z
Si Si1 0.834730 0.239003 0.256040
Si Si2 0.090752 0.050826 0.051816
Si Si3 0.908300 0.043458 0.627871
Si Si4 0.814477 0.469736 0.361314
Si Si5 0.942212 0.346049 0.172465
Si Si6 0.199547 0.432915 0.363336
Si Si7 0.542509 0.199932 0.426791
O O1 0.904784 0.172371 0.579253
O O2 0.828046 0.342373 0.422855
O O3 0.865888 0.267980 0.053788
O O4 0.751638 0.176120 0.023491
O O5 0.999905 0.000493 0.855949
O O6 0.133368 0.992560 0.915244
O O7 0.086482 0.181579 0.017333
O O8 0.862134 0.993059 0.267631
O O9 0.764453 0.487324 0.978039
O O10 0.901276 0.533792 0.538571
O O11 0.984978 0.305106 0.028561
O O12 0.000112 0.334979 0.561057
O O13 0.218685 0.507630 0.650114
O O14 0.107307 0.394109 0.137363
#
# Coordination Sequence:
#
# PCOD8054771 Si02
#       7
#     4   4   4   4   4   4   4
#     4  11  24  45  69 102 141 185 240 299 358 426
#     4  10  21  38  62  99 133 171 230 284 348 410
#     4  10  21  34  58  92 128 169 220 281 338 401
#     4  10  23  39  63 102 134 166 231 294 353 409
#     4  11  24  42  75 107 139 186 246 306 362 421
#     4  12  30  51  72 106 150 202 241 291 377 458
#     4  12  25  47  71 106 149 191 236 305 364 435
#
# _framework density 25.844287999999999
#
# number of rings (size 3 to 8) (size 9 to 14) (size 15 to 20)
#    0.000    1.143    1.429    4.286    4.000   11.429 
#    0.000    2.857    0.000    0.000    0.000    0.000 
#    0.000    0.000    0.000    0.000    0.000    0.000 
#
# Total GULP energy -173480.263234 kJ/mol
# GULP energy per Si atom -12391.447374 kJ/mol
# Density = 2.578546 g / cm^3
# Si number density = 25.844288 Si / 1000 Ang^3
#
#
#
# Elastic Constant Matrix: (Units=GPa)
#
#
# Indices 1 2 3 4 5 6 
#
# 1 88.1266 22.0520 27.3329 0.0000 -39.6449 0.0000
# 2 22.0520 149.7110 30.3630 0.0000 -24.9084 0.0000
# 3 27.3329 30.3630 125.1890 0.0000 -42.8264 0.0000
# 4 0.0000 0.0000 0.0000 49.0376 0.0000 -1.4387
# 5 -39.6449 -24.9084 -42.8264 0.0000 50.0383 0.0000
# 6 0.0000 0.0000 0.0000 -1.4387 0.0000 34.5253
#
#
#
# Elastic Compliance Matrix: (Units=1/GPa)
#
#
# Indices 1 2 3 4 5 6 
#
# 1 0.017807 -0.000391 0.001367 0.000000 0.015083 0.000000
# 2 -0.000391 0.007341 -0.000779 0.000000 0.002678 0.000000
# 3 0.001367 -0.000779 0.011476 0.000000 0.010518 0.000000
# 4 0.000000 0.000000 0.000000 0.020417 0.000000 0.000851
# 5 0.015083 0.002678 0.010518 0.000000 0.042270 0.000000
# 6 0.000000 0.000000 0.000000 0.000851 0.000000 0.029000
#
#
# Mechanical properties :
#
#
# Convention : Reuss Voigt Hill
#
# Bulk Modulus (GPa) = 27.01365 58.05803 42.53584
# Shear Modulus (GPa) = 35.64927 45.60549 40.62738
#
# Velocity S-wave (km/s) = 3.71804 4.20530 3.96915
# Velocity P-wave (km/s) = 5.37651 6.78916 6.12371
#
# Compressibility (1/GPa) = 0.03701833
#
# Stress axis : x y z
#
# Youngs Moduli (GPa) = 56.15902 136.22875 87.13532
#
# Poissons Ratio (x) = 0.05320 -0.11911
# Poissons Ratio (y) = 0.02193 0.06788
# Poissons Ratio (z) = -0.07676 0.10612
#
# Static dielectric constant tensor:
#      x y z
#    x 4.634920 0.000000 -0.330200 
#    y 0.000000 4.717650 0.000000 
#    z -0.330200 0.000000 5.183690 
# 
# 
# High freq. dielectric constant tensor:
#      x y z
#    x 2.031590 0.000000 -0.016320 
#    y 0.000000 2.039880 0.000000 
#    z -0.016320 0.000000 2.059370 
# 
# From -- ./inp_files/3171.got.cif
#   From: 2010.06.25/outbox.cif.g09.slc.cpg/sg9_2_cif.got.tgz:3171.got - 2010.06.27 21:40:51.
