data_PCOD8054064
_publ_section_title
;
Structure prediction by ZEFSAII (Michael W. Deem and Ramdas Pophale) SiO2 
 PCOD8054064
Probable space group: C M
;
_chemical_formula_sum "Si O2"
_cell_formula_units_Z 24
_cell_length_a 15.736189
_cell_length_b 8.821229
_cell_length_c 18.287958
_cell_angle_alpha 90.000000
_cell_angle_beta 30.630888
_cell_angle_gamma 90.000000
_cell_volume 1293.429128
_symmetry_space_group_name_H-M "C M"
_symmetry_group_IT_number 8
_symmetry_cell_setting 'monoclinic'
loop_
_space_group_symop_operation_xyz
x,y,z
x,-y,z
1/2+x,1/2+y,z
1/2+x,1/2-y,z
loop_
_atom_site_type_symbol
_atom_site_label
_atom_site_fract_x
_atom_site_fract_y
_atom_site_fract_z
Si Si1 0.789180 0.330051 0.508280
Si Si2 0.477618 0.830051 0.508280
Si Si3 0.149248 0.320053 0.742431
Si Si4 0.815419 0.320428 0.240075
Si Si5 0.987788 0.820428 0.240075
Si Si6 0.323365 0.820019 0.068313
O O1 0.730931 0.500000 0.530064
O O2 0.954236 0.336445 0.437443
O O3 0.644034 0.245587 0.662931
O O4 0.832550 0.235705 0.404074
O O5 0.313460 0.745589 0.662932
O O6 0.642660 0.735704 0.404074
O O7 0.492302 0.000000 0.530061
O O8 0.159822 0.500000 0.731859
O O9 0.986478 0.261260 0.905200
O O10 0.823410 0.500000 0.238021
O O11 0.967001 0.250000 0.174678
O O12 0.830449 0.259364 0.146098
O O13 0.160713 0.759364 0.146097
O O14 0.983908 0.000000 0.238020
O O15 0.317611 0.000000 0.074068
#
# Coordination Sequence:
#
# PCOD8054064 Si02
#       6
#     4   4   4   4   4   4
#     4   9  18  33  53  80 107 137 181 223 264 317
#     4   9  18  33  53  80 107 137 181 223 264 317
#     4   9  16  31  56  80 104 145 184 221 272 324
#     4  11  21  36  57  83 110 144 183 226 272 324
#     4  11  21  36  57  83 110 144 183 226 272 324
#     4   9  19  35  56  78 110 147 182 219 272 330
#
# _framework density 18.555326000000001
#
# number of rings (size 3 to 8) (size 9 to 14) (size 15 to 20)
#    1.000    1.333    1.667    2.000    0.000    0.000 
#    0.000    8.333    0.000    4.000    0.000    0.000 
#    0.000    0.000    0.000    0.000    0.000    0.000 
#
# Total GULP energy -148708.164952 kJ/mol
# GULP energy per Si atom -12392.347079 kJ/mol
# Density = 1.851309 g / cm^3
# Si number density = 18.555326 Si / 1000 Ang^3
#
#
#
# Elastic Constant Matrix: (Units=GPa)
#
#
# Indices 1 2 3 4 5 6 
#
# 1 117.9980 36.4449 59.3644 0.0000 -0.2926 0.0000
# 2 36.4449 100.7685 43.0734 0.0000 0.0586 0.0000
# 3 59.3644 43.0734 134.5511 0.0002 0.4384 -0.0001
# 4 0.0000 0.0000 0.0002 17.6569 0.0000 -0.1013
# 5 -0.2926 0.0586 0.4384 0.0000 12.7443 0.0000
# 6 0.0000 0.0000 -0.0001 -0.1013 0.0000 29.1379
#
#
#
# Elastic Compliance Matrix: (Units=1/GPa)
#
#
# Indices 1 2 3 4 5 6 
#
# 1 0.011326 -0.002271 -0.004272 0.000000 0.000417 0.000000
# 2 -0.002271 0.011952 -0.002824 0.000000 -0.000010 0.000000
# 3 -0.004272 -0.002824 0.010222 0.000000 -0.000437 0.000000
# 4 0.000000 0.000000 0.000000 0.056636 0.000000 0.000197
# 5 0.000417 -0.000010 -0.000437 0.000000 0.078491 0.000000
# 6 0.000000 0.000000 0.000000 0.000197 0.000000 0.034320
#
#
# Mechanical properties :
#
#
# Convention : Reuss Voigt Hill
#
# Bulk Modulus (GPa) = 67.71653 70.12036 68.91845
# Shear Modulus (GPa) = 22.06496 26.20349 24.13423
#
# Velocity S-wave (km/s) = 3.45214 3.76198 3.61038
# Velocity P-wave (km/s) = 7.24315 7.53272 7.38936
#
# Compressibility (1/GPa) = 0.01476744
#
# Stress axis : x y z
#
# Youngs Moduli (GPa) = 88.29181 83.66622 97.82508
#
# Poissons Ratio (x) = 0.18998 0.41787
# Poissons Ratio (y) = 0.20048 0.27630
# Poissons Ratio (z) = 0.37714 0.23631
#
# Static dielectric constant tensor:
#      x y z
#    x 3.295490 0.000000 0.000180 
#    y 0.000000 3.262940 0.000000 
#    z 0.000180 0.000000 3.315910 
# 
# 
# High freq. dielectric constant tensor:
#      x y z
#    x 1.699430 0.000000 0.000030 
#    y 0.000000 1.719780 0.000000 
#    z 0.000030 0.000000 1.703060 
# 
# From -- ./inp_files/31025.got.cif
#   From: 2010.03.12/outbox.cif.g09.slc.cpg/sg8_16_cif.got.tgz:31025.got - 2010.03.31 10:45:26.
