data_PCOD8054486
_publ_section_title
;
Structure prediction by ZEFSAII (Michael W. Deem and Ramdas Pophale) SiO2 
 PCOD8054486
Probable space group: C C
;
_chemical_formula_sum "Si O2"
_cell_formula_units_Z 32
_cell_length_a 28.604849
_cell_length_b 11.085233
_cell_length_c 15.972396
_cell_angle_alpha 90.000000
_cell_angle_beta 161.493299
_cell_angle_gamma 90.000000
_cell_volume 1607.617680
_symmetry_space_group_name_H-M "C C"
_symmetry_group_IT_number 9
_symmetry_cell_setting 'monoclinic'
loop_
_space_group_symop_operation_xyz
x,y,z
x,-y,1/2+z
1/2+x,1/2+y,z
1/2+x,1/2-y,1/2+z
loop_
_atom_site_type_symbol
_atom_site_label
_atom_site_fract_x
_atom_site_fract_y
_atom_site_fract_z
Si Si1 0.917400 0.066972 0.898230
Si Si2 0.247807 0.413284 0.476499
Si Si3 0.708945 0.268557 0.607233
Si Si4 0.253751 0.622543 0.364790
Si Si5 0.926855 0.699490 0.843633
Si Si6 0.925062 0.564329 0.392436
Si Si7 0.994747 0.233019 0.890410
Si Si8 0.957944 0.845502 0.062052
O O1 0.809276 0.151411 0.767899
O O2 0.024439 0.145555 0.020747
O O3 0.818518 0.984391 0.671977
O O4 0.010105 0.978460 0.117150
O O5 0.262306 0.483163 0.411461
O O6 0.323154 0.278151 0.603005
O O7 0.073770 0.418694 0.199411
O O8 0.644410 0.268071 0.591220
O O9 0.578804 0.271553 0.318413
O O10 0.801326 0.388770 0.746041
O O11 0.354500 0.697229 0.598666
O O12 0.312726 0.630639 0.370894
O O13 0.093353 0.685114 0.092362
O O14 0.870225 0.565408 0.767075
O O15 0.916187 0.763345 0.914177
O O16 0.949862 0.637021 0.348478
#
# Coordination Sequence:
#
# PCOD8054486 Si02
#       8
#     4   4   4   4   4   4   4   4
#     4   9  19  36  60  78 109 150 191 231 281 339
#     4   9  19  36  57  81 117 149 184 235 284 338
#     4  10  20  35  60  81 113 149 193 232 277 347
#     4   9  19  38  61  81 109 151 195 231 281 345
#     4  10  20  37  59  83 116 147 188 239 286 335
#     4  10  20  35  56  81 119 147 182 239 288 334
#     4   9  19  36  57  83 108 149 190 231 286 339
#     4  10  20  37  60  84 107 154 191 232 289 341
#
# _framework density 19.90523
#
# number of rings (size 3 to 8) (size 9 to 14) (size 15 to 20)
#    0.000    2.500    0.000    3.000    3.500    2.000 
#    9.000    3.750    8.250    0.000    0.000    0.000 
#    0.000    0.000    0.000    0.000    0.000    0.000 
#
# Total GULP energy -198209.510296 kJ/mol
# GULP energy per Si atom -12388.094393 kJ/mol
# Density = 1.985992 g / cm^3
# Si number density = 19.905230 Si / 1000 Ang^3
#
#
#
# Elastic Constant Matrix: (Units=GPa)
#
#
# Indices 1 2 3 4 5 6 
#
# 1 123.8723 51.5241 13.9227 0.0000 19.2072 0.0000
# 2 51.5241 143.5437 17.6969 0.0000 6.0195 0.0000
# 3 13.9227 17.6969 35.0590 0.0000 7.4770 0.0000
# 4 0.0000 0.0000 0.0000 24.3899 0.0000 1.4588
# 5 19.2072 6.0195 7.4770 0.0000 25.2510 0.0000
# 6 0.0000 0.0000 0.0000 1.4588 0.0000 22.3090
#
#
#
# Elastic Compliance Matrix: (Units=1/GPa)
#
#
# Indices 1 2 3 4 5 6 
#
# 1 0.010699 -0.003419 -0.001026 0.000000 -0.007019 0.000000
# 2 -0.003419 0.008534 -0.003277 0.000000 0.001537 0.000000
# 3 -0.001026 -0.003277 0.032291 0.000000 -0.008000 0.000000
# 4 0.000000 0.000000 0.000000 0.041162 0.000000 -0.002692
# 5 -0.007019 0.001537 -0.008000 0.000000 0.046944 0.000000
# 6 0.000000 0.000000 0.000000 -0.002692 0.000000 0.045001
#
#
# Mechanical properties :
#
#
# Convention : Reuss Voigt Hill
#
# Bulk Modulus (GPa) = 27.71742 52.08474 39.90108
# Shear Modulus (GPa) = 23.57364 29.01206 26.29285
#
# Velocity S-wave (km/s) = 3.44509 3.82188 3.63836
# Velocity P-wave (km/s) = 5.45709 6.76009 6.14323
#
# Compressibility (1/GPa) = 0.03607840
#
# Stress axis : x y z
#
# Youngs Moduli (GPa) = 93.46848 117.18503 30.96819
#
# Poissons Ratio (x) = 0.40071 0.03176
# Poissons Ratio (y) = 0.31961 0.10150
# Poissons Ratio (z) = 0.09587 0.38406
#
# Static dielectric constant tensor:
#      x y z
#    x 3.731440 0.000000 0.016730 
#    y 0.000000 4.055370 0.000000 
#    z 0.016730 0.000000 3.710520 
# 
# 
# High freq. dielectric constant tensor:
#      x y z
#    x 1.771350 0.000000 0.004900 
#    y 0.000000 1.787210 0.000000 
#    z 0.004900 0.000000 1.764120 
# 
# From -- ./inp_files/24530.got.cif
#   From: 2010.06.25/outbox.cif.g09.slc.cpg/sg9_13_cif.got.tgz:24530.got - 2010.06.27 21:40:51.
