data_PCOD8054245
_publ_section_title
;
Structure prediction by ZEFSAII (Michael W. Deem and Ramdas Pophale) SiO2 
 PCOD8054245
Probable space group: C C
;
_chemical_formula_sum "Si O2"
_cell_formula_units_Z 32
_cell_length_a 9.232264
_cell_length_b 26.423974
_cell_length_c 13.771356
_cell_angle_alpha 90.000000
_cell_angle_beta 149.707157
_cell_angle_gamma 90.000000
_cell_volume 1694.631027
_symmetry_space_group_name_H-M "C C"
_symmetry_group_IT_number 9
_symmetry_cell_setting 'monoclinic'
loop_
_space_group_symop_operation_xyz
x,y,z
x,-y,1/2+z
1/2+x,1/2+y,z
1/2+x,1/2-y,1/2+z
loop_
_atom_site_type_symbol
_atom_site_label
_atom_site_fract_x
_atom_site_fract_y
_atom_site_fract_z
Si Si1 0.192030 0.898617 0.346670
Si Si2 0.311703 0.004515 0.807728
Si Si3 0.764144 0.052844 0.952376
Si Si4 0.040352 0.397684 0.940402
Si Si5 0.780084 0.684250 0.432677
Si Si6 0.199841 0.649166 0.038132
Si Si7 0.595157 0.382268 0.513037
Si Si8 0.209254 0.296163 0.345626
O O1 0.402333 0.856268 0.423564
O O2 0.192828 0.893176 0.461864
O O3 0.319785 0.954034 0.397537
O O4 0.879147 0.890629 0.118304
O O5 0.481698 0.954974 0.943740
O O6 0.984349 0.992873 0.594102
O O7 0.450982 0.028486 0.788902
O O8 0.818527 0.096423 0.063919
O O9 0.827983 0.079563 0.885591
O O10 0.948249 0.356986 0.966838
O O11 0.867571 0.391061 0.740217
O O12 0.447198 0.668743 0.254175
O O13 0.787157 0.737424 0.379547
O O14 0.923668 0.689366 0.620772
O O15 0.150222 0.689257 0.922958
O O16 0.484530 0.325159 0.460874
#
# Coordination Sequence:
#
# PCOD8054245 Si02
#       8
#     4   4   4   4   4   4   4   4
#     4  11  23  39  61  87 128 160 198 249 309 346
#     4  10  18  36  57  86 120 162 196 248 292 350
#     4   9  18  35  57  79 123 152 196 248 287 348
#     4  11  21  39  62  88 125 160 201 253 292 354
#     4  12  20  38  69  88 117 161 202 245 304 359
#     4  10  22  39  57  92 121 152 200 254 292 359
#     4  10  21  40  59  92 118 158 207 246 294 366
#     4  11  21  38  68  90 114 159 206 243 300 368
#
# _framework density 18.883167
#
# number of rings (size 3 to 8) (size 9 to 14) (size 15 to 20)
#    0.000    1.500    7.500    0.000    0.000    1.000 
#    4.500    1.250    0.000    0.000    0.000    0.000 
#    0.000    0.000    0.000    0.000    0.000    0.000 
#
# Total GULP energy -198341.315670 kJ/mol
# GULP energy per Si atom -12396.332229 kJ/mol
# Density = 1.884019 g / cm^3
# Si number density = 18.883167 Si / 1000 Ang^3
#
#
#
# Elastic Constant Matrix: (Units=GPa)
#
#
# Indices 1 2 3 4 5 6 
#
# 1 113.2988 40.3205 39.9130 0.0000 13.6522 0.0000
# 2 40.3205 111.2614 33.0152 0.0000 15.0459 0.0000
# 3 39.9130 33.0152 120.9039 0.0002 6.4793 0.0000
# 4 0.0000 0.0000 0.0002 28.7395 0.0000 2.5884
# 5 13.6522 15.0459 6.4793 0.0000 30.9578 0.0000
# 6 0.0000 0.0000 0.0000 2.5884 0.0000 16.8342
#
#
#
# Elastic Compliance Matrix: (Units=1/GPa)
#
#
# Indices 1 2 3 4 5 6 
#
# 1 0.011160 -0.002825 -0.002753 0.000000 -0.002972 0.000000
# 2 -0.002825 0.011079 -0.001892 0.000000 -0.003743 0.000000
# 3 -0.002753 -0.001892 0.009691 0.000000 0.000106 0.000000
# 4 0.000000 0.000000 0.000000 0.035284 0.000000 -0.005425
# 5 -0.002972 -0.003743 0.000106 0.000000 0.035410 0.000000
# 6 0.000000 0.000000 0.000000 -0.005425 0.000000 0.060237
#
#
# Mechanical properties :
#
#
# Convention : Reuss Voigt Hill
#
# Bulk Modulus (GPa) = 58.86333 63.55129 61.20731
# Shear Modulus (GPa) = 27.25313 30.78731 29.02022
#
# Velocity S-wave (km/s) = 3.80313 4.04221 3.92450
# Velocity P-wave (km/s) = 7.10811 7.45078 7.28146
#
# Compressibility (1/GPa) = 0.01698851
#
# Stress axis : x y z
#
# Youngs Moduli (GPa) = 89.60779 90.25824 103.18867
#
# Poissons Ratio (x) = 0.25501 0.28411
# Poissons Ratio (y) = 0.25317 0.19525
# Poissons Ratio (z) = 0.24672 0.17078
#
# Static dielectric constant tensor:
#      x y z
#    x 3.341990 0.000000 0.188260 
#    y 0.000000 3.686310 0.000000 
#    z 0.188260 0.000000 3.527990 
# 
# 
# High freq. dielectric constant tensor:
#      x y z
#    x 1.713960 0.000000 0.012600 
#    y 0.000000 1.744870 0.000000 
#    z 0.012600 0.000000 1.730280 
# 
# From -- ./inp_files/6308.got.cif
#   From: 2010.06.25/outbox.cif.g09.slc.cpg/sg9_4_cif.got.tgz:6308.got - 2010.06.27 21:40:51.
