data_PCOD8055456
_publ_section_title
;
Structure prediction by ZEFSAII (Michael W. Deem and Ramdas Pophale) SiO2 
 PCOD8055456
Probable space group: C C
;
_chemical_formula_sum "Si O2"
_cell_formula_units_Z 28
_cell_length_a 11.624645
_cell_length_b 13.409255
_cell_length_c 7.738582
_cell_angle_alpha 90.000000
_cell_angle_beta 80.848246
_cell_angle_gamma 90.000000
_cell_volume 1190.918158
_symmetry_space_group_name_H-M "C C"
_symmetry_group_IT_number 9
_symmetry_cell_setting 'monoclinic'
loop_
_space_group_symop_operation_xyz
x,y,z
x,-y,1/2+z
1/2+x,1/2+y,z
1/2+x,1/2-y,1/2+z
loop_
_atom_site_type_symbol
_atom_site_label
_atom_site_fract_x
_atom_site_fract_y
_atom_site_fract_z
Si Si1 0.967240 0.526371 0.206790
Si Si2 0.517176 0.840764 0.361380
Si Si3 0.180827 0.780928 0.036516
Si Si4 0.351396 0.689057 0.231068
Si Si5 0.702349 0.528839 0.331483
Si Si6 0.601762 0.180533 0.374795
Si Si7 0.574820 0.375707 0.558052
O O1 0.834768 0.495265 0.278408
O O2 0.036853 0.418790 0.194834
O O3 0.013150 0.590598 0.361367
O O4 0.981810 0.585802 0.027567
O O5 0.634577 0.779776 0.378511
O O6 0.410887 0.765101 0.352255
O O7 0.187001 0.899304 0.002086
O O8 0.310111 0.744167 0.062927
O O9 0.091338 0.757245 0.213492
O O10 0.236916 0.641681 0.351356
O O11 0.442766 0.601359 0.154007
O O12 0.615898 0.433812 0.375600
O O13 0.669856 0.593499 0.174252
O O14 0.572546 0.253355 0.543975
#
# Coordination Sequence:
#
# PCOD8055456 Si02
#       7
#     4   4   4   4   4   4   4
#     4  11  24  39  71 101 137 171 231 280 332 410
#     4  11  23  43  66 104 133 178 224 283 336 402
#     4   9  22  43  64  94 138 171 227 271 336 409
#     4  10  22  45  66  91 146 174 226 278 340 405
#     4  12  23  39  65 102 125 179 228 272 345 396
#     4   9  22  42  64  96 132 179 218 276 345 393
#     4  12  24  41  68  98 137 176 222 290 336 403
#
# _framework density 23.511271000000001
#
# number of rings (size 3 to 8) (size 9 to 14) (size 15 to 20)
#    0.857    0.571    1.429    4.286    6.000    0.000 
#    2.571    0.000    0.000    0.000    0.000    0.000 
#    0.000    0.000    0.000    0.000    0.000    0.000 
#
# Total GULP energy -173471.710999 kJ/mol
# GULP energy per Si atom -12390.836500 kJ/mol
# Density = 2.345776 g / cm^3
# Si number density = 23.511271 Si / 1000 Ang^3
#
#
#
# Elastic Constant Matrix: (Units=GPa)
#
#
# Indices 1 2 3 4 5 6 
#
# 1 123.9188 35.6306 18.0124 0.0000 15.2294 0.0000
# 2 35.6306 94.2577 -9.3027 0.0000 12.2526 0.0000
# 3 18.0124 -9.3027 23.8434 0.0000 18.5983 0.0000
# 4 0.0000 0.0000 0.0000 37.6756 0.0000 -1.3171
# 5 15.2294 12.2526 18.5983 0.0000 42.5780 0.0000
# 6 0.0000 0.0000 0.0000 -1.3171 0.0000 34.2984
#
#
#
# Elastic Compliance Matrix: (Units=1/GPa)
#
#
# Indices 1 2 3 4 5 6 
#
# 1 0.011422 -0.006201 -0.014035 0.000000 0.003830 0.000000
# 2 -0.006201 0.016341 0.019716 0.000000 -0.011097 0.000000
# 3 -0.014035 0.019716 0.092138 0.000000 -0.040900 0.000000
# 4 0.000000 0.000000 0.000000 0.026578 0.000000 0.001021
# 5 0.003830 -0.011097 -0.040900 0.000000 0.043175 0.000000
# 6 0.000000 0.000000 0.000000 0.001021 0.000000 0.029195
#
#
# Mechanical properties :
#
#
# Convention : Reuss Voigt Hill
#
# Bulk Modulus (GPa) = 8.41318 36.74451 22.57885
# Shear Modulus (GPa) = 19.26699 36.08902 27.67800
#
# Velocity S-wave (km/s) = 2.86576 3.92212 3.43479
# Velocity P-wave (km/s) = 3.81264 6.01440 5.03534
#
# Compressibility (1/GPa) = 0.11886108
#
# Stress axis : x y z
#
# Youngs Moduli (GPa) = 87.54899 61.19421 10.85326
#
# Poissons Ratio (x) = 0.37945 0.15233
# Poissons Ratio (y) = 0.54287 -0.21398
# Poissons Ratio (z) = 1.22877 -1.20648
#
# Static dielectric constant tensor:
#      x y z
#    x 4.067920 0.000000 0.254640 
#    y 0.000000 4.365220 0.000000 
#    z 0.254640 0.000000 4.333410 
# 
# 
# High freq. dielectric constant tensor:
#      x y z
#    x 1.915520 0.000000 0.015400 
#    y 0.000000 1.928330 0.000000 
#    z 0.015400 0.000000 1.941740 
# 
# From -- ./inp_files/7256.got.cif
#   From: 2010.06.25/outbox.cif.g09.slc.cpg/sg9_4_cif.got.tgz:7256.got - 2010.06.27 21:40:51.
