data_PCOD8055081
_publ_section_title
;
Structure prediction by ZEFSAII (Michael W. Deem and Ramdas Pophale) SiO2 
 PCOD8055081
Probable space group: C C
;
_chemical_formula_sum "Si O2"
_cell_formula_units_Z 24
_cell_length_a 10.603071
_cell_length_b 10.175039
_cell_length_c 14.625004
_cell_angle_alpha 90.000000
_cell_angle_beta 39.372046
_cell_angle_gamma 90.000000
_cell_volume 1000.910021
_symmetry_space_group_name_H-M "C C"
_symmetry_group_IT_number 9
_symmetry_cell_setting 'monoclinic'
loop_
_space_group_symop_operation_xyz
x,y,z
x,-y,1/2+z
1/2+x,1/2+y,z
1/2+x,1/2-y,1/2+z
loop_
_atom_site_type_symbol
_atom_site_label
_atom_site_fract_x
_atom_site_fract_y
_atom_site_fract_z
Si Si1 0.920870 0.804525 0.356470
Si Si2 0.451960 0.088474 0.993581
Si Si3 0.383303 0.595996 0.398627
Si Si4 0.589226 0.299164 0.614527
Si Si5 0.868063 0.302181 0.077778
Si Si6 0.750767 0.289664 0.772656
O O1 0.826523 0.747370 0.500202
O O2 0.865914 0.705466 0.304760
O O3 0.154107 0.822366 0.242375
O O4 0.828803 0.950152 0.394174
O O5 0.640149 0.146192 0.832085
O O6 0.256172 0.087436 0.036872
O O7 0.410894 0.189728 0.101661
O O8 0.489851 0.940177 0.007007
O O9 0.426595 0.689398 0.286072
O O10 0.199410 0.657044 0.558019
O O11 0.579737 0.598685 0.354496
O O12 0.484264 0.305461 0.574130
#
# Coordination Sequence:
#
# PCOD8055081 Si02
#       6
#     4   4   4   4   4   4
#     4  12  25  44  64 103 137 174 220 277 331 396
#     4  10  22  46  66  99 131 175 227 270 330 394
#     4  10  22  46  66  99 131 175 227 270 330 394
#     4  10  21  43  70  92 134 176 218 273 330 389
#     4  12  25  44  64 103 137 174 220 277 331 396
#     4  10  21  43  70  92 134 176 218 273 330 389
#
# _framework density 23.978179000000001
#
# number of rings (size 3 to 8) (size 9 to 14) (size 15 to 20)
#    0.000    1.333    3.333    3.000    0.000    1.333 
#   30.000    0.000    0.000    0.000    0.000    0.000 
#    0.000    0.000    0.000    0.000    0.000    0.000 
#
# Total GULP energy -148726.914252 kJ/mol
# GULP energy per Si atom -12393.909521 kJ/mol
# Density = 2.392360 g / cm^3
# Si number density = 23.978179 Si / 1000 Ang^3
#
#
#
# Elastic Constant Matrix: (Units=GPa)
#
#
# Indices 1 2 3 4 5 6 
#
# 1 118.0856 27.4372 14.8945 -0.0002 38.5488 0.0001
# 2 27.4372 85.4659 49.6334 -0.0003 23.4676 0.0001
# 3 14.8945 49.6334 87.6674 -0.0009 17.9715 0.0004
# 4 -0.0002 -0.0003 -0.0009 29.1277 0.0004 3.6418
# 5 38.5488 23.4676 17.9715 0.0004 28.7521 -0.0002
# 6 0.0001 0.0001 0.0004 3.6418 -0.0002 30.2943
#
#
#
# Elastic Compliance Matrix: (Units=1/GPa)
#
#
# Indices 1 2 3 4 5 6 
#
# 1 0.015315 -0.000056 0.001869 0.000001 -0.021657 0.000000
# 2 -0.000056 0.019874 -0.009098 0.000000 -0.010460 0.000000
# 3 0.001869 -0.009098 0.017470 0.000001 -0.005999 0.000000
# 4 0.000001 0.000000 0.000001 0.034856 -0.000002 -0.004190
# 5 -0.021657 -0.010460 -0.005999 -0.000002 0.076103 0.000001
# 6 0.000000 0.000000 0.000000 -0.004190 0.000001 0.033513
#
#
# Mechanical properties :
#
#
# Convention : Reuss Voigt Hill
#
# Bulk Modulus (GPa) = 26.25354 52.79435 39.52394
# Shear Modulus (GPa) = 22.28185 30.91840 26.60012
#
# Velocity S-wave (km/s) = 3.05168 3.59477 3.33430
# Velocity P-wave (km/s) = 4.83629 6.26860 5.59844
#
# Compressibility (1/GPa) = 0.03809010
#
# Stress axis : x y z
#
# Youngs Moduli (GPa) = 65.29400 50.31635 57.24073
#
# Poissons Ratio (x) = 0.00279 -0.10698
# Poissons Ratio (y) = 0.00362 0.52079
# Poissons Ratio (z) = -0.12203 0.45779
#
# Static dielectric constant tensor:
#      x y z
#    x 4.392780 0.000000 -0.093480 
#    y 0.000000 3.954540 0.000000 
#    z -0.093480 0.000000 4.192450 
# 
# 
# High freq. dielectric constant tensor:
#      x y z
#    x 1.965570 0.000000 -0.011920 
#    y 0.000000 1.915150 0.000000 
#    z -0.011920 0.000000 1.946710 
# 
# From -- ./inp_files/24602.got.cif
#   From: 2010.06.25/outbox.cif.g09.slc.cpg/sg9_13_cif.got.tgz:24602.got - 2010.06.27 21:40:51.
