data_PCOD8055756
_publ_section_title
;
Structure prediction by ZEFSAII (Michael W. Deem and Ramdas Pophale) SiO2 
 PCOD8055756
Probable space group: C C
;
_chemical_formula_sum "Si O2"
_cell_formula_units_Z 28
_cell_length_a 10.775872
_cell_length_b 10.844543
_cell_length_c 16.220954
_cell_angle_alpha 90.000000
_cell_angle_beta 36.126134
_cell_angle_gamma 90.000000
_cell_volume 1117.562054
_symmetry_space_group_name_H-M "C C"
_symmetry_group_IT_number 9
_symmetry_cell_setting 'monoclinic'
loop_
_space_group_symop_operation_xyz
x,y,z
x,-y,1/2+z
1/2+x,1/2+y,z
1/2+x,1/2-y,1/2+z
loop_
_atom_site_type_symbol
_atom_site_label
_atom_site_fract_x
_atom_site_fract_y
_atom_site_fract_z
Si Si1 0.213430 0.199339 0.368210
Si Si2 0.012836 0.474987 0.207094
Si Si3 0.273326 0.553057 0.921056
Si Si4 0.090857 0.018502 0.133987
Si Si5 0.890018 0.243207 0.173313
Si Si6 0.808544 0.143324 0.669835
Si Si7 0.498103 0.882913 0.958664
O O1 0.287772 0.301482 0.394776
O O2 0.247317 0.235368 0.254744
O O3 0.964058 0.179394 0.512432
O O4 0.340938 0.076821 0.321538
O O5 0.890792 0.369028 0.223694
O O6 0.210167 0.531730 0.049846
O O7 0.100846 0.420841 0.245300
O O8 0.092782 0.492798 0.961768
O O9 0.499590 0.489321 0.777402
O O10 0.086494 0.159134 0.102221
O O11 0.915607 0.950249 0.174526
O O12 0.310885 0.947835 0.007747
O O13 0.666528 0.175174 0.305251
O O14 0.916661 0.272641 0.062118
#
# Coordination Sequence:
#
# PCOD8055756 Si02
#       7
#     4   4   4   4   4   4   4
#     4  11  24  49  71 109 152 195 250 307 373 450
#     4  11  25  46  77 109 150 191 254 310 372 450
#     4   9  22  46  69 106 142 200 245 300 381 432
#     4  10  24  45  73 106 149 193 245 306 372 445
#     4  10  25  46  73 110 140 195 247 303 371 437
#     4  11  27  44  77 110 146 198 249 302 387 438
#     4  10  23  46  76 102 149 190 246 304 364 438
#
# _framework density 25.054538000000001
#
# number of rings (size 3 to 8) (size 9 to 14) (size 15 to 20)
#    0.000    1.714    1.429    0.000    4.000   13.714 
#    0.000    0.000    0.000    0.000    0.000    0.000 
#    0.000    0.000    0.000    0.000    0.000    0.000 
#
# Total GULP energy -173618.233717 kJ/mol
# GULP energy per Si atom -12401.302408 kJ/mol
# Density = 2.499751 g / cm^3
# Si number density = 25.054538 Si / 1000 Ang^3
#
#
#
# Elastic Constant Matrix: (Units=GPa)
#
#
# Indices 1 2 3 4 5 6 
#
# 1 71.2470 24.7909 31.7982 0.0000 -10.0949 0.0000
# 2 24.7909 136.8862 45.8154 -0.0009 -8.7706 0.0002
# 3 31.7982 45.8154 144.4964 -0.0031 -4.2600 0.0008
# 4 0.0000 -0.0009 -0.0031 48.2186 0.0010 -6.6203
# 5 -10.0949 -8.7706 -4.2600 0.0010 25.2721 -0.0002
# 6 0.0000 0.0002 0.0008 -6.6203 -0.0002 31.8903
#
#
#
# Elastic Compliance Matrix: (Units=1/GPa)
#
#
# Indices 1 2 3 4 5 6 
#
# 1 0.016746 -0.001673 -0.002989 0.000000 0.005605 0.000000
# 2 -0.001673 0.008489 -0.002267 0.000000 0.001895 0.000000
# 3 -0.002989 -0.002267 0.008280 0.000000 -0.000585 0.000000
# 4 0.000000 0.000000 0.000000 0.021347 -0.000001 0.004432
# 5 0.005605 0.001895 -0.000585 -0.000001 0.042367 0.000000
# 6 0.000000 0.000000 0.000000 0.004432 0.000000 0.032277
#
#
# Mechanical properties :
#
#
# Convention : Reuss Voigt Hill
#
# Bulk Modulus (GPa) = 50.87783 61.93763 56.40773
# Shear Modulus (GPa) = 33.35140 37.75789 35.55464
#
# Velocity S-wave (km/s) = 3.65245 3.88626 3.77117
# Velocity P-wave (km/s) = 6.17561 6.70165 6.44400
#
# Compressibility (1/GPa) = 0.01965492
#
# Stress axis : x y z
#
# Youngs Moduli (GPa) = 59.71498 117.80355 120.77095
#
# Poissons Ratio (x) = 0.19711 0.36104
# Poissons Ratio (y) = 0.09991 0.27384
# Poissons Ratio (z) = 0.17852 0.26711
#
# Static dielectric constant tensor:
#      x y z
#    x 4.097140 0.000000 0.254840 
#    y 0.000000 4.713300 0.000000 
#    z 0.254840 0.000000 5.046520 
# 
# 
# High freq. dielectric constant tensor:
#      x y z
#    x 1.973190 0.000000 0.011230 
#    y 0.000000 2.009530 0.000000 
#    z 0.011230 0.000000 2.013190 
# 
# From -- ./inp_files/16367.got.cif
#   From: 2010.06.25/outbox.cif.g09.slc.cpg/sg9_9_cif.got.tgz:16367.got - 2010.06.27 21:40:51.
