data_PCOD8055219
_publ_section_title
;
Structure prediction by ZEFSAII (Michael W. Deem and Ramdas Pophale) SiO2 
 PCOD8055219
Probable space group: C C
;
_chemical_formula_sum "Si O2"
_cell_formula_units_Z 28
_cell_length_a 12.335948
_cell_length_b 8.322885
_cell_length_c 14.440701
_cell_angle_alpha 90.000000
_cell_angle_beta 115.799845
_cell_angle_gamma 90.000000
_cell_volume 1334.847255
_symmetry_space_group_name_H-M "C C"
_symmetry_group_IT_number 9
_symmetry_cell_setting 'monoclinic'
loop_
_space_group_symop_operation_xyz
x,y,z
x,-y,1/2+z
1/2+x,1/2+y,z
1/2+x,1/2-y,1/2+z
loop_
_atom_site_type_symbol
_atom_site_label
_atom_site_fract_x
_atom_site_fract_y
_atom_site_fract_z
Si Si1 0.220730 0.886750 0.023670
Si Si2 0.381211 0.677076 0.641886
Si Si3 0.440220 0.313915 0.659284
Si Si4 0.823286 0.352412 0.438479
Si Si5 0.581802 0.185291 0.350436
Si Si6 0.125236 0.199631 0.067302
Si Si7 0.528108 0.833121 0.368883
O O1 0.334816 0.816707 0.119378
O O2 0.152399 0.009883 0.066554
O O3 0.133993 0.738186 0.970341
O O4 0.264506 0.977554 0.946608
O O5 0.391249 0.490455 0.621528
O O6 0.395136 0.777723 0.552394
O O7 0.482481 0.727054 0.752032
O O8 0.249337 0.707759 0.635556
O O9 0.537027 0.266276 0.618264
O O10 0.498458 0.302816 0.782274
O O11 0.715058 0.235318 0.366140
O O12 0.912248 0.377444 0.386859
O O13 0.563575 0.234192 0.450828
O O14 0.571798 0.994281 0.334525
#
# Coordination Sequence:
#
# PCOD8055219 Si02
#       7
#     4   4   4   4   4   4   4
#     4  10  22  40  62  88 118 156 202 246 292 348
#     4  10  22  41  63  88 121 159 196 244 301 349
#     4  12  24  38  63  92 118 158 202 241 295 356
#     4  10  23  42  61  87 123 156 196 249 296 349
#     4  10  22  41  63  88 121 159 196 244 301 349
#     4  10  23  42  61  87 123 156 196 249 296 349
#     4  12  24  38  63  92 118 158 202 241 295 356
#
# _framework density 20.976182000000001
#
# number of rings (size 3 to 8) (size 9 to 14) (size 15 to 20)
#    0.000    1.714    0.000    6.857    0.000    8.000 
#    0.000    0.000    0.000    0.000    0.000    0.000 
#    0.000    0.000    0.000    0.000    0.000    0.000 
#
# Total GULP energy -173660.639125 kJ/mol
# GULP energy per Si atom -12404.331366 kJ/mol
# Density = 2.092844 g / cm^3
# Si number density = 20.976182 Si / 1000 Ang^3
#
#
#
# Elastic Constant Matrix: (Units=GPa)
#
#
# Indices 1 2 3 4 5 6 
#
# 1 78.1691 23.6164 42.1531 0.0000 10.3281 0.0000
# 2 23.6164 86.3016 7.4900 0.0000 9.2916 0.0000
# 3 42.1531 7.4900 101.5287 0.0000 19.9457 0.0000
# 4 0.0000 0.0000 0.0000 30.0966 0.0000 10.5574
# 5 10.3281 9.2916 19.9457 0.0000 26.1565 0.0000
# 6 0.0000 0.0000 0.0000 10.5574 0.0000 23.7695
#
#
#
# Elastic Compliance Matrix: (Units=1/GPa)
#
#
# Indices 1 2 3 4 5 6 
#
# 1 0.017933 -0.004275 -0.007101 0.000000 -0.000147 0.000000
# 2 -0.004275 0.013068 0.001636 0.000000 -0.004202 0.000000
# 3 -0.007101 0.001636 0.014397 0.000000 -0.008756 0.000000
# 4 0.000000 0.000000 0.000000 0.039359 0.000000 -0.017481
# 5 -0.000147 -0.004202 -0.008756 0.000000 0.046459 0.000000
# 6 0.000000 0.000000 0.000000 -0.017481 0.000000 0.049835
#
#
# Mechanical properties :
#
#
# Convention : Reuss Voigt Hill
#
# Bulk Modulus (GPa) = 38.58348 45.83538 42.20943
# Shear Modulus (GPa) = 23.90395 28.85383 26.37889
#
# Velocity S-wave (km/s) = 3.37942 3.71287 3.55006
# Velocity P-wave (km/s) = 5.80183 6.34658 6.08031
#
# Compressibility (1/GPa) = 0.02591783
#
# Stress axis : x y z
#
# Youngs Moduli (GPa) = 55.76223 76.52541 69.45800
#
# Poissons Ratio (x) = 0.32717 0.49324
# Poissons Ratio (y) = 0.23840 -0.11367
# Poissons Ratio (z) = 0.39598 -0.12523
#
# Static dielectric constant tensor:
#      x y z
#    x 3.722690 0.000000 0.163390 
#    y 0.000000 3.827010 0.000000 
#    z 0.163390 0.000000 3.677250 
# 
# 
# High freq. dielectric constant tensor:
#      x y z
#    x 1.819320 0.000000 0.015030 
#    y 0.000000 1.832940 0.000000 
#    z 0.015030 0.000000 1.821760 
# 
# From -- ./inp_files/20847.got.cif
#   From: 2010.06.25/outbox.cif.g09.slc.cpg/sg9_11_cif.got.tgz:20847.got - 2010.06.27 21:40:51.
