data_PCOD8055252
_publ_section_title
;
Structure prediction by ZEFSAII (Michael W. Deem and Ramdas Pophale) SiO2 
 PCOD8055252
Probable space group: C C
;
_chemical_formula_sum "Si O2"
_cell_formula_units_Z 28
_cell_length_a 5.111719
_cell_length_b 13.253428
_cell_length_c 18.586353
_cell_angle_alpha 90.000000
_cell_angle_beta 103.774120
_cell_angle_gamma 90.000000
_cell_volume 1222.972797
_symmetry_space_group_name_H-M "C C"
_symmetry_group_IT_number 9
_symmetry_cell_setting 'monoclinic'
loop_
_space_group_symop_operation_xyz
x,y,z
x,-y,1/2+z
1/2+x,1/2+y,z
1/2+x,1/2-y,1/2+z
loop_
_atom_site_type_symbol
_atom_site_label
_atom_site_fract_x
_atom_site_fract_y
_atom_site_fract_z
Si Si1 0.044160 0.557754 0.851830
Si Si2 0.003971 0.026274 0.294536
Si Si3 0.886740 0.313692 0.103097
Si Si4 0.815136 0.868326 0.512349
Si Si5 0.384401 0.954432 0.588354
Si Si6 0.270181 0.172697 0.212076
Si Si7 0.651099 0.666701 0.735166
O O1 0.243783 0.474889 0.828768
O O2 0.778585 0.495167 0.858713
O O3 0.949032 0.645452 0.789183
O O4 0.181456 0.611860 0.927320
O O5 0.049025 0.131724 0.254815
O O6 0.967595 0.933134 0.236072
O O7 0.811054 0.252412 0.025523
O O8 0.934077 0.427383 0.082992
O O9 0.660644 0.312226 0.150509
O O10 0.147321 0.256326 0.150981
O O11 0.646482 0.909619 0.568206
O O12 0.110799 0.918127 0.531629
O O13 0.382035 0.922387 0.672702
O O14 0.518583 0.234004 0.264731
#
# Coordination Sequence:
#
# PCOD8055252 Si02
#       7
#     4   4   4   4   4   4   4
#     4  10  23  46  66  97 149 183 235 287 349 425
#     4  10  23  42  70  95 141 180 227 291 348 419
#     4  11  24  41  72 104 134 176 233 291 348 410
#     4  11  25  45  69  95 141 191 224 284 349 416
#     4  11  24  42  69 100 134 175 234 283 346 417
#     4  11  23  40  72 102 137 178 231 294 365 401
#     4  10  22  40  70 103 136 175 232 294 347 410
#
# _framework density 22.895029999999998
#
# number of rings (size 3 to 8) (size 9 to 14) (size 15 to 20)
#    0.857    0.571    2.857    1.714    4.000    2.286 
#    2.571    2.857    0.000    0.000    0.000    0.000 
#    0.000    0.000    0.000    0.000    0.000    0.000 
#
# Total GULP energy -173478.542881 kJ/mol
# GULP energy per Si atom -12391.324492 kJ/mol
# Density = 2.284292 g / cm^3
# Si number density = 22.895030 Si / 1000 Ang^3
#
#
#
# Elastic Constant Matrix: (Units=GPa)
#
#
# Indices 1 2 3 4 5 6 
#
# 1 86.9556 24.3550 -5.6356 0.0000 -3.5315 0.0000
# 2 24.3550 130.2675 5.8138 0.0000 7.1794 0.0000
# 3 -5.6356 5.8138 42.1562 0.0000 6.8347 0.0000
# 4 0.0000 0.0000 0.0000 16.6725 0.0000 -2.4365
# 5 -3.5315 7.1794 6.8347 0.0000 27.6483 0.0000
# 6 0.0000 0.0000 0.0000 -2.4365 0.0000 39.2912
#
#
#
# Elastic Compliance Matrix: (Units=1/GPa)
#
#
# Indices 1 2 3 4 5 6 
#
# 1 0.012382 -0.002491 0.001706 0.000000 0.001807 0.000000
# 2 -0.002491 0.008313 -0.001123 0.000000 -0.002199 0.000000
# 3 0.001706 -0.001123 0.025025 0.000000 -0.005677 0.000000
# 4 0.000000 0.000000 0.000000 0.060528 0.000000 0.003753
# 5 0.001807 -0.002199 -0.005677 0.000000 0.038374 0.000000
# 6 0.000000 0.000000 0.000000 0.003753 0.000000 0.025684
#
#
# Mechanical properties :
#
#
# Convention : Reuss Voigt Hill
#
# Bulk Modulus (GPa) = 23.86391 34.27173 29.06782
# Shear Modulus (GPa) = 26.58329 32.37879 29.48104
#
# Velocity S-wave (km/s) = 3.41118 3.76470 3.59229
# Velocity P-wave (km/s) = 5.09516 5.82227 5.47081
#
# Compressibility (1/GPa) = 0.04190429
#
# Stress axis : x y z
#
# Youngs Moduli (GPa) = 80.76485 120.28661 39.96079
#
# Poissons Ratio (x) = 0.29958 -0.06817
# Poissons Ratio (y) = 0.20115 0.04487
# Poissons Ratio (z) = -0.13777 0.13507
#
# Static dielectric constant tensor:
#      x y z
#    x 4.162050 0.000000 0.078760 
#    y 0.000000 4.235610 0.000000 
#    z 0.078760 0.000000 3.733130 
# 
# 
# High freq. dielectric constant tensor:
#      x y z
#    x 1.918050 0.000000 0.007370 
#    y 0.000000 1.910170 0.000000 
#    z 0.007370 0.000000 1.863010 
# 
# From -- ./inp_files/32033.got.cif
#   From: 2010.06.25/outbox.cif.g09.slc.cpg/sg9_17_cif.got.tgz:32033.got - 2010.06.27 21:40:51.
