data_PCOD8055961
_publ_section_title
;
Structure prediction by ZEFSAII (Michael W. Deem and Ramdas Pophale) SiO2 
 PCOD8055961
Probable space group: C C
;
_chemical_formula_sum "Si O2"
_cell_formula_units_Z 28
_cell_length_a 13.910875
_cell_length_b 11.347711
_cell_length_c 9.238365
_cell_angle_alpha 90.000000
_cell_angle_beta 58.755509
_cell_angle_gamma 90.000000
_cell_volume 1246.822169
_symmetry_space_group_name_H-M "C C"
_symmetry_group_IT_number 9
_symmetry_cell_setting 'monoclinic'
loop_
_space_group_symop_operation_xyz
x,y,z
x,-y,1/2+z
1/2+x,1/2+y,z
1/2+x,1/2-y,1/2+z
loop_
_atom_site_type_symbol
_atom_site_label
_atom_site_fract_x
_atom_site_fract_y
_atom_site_fract_z
Si Si1 0.220080 0.763553 0.868110
Si Si2 0.128694 0.592610 0.171058
Si Si3 0.682462 0.498095 0.240969
Si Si4 0.828168 0.163996 0.219691
Si Si5 0.882550 0.362457 0.967011
Si Si6 0.183755 0.332165 0.095466
Si Si7 0.565586 0.610861 0.082527
O O1 0.171260 0.886192 0.848227
O O2 0.335683 0.795039 0.860958
O O3 0.234028 0.678141 0.718857
O O4 0.137214 0.695867 0.044460
O O5 0.228181 0.604253 0.209174
O O6 0.139599 0.463017 0.093629
O O7 0.008726 0.596379 0.342148
O O8 0.604723 0.508811 0.161036
O O9 0.636769 0.390880 0.375782
O O10 0.806518 0.473347 0.078555
O O11 0.786834 0.200081 0.410720
O O12 0.935651 0.078468 0.153703
O O13 0.882456 0.276569 0.102235
O O14 0.083701 0.238938 0.142542
#
# Coordination Sequence:
#
# PCOD8055961 Si02
#       7
#     4   4   4   4   4   4   4
#     4  10  25  44  70 105 139 181 236 290 348 416
#     4  11  26  48  70 104 144 188 231 289 356 419
#     4  11  23  46  72 106 133 184 241 289 344 412
#     4  11  25  43  69 103 142 186 227 287 359 415
#     4  11  24  46  76  99 143 185 238 289 343 424
#     4  11  24  46  66 106 142 179 237 286 360 414
#     4  11  25  43  73  99 141 183 236 288 348 422
#
# _framework density 22.457093
#
# number of rings (size 3 to 8) (size 9 to 14) (size 15 to 20)
#    0.000    1.143    2.857    1.714    4.000    8.000 
#    2.571    0.000    0.000    0.000    0.000    0.000 
#    0.000    0.000    0.000    0.000    0.000    0.000 
#
# Total GULP energy -173556.902996 kJ/mol
# GULP energy per Si atom -12396.921643 kJ/mol
# Density = 2.240598 g / cm^3
# Si number density = 22.457093 Si / 1000 Ang^3
#
#
#
# Elastic Constant Matrix: (Units=GPa)
#
#
# Indices 1 2 3 4 5 6 
#
# 1 149.8080 43.9233 86.6618 0.0000 -14.9669 0.0000
# 2 43.9233 97.2658 39.3344 0.0000 1.7892 0.0000
# 3 86.6618 39.3344 150.2843 0.0000 6.1098 0.0000
# 4 0.0000 0.0000 0.0000 32.3329 0.0000 1.2546
# 5 -14.9669 1.7892 6.1098 0.0000 29.0832 0.0000
# 6 0.0000 0.0000 0.0000 1.2546 0.0000 25.9686
#
#
#
# Elastic Compliance Matrix: (Units=1/GPa)
#
#
# Indices 1 2 3 4 5 6 
#
# 1 0.012088 -0.002969 -0.006509 0.000000 0.007771 0.000000
# 2 -0.002969 0.012228 -0.001408 0.000000 -0.001985 0.000000
# 3 -0.006509 -0.001408 0.011003 0.000000 -0.005575 0.000000
# 4 0.000000 0.000000 0.000000 0.030986 0.000000 -0.001497
# 5 0.007771 -0.001985 -0.005575 0.000000 0.039676 0.000000
# 6 0.000000 0.000000 0.000000 -0.001497 0.000000 0.038580
#
#
# Mechanical properties :
#
#
# Convention : Reuss Voigt Hill
#
# Bulk Modulus (GPa) = 73.82152 81.91080 77.86616
# Shear Modulus (GPa) = 29.26585 32.63952 30.95268
#
# Velocity S-wave (km/s) = 3.61389 3.81651 3.71658
# Velocity P-wave (km/s) = 7.09628 7.48161 7.29149
#
# Compressibility (1/GPa) = 0.01354619
#
# Stress axis : x y z
#
# Youngs Moduli (GPa) = 82.73004 81.78208 90.88796
#
# Poissons Ratio (x) = 0.24282 0.59160
# Poissons Ratio (y) = 0.24564 0.12793
# Poissons Ratio (z) = 0.53850 0.11511
#
# Static dielectric constant tensor:
#      x y z
#    x 4.048330 0.000000 0.264310 
#    y 0.000000 3.973150 0.000000 
#    z 0.264310 0.000000 4.303360 
# 
# 
# High freq. dielectric constant tensor:
#      x y z
#    x 1.880530 0.000000 0.017630 
#    y 0.000000 1.882090 0.000000 
#    z 0.017630 0.000000 1.897480 
# 
# From -- ./inp_files/9049.got.cif
#   From: 2010.06.25/outbox.cif.g09.slc.cpg/sg9_5_cif.got.tgz:9049.got - 2010.06.27 21:40:51.
