data_PCOD8055975
_publ_section_title
;
Structure prediction by ZEFSAII (Michael W. Deem and Ramdas Pophale) SiO2 
 PCOD8055975
Probable space group: C C
;
_chemical_formula_sum "Si O2"
_cell_formula_units_Z 32
_cell_length_a 21.855806
_cell_length_b 7.803181
_cell_length_c 16.860669
_cell_angle_alpha 90.000000
_cell_angle_beta 26.876099
_cell_angle_gamma 90.000000
_cell_volume 1299.905982
_symmetry_space_group_name_H-M "C C"
_symmetry_group_IT_number 9
_symmetry_cell_setting 'monoclinic'
loop_
_space_group_symop_operation_xyz
x,y,z
x,-y,1/2+z
1/2+x,1/2+y,z
1/2+x,1/2-y,1/2+z
loop_
_atom_site_type_symbol
_atom_site_label
_atom_site_fract_x
_atom_site_fract_y
_atom_site_fract_z
Si Si1 0.327990 0.105518 0.493940
Si Si2 0.150194 0.311921 0.004352
Si Si3 0.438716 0.222747 0.613700
Si Si4 0.649832 0.787243 0.344044
Si Si5 0.559118 0.189446 0.122144
Si Si6 0.844674 0.919803 0.577417
Si Si7 0.418577 0.913608 0.526873
Si Si8 0.581626 0.477514 0.700055
O O1 0.401839 0.156276 0.326325
O O2 0.276403 0.267319 0.605368
O O3 0.204240 0.977915 0.620869
O O4 0.442077 0.011289 0.416809
O O5 0.141473 0.511773 0.039444
O O6 0.073633 0.265425 0.010649
O O7 0.080550 0.194861 0.151102
O O8 0.306983 0.261235 0.818976
O O9 0.440926 0.354405 0.537533
O O10 0.431069 0.030056 0.590578
O O11 0.572005 0.754338 0.516300
O O12 0.535974 0.770479 0.405370
O O13 0.765251 0.648883 0.200374
O O14 0.720549 0.974193 0.257711
O O15 0.608593 0.345873 0.119949
O O16 0.937272 0.029348 0.410814
#
# Coordination Sequence:
#
# PCOD8055975 Si02
#       8
#     4   4   4   4   4   4   4   4
#     4  10  26  48  71 102 154 196 240 309 373 444
#     4  12  25  45  76 106 147 194 247 303 367 436
#     4  11  23  47  73 108 143 194 247 305 367 440
#     4  12  26  47  75 111 144 195 253 313 372 440
#     4  11  25  46  69 107 149 194 244 310 364 438
#     4  10  25  45  73 104 146 197 246 301 377 442
#     4  11  27  46  75 107 151 189 252 313 370 445
#     4  11  27  46  72 109 148 199 247 298 380 445
#
# _framework density 24.617165
#
# number of rings (size 3 to 8) (size 9 to 14) (size 15 to 20)
#    0.000    1.000    2.500    1.500   14.000    3.000 
#    0.000    0.000    0.000    0.000    0.000    0.000 
#    0.000    0.000    0.000    0.000    0.000    0.000 
#
# Total GULP energy -198390.452500 kJ/mol
# GULP energy per Si atom -12399.403281 kJ/mol
# Density = 2.456113 g / cm^3
# Si number density = 24.617165 Si / 1000 Ang^3
#
#
#
# Elastic Constant Matrix: (Units=GPa)
#
#
# Indices 1 2 3 4 5 6 
#
# 1 89.5955 7.4222 14.1814 -0.0027 -3.9861 0.0017
# 2 7.4222 56.7381 -3.6224 -0.0068 6.3812 0.0052
# 3 14.1814 -3.6224 89.1349 -0.0041 9.8395 0.0029
# 4 -0.0027 -0.0068 -0.0041 33.7110 0.0014 -2.8637
# 5 -3.9861 6.3812 9.8395 0.0014 30.7965 -0.0005
# 6 0.0017 0.0052 0.0029 -2.8637 -0.0005 28.0964
#
#
#
# Elastic Compliance Matrix: (Units=1/GPa)
#
#
# Indices 1 2 3 4 5 6 
#
# 1 0.011800 -0.001986 -0.002252 0.000000 0.002658 0.000000
# 2 -0.001986 0.018502 0.001575 0.000004 -0.004594 -0.000003
# 3 -0.002252 0.001575 0.012137 0.000002 -0.004496 -0.000001
# 4 0.000000 0.000004 0.000002 0.029923 -0.000003 0.003050
# 5 0.002658 -0.004594 -0.004496 -0.000003 0.035204 0.000002
# 6 0.000000 -0.000003 -0.000001 0.003050 0.000002 0.035903
#
#
# Mechanical properties :
#
#
# Convention : Reuss Voigt Hill
#
# Bulk Modulus (GPa) = 26.94403 30.15898 28.55151
# Shear Modulus (GPa) = 31.02384 33.01993 32.02188
#
# Velocity S-wave (km/s) = 3.55385 3.66640 3.61057
# Velocity P-wave (km/s) = 5.27341 5.49555 5.38563
#
# Compressibility (1/GPa) = 0.03711397
#
# Stress axis : x y z
#
# Youngs Moduli (GPa) = 84.74218 54.04836 82.38946
#
# Poissons Ratio (x) = 0.10736 0.18551
# Poissons Ratio (y) = 0.16833 -0.12977
# Poissons Ratio (z) = 0.19081 -0.08513
#
# Static dielectric constant tensor:
#      x y z
#    x 4.322920 0.000000 0.133570 
#    y 0.000000 4.459320 0.000000 
#    z 0.133570 0.000000 4.337870 
# 
# 
# High freq. dielectric constant tensor:
#      x y z
#    x 1.976630 0.000000 0.008610 
#    y 0.000000 1.982560 0.000000 
#    z 0.008610 0.000000 1.986610 
# 
# From -- ./inp_files/27340.got.cif
#   From: 2010.06.25/outbox.cif.g09.slc.cpg/sg9_14_cif.got.tgz:27340.got - 2010.06.27 21:40:51.
