data_PCOD8055673
_publ_section_title
;
Structure prediction by ZEFSAII (Michael W. Deem and Ramdas Pophale) SiO2 
 PCOD8055673
Probable space group: C C
;
_chemical_formula_sum "Si O2"
_cell_formula_units_Z 32
_cell_length_a 13.680771
_cell_length_b 7.527982
_cell_length_c 25.453725
_cell_angle_alpha 90.000000
_cell_angle_beta 148.655348
_cell_angle_gamma 90.000000
_cell_volume 1363.635179
_symmetry_space_group_name_H-M "C C"
_symmetry_group_IT_number 9
_symmetry_cell_setting 'monoclinic'
loop_
_space_group_symop_operation_xyz
x,y,z
x,-y,1/2+z
1/2+x,1/2+y,z
1/2+x,1/2-y,1/2+z
loop_
_atom_site_type_symbol
_atom_site_label
_atom_site_fract_x
_atom_site_fract_y
_atom_site_fract_z
Si Si1 0.370460 0.800354 0.718030
Si Si2 0.279337 0.053721 0.386049
Si Si3 0.362142 0.590309 0.191984
Si Si4 0.257290 0.353798 0.852964
Si Si5 0.955973 0.397135 0.863235
Si Si6 0.854139 0.000833 0.575726
Si Si7 0.962336 0.133555 0.018215
Si Si8 0.232837 0.218775 0.731630
O O1 0.317485 0.617890 0.665987
O O2 0.540853 0.900199 0.767116
O O3 0.431198 0.751306 0.806060
O O4 0.181172 0.918809 0.627537
O O5 0.297852 0.124707 0.334872
O O6 0.433647 0.158442 0.491002
O O7 0.073676 0.113040 0.310627
O O8 0.311482 0.840830 0.402094
O O9 0.344939 0.636303 0.121589
O O10 0.223214 0.688117 0.169407
O O11 0.282276 0.357597 0.801344
O O12 0.387509 0.503154 0.938459
O O13 0.905033 0.579626 0.808464
O O14 0.160506 0.387371 0.983576
O O15 0.032575 0.133489 0.656759
O O16 0.854245 0.885185 0.523190
#
# Coordination Sequence:
#
# PCOD8055673 Si02
#       8
#     4   4   4   4   4   4   4   4
#     4  11  22  44  68 102 140 186 238 300 362 436
#     4  10  23  44  72 103 143 183 237 305 369 435
#     4  11  24  46  71 102 147 189 241 307 370 450
#     4  10  24  48  70 105 146 187 244 306 368 441
#     4  11  22  44  73  95 145 186 230 309 365 427
#     4  12  23  44  71 102 144 190 240 302 374 436
#     4  12  24  41  77 105 136 195 244 289 382 444
#     4  11  24  47  72 104 145 194 244 306 376 443
#
# _framework density 23.466687
#
# number of rings (size 3 to 8) (size 9 to 14) (size 15 to 20)
#    0.000    1.000    6.250    1.500    1.750    3.000 
#    0.000    0.000    2.750    0.000    0.000    0.000 
#    0.000    0.000    0.000    0.000    0.000    0.000 
#
# Total GULP energy -198275.816402 kJ/mol
# GULP energy per Si atom -12392.238525 kJ/mol
# Density = 2.341328 g / cm^3
# Si number density = 23.466687 Si / 1000 Ang^3
#
#
#
# Elastic Constant Matrix: (Units=GPa)
#
#
# Indices 1 2 3 4 5 6 
#
# 1 131.4870 25.6904 38.2160 0.0000 -13.6032 0.0000
# 2 25.6904 44.7715 27.4204 0.0000 -2.6600 0.0000
# 3 38.2160 27.4204 128.4453 -0.0002 1.8745 0.0000
# 4 0.0000 0.0000 -0.0002 31.9272 -0.0001 -5.5471
# 5 -13.6032 -2.6600 1.8745 -0.0001 42.1355 0.0000
# 6 0.0000 0.0000 0.0000 -5.5471 0.0000 33.4234
#
#
#
# Elastic Compliance Matrix: (Units=1/GPa)
#
#
# Indices 1 2 3 4 5 6 
#
# 1 0.009232 -0.003937 -0.001947 0.000000 0.002819 0.000000
# 2 -0.003937 0.027522 -0.004714 0.000000 0.000676 0.000000
# 3 -0.001947 -0.004714 0.009391 0.000000 -0.001344 0.000000
# 4 0.000000 0.000000 0.000000 0.032251 0.000000 0.005353
# 5 0.002819 0.000676 -0.001344 0.000000 0.024745 0.000000
# 6 0.000000 0.000000 0.000000 0.005353 0.000000 0.030807
#
#
# Mechanical properties :
#
#
# Convention : Reuss Voigt Hill
#
# Bulk Modulus (GPa) = 40.08357 54.15082 47.11719
# Shear Modulus (GPa) = 30.58809 35.72236 33.15523
#
# Velocity S-wave (km/s) = 3.61428 3.90585 3.76289
# Velocity P-wave (km/s) = 5.87669 6.59292 6.24508
#
# Compressibility (1/GPa) = 0.02494788
#
# Stress axis : x y z
#
# Youngs Moduli (GPa) = 108.31611 36.33441 106.48795
#
# Poissons Ratio (x) = 0.14306 0.20738
# Poissons Ratio (y) = 0.42648 0.50196
# Poissons Ratio (z) = 0.21094 0.17127
#
# Static dielectric constant tensor:
#      x y z
#    x 4.471430 0.000000 -0.023990 
#    y 0.000000 3.901820 0.000000 
#    z -0.023990 0.000000 4.227710 
# 
# 
# High freq. dielectric constant tensor:
#      x y z
#    x 1.947200 0.000000 -0.002090 
#    y 0.000000 1.890020 0.000000 
#    z -0.002090 0.000000 1.935440 
# 
# From -- ./inp_files/25624.got.cif
#   From: 2010.06.25/outbox.cif.g09.slc.cpg/sg9_13_cif.got.tgz:25624.got - 2010.06.27 21:40:51.
