data_PCOD8055162
_publ_section_title
;
Structure prediction by ZEFSAII (Michael W. Deem and Ramdas Pophale) SiO2 
 PCOD8055162
Probable space group: C C
;
_chemical_formula_sum "Si O2"
_cell_formula_units_Z 32
_cell_length_a 8.214098
_cell_length_b 19.753205
_cell_length_c 14.238170
_cell_angle_alpha 90.000000
_cell_angle_beta 142.501502
_cell_angle_gamma 90.000000
_cell_volume 1406.319229
_symmetry_space_group_name_H-M "C C"
_symmetry_group_IT_number 9
_symmetry_cell_setting 'monoclinic'
loop_
_space_group_symop_operation_xyz
x,y,z
x,-y,1/2+z
1/2+x,1/2+y,z
1/2+x,1/2-y,1/2+z
loop_
_atom_site_type_symbol
_atom_site_label
_atom_site_fract_x
_atom_site_fract_y
_atom_site_fract_z
Si Si1 0.829260 0.152984 0.421590
Si Si2 0.607120 0.735534 0.408492
Si Si3 0.732830 0.647504 0.751391
Si Si4 0.356825 0.913237 0.599761
Si Si5 0.584678 0.293472 0.369690
Si Si6 0.148150 0.053891 0.189630
Si Si7 0.125623 0.207569 0.216750
Si Si8 0.552183 0.964840 0.484347
O O1 0.595376 0.105087 0.280431
O O2 0.757823 0.225009 0.438408
O O3 0.005356 0.168250 0.411392
O O4 0.020559 0.113628 0.582760
O O5 0.356542 0.783552 0.267132
O O6 0.736179 0.707886 0.373056
O O7 0.811533 0.777588 0.565938
O O8 0.572917 0.660728 0.772928
O O9 0.974916 0.597418 0.882771
O O10 0.201403 0.842776 0.504576
O O11 0.179235 0.961853 0.589653
O O12 0.470670 0.951320 0.557770
O O13 0.279618 0.270414 0.240701
O O14 0.183896 0.134717 0.201788
O O15 0.386333 0.027723 0.366376
O O16 0.871693 0.027368 0.111716
#
# Coordination Sequence:
#
# PCOD8055162 Si02
#       8
#     4   4   4   4   4   4   4   4
#     4  11  21  37  68 103 136 187 218 280 373 428
#     4  11  22  38  63 101 140 177 214 293 362 431
#     4  10  22  42  65  98 137 182 230 285 360 422
#     4  11  25  48  74 104 149 187 239 298 358 426
#     4  10  22  37  67 103 143 176 219 289 361 435
#     4  12  27  49  75 101 140 195 242 302 351 416
#     4  12  23  40  65 103 141 172 232 286 359 435
#     4  11  28  51  73  99 144 190 254 297 346 421
#
# _framework density 22.754435999999998
#
# number of rings (size 3 to 8) (size 9 to 14) (size 15 to 20)
#    0.000    1.000    3.750    3.000    5.250    1.000 
#    4.500    0.000    0.000    0.000    0.000    0.000 
#    0.000    0.000    0.000    0.000    0.000    0.000 
#
# Total GULP energy -198212.484733 kJ/mol
# GULP energy per Si atom -12388.280296 kJ/mol
# Density = 2.270265 g / cm^3
# Si number density = 22.754436 Si / 1000 Ang^3
#
#
#
# Elastic Constant Matrix: (Units=GPa)
#
#
# Indices 1 2 3 4 5 6 
#
# 1 123.0502 37.1346 43.4007 -0.0073 4.6961 -0.0073
# 2 37.1346 28.7275 17.8777 0.0117 1.5470 0.0140
# 3 43.4007 17.8777 120.2579 0.0432 6.9020 0.0317
# 4 -0.0073 0.0117 0.0432 32.9015 0.0095 -3.1996
# 5 4.6961 1.5470 6.9020 0.0095 29.7398 0.0040
# 6 -0.0073 0.0140 0.0317 -3.1996 0.0040 23.5715
#
#
#
# Elastic Compliance Matrix: (Units=1/GPa)
#
#
# Indices 1 2 3 4 5 6 
#
# 1 0.014047 -0.016517 -0.002570 0.000015 -0.000762 0.000020
# 2 -0.016517 0.057794 -0.002643 -0.000025 0.000215 -0.000039
# 3 -0.002570 -0.002643 0.009734 -0.000013 -0.001716 -0.000014
# 4 0.000015 -0.000025 -0.000013 0.030800 -0.000008 0.004181
# 5 -0.000762 0.000215 -0.001716 -0.000008 0.034132 -0.000005
# 6 0.000020 -0.000039 -0.000014 0.004181 -0.000005 0.042992
#
#
# Mechanical properties :
#
#
# Convention : Reuss Voigt Hill
#
# Bulk Modulus (GPa) = 26.23676 52.09574 39.16625
# Shear Modulus (GPa) = 20.35276 28.81739 24.58507
#
# Velocity S-wave (km/s) = 2.99398 3.56258 3.29059
# Velocity P-wave (km/s) = 4.84844 6.31404 5.62914
#
# Compressibility (1/GPa) = 0.03811446
#
# Stress axis : x y z
#
# Youngs Moduli (GPa) = 71.18892 17.30269 102.72753
#
# Poissons Ratio (x) = 0.28580 0.26404
# Poissons Ratio (y) = 1.17586 0.27152
# Poissons Ratio (z) = 0.18298 0.04573
#
# Static dielectric constant tensor:
#      x y z
#    x 4.378320 0.000020 -0.092210 
#    y 0.000020 4.008680 -0.000100 
#    z -0.092210 -0.000100 4.186760 
# 
# 
# High freq. dielectric constant tensor:
#      x y z
#    x 1.912330 0.000000 -0.004650 
#    y 0.000000 1.872080 -0.000010 
#    z -0.004650 -0.000010 1.903250 
# 
# From -- ./inp_files/23699.got.cif
#   From: 2010.06.25/outbox.cif.g09.slc.cpg/sg9_12_cif.got.tgz:23699.got - 2010.06.27 21:40:51.
