data_PCOD8055902
_publ_section_title
;
Structure prediction by ZEFSAII (Michael W. Deem and Ramdas Pophale) SiO2 
 PCOD8055902
Probable space group: C C
;
_chemical_formula_sum "Si O2"
_cell_formula_units_Z 20
_cell_length_a 5.172597
_cell_length_b 18.756668
_cell_length_c 9.289621
_cell_angle_alpha 90.000000
_cell_angle_beta 81.484135
_cell_angle_gamma 90.000000
_cell_volume 891.348626
_symmetry_space_group_name_H-M "C C"
_symmetry_group_IT_number 9
_symmetry_cell_setting 'monoclinic'
loop_
_space_group_symop_operation_xyz
x,y,z
x,-y,1/2+z
1/2+x,1/2+y,z
1/2+x,1/2-y,1/2+z
loop_
_atom_site_type_symbol
_atom_site_label
_atom_site_fract_x
_atom_site_fract_y
_atom_site_fract_z
Si Si1 0.445410 0.075466 0.308310
Si Si2 0.995250 0.559866 0.975042
Si Si3 0.518441 0.369878 0.352189
Si Si4 0.108456 0.710854 0.425053
Si Si5 0.089921 0.848735 0.032876
O O1 0.620204 0.147873 0.303114
O O2 0.158076 0.093871 0.400631
O O3 0.579194 0.015193 0.397506
O O4 0.420903 0.048824 0.147740
O O5 0.737201 0.585884 0.915822
O O6 0.234696 0.614770 0.942247
O O7 0.590315 0.286851 0.352178
O O8 0.511439 0.390971 0.184058
O O9 0.361791 0.705472 0.505051
O O10 0.849851 0.698327 0.544057
#
# Coordination Sequence:
#
# PCOD8055902 Si02
#       5
#     4   4   4   4   4
#     4  10  28  46  72 100 143 185 234 285 351 414
#     4  12  28  45  72 105 142 185 235 289 351 418
#     4  12  27  44  74 105 140 184 236 289 353 412
#     4  10  25  42  74  99 142 176 235 285 351 407
#     4  10  24  45  72  97 141 180 230 286 342 413
#
# _framework density 22.437912000000001
#
# number of rings (size 3 to 8) (size 9 to 14) (size 15 to 20)
#    1.200    0.000    0.000    3.600   14.000    0.000 
#    0.000    0.000    0.000    0.000    0.000    0.000 
#    0.000    0.000    0.000    0.000    0.000    0.000 
#
# Total GULP energy -123959.932294 kJ/mol
# GULP energy per Si atom -12395.993229 kJ/mol
# Density = 2.238684 g / cm^3
# Si number density = 22.437912 Si / 1000 Ang^3
#
#
#
# Elastic Constant Matrix: (Units=GPa)
#
#
# Indices 1 2 3 4 5 6 
#
# 1 138.2000 17.4018 47.4154 0.0000 3.3808 0.0000
# 2 17.4018 120.2797 49.1598 0.0000 7.2299 0.0000
# 3 47.4154 49.1598 177.4066 0.0000 -3.1232 0.0000
# 4 0.0000 0.0000 0.0000 26.0483 0.0000 8.7195
# 5 3.3808 7.2299 -3.1232 0.0000 25.3026 0.0000
# 6 0.0000 0.0000 0.0000 8.7195 0.0000 30.2964
#
#
#
# Elastic Compliance Matrix: (Units=1/GPa)
#
#
# Indices 1 2 3 4 5 6 
#
# 1 0.008017 -0.000224 -0.002103 0.000000 -0.001267 0.000000
# 2 -0.000224 0.009616 -0.002658 0.000000 -0.003046 0.000000
# 3 -0.002103 -0.002658 0.006969 0.000000 0.001901 0.000000
# 4 0.000000 0.000000 0.000000 0.042483 0.000000 -0.012227
# 5 -0.001267 -0.003046 0.001901 0.000000 0.040796 0.000000
# 6 0.000000 0.000000 0.000000 -0.012227 0.000000 0.036526
#
#
# Mechanical properties :
#
#
# Convention : Reuss Voigt Hill
#
# Bulk Modulus (GPa) = 68.34908 73.76003 71.05456
# Shear Modulus (GPa) = 31.39639 37.79009 34.59324
#
# Velocity S-wave (km/s) = 3.74472 4.10836 3.93075
# Velocity P-wave (km/s) = 7.01604 7.44642 7.23443
#
# Compressibility (1/GPa) = 0.01463077
#
# Stress axis : x y z
#
# Youngs Moduli (GPa) = 124.74207 103.99383 143.49591
#
# Poissons Ratio (x) = 0.02332 0.30173
# Poissons Ratio (y) = 0.02798 0.38145
# Poissons Ratio (z) = 0.26230 0.27644
#
# Static dielectric constant tensor:
#      x y z
#    x 3.904270 0.000000 -0.039270 
#    y 0.000000 3.950050 0.000000 
#    z -0.039270 0.000000 3.899530 
# 
# 
# High freq. dielectric constant tensor:
#      x y z
#    x 1.883900 0.000000 -0.002370 
#    y 0.000000 1.882870 0.000000 
#    z -0.002370 0.000000 1.879870 
# 
# From -- ./inp_files/3645.got.cif
#   From: 2010.06.25/outbox.cif.g09.slc.cpg/sg9_2_cif.got.tgz:3645.got - 2010.06.27 21:40:51.
