data_PCOD8055198
_publ_section_title
;
Structure prediction by ZEFSAII (Michael W. Deem and Ramdas Pophale) SiO2 
 PCOD8055198
Probable space group: C C
;
_chemical_formula_sum "Si O2"
_cell_formula_units_Z 28
_cell_length_a 22.579373
_cell_length_b 8.076585
_cell_length_c 8.857467
_cell_angle_alpha 90.000000
_cell_angle_beta 138.321827
_cell_angle_gamma 90.000000
_cell_volume 1074.077165
_symmetry_space_group_name_H-M "C C"
_symmetry_group_IT_number 9
_symmetry_cell_setting 'monoclinic'
loop_
_space_group_symop_operation_xyz
x,y,z
x,-y,1/2+z
1/2+x,1/2+y,z
1/2+x,1/2-y,1/2+z
loop_
_atom_site_type_symbol
_atom_site_label
_atom_site_fract_x
_atom_site_fract_y
_atom_site_fract_z
Si Si1 0.682280 0.522075 0.072320
Si Si2 0.841693 0.837241 0.033062
Si Si3 0.153470 0.227004 0.742227
Si Si4 0.880595 0.515562 0.573044
Si Si5 0.848054 0.164680 0.184062
Si Si6 0.060052 0.491302 0.749662
Si Si7 0.651039 0.168902 0.685594
O O1 0.638996 0.346871 0.045163
O O2 0.787499 0.522341 0.307342
O O3 0.627417 0.665043 0.052211
O O4 0.672115 0.556132 0.874688
O O5 0.741117 0.843571 0.909960
O O6 0.886256 0.663060 0.169830
O O7 0.844057 0.844365 0.855858
O O8 0.893458 0.995288 0.204453
O O9 0.072867 0.330975 0.661642
O O10 0.896617 0.667267 0.720119
O O11 0.958077 0.514068 0.596933
O O12 0.752943 0.167223 0.923644
O O13 0.089207 0.654532 0.714424
O O14 0.125055 0.480003 0.019354
#
# Coordination Sequence:
#
# PCOD8055198 Si02
#       7
#     4   4   4   4   4   4   4
#     4   9  22  39  64  97 127 183 229 282 336 428
#     4  11  25  41  72 103 136 187 241 285 351 430
#     4  10  22  40  68  98 134 179 240 287 346 424
#     4  10  26  42  70 101 143 181 238 292 366 406
#     4  11  24  46  71 102 135 191 238 295 339 436
#     4  11  23  41  64  98 137 175 221 299 352 411
#     4  10  22  39  65  93 128 174 229 274 350 411
#
# _framework density 26.068892999999999
#
# number of rings (size 3 to 8) (size 9 to 14) (size 15 to 20)
#    0.000    1.714    1.429    0.857   18.000    0.000 
#    2.571    1.429    0.000    0.000    0.000    0.000 
#    0.000    0.000    0.000    0.000    0.000    0.000 
#
# Total GULP energy -173479.775187 kJ/mol
# GULP energy per Si atom -12391.412513 kJ/mol
# Density = 2.600956 g / cm^3
# Si number density = 26.068893 Si / 1000 Ang^3
#
#
#
# Elastic Constant Matrix: (Units=GPa)
#
#
# Indices 1 2 3 4 5 6 
#
# 1 173.4292 65.7893 30.9772 0.0000 -2.9371 0.0000
# 2 65.7893 153.9613 13.2301 0.0000 -18.7317 0.0000
# 3 30.9772 13.2301 51.1229 0.0000 -17.3717 0.0000
# 4 0.0000 0.0000 0.0000 23.2641 0.0000 -17.1963
# 5 -2.9371 -18.7317 -17.3717 0.0000 32.9754 0.0000
# 6 0.0000 0.0000 0.0000 -17.1963 0.0000 52.1465
#
#
#
# Elastic Compliance Matrix: (Units=1/GPa)
#
#
# Indices 1 2 3 4 5 6 
#
# 1 0.007945 -0.003430 -0.005296 0.000000 -0.004031 0.000000
# 2 -0.003430 0.008472 0.001727 0.000000 0.005416 0.000000
# 3 -0.005296 0.001727 0.027401 0.000000 0.014944 0.000000
# 4 0.000000 0.000000 0.000000 0.056840 0.000000 0.018744
# 5 -0.004031 0.005416 0.014944 0.000000 0.040916 0.000000
# 6 0.000000 0.000000 0.000000 0.018744 0.000000 0.025358
#
#
# Mechanical properties :
#
#
# Convention : Reuss Voigt Hill
#
# Bulk Modulus (GPa) = 33.53671 66.50072 50.01871
# Shear Modulus (GPa) = 26.19574 39.57832 32.88703
#
# Velocity S-wave (km/s) = 3.17340 3.90066 3.55567
# Velocity P-wave (km/s) = 5.13029 6.77140 6.00715
#
# Compressibility (1/GPa) = 0.02981807
#
# Stress axis : x y z
#
# Youngs Moduli (GPa) = 125.86479 118.04206 36.49486
#
# Poissons Ratio (x) = 0.40492 0.19328
# Poissons Ratio (y) = 0.43176 -0.06302
# Poissons Ratio (z) = 0.66661 -0.20382
#
# Static dielectric constant tensor:
#      x y z
#    x 4.708930 0.000000 -0.358710 
#    y 0.000000 5.580020 0.000000 
#    z -0.358710 0.000000 4.327650 
# 
# 
# High freq. dielectric constant tensor:
#      x y z
#    x 2.048300 0.000000 -0.028610 
#    y 0.000000 2.066290 0.000000 
#    z -0.028610 0.000000 2.008110 
# 
# From -- ./inp_files/11432.got.cif
#   From: 2010.06.25/outbox.cif.g09.slc.cpg/sg9_6_cif.got.tgz:11432.got - 2010.06.27 21:40:51.
