data_PCOD8055569
_publ_section_title
;
Structure prediction by ZEFSAII (Michael W. Deem and Ramdas Pophale) SiO2 
 PCOD8055569
Probable space group: C C
;
_chemical_formula_sum "Si O2"
_cell_formula_units_Z 32
_cell_length_a 18.621391
_cell_length_b 9.593069
_cell_length_c 16.694939
_cell_angle_alpha 90.000000
_cell_angle_beta 153.267989
_cell_angle_gamma 90.000000
_cell_volume 1341.502249
_symmetry_space_group_name_H-M "C C"
_symmetry_group_IT_number 9
_symmetry_cell_setting 'monoclinic'
loop_
_space_group_symop_operation_xyz
x,y,z
x,-y,1/2+z
1/2+x,1/2+y,z
1/2+x,1/2-y,1/2+z
loop_
_atom_site_type_symbol
_atom_site_label
_atom_site_fract_x
_atom_site_fract_y
_atom_site_fract_z
Si Si1 0.605870 0.351704 0.384330
Si Si2 0.788431 0.894310 0.990750
Si Si3 0.410181 0.284168 0.855457
Si Si4 0.317690 0.884336 0.111380
Si Si5 0.195502 0.696070 0.727848
Si Si6 0.506145 0.409089 0.451309
Si Si7 0.629325 0.172523 0.840798
Si Si8 0.624372 0.898182 0.656082
O O1 0.698069 0.209991 0.459884
O O2 0.748666 0.460231 0.545514
O O3 0.490283 0.343218 0.346925
O O4 0.482184 0.381489 0.187686
O O5 0.721320 0.874819 0.834499
O O6 0.747402 0.047183 0.981263
O O7 0.407252 0.173598 0.779553
O O8 0.523881 0.422605 0.959534
O O9 0.233466 0.343768 0.691552
O O10 0.466260 0.196634 0.990247
O O11 0.445454 0.875821 0.165374
O O12 0.162987 0.791541 0.938948
O O13 0.368013 0.637120 0.874808
O O14 0.162451 0.835601 0.644674
O O15 0.177371 0.734678 0.802566
O O16 0.078729 0.561354 0.598145
#
# Coordination Sequence:
#
# PCOD8055569 Si02
#       8
#     4   4   4   4   4   4   4   4
#     4  12  25  42  68  99 134 176 224 278 339 404
#     4  11  24  43  65  97 134 176 225 277 334 398
#     4  11  23  41  64  93 128 171 217 270 330 390
#     4  12  25  42  68  98 133 177 222 278 339 402
#     4  10  24  41  63  92 126 170 216 271 325 386
#     4  11  23  42  65  95 131 170 220 271 327 394
#     4  11  23  43  65  95 134 174 226 276 332 397
#     4  10  23  42  64  91 130 170 218 271 324 391
#
# _framework density 23.853856
#
# number of rings (size 3 to 8) (size 9 to 14) (size 15 to 20)
#    0.000    1.000    0.000    6.750    0.000   10.000 
#    0.000    0.000    0.000    0.000    0.000    0.000 
#    0.000    0.000    0.000    0.000    0.000    0.000 
#
# Total GULP energy -198297.016820 kJ/mol
# GULP energy per Si atom -12393.563551 kJ/mol
# Density = 2.379956 g / cm^3
# Si number density = 23.853856 Si / 1000 Ang^3
#
#
#
# Elastic Constant Matrix: (Units=GPa)
#
#
# Indices 1 2 3 4 5 6 
#
# 1 89.0601 8.2498 13.4733 0.0001 -10.5908 0.0000
# 2 8.2498 95.4371 27.8442 0.0001 -27.9158 0.0001
# 3 13.4733 27.8442 91.9077 0.0003 -15.0784 0.0002
# 4 0.0001 0.0001 0.0003 47.9160 0.0002 -2.6906
# 5 -10.5908 -27.9158 -15.0784 0.0002 32.0877 0.0001
# 6 0.0000 0.0001 0.0002 -2.6906 0.0001 32.0984
#
#
#
# Elastic Compliance Matrix: (Units=1/GPa)
#
#
# Indices 1 2 3 4 5 6 
#
# 1 0.011817 0.000420 -0.001257 0.000000 0.003675 0.000000
# 2 0.000420 0.014593 -0.002576 0.000000 0.011624 0.000000
# 3 -0.001257 -0.002576 0.012362 0.000000 0.003154 0.000000
# 4 0.000000 0.000000 0.000000 0.020969 0.000000 0.001758
# 5 0.003675 0.011624 0.003154 0.000000 0.043973 0.000000
# 6 0.000000 0.000000 0.000000 0.001758 0.000000 0.031302
#
#
# Mechanical properties :
#
#
# Convention : Reuss Voigt Hill
#
# Bulk Modulus (GPa) = 31.30068 41.72662 36.51365
# Shear Modulus (GPa) = 32.78930 37.54291 35.16611
#
# Velocity S-wave (km/s) = 3.71157 3.97151 3.84374
# Velocity P-wave (km/s) = 5.61409 6.20976 5.91942
#
# Compressibility (1/GPa) = 0.03194819
#
# Stress axis : x y z
#
# Youngs Moduli (GPa) = 84.62669 68.52395 80.89033
#
# Poissons Ratio (x) = -0.02879 0.10165
# Poissons Ratio (y) = -0.03556 0.20835
# Poissons Ratio (z) = 0.10634 0.17650
#
# Static dielectric constant tensor:
#      x y z
#    x 4.200050 0.000000 -0.034350 
#    y 0.000000 4.528330 0.000000 
#    z -0.034350 0.000000 4.095960 
# 
# 
# High freq. dielectric constant tensor:
#      x y z
#    x 1.946050 0.000000 0.000900 
#    y 0.000000 1.955150 0.000000 
#    z 0.000900 0.000000 1.937040 
# 
# From -- ./inp_files/34507.got.cif
#   From: 2010.06.25/outbox.cif.g09.slc.cpg/sg9_18_cif.got.tgz:34507.got - 2010.06.27 21:40:51.
