data_PCOD8055963
_publ_section_title
;
Structure prediction by ZEFSAII (Michael W. Deem and Ramdas Pophale) SiO2 
 PCOD8055963
Probable space group: C C
;
_chemical_formula_sum "Si O2"
_cell_formula_units_Z 28
_cell_length_a 22.914388
_cell_length_b 5.468707
_cell_length_c 9.850644
_cell_angle_alpha 90.000000
_cell_angle_beta 105.060577
_cell_angle_gamma 90.000000
_cell_volume 1192.004862
_symmetry_space_group_name_H-M "C C"
_symmetry_group_IT_number 9
_symmetry_cell_setting 'monoclinic'
loop_
_space_group_symop_operation_xyz
x,y,z
x,-y,1/2+z
1/2+x,1/2+y,z
1/2+x,1/2-y,1/2+z
loop_
_atom_site_type_symbol
_atom_site_label
_atom_site_fract_x
_atom_site_fract_y
_atom_site_fract_z
Si Si1 0.003120 0.228194 0.672340
Si Si2 0.606767 0.420000 0.819345
Si Si3 0.153736 0.757403 0.573113
Si Si4 0.885027 0.984259 0.012310
Si Si5 0.036707 0.535170 0.927453
Si Si6 0.339988 0.995870 0.882549
Si Si7 0.786124 0.720758 0.090063
O O1 0.993355 0.358044 0.812604
O O2 0.000899 0.414380 0.543974
O O3 0.951051 0.025434 0.622519
O O4 0.071638 0.127612 0.712291
O O5 0.649691 0.296303 0.733044
O O6 0.549949 0.266850 0.841045
O O7 0.645766 0.504039 0.972637
O O8 0.103393 0.567971 0.497107
O O9 0.221172 0.660086 0.584098
O O10 0.881024 0.745729 0.907513
O O11 0.832884 0.945814 0.095404
O O12 0.877883 0.249350 0.940277
O O13 0.285822 0.044464 0.957741
O O14 0.308755 0.959836 0.720617
#
# Coordination Sequence:
#
# PCOD8055963 Si02
#       7
#     4   4   4   4   4   4   4
#     4  11  25  43  70  98 140 176 234 285 348 416
#     4  11  23  42  64  99 136 177 225 281 346 409
#     4  11  23  43  68 100 134 180 226 289 342 418
#     4  10  27  44  74 102 141 183 230 290 350 416
#     4  11  24  43  66 104 133 184 225 285 350 415
#     4  10  25  47  67 108 136 184 235 280 358 406
#     4  10  25  44  71 101 140 182 237 290 350 416
#
# _framework density 23.489840000000001
#
# number of rings (size 3 to 8) (size 9 to 14) (size 15 to 20)
#    0.857    0.571    2.857    0.857    6.000    3.429 
#    0.000    0.000    0.000    0.000    0.000    0.000 
#    0.000    0.000    0.000    0.000    0.000    0.000 
#
# Total GULP energy -173451.612915 kJ/mol
# GULP energy per Si atom -12389.400923 kJ/mol
# Density = 2.343638 g / cm^3
# Si number density = 23.489840 Si / 1000 Ang^3
#
#
#
# Elastic Constant Matrix: (Units=GPa)
#
#
# Indices 1 2 3 4 5 6 
#
# 1 70.0018 -7.1083 -0.2807 0.0000 4.0625 0.0000
# 2 -7.1083 71.2054 -3.0113 0.0000 -4.2104 0.0000
# 3 -0.2807 -3.0113 86.5313 0.0000 -14.3752 0.0000
# 4 0.0000 0.0000 0.0000 24.0087 0.0000 -0.1426
# 5 4.0625 -4.2104 -14.3752 0.0000 20.8314 0.0000
# 6 0.0000 0.0000 0.0000 -0.1426 0.0000 23.1920
#
#
#
# Elastic Compliance Matrix: (Units=1/GPa)
#
#
# Indices 1 2 3 4 5 6 
#
# 1 0.014578 0.001271 -0.000382 0.000000 -0.002850 0.000000
# 2 0.001271 0.014417 0.001072 0.000000 0.003406 0.000000
# 3 -0.000382 0.001072 0.013148 0.000000 0.009364 0.000000
# 4 0.000000 0.000000 0.000000 0.041653 0.000000 0.000256
# 5 -0.002850 0.003406 0.009364 0.000000 0.055710 0.000000
# 6 0.000000 0.000000 0.000000 0.000256 0.000000 0.043120
#
#
# Mechanical properties :
#
#
# Convention : Reuss Voigt Hill
#
# Bulk Modulus (GPa) = 21.70861 22.99309 22.35085
# Shear Modulus (GPa) = 25.76504 29.48235 27.62370
#
# Velocity S-wave (km/s) = 3.31548 3.54660 3.43298
# Velocity P-wave (km/s) = 4.89063 5.15567 5.02490
#
# Compressibility (1/GPa) = 0.04606466
#
# Stress axis : x y z
#
# Youngs Moduli (GPa) = 68.59545 69.36048 76.05588
#
# Poissons Ratio (x) = -0.08813 0.02905
# Poissons Ratio (y) = -0.08716 -0.08150
# Poissons Ratio (z) = 0.02620 -0.07433
#
# Static dielectric constant tensor:
#      x y z
#    x 3.972100 0.000000 -0.052400 
#    y 0.000000 3.985190 0.000000 
#    z -0.052400 0.000000 4.238060 
# 
# 
# High freq. dielectric constant tensor:
#      x y z
#    x 1.918150 0.000000 -0.001640 
#    y 0.000000 1.912360 0.000000 
#    z -0.001640 0.000000 1.938970 
# 
# From -- ./inp_files/12312.got.cif
#   From: 2010.06.25/outbox.cif.g09.slc.cpg/sg9_7_cif.got.tgz:12312.got - 2010.06.27 21:40:51.
