data_PCOD8055679
_publ_section_title
;
Structure prediction by ZEFSAII (Michael W. Deem and Ramdas Pophale) SiO2 
 PCOD8055679
Probable space group: C C
;
_chemical_formula_sum "Si O2"
_cell_formula_units_Z 24
_cell_length_a 9.020212
_cell_length_b 22.404019
_cell_length_c 5.180715
_cell_angle_alpha 90.000000
_cell_angle_beta 116.395360
_cell_angle_gamma 90.000000
_cell_volume 937.817024
_symmetry_space_group_name_H-M "C C"
_symmetry_group_IT_number 9
_symmetry_cell_setting 'monoclinic'
loop_
_space_group_symop_operation_xyz
x,y,z
x,-y,1/2+z
1/2+x,1/2+y,z
1/2+x,1/2-y,1/2+z
loop_
_atom_site_type_symbol
_atom_site_label
_atom_site_fract_x
_atom_site_fract_y
_atom_site_fract_z
Si Si1 0.230560 0.670750 0.887050
Si Si2 0.657864 0.356977 0.167715
Si Si3 0.491871 0.526734 0.408050
Si Si4 0.511496 0.091334 0.012410
Si Si5 0.666135 0.951347 0.143808
Si Si6 0.584922 0.288528 0.631988
O O1 0.269722 0.610929 0.750170
O O2 0.123675 0.718353 0.638810
O O3 0.121328 0.651451 0.053226
O O4 0.400134 0.702358 0.097864
O O5 0.604614 0.315784 0.363859
O O6 0.818858 0.393478 0.372851
O O7 0.508287 0.403215 0.981849
O O8 0.699302 0.318421 0.943142
O O9 0.578864 0.488624 0.703695
O O10 0.296893 0.507453 0.225223
O O11 0.556022 0.055112 0.302473
O O12 0.545163 0.044274 0.802302
#
# Coordination Sequence:
#
# PCOD8055679 Si02
#       6
#     4   4   4   4   4   4
#     4  10  26  44  74 110 146 203 244 315 379 460
#     4  12  27  47  73 112 152 196 250 328 368 472
#     4  12  25  46  75 103 145 202 256 305 374 452
#     4  10  24  45  74 105 152 183 254 314 383 437
#     4  10  23  44  74 104 145 199 250 306 367 473
#     4  12  27  42  76 108 156 195 252 306 395 452
#
# _framework density 25.591349000000001
#
# number of rings (size 3 to 8) (size 9 to 14) (size 15 to 20)
#    1.000    0.000    0.000    6.000    9.333    0.000 
#    0.000    5.000    0.000    0.000    0.000    0.000 
#    0.000    0.000    0.000    0.000    0.000    0.000 
#
# Total GULP energy -148704.933490 kJ/mol
# GULP energy per Si atom -12392.077791 kJ/mol
# Density = 2.553310 g / cm^3
# Si number density = 25.591349 Si / 1000 Ang^3
#
#
#
# Elastic Constant Matrix: (Units=GPa)
#
#
# Indices 1 2 3 4 5 6 
#
# 1 81.8221 34.7907 30.1300 0.0000 14.0461 0.0000
# 2 34.7907 121.9261 4.8605 0.0000 10.4986 0.0000
# 3 30.1300 4.8605 146.3157 0.0000 -32.7167 0.0000
# 4 0.0000 0.0000 0.0000 -206.3317 0.0000 31.4532
# 5 14.0461 10.4986 -32.7167 0.0000 45.8254 0.0000
# 6 0.0000 0.0000 0.0000 31.4532 0.0000 31.9183
#
#
#
# Elastic Compliance Matrix: (Units=1/GPa)
#
#
# Indices 1 2 3 4 5 6 
#
# 1 0.017244 -0.004015 -0.005229 0.000000 -0.008099 0.000000
# 2 -0.004015 0.009389 0.000368 0.000000 -0.000658 0.000000
# 3 -0.005229 0.000368 0.009804 0.000000 0.008518 0.000000
# 4 0.000000 0.000000 0.000000 -0.004214 0.000000 0.004152
# 5 -0.008099 -0.000658 0.008518 0.000000 0.030536 0.000000
# 6 0.000000 0.000000 0.000000 0.004152 0.000000 0.027238
#
#
# Mechanical properties :
#
#
# Convention : Reuss Voigt Hill
#
# Bulk Modulus (GPa) = 53.51619 54.40292 53.95956
# Shear Modulus (GPa) = 43.86812 -7.03209 18.41801
#
# Velocity S-wave (km/s) = 4.14475 -1.65946 2.68563
# Velocity P-wave (km/s) = 6.62288 4.19913 5.54506
#
# Compressibility (1/GPa) = 0.01868593
#
# Stress axis : x y z
#
# Youngs Moduli (GPa) = 57.98992 106.50449 102.00361
#
# Poissons Ratio (x) = 0.42759 0.53333
# Poissons Ratio (y) = 0.23282 -0.03751
# Poissons Ratio (z) = 0.30321 -0.03916
#
# Static dielectric constant tensor:
#      x y z
#    x 4.435440 0.000000 -0.350150 
#    y 0.000000 4.931340 0.000000 
#    z -0.350150 0.000000 4.969730 
# 
# 
# High freq. dielectric constant tensor:
#      x y z
#    x 1.999300 0.000000 -0.009340 
#    y 0.000000 2.041210 0.000000 
#    z -0.009340 0.000000 2.035670 
# 
# From -- ./inp_files/884.got.cif
#   From: 2010.06.25/outbox.cif.g09.slc.cpg/sg9_1_cif.got.tgz:884.got - 2010.06.27 21:40:51.
