data_PCOD8055089
_publ_section_title
;
Structure prediction by ZEFSAII (Michael W. Deem and Ramdas Pophale) SiO2 
 PCOD8055089
Probable space group: C C
;
_chemical_formula_sum "Si O2"
_cell_formula_units_Z 32
_cell_length_a 10.746245
_cell_length_b 12.316873
_cell_length_c 10.619922
_cell_angle_alpha 90.000000
_cell_angle_beta 81.014199
_cell_angle_gamma 90.000000
_cell_volume 1388.402822
_symmetry_space_group_name_H-M "C C"
_symmetry_group_IT_number 9
_symmetry_cell_setting 'monoclinic'
loop_
_space_group_symop_operation_xyz
x,y,z
x,-y,1/2+z
1/2+x,1/2+y,z
1/2+x,1/2-y,1/2+z
loop_
_atom_site_type_symbol
_atom_site_label
_atom_site_fract_x
_atom_site_fract_y
_atom_site_fract_z
Si Si1 0.033960 0.162206 0.046910
Si Si2 0.765081 0.099263 0.133749
Si Si3 0.584613 0.263011 0.045890
Si Si4 0.579686 0.800156 0.272066
Si Si5 0.735040 0.525651 0.523385
Si Si6 0.231089 0.723051 0.375891
Si Si7 0.325332 0.649178 0.621330
Si Si8 0.855205 0.436176 0.263148
O O1 0.047538 0.200311 0.187787
O O2 0.885586 0.153493 0.046981
O O3 0.111422 0.049359 0.026641
O O4 0.086006 0.248737 0.935427
O O5 0.750787 0.115996 0.287539
O O6 0.791262 0.974852 0.098946
O O7 0.636694 0.151151 0.097847
O O8 0.533829 0.234364 0.916229
O O9 0.696224 0.349377 0.026487
O O10 0.467253 0.318649 0.140654
O O11 0.730185 0.817044 0.247426
O O12 0.505195 0.909191 0.237712
O O13 0.826570 0.508661 0.389998
O O14 0.810936 0.502802 0.642076
O O15 0.301335 0.715320 0.497314
O O16 0.284421 0.820954 0.283480
#
# Coordination Sequence:
#
# PCOD8055089 Si02
#       8
#     4   4   4   4   4   4   4   4
#     4  10  21  43  72  97 138 183 231 301 376 428
#     4  12  24  44  72 103 135 187 246 293 370 456
#     4  12  24  45  68 104 144 185 247 298 370 456
#     4  11  24  46  67  98 145 185 234 312 369 439
#     4  11  23  42  75 108 136 192 247 305 373 466
#     4  10  22  44  68  93 138 183 229 309 369 438
#     4  11  26  46  69  99 145 191 232 309 380 438
#     4  11  22  44  73 102 141 188 250 301 379 447
#
# _framework density 23.048065999999999
#
# number of rings (size 3 to 8) (size 9 to 14) (size 15 to 20)
#    0.000    1.000    5.000    0.750    1.750    2.000 
#    6.750    0.000    0.000    0.000    0.000    0.000 
#    0.000    0.000    0.000    0.000    0.000    0.000 
#
# Total GULP energy -198300.338688 kJ/mol
# GULP energy per Si atom -12393.771168 kJ/mol
# Density = 2.299561 g / cm^3
# Si number density = 23.048066 Si / 1000 Ang^3
#
#
#
# Elastic Constant Matrix: (Units=GPa)
#
#
# Indices 1 2 3 4 5 6 
#
# 1 117.5215 36.7230 37.6548 0.0000 -20.0510 0.0000
# 2 36.7230 74.8039 11.9350 0.0000 -6.9401 0.0000
# 3 37.6548 11.9350 99.7708 0.0000 -4.5386 0.0000
# 4 0.0000 0.0000 0.0000 31.3454 0.0000 1.7224
# 5 -20.0510 -6.9401 -4.5386 0.0000 23.6798 0.0000
# 6 0.0000 0.0000 0.0000 1.7224 0.0000 39.9214
#
#
#
# Elastic Compliance Matrix: (Units=1/GPa)
#
#
# Indices 1 2 3 4 5 6 
#
# 1 0.012716 -0.004832 -0.003829 0.000000 0.008617 0.000000
# 2 -0.004832 0.015796 -0.000042 0.000000 0.000530 0.000000
# 3 -0.003829 -0.000042 0.011425 0.000000 -0.001065 0.000000
# 4 0.000000 0.000000 0.000000 0.031978 0.000000 -0.001380
# 5 0.008617 0.000530 -0.001065 0.000000 0.049478 0.000000
# 6 0.000000 0.000000 0.000000 -0.001380 0.000000 0.025109
#
#
# Mechanical properties :
#
#
# Convention : Reuss Voigt Hill
#
# Bulk Modulus (GPa) = 44.38357 51.63574 48.00965
# Shear Modulus (GPa) = 29.16827 32.70822 30.93825
#
# Velocity S-wave (km/s) = 3.56130 3.77122 3.66777
# Velocity P-wave (km/s) = 6.01741 6.43545 6.22994
#
# Compressibility (1/GPa) = 0.02253086
#
# Stress axis : x y z
#
# Youngs Moduli (GPa) = 78.63983 63.30565 87.52950
#
# Poissons Ratio (x) = 0.30591 0.33517
# Poissons Ratio (y) = 0.38001 0.00366
# Poissons Ratio (z) = 0.30113 0.00264
#
# Static dielectric constant tensor:
#      x y z
#    x 4.403840 0.000000 -0.386940 
#    y 0.000000 4.020090 0.000000 
#    z -0.386940 0.000000 4.150030 
# 
# 
# High freq. dielectric constant tensor:
#      x y z
#    x 1.912660 0.000000 -0.018690 
#    y 0.000000 1.900550 0.000000 
#    z -0.018690 0.000000 1.908480 
# 
# From -- ./inp_files/16158.got.cif
#   From: 2010.06.25/outbox.cif.g09.slc.cpg/sg9_9_cif.got.tgz:16158.got - 2010.06.27 21:40:51.
