data_PCOD8055175
_publ_section_title
;
Structure prediction by ZEFSAII (Michael W. Deem and Ramdas Pophale) SiO2 
 PCOD8055175
Probable space group: C C
;
_chemical_formula_sum "Si O2"
_cell_formula_units_Z 32
_cell_length_a 8.417682
_cell_length_b 10.330469
_cell_length_c 18.412392
_cell_angle_alpha 90.000000
_cell_angle_beta 107.994267
_cell_angle_gamma 90.000000
_cell_volume 1522.801195
_symmetry_space_group_name_H-M "C C"
_symmetry_group_IT_number 9
_symmetry_cell_setting 'monoclinic'
loop_
_space_group_symop_operation_xyz
x,y,z
x,-y,1/2+z
1/2+x,1/2+y,z
1/2+x,1/2-y,1/2+z
loop_
_atom_site_type_symbol
_atom_site_label
_atom_site_fract_x
_atom_site_fract_y
_atom_site_fract_z
Si Si1 0.450190 0.059330 0.117740
Si Si2 0.388495 0.601456 0.459467
Si Si3 0.590412 0.398549 0.629373
Si Si4 0.028716 0.440666 0.971099
Si Si5 0.106551 0.174502 0.621019
Si Si6 0.485072 0.179595 0.708017
Si Si7 0.993837 0.679592 0.880822
Si Si8 0.872357 0.174497 0.967820
O O1 0.252941 0.080202 0.101729
O O2 0.523606 0.200048 0.143651
O O3 0.537607 0.963491 0.188467
O O4 0.489450 0.999998 0.044419
O O5 0.225967 0.580203 0.487111
O O6 0.542458 0.650623 0.530028
O O7 0.369179 0.708385 0.393333
O O8 0.420643 0.457529 0.429829
O O9 0.558263 0.542476 0.659010
O O10 0.609726 0.291621 0.695506
O O11 0.436451 0.349384 0.558811
O O12 0.941303 0.536504 0.900371
O O13 0.955307 0.299945 0.945190
O O14 0.302637 0.202657 0.648789
O O15 0.489456 0.185207 0.794420
O O16 0.176272 0.702656 0.940051
#
# Coordination Sequence:
#
# PCOD8055175 Si02
#       8
#     4   4   4   4   4   4   4   4
#     4  11  23  39  69  96 123 162 217 269 314 377
#     4  10  22  39  65  94 121 164 216 262 318 378
#     4  10  22  39  65  94 121 164 216 262 318 378
#     4  11  23  39  69  96 123 162 217 269 314 377
#     4  10  22  38  65  93 120 160 218 260 309 378
#     4  11  25  42  60  91 135 168 208 268 322 377
#     4  11  25  42  60  91 135 168 208 268 322 377
#     4  10  22  38  65  93 120 160 218 260 309 378
#
# _framework density 21.013905000000001
#
# number of rings (size 3 to 8) (size 9 to 14) (size 15 to 20)
#    0.000    1.500    2.500    1.500    7.000    4.000 
#    0.000    1.250    0.000    0.000    0.000    0.000 
#    0.000    0.000    0.000    0.000    0.000    0.000 
#
# Total GULP energy -198235.811407 kJ/mol
# GULP energy per Si atom -12389.738213 kJ/mol
# Density = 2.096608 g / cm^3
# Si number density = 21.013905 Si / 1000 Ang^3
#
#
#
# Elastic Constant Matrix: (Units=GPa)
#
#
# Indices 1 2 3 4 5 6 
#
# 1 82.6793 59.0523 51.3794 0.0000 -10.2076 0.0000
# 2 59.0523 230.6728 62.7496 0.0000 -20.5626 0.0000
# 3 51.3794 62.7496 84.6477 0.0000 -31.4616 0.0000
# 4 0.0000 0.0000 0.0000 27.7033 0.0000 -14.3212
# 5 -10.2076 -20.5626 -31.4616 0.0000 18.9176 0.0000
# 6 0.0000 0.0000 0.0000 -14.3212 0.0000 27.9479
#
#
#
# Elastic Compliance Matrix: (Units=1/GPa)
#
#
# Indices 1 2 3 4 5 6 
#
# 1 0.025727 -0.002468 -0.025201 0.000000 -0.030713 0.000000
# 2 -0.002468 0.005698 -0.002406 0.000000 0.000860 0.000000
# 3 -0.025201 -0.002406 0.059884 0.000000 0.083378 0.000000
# 4 0.000000 0.000000 0.000000 0.049105 0.000000 0.025163
# 5 -0.030713 0.000860 0.083378 0.000000 0.175889 0.000000
# 6 0.000000 0.000000 0.000000 0.025163 0.000000 0.048675
#
#
# Mechanical properties :
#
#
# Convention : Reuss Voigt Hill
#
# Bulk Modulus (GPa) = 32.09498 82.70692 57.40095
# Shear Modulus (GPa) = 11.48066 29.90164 20.69115
#
# Velocity S-wave (km/s) = 2.33992 3.77629 3.14130
# Velocity P-wave (km/s) = 4.75465 7.64575 6.36648
#
# Compressibility (1/GPa) = 0.03115752
#
# Stress axis : x y z
#
# Youngs Moduli (GPa) = 38.86982 175.49125 16.69903
#
# Poissons Ratio (x) = 0.43320 0.42083
# Poissons Ratio (y) = 0.09595 0.04018
# Poissons Ratio (z) = 0.97956 0.42225
#
# Static dielectric constant tensor:
#      x y z
#    x 3.735750 0.000000 -0.023360 
#    y 0.000000 4.727010 0.000000 
#    z -0.023360 0.000000 3.411630 
# 
# 
# High freq. dielectric constant tensor:
#      x y z
#    x 1.812700 0.000000 0.001960 
#    y 0.000000 1.864030 0.000000 
#    z 0.001960 0.000000 1.779900 
# 
# From -- ./inp_files/29196.got.cif
#   From: 2010.06.25/outbox.cif.g09.slc.cpg/sg9_15_cif.got.tgz:29196.got - 2010.06.27 21:40:51.
