data_PCOD8055741
_publ_section_title
;
Structure prediction by ZEFSAII (Michael W. Deem and Ramdas Pophale) SiO2 
 PCOD8055741
Probable space group: C C
;
_chemical_formula_sum "Si O2"
_cell_formula_units_Z 32
_cell_length_a 5.556723
_cell_length_b 25.836121
_cell_length_c 10.751702
_cell_angle_alpha 90.000000
_cell_angle_beta 63.691990
_cell_angle_gamma 90.000000
_cell_volume 1383.684208
_symmetry_space_group_name_H-M "C C"
_symmetry_group_IT_number 9
_symmetry_cell_setting 'monoclinic'
loop_
_space_group_symop_operation_xyz
x,y,z
x,-y,1/2+z
1/2+x,1/2+y,z
1/2+x,1/2-y,1/2+z
loop_
_atom_site_type_symbol
_atom_site_label
_atom_site_fract_x
_atom_site_fract_y
_atom_site_fract_z
Si Si1 0.805030 0.956158 0.638630
Si Si2 0.372423 0.384010 0.857985
Si Si3 0.035584 0.296097 0.034261
Si Si4 0.385714 0.307375 0.458616
Si Si5 0.905770 0.179928 0.689762
Si Si6 0.931462 0.623029 0.127335
Si Si7 0.250449 0.426202 0.150765
Si Si8 0.741739 0.599647 0.902744
O O1 0.821550 0.921165 0.755765
O O2 0.534048 0.935422 0.635036
O O3 0.050949 0.947297 0.488100
O O4 0.818648 0.015629 0.675367
O O5 0.172112 0.334854 0.903344
O O6 0.677641 0.363398 0.772921
O O7 0.323650 0.418446 0.990579
O O8 0.059126 0.236699 0.986582
O O9 0.201045 0.303136 0.125380
O O10 0.714702 0.304042 0.103012
O O11 0.287554 0.292205 0.341243
O O12 0.151046 0.331107 0.600803
O O13 0.586484 0.353321 0.376192
O O14 0.904123 0.116951 0.697195
O O15 0.883649 0.623332 0.991528
O O16 0.934900 0.420253 0.249926
#
# Coordination Sequence:
#
# PCOD8055741 Si02
#       8
#     4   4   4   4   4   4   4   4
#     4  10  25  42  71 106 142 209 244 314 386 449
#     4  10  25  47  67 111 151 188 254 320 370 461
#     4  11  28  48  76 111 154 198 254 320 388 439
#     4  11  24  48  79  99 152 204 249 315 385 462
#     4  11  26  48  73 117 145 195 261 317 367 464
#     4  10  23  46  70 106 148 188 260 304 377 452
#     4  11  24  45  74 101 154 192 255 318 376 453
#     4  10  23  46  68 109 142 196 261 302 371 464
#
# _framework density 23.126666
#
# number of rings (size 3 to 8) (size 9 to 14) (size 15 to 20)
#    0.000    1.500    1.250    1.500    8.750    3.000 
#   11.250    0.000    0.000    0.000    0.000    0.000 
#    0.000    0.000    0.000    0.000    0.000    0.000 
#
# Total GULP energy -198252.579157 kJ/mol
# GULP energy per Si atom -12390.786197 kJ/mol
# Density = 2.307403 g / cm^3
# Si number density = 23.126666 Si / 1000 Ang^3
#
#
#
# Elastic Constant Matrix: (Units=GPa)
#
#
# Indices 1 2 3 4 5 6 
#
# 1 114.3246 45.0215 45.0301 0.0000 -10.0848 0.0000
# 2 45.0215 144.7429 46.1348 0.0000 -5.0800 0.0000
# 3 45.0301 46.1348 142.2679 0.0000 -18.3030 0.0000
# 4 0.0000 0.0000 0.0000 19.0737 0.0000 0.4399
# 5 -10.0848 -5.0800 -18.3030 0.0000 39.9465 0.0000
# 6 0.0000 0.0000 0.0000 0.4399 0.0000 17.3238
#
#
#
# Elastic Compliance Matrix: (Units=1/GPa)
#
#
# Indices 1 2 3 4 5 6 
#
# 1 0.010822 -0.002545 -0.002434 0.000000 0.001293 0.000000
# 2 -0.002545 0.008305 -0.001949 0.000000 -0.000480 0.000000
# 3 -0.002434 -0.001949 0.008842 0.000000 0.003189 0.000000
# 4 0.000000 0.000000 0.000000 0.052459 0.000000 -0.001332
# 5 0.001293 -0.000480 0.003189 0.000000 0.026760 0.000000
# 6 0.000000 0.000000 0.000000 -0.001332 0.000000 0.057758
#
#
# Mechanical properties :
#
#
# Convention : Reuss Voigt Hill
#
# Bulk Modulus (GPa) = 70.85854 74.85645 72.85750
# Shear Modulus (GPa) = 27.24713 32.94538 30.09626
#
# Velocity S-wave (km/s) = 3.43617 3.77843 3.61136
# Velocity P-wave (km/s) = 6.81534 7.17452 6.99723
#
# Compressibility (1/GPa) = 0.01411263
#
# Stress axis : x y z
#
# Youngs Moduli (GPa) = 92.40521 120.41098 113.10119
#
# Poissons Ratio (x) = 0.30645 0.27524
# Poissons Ratio (y) = 0.23517 0.22046
# Poissons Ratio (z) = 0.22488 0.23471
#
# Static dielectric constant tensor:
#      x y z
#    x 4.481690 0.000000 -0.173750 
#    y 0.000000 4.166600 0.000000 
#    z -0.173750 0.000000 4.316120 
# 
# 
# High freq. dielectric constant tensor:
#      x y z
#    x 1.916370 0.000000 -0.003770 
#    y 0.000000 1.905800 0.000000 
#    z -0.003770 0.000000 1.928690 
# 
# From -- ./inp_files/13873.got.cif
#   From: 2010.06.25/outbox.cif.g09.slc.cpg/sg9_7_cif.got.tgz:13873.got - 2010.06.27 21:40:51.
