data_PCOD8055459
_publ_section_title
;
Structure prediction by ZEFSAII (Michael W. Deem and Ramdas Pophale) SiO2 
 PCOD8055459
Probable space group: C C
;
_chemical_formula_sum "Si O2"
_cell_formula_units_Z 32
_cell_length_a 19.247016
_cell_length_b 5.191428
_cell_length_c 20.788706
_cell_angle_alpha 90.000000
_cell_angle_beta 138.985904
_cell_angle_gamma 90.000000
_cell_volume 1363.149530
_symmetry_space_group_name_H-M "C C"
_symmetry_group_IT_number 9
_symmetry_cell_setting 'monoclinic'
loop_
_space_group_symop_operation_xyz
x,y,z
x,-y,1/2+z
1/2+x,1/2+y,z
1/2+x,1/2-y,1/2+z
loop_
_atom_site_type_symbol
_atom_site_label
_atom_site_fract_x
_atom_site_fract_y
_atom_site_fract_z
Si Si1 0.983080 0.663907 0.356370
Si Si2 0.665755 0.205452 0.829301
Si Si3 0.971426 0.962370 0.220740
Si Si4 0.996964 0.402670 0.632810
Si Si5 0.608886 0.336595 0.969223
Si Si6 0.261637 0.126331 0.265556
Si Si7 0.308813 0.755407 0.039169
Si Si8 0.654488 0.872139 0.639440
O O1 0.952384 0.750213 0.262356
O O2 0.885294 0.632524 0.336059
O O3 0.040041 0.387651 0.385646
O O4 0.048657 0.894066 0.435833
O O5 0.584309 0.399127 0.809806
O O6 0.736763 0.340345 0.823720
O O7 0.594415 0.990394 0.746474
O O8 0.746895 0.089666 0.939943
O O9 0.966497 0.866563 0.143117
O O10 0.864748 0.131322 0.141254
O O11 0.036885 0.370895 0.588308
O O12 0.894589 0.580384 0.560484
O O13 0.715152 0.419452 0.006127
O O14 0.639858 0.197884 0.056212
O O15 0.204177 0.343974 0.182290
O O16 0.225650 0.839603 0.223693
#
# Coordination Sequence:
#
# PCOD8055459 Si02
#       8
#     4   4   4   4   4   4   4   4
#     4  12  27  44  72 101 148 185 241 290 365 421
#     4  10  22  45  66  99 142 176 242 290 360 420
#     4  11  23  43  69  99 138 188 232 300 354 428
#     4  10  24  41  70 100 138 185 231 298 355 425
#     4  12  27  45  69 105 142 188 237 302 346 435
#     4  11  24  45  71  99 137 195 225 299 356 426
#     4  11  25  41  71 102 135 188 238 294 354 425
#     4  11  24  46  70  99 144 179 242 289 360 422
#
# _framework density 23.475047
#
# number of rings (size 3 to 8) (size 9 to 14) (size 15 to 20)
#    0.000    1.000    2.500    3.000    7.000    2.000 
#    0.000    0.000    0.000    0.000    0.000    0.000 
#    0.000    0.000    0.000    0.000    0.000    0.000 
#
# Total GULP energy -198245.831784 kJ/mol
# GULP energy per Si atom -12390.364487 kJ/mol
# Density = 2.342162 g / cm^3
# Si number density = 23.475047 Si / 1000 Ang^3
#
#
#
# Elastic Constant Matrix: (Units=GPa)
#
#
# Indices 1 2 3 4 5 6 
#
# 1 114.0417 4.8140 51.6664 0.0042 28.8269 0.0094
# 2 4.8140 62.1221 3.8306 0.0138 23.1342 0.0125
# 3 51.6664 3.8306 111.1874 -0.0045 13.9307 -0.0104
# 4 0.0042 0.0138 -0.0045 21.1688 -0.0004 -3.3520
# 5 28.8269 23.1342 13.9307 -0.0004 44.0059 -0.0029
# 6 0.0094 0.0125 -0.0104 -3.3520 -0.0029 34.5554
#
#
#
# Elastic Compliance Matrix: (Units=1/GPa)
#
#
# Indices 1 2 3 4 5 6 
#
# 1 0.013054 0.002344 -0.005124 -0.000006 -0.008161 -0.000007
# 2 0.002344 0.020483 -0.000264 -0.000016 -0.012220 -0.000011
# 3 -0.005124 -0.000264 0.011398 0.000004 -0.000113 0.000005
# 4 -0.000006 -0.000016 0.000004 0.047976 0.000012 0.004654
# 5 -0.008161 -0.012220 -0.000113 0.000012 0.034530 0.000011
# 6 -0.000007 -0.000011 0.000005 0.004654 0.000011 0.029390
#
#
# Mechanical properties :
#
#
# Convention : Reuss Voigt Hill
#
# Bulk Modulus (GPa) = 25.74235 45.33033 35.53634
# Shear Modulus (GPa) = 28.43016 35.08203 31.75609
#
# Velocity S-wave (km/s) = 3.48383 3.86999 3.68198
# Velocity P-wave (km/s) = 5.21272 6.27065 5.76600
#
# Compressibility (1/GPa) = 0.03884649
#
# Stress axis : x y z
#
# Youngs Moduli (GPa) = 76.60287 48.82198 87.73326
#
# Poissons Ratio (x) = -0.11442 0.44957
# Poissons Ratio (y) = -0.17953 0.02314
# Poissons Ratio (z) = 0.39253 0.01288
#
# Static dielectric constant tensor:
#      x y z
#    x 4.526480 -0.000110 0.139580 
#    y -0.000110 4.171610 -0.000070 
#    z 0.139580 -0.000070 4.223820 
# 
# 
# High freq. dielectric constant tensor:
#      x y z
#    x 1.950960 0.000000 0.005610 
#    y 0.000000 1.915700 0.000000 
#    z 0.005610 0.000000 1.931850 
# 
# From -- ./inp_files/19813.got.cif
#   From: 2010.06.25/outbox.cif.g09.slc.cpg/sg9_10_cif.got.tgz:19813.got - 2010.06.27 21:40:51.
