data_PCOD8055727
_publ_section_title
;
Structure prediction by ZEFSAII (Michael W. Deem and Ramdas Pophale) SiO2 
 PCOD8055727
Probable space group: C C
;
_chemical_formula_sum "Si O2"
_cell_formula_units_Z 32
_cell_length_a 9.224827
_cell_length_b 12.813789
_cell_length_c 10.703507
_cell_angle_alpha 90.000000
_cell_angle_beta 90.619201
_cell_angle_gamma 90.000000
_cell_volume 1265.134020
_symmetry_space_group_name_H-M "C C"
_symmetry_group_IT_number 9
_symmetry_cell_setting 'monoclinic'
loop_
_space_group_symop_operation_xyz
x,y,z
x,-y,1/2+z
1/2+x,1/2+y,z
1/2+x,1/2-y,1/2+z
loop_
_atom_site_type_symbol
_atom_site_label
_atom_site_fract_x
_atom_site_fract_y
_atom_site_fract_z
Si Si1 0.344160 0.521418 0.721240
Si Si2 0.923366 0.243972 0.618624
Si Si3 0.329333 0.906533 0.968544
Si Si4 0.897333 0.642502 0.729391
Si Si5 0.708149 0.633084 0.960373
Si Si6 0.029514 0.434613 0.765123
Si Si7 0.637784 0.762706 0.399528
Si Si8 0.397123 0.409920 0.471707
O O1 0.364987 0.644337 0.693651
O O2 0.182321 0.482622 0.734752
O O3 0.415509 0.458207 0.609458
O O4 0.414935 0.503193 0.859591
O O5 0.779026 0.297768 0.567476
O O6 0.012866 0.320408 0.709184
O O7 0.030345 0.219567 0.505247
O O8 0.346877 0.827554 0.088787
O O9 0.239772 0.011892 0.992116
O O10 0.489390 0.931791 0.913415
O O11 0.240272 0.835840 0.866234
O O12 0.915683 0.517966 0.708625
O O13 0.044905 0.698201 0.779053
O O14 0.768654 0.665584 0.824760
O O15 0.538327 0.663016 0.959611
O O16 0.740406 0.857079 0.449091
#
# Coordination Sequence:
#
# PCOD8055727 Si02
#       8
#     4   4   4   4   4   4   4   4
#     4  12  28  48  81 113 163 205 268 334 409 481
#     4  11  24  51  78 111 154 210 269 325 405 494
#     4  11  24  46  78 109 155 208 262 332 405 477
#     4  10  23  45  75 107 154 205 263 329 399 481
#     4  10  25  46  75 108 151 201 265 329 402 480
#     4  11  23  44  78 108 152 209 261 327 397 477
#     4  11  24  47  75 113 154 204 272 322 402 489
#     4  12  27  49  72 117 159 204 266 340 403 489
#
# _framework density 25.293763999999999
#
# number of rings (size 3 to 8) (size 9 to 14) (size 15 to 20)
#    0.000    1.000    3.750    1.500    5.250    1.000 
#    9.000    0.000    0.000    0.000    0.000    0.000 
#    0.000    0.000    0.000    0.000    0.000    0.000 
#
# Total GULP energy -198262.510567 kJ/mol
# GULP energy per Si atom -12391.406910 kJ/mol
# Density = 2.523619 g / cm^3
# Si number density = 25.293764 Si / 1000 Ang^3
#
#
#
# Elastic Constant Matrix: (Units=GPa)
#
#
# Indices 1 2 3 4 5 6 
#
# 1 141.1932 37.5718 48.2865 0.0000 -10.1221 0.0000
# 2 37.5718 76.8434 5.3354 0.0000 -10.3558 0.0000
# 3 48.2865 5.3354 108.2699 0.0000 -11.6767 0.0000
# 4 0.0000 0.0000 0.0000 32.1599 0.0000 -2.2037
# 5 -10.1221 -10.3558 -11.6767 0.0000 25.5556 0.0000
# 6 0.0000 0.0000 0.0000 -2.2037 0.0000 38.1377
#
#
#
# Elastic Compliance Matrix: (Units=1/GPa)
#
#
# Indices 1 2 3 4 5 6 
#
# 1 0.009664 -0.004419 -0.004073 0.000000 0.000176 0.000000
# 2 -0.004419 0.015786 0.001782 0.000000 0.005461 0.000000
# 3 -0.004073 0.001782 0.011432 0.000000 0.004332 0.000000
# 4 0.000000 0.000000 0.000000 0.031218 0.000000 0.001804
# 5 0.000176 0.005461 0.004332 0.000000 0.043393 0.000000
# 6 0.000000 0.000000 0.000000 0.001804 0.000000 0.026325
#
#
# Mechanical properties :
#
#
# Convention : Reuss Voigt Hill
#
# Bulk Modulus (GPa) = 42.62217 56.52155 49.57186
# Shear Modulus (GPa) = 31.43492 34.84482 33.13987
#
# Velocity S-wave (km/s) = 3.52915 3.71564 3.62359
# Velocity P-wave (km/s) = 5.78740 6.38768 6.09494
#
# Compressibility (1/GPa) = 0.02346197
#
# Stress axis : x y z
#
# Youngs Moduli (GPa) = 103.47810 63.34679 87.47245
#
# Poissons Ratio (x) = 0.27990 0.35629
# Poissons Ratio (y) = 0.45722 -0.15584
# Poissons Ratio (z) = 0.42149 -0.11286
#
# Static dielectric constant tensor:
#      x y z
#    x 4.501180 0.000000 -0.116540 
#    y 0.000000 4.490230 0.000000 
#    z -0.116540 0.000000 4.917500 
# 
# 
# High freq. dielectric constant tensor:
#      x y z
#    x 2.013940 0.000000 -0.013710 
#    y 0.000000 1.998000 0.000000 
#    z -0.013710 0.000000 2.018660 
# 
# From -- ./inp_files/14601.got.cif
#   From: 2010.06.25/outbox.cif.g09.slc.cpg/sg9_8_cif.got.tgz:14601.got - 2010.06.27 21:40:51.
