data_PCOD8055051
_publ_section_title
;
Structure prediction by ZEFSAII (Michael W. Deem and Ramdas Pophale) SiO2 
 PCOD8055051
Probable space group: C C
;
_chemical_formula_sum "Si O2"
_cell_formula_units_Z 28
_cell_length_a 23.651931
_cell_length_b 7.851588
_cell_length_c 12.106902
_cell_angle_alpha 90.000000
_cell_angle_beta 35.262628
_cell_angle_gamma 90.000000
_cell_volume 1298.008751
_symmetry_space_group_name_H-M "C C"
_symmetry_group_IT_number 9
_symmetry_cell_setting 'monoclinic'
loop_
_space_group_symop_operation_xyz
x,y,z
x,-y,1/2+z
1/2+x,1/2+y,z
1/2+x,1/2-y,1/2+z
loop_
_atom_site_type_symbol
_atom_site_label
_atom_site_fract_x
_atom_site_fract_y
_atom_site_fract_z
Si Si1 0.168630 0.868097 0.105980
Si Si2 0.852771 0.184566 0.853182
Si Si3 0.977321 0.362952 0.328976
Si Si4 0.346096 0.300207 0.868530
Si Si5 0.849373 0.488769 0.711821
Si Si6 0.624508 0.291133 0.772675
Si Si7 0.535907 0.803078 0.647689
O O1 0.090965 0.749325 0.171229
O O2 0.118373 0.004117 0.267111
O O3 0.242684 0.747287 0.059601
O O4 0.231282 0.968989 0.910465
O O5 0.896597 0.316920 0.691820
O O6 0.930611 0.207486 0.827591
O O7 0.852877 0.990991 0.809028
O O8 0.921388 0.214130 0.351735
O O9 0.893205 0.482965 0.519650
O O10 0.057624 0.293180 0.285206
O O11 0.028580 0.491579 0.160765
O O12 0.379970 0.164572 0.722350
O O13 0.236022 0.269890 0.084422
O O14 0.592178 0.250343 0.947632
#
# Coordination Sequence:
#
# PCOD8055051 Si02
#       7
#     4   4   4   4   4   4   4
#     4   9  21  40  61  91 126 166 204 264 311 369
#     4  10  21  43  59  92 121 162 212 256 304 381
#     4  12  21  40  63  95 128 169 207 262 316 372
#     4  11  22  41  67  88 127 168 209 259 319 366
#     4   9  21  43  59  89 129 160 210 259 303 378
#     4  11  22  40  63  92 127 164 209 264 307 378
#     4  12  22  39  66  91 128 165 209 258 314 374
#
# _framework density 21.571503
#
# number of rings (size 3 to 8) (size 9 to 14) (size 15 to 20)
#    0.857    0.571    2.857    2.571    0.000    1.143 
#    2.571    5.714    0.000    0.000    0.000    0.000 
#    0.000    0.000    0.000    0.000    0.000    0.000 
#
# Total GULP energy -173453.860091 kJ/mol
# GULP energy per Si atom -12389.561435 kJ/mol
# Density = 2.152241 g / cm^3
# Si number density = 21.571503 Si / 1000 Ang^3
#
#
#
# Elastic Constant Matrix: (Units=GPa)
#
#
# Indices 1 2 3 4 5 6 
#
# 1 92.2147 33.6692 31.5593 0.0000 -26.4793 0.0000
# 2 33.6692 169.7824 37.4057 -0.0005 1.8252 0.0002
# 3 31.5593 37.4057 66.1911 -0.0002 1.3940 0.0001
# 4 0.0000 -0.0005 -0.0002 22.2735 0.0001 -2.8744
# 5 -26.4793 1.8252 1.3940 0.0001 29.4049 0.0000
# 6 0.0000 0.0002 0.0001 -2.8744 0.0000 37.8107
#
#
#
# Elastic Compliance Matrix: (Units=1/GPa)
#
#
# Indices 1 2 3 4 5 6 
#
# 1 0.019925 -0.002252 -0.008617 0.000000 0.018491 0.000000
# 2 -0.002252 0.006984 -0.002824 0.000000 -0.002327 0.000000
# 3 -0.008617 -0.002824 0.020993 0.000000 -0.008580 0.000000
# 4 0.000000 0.000000 0.000000 0.045341 0.000000 0.003447
# 5 0.018491 -0.002327 -0.008580 0.000000 0.051210 0.000000
# 6 0.000000 0.000000 0.000000 0.003447 0.000000 0.026710
#
#
# Mechanical properties :
#
#
# Convention : Reuss Voigt Hill
#
# Bulk Modulus (GPa) = 48.74195 59.27295 54.00745
# Shear Modulus (GPa) = 24.34431 32.93476 28.63953
#
# Velocity S-wave (km/s) = 3.36302 3.91163 3.64765
# Velocity P-wave (km/s) = 6.14202 6.92374 6.54457
#
# Compressibility (1/GPa) = 0.02051621
#
# Stress axis : x y z
#
# Youngs Moduli (GPa) = 50.18794 143.19282 47.63517
#
# Poissons Ratio (x) = 0.32241 0.41048
# Poissons Ratio (y) = 0.11300 0.13452
# Poissons Ratio (z) = 0.43247 0.40438
#
# Static dielectric constant tensor:
#      x y z
#    x 3.840340 0.000000 -0.308600 
#    y 0.000000 3.904150 0.000000 
#    z -0.308600 0.000000 3.682060 
# 
# 
# High freq. dielectric constant tensor:
#      x y z
#    x 1.846280 0.000000 -0.026100 
#    y 0.000000 1.850720 0.000000 
#    z -0.026100 0.000000 1.825820 
# 
# From -- ./inp_files/20699.got.cif
#   From: 2010.06.25/outbox.cif.g09.slc.cpg/sg9_11_cif.got.tgz:20699.got - 2010.06.27 21:40:51.
