data_PCOD8055246
_publ_section_title
;
Structure prediction by ZEFSAII (Michael W. Deem and Ramdas Pophale) SiO2 
 PCOD8055246
Probable space group: C C
;
_chemical_formula_sum "Si O2"
_cell_formula_units_Z 28
_cell_length_a 9.868395
_cell_length_b 15.473833
_cell_length_c 10.581851
_cell_angle_alpha 90.000000
_cell_angle_beta 122.758171
_cell_angle_gamma 90.000000
_cell_volume 1358.883951
_symmetry_space_group_name_H-M "C C"
_symmetry_group_IT_number 9
_symmetry_cell_setting 'monoclinic'
loop_
_space_group_symop_operation_xyz
x,y,z
x,-y,1/2+z
1/2+x,1/2+y,z
1/2+x,1/2-y,1/2+z
loop_
_atom_site_type_symbol
_atom_site_label
_atom_site_fract_x
_atom_site_fract_y
_atom_site_fract_z
Si Si1 0.588860 0.194030 0.093850
Si Si2 0.882532 0.702867 0.759674
Si Si3 0.571831 0.635489 0.703873
Si Si4 0.369159 0.478386 0.516312
Si Si5 0.669560 0.986712 0.664810
Si Si6 0.585571 0.172959 0.624434
Si Si7 0.945440 0.822825 0.401371
O O1 0.782994 0.207435 0.200051
O O2 0.499218 0.268827 0.130425
O O3 0.550191 0.096130 0.119446
O O4 0.539391 0.210700 0.924720
O O5 0.760939 0.631561 0.760798
O O6 0.942362 0.676722 0.652819
O O7 0.488454 0.559439 0.583602
O O8 0.539556 0.627392 0.836394
O O9 0.290643 0.462725 0.612888
O O10 0.245396 0.496338 0.339916
O O11 0.457735 0.388600 0.526138
O O12 0.581728 0.073938 0.573898
O O13 0.761271 0.197711 0.768046
O O14 0.539616 0.235201 0.484703
#
# Coordination Sequence:
#
# PCOD8055246 Si02
#       7
#     4   4   4   4   4   4   4
#     4  10  22  40  68  93 133 177 223 265 341 397
#     4  10  22  41  65  94 135 171 222 273 337 392
#     4  10  24  41  67  99 127 177 225 275 329 397
#     4  11  21  46  65  99 129 187 223 268 332 424
#     4  11  23  39  75  93 140 178 226 265 346 408
#     4  11  23  44  64 103 133 175 224 276 341 396
#     4  11  25  43  70  97 137 175 231 276 336 404
#
# _framework density 20.605145
#
# number of rings (size 3 to 8) (size 9 to 14) (size 15 to 20)
#    0.857    0.571    2.857    4.286    4.000    0.000 
#    5.143    0.000    0.000    0.000    0.000    0.000 
#    0.000    0.000    0.000    0.000    0.000    0.000 
#
# Total GULP energy -173459.363900 kJ/mol
# GULP energy per Si atom -12389.954564 kJ/mol
# Density = 2.055825 g / cm^3
# Si number density = 20.605145 Si / 1000 Ang^3
#
#
#
# Elastic Constant Matrix: (Units=GPa)
#
#
# Indices 1 2 3 4 5 6 
#
# 1 70.1723 3.9382 3.4075 0.0000 -5.3541 0.0000
# 2 3.9382 153.8712 36.5934 0.0000 16.5660 0.0000
# 3 3.4075 36.5934 72.3885 0.0000 6.5034 0.0000
# 4 0.0000 0.0000 0.0000 40.9457 0.0000 3.6956
# 5 -5.3541 16.5660 6.5034 0.0000 28.0797 0.0000
# 6 0.0000 0.0000 0.0000 3.6956 0.0000 24.8668
#
#
#
# Elastic Compliance Matrix: (Units=1/GPa)
#
#
# Indices 1 2 3 4 5 6 
#
# 1 0.014565 -0.000559 -0.000697 0.000000 0.003268 0.000000
# 2 -0.000559 0.007776 -0.003557 0.000000 -0.003870 0.000000
# 3 -0.000697 -0.003557 0.015797 0.000000 -0.001693 0.000000
# 4 0.000000 0.000000 0.000000 0.024755 0.000000 -0.003679
# 5 0.003268 -0.003870 -0.001693 0.000000 0.038912 0.000000
# 6 0.000000 0.000000 0.000000 -0.003679 0.000000 0.040761
#
#
# Mechanical properties :
#
#
# Convention : Reuss Voigt Hill
#
# Bulk Modulus (GPa) = 35.07120 42.70114 38.88617
# Shear Modulus (GPa) = 30.92245 35.61128 33.26686
#
# Velocity S-wave (km/s) = 3.87811 4.16176 4.02243
# Velocity P-wave (km/s) = 6.09184 6.62285 6.36289
#
# Compressibility (1/GPa) = 0.02851343
#
# Stress axis : x y z
#
# Youngs Moduli (GPa) = 68.65676 128.60433 63.30216
#
# Poissons Ratio (x) = 0.07189 0.04410
# Poissons Ratio (y) = 0.03838 0.22515
# Poissons Ratio (z) = 0.04783 0.45741
#
# Static dielectric constant tensor:
#      x y z
#    x 3.575460 0.000000 -0.084290 
#    y 0.000000 4.091660 0.000000 
#    z -0.084290 0.000000 3.573570 
# 
# 
# High freq. dielectric constant tensor:
#      x y z
#    x 1.793650 0.000000 -0.017210 
#    y 0.000000 1.813960 0.000000 
#    z -0.017210 0.000000 1.796510 
# 
# From -- ./inp_files/14803.got.cif
#   From: 2010.06.25/outbox.cif.g09.slc.cpg/sg9_8_cif.got.tgz:14803.got - 2010.06.27 21:40:51.
