data_PCOD8055420
_publ_section_title
;
Structure prediction by ZEFSAII (Michael W. Deem and Ramdas Pophale) SiO2 
 PCOD8055420
Probable space group: C C
;
_chemical_formula_sum "Si O2"
_cell_formula_units_Z 32
_cell_length_a 9.843466
_cell_length_b 30.059624
_cell_length_c 5.272625
_cell_angle_alpha 90.000000
_cell_angle_beta 64.860273
_cell_angle_gamma 90.000000
_cell_volume 1412.338311
_symmetry_space_group_name_H-M "C C"
_symmetry_group_IT_number 9
_symmetry_cell_setting 'monoclinic'
loop_
_space_group_symop_operation_xyz
x,y,z
x,-y,1/2+z
1/2+x,1/2+y,z
1/2+x,1/2-y,1/2+z
loop_
_atom_site_type_symbol
_atom_site_label
_atom_site_fract_x
_atom_site_fract_y
_atom_site_fract_z
Si Si1 0.024880 0.025091 0.466770
Si Si2 0.595104 0.814730 0.022307
Si Si3 0.576180 0.734741 0.347973
Si Si4 0.874025 0.116929 0.715854
Si Si5 0.878388 0.473873 0.663078
Si Si6 0.376493 0.794033 0.805179
Si Si7 0.536478 0.119296 0.955164
Si Si8 0.908000 0.830679 0.664373
O O1 0.201640 0.032877 0.320288
O O2 0.942829 0.069417 0.610625
O O3 0.976062 0.989919 0.723566
O O4 0.645165 0.782306 0.211789
O O5 0.560567 0.865263 0.143259
O O6 0.439079 0.793651 0.041676
O O7 0.739618 0.813572 0.720555
O O8 0.434259 0.747855 0.633835
O O9 0.696979 0.706478 0.416989
O O10 0.527830 0.707827 0.132173
O O11 0.892123 0.143986 0.443968
O O12 0.701342 0.112016 0.943099
O O13 0.963984 0.140070 0.880359
O O14 0.931530 0.505864 0.390213
O O15 0.946398 0.425872 0.554188
O O16 0.443954 0.840562 0.652945
#
# Coordination Sequence:
#
# PCOD8055420 Si02
#       8
#     4   4   4   4   4   4   4   4
#     4  10  22  44  67  98 133 174 220 277 342 412
#     4  10  23  42  65  92 141 175 229 287 333 399
#     4  11  25  40  63  97 130 185 230 278 341 399
#     4  11  24  43  69  97 135 174 224 284 335 408
#     4  10  24  43  68  97 139 176 221 278 340 414
#     4  11  24  42  65  95 137 179 233 284 335 408
#     4  10  24  42  65 101 133 178 229 282 341 402
#     4  11  24  44  64  99 134 177 224 282 337 396
#
# _framework density 22.657461999999999
#
# number of rings (size 3 to 8) (size 9 to 14) (size 15 to 20)
#    0.000    1.500    2.500    0.750    7.000    1.000 
#    0.000    0.000    0.000    0.000    0.000    0.000 
#    0.000    0.000    0.000    0.000    0.000    0.000 
#
# Total GULP energy -198234.115052 kJ/mol
# GULP energy per Si atom -12389.632191 kJ/mol
# Density = 2.260589 g / cm^3
# Si number density = 22.657462 Si / 1000 Ang^3
#
#
#
# Elastic Constant Matrix: (Units=GPa)
#
#
# Indices 1 2 3 4 5 6 
#
# 1 85.3501 54.6207 43.5450 0.0000 13.1433 0.0000
# 2 54.6207 134.5951 41.4577 0.0000 -4.4965 0.0000
# 3 43.5450 41.4577 86.4366 0.0000 12.2575 0.0000
# 4 0.0000 0.0000 0.0000 27.0888 0.0000 -2.9330
# 5 13.1433 -4.4965 12.2575 0.0000 26.9943 0.0000
# 6 0.0000 0.0000 0.0000 -2.9330 0.0000 31.0272
#
#
#
# Elastic Compliance Matrix: (Units=1/GPa)
#
#
# Indices 1 2 3 4 5 6 
#
# 1 0.020258 -0.006713 -0.005802 0.000000 -0.008347 0.000000
# 2 -0.006713 0.011278 -0.002947 0.000000 0.006485 0.000000
# 3 -0.005802 -0.002947 0.016647 0.000000 -0.005225 0.000000
# 4 0.000000 0.000000 0.000000 0.037297 0.000000 0.003526
# 5 -0.008347 0.006485 -0.005225 0.000000 0.044562 0.000000
# 6 0.000000 0.000000 0.000000 0.003526 0.000000 0.032563
#
#
# Mechanical properties :
#
#
# Convention : Reuss Voigt Hill
#
# Bulk Modulus (GPa) = 57.94275 65.06985 61.50630
# Shear Modulus (GPa) = 25.09000 28.13927 26.61464
#
# Velocity S-wave (km/s) = 3.33131 3.52794 3.43104
# Velocity P-wave (km/s) = 6.35813 6.73621 6.54989
#
# Compressibility (1/GPa) = 0.01725841
#
# Stress axis : x y z
#
# Youngs Moduli (GPa) = 49.36345 88.66603 60.07139
#
# Poissons Ratio (x) = 0.59518 0.34855
# Poissons Ratio (y) = 0.33136 0.17706
# Poissons Ratio (z) = 0.28642 0.26134
#
# Static dielectric constant tensor:
#      x y z
#    x 4.209550 0.000000 0.243670 
#    y 0.000000 4.038100 0.000000 
#    z 0.243670 0.000000 4.268460 
# 
# 
# High freq. dielectric constant tensor:
#      x y z
#    x 1.888260 0.000000 0.006940 
#    y 0.000000 1.893740 0.000000 
#    z 0.006940 0.000000 1.896390 
# 
# From -- ./inp_files/1391.got.cif
#   From: 2010.06.25/outbox.cif.g09.slc.cpg/sg9_1_cif.got.tgz:1391.got - 2010.06.27 21:40:51.
