data_PCOD8055079
_publ_section_title
;
Structure prediction by ZEFSAII (Michael W. Deem and Ramdas Pophale) SiO2 
 PCOD8055079
Probable space group: C C
;
_chemical_formula_sum "Si O2"
_cell_formula_units_Z 28
_cell_length_a 7.905575
_cell_length_b 21.242894
_cell_length_c 10.868667
_cell_angle_alpha 90.000000
_cell_angle_beta 45.212727
_cell_angle_gamma 90.000000
_cell_volume 1295.432836
_symmetry_space_group_name_H-M "C C"
_symmetry_group_IT_number 9
_symmetry_cell_setting 'monoclinic'
loop_
_space_group_symop_operation_xyz
x,y,z
x,-y,1/2+z
1/2+x,1/2+y,z
1/2+x,1/2-y,1/2+z
loop_
_atom_site_type_symbol
_atom_site_label
_atom_site_fract_x
_atom_site_fract_y
_atom_site_fract_z
Si Si1 0.920890 0.511582 0.338040
Si Si2 0.129757 0.408859 0.939404
Si Si3 0.513043 0.579777 0.438399
Si Si4 0.115241 0.622313 0.793851
Si Si5 0.824637 0.182062 0.140118
Si Si6 0.819571 0.681876 0.760642
Si Si7 0.502813 0.118990 0.129650
O O1 0.640561 0.520977 0.444307
O O2 0.985685 0.537226 0.440809
O O3 0.980429 0.438614 0.305444
O O4 0.073135 0.552132 0.159337
O O5 0.315547 0.441276 0.939605
O O6 0.294127 0.365730 0.768515
O O7 0.925152 0.368968 0.111836
O O8 0.387901 0.621241 0.609019
O O9 0.714655 0.623396 0.270423
O O10 0.117497 0.624609 0.938045
O O11 0.981402 0.682088 0.802178
O O12 0.598000 0.175971 0.165212
O O13 0.053219 0.165263 0.939602
O O14 0.838622 0.251673 0.184932
#
# Coordination Sequence:
#
# PCOD8055079 Si02
#       7
#     4   4   4   4   4   4   4
#     4   9  23  42  64 102 136 174 214 281 333 404
#     4  10  21  43  69  94 138 176 224 275 342 397
#     4   9  22  41  64  99 136 171 219 277 326 407
#     4  11  23  43  66 101 132 178 224 272 353 396
#     4  11  22  43  67  93 132 178 230 282 333 394
#     4  11  24  40  69  96 126 183 224 277 344 392
#     4   9  23  42  63  95 132 176 223 272 333 396
#
# _framework density 21.614395999999999
#
# number of rings (size 3 to 8) (size 9 to 14) (size 15 to 20)
#    0.857    1.143    1.429    0.857    6.000    3.429 
#    0.000    4.286    0.000    0.000    0.000    0.000 
#    0.000    0.000    0.000    0.000    0.000    0.000 
#
# Total GULP energy -173464.186914 kJ/mol
# GULP energy per Si atom -12390.299065 kJ/mol
# Density = 2.156520 g / cm^3
# Si number density = 21.614396 Si / 1000 Ang^3
#
#
#
# Elastic Constant Matrix: (Units=GPa)
#
#
# Indices 1 2 3 4 5 6 
#
# 1 132.5214 38.6365 35.3737 0.0000 19.2894 0.0000
# 2 38.6365 69.2120 13.5462 0.0000 5.0577 0.0000
# 3 35.3737 13.5462 129.4646 0.0000 8.2738 0.0000
# 4 0.0000 0.0000 0.0000 16.7888 0.0000 9.0552
# 5 19.2894 5.0577 8.2738 0.0000 37.7805 0.0000
# 6 0.0000 0.0000 0.0000 9.0552 0.0000 26.3749
#
#
#
# Elastic Compliance Matrix: (Units=1/GPa)
#
#
# Indices 1 2 3 4 5 6 
#
# 1 0.010114 -0.004960 -0.001985 0.000000 -0.004065 0.000000
# 2 -0.004960 0.017287 -0.000474 0.000000 0.000322 0.000000
# 3 -0.001985 -0.000474 0.008364 0.000000 -0.000755 0.000000
# 4 0.000000 0.000000 0.000000 0.073100 0.000000 -0.025097
# 5 -0.004065 0.000322 -0.000755 0.000000 0.028666 0.000000
# 6 0.000000 0.000000 0.000000 -0.025097 0.000000 0.046531
#
#
# Mechanical properties :
#
#
# Convention : Reuss Voigt Hill
#
# Bulk Modulus (GPa) = 47.78591 56.25675 52.02133
# Shear Modulus (GPa) = 24.28660 32.43162 28.35911
#
# Velocity S-wave (km/s) = 3.35570 3.87778 3.62615
# Velocity P-wave (km/s) = 6.09677 6.79217 6.45384
#
# Compressibility (1/GPa) = 0.02092667
#
# Stress axis : x y z
#
# Youngs Moduli (GPa) = 98.87746 57.84832 119.55701
#
# Poissons Ratio (x) = 0.28694 0.23727
# Poissons Ratio (y) = 0.49046 0.05667
# Poissons Ratio (z) = 0.19623 0.02742
#
# Static dielectric constant tensor:
#      x y z
#    x 3.952990 0.000000 0.074820 
#    y 0.000000 3.549820 0.000000 
#    z 0.074820 0.000000 4.157010 
# 
# 
# High freq. dielectric constant tensor:
#      x y z
#    x 1.855270 0.000000 0.009440 
#    y 0.000000 1.814670 0.000000 
#    z 0.009440 0.000000 1.865410 
# 
# From -- ./inp_files/15583.got.cif
#   From: 2010.06.25/outbox.cif.g09.slc.cpg/sg9_8_cif.got.tgz:15583.got - 2010.06.27 21:40:51.
