data_PCOD8055154
_publ_section_title
;
Structure prediction by ZEFSAII (Michael W. Deem and Ramdas Pophale) SiO2 
 PCOD8055154
Probable space group: C C
;
_chemical_formula_sum "Si O2"
_cell_formula_units_Z 20
_cell_length_a 9.995880
_cell_length_b 19.393885
_cell_length_c 5.007862
_cell_angle_alpha 90.000000
_cell_angle_beta 75.602141
_cell_angle_gamma 90.000000
_cell_volume 940.327817
_symmetry_space_group_name_H-M "C C"
_symmetry_group_IT_number 9
_symmetry_cell_setting 'monoclinic'
loop_
_space_group_symop_operation_xyz
x,y,z
x,-y,1/2+z
1/2+x,1/2+y,z
1/2+x,1/2-y,1/2+z
loop_
_atom_site_type_symbol
_atom_site_label
_atom_site_fract_x
_atom_site_fract_y
_atom_site_fract_z
Si Si1 0.966850 0.347912 0.660820
Si Si2 0.705818 0.657847 0.675776
Si Si3 0.929529 0.807133 0.084262
Si Si4 0.310208 0.047479 0.970207
Si Si5 0.249583 0.311935 0.694162
O O1 0.968833 0.273140 0.517430
O O2 0.950977 0.406335 0.435485
O O3 0.111183 0.358445 0.746825
O O4 0.839748 0.356897 0.928713
O O5 0.567271 0.648564 0.569183
O O6 0.697807 0.604520 0.929920
O O7 0.706651 0.734312 0.800213
O O8 0.821950 0.812992 0.375114
O O9 0.855783 0.840035 0.862351
O O10 0.298124 0.985274 0.769312
#
# Coordination Sequence:
#
# PCOD8055154 Si02
#       5
#     4   4   4   4   4
#     4  10  22  38  62  90 122 153 204 239 299 351
#     4  10  22  38  62  90 122 153 204 239 299 351
#     4  10  22  36  61  93 125 150 184 255 310 353
#     4  12  24  38  60  88 120 160 206 244 276 346
#     4  10  22  36  61  93 125 150 184 255 310 353
#
# _framework density 21.269178
#
# number of rings (size 3 to 8) (size 9 to 14) (size 15 to 20)
#    0.000    1.600    4.000    0.000    5.600    4.800 
#    0.000    0.000    0.000    7.200    0.000    0.000 
#    0.000    0.000    0.000    0.000    0.000    0.000 
#
# Total GULP energy -123890.723168 kJ/mol
# GULP energy per Si atom -12389.072317 kJ/mol
# Density = 2.122077 g / cm^3
# Si number density = 21.269178 Si / 1000 Ang^3
#
#
#
# Elastic Constant Matrix: (Units=GPa)
#
#
# Indices 1 2 3 4 5 6 
#
# 1 158.5604 24.0930 16.6137 0.0000 27.7880 0.0000
# 2 24.0930 58.5469 6.5085 0.0000 8.5619 0.0000
# 3 16.6137 6.5085 46.2238 0.0000 17.1201 0.0000
# 4 0.0000 0.0000 0.0000 22.5370 0.0000 21.1014
# 5 27.7880 8.5619 17.1201 0.0000 42.2740 0.0000
# 6 0.0000 0.0000 0.0000 21.1014 0.0000 33.4984
#
#
#
# Elastic Compliance Matrix: (Units=1/GPa)
#
#
# Indices 1 2 3 4 5 6 
#
# 1 0.007474 -0.002384 -0.000835 0.000000 -0.004092 0.000000
# 2 -0.002384 0.018436 -0.001102 0.000000 -0.001720 0.000000
# 3 -0.000835 -0.001102 0.025651 0.000000 -0.009616 0.000000
# 4 0.000000 0.000000 0.000000 0.108169 0.000000 -0.068138
# 5 -0.004092 -0.001720 -0.009616 0.000000 0.030587 0.000000
# 6 0.000000 0.000000 0.000000 -0.068138 0.000000 0.072774
#
#
# Mechanical properties :
#
#
# Convention : Reuss Voigt Hill
#
# Bulk Modulus (GPa) = 23.30039 39.75129 31.52584
# Shear Modulus (GPa) = 17.48020 34.06962 25.77491
#
# Velocity S-wave (km/s) = 2.86991 4.00663 3.48493
# Velocity P-wave (km/s) = 4.68622 6.33516 5.57203
#
# Compressibility (1/GPa) = 0.04291774
#
# Stress axis : x y z
#
# Youngs Moduli (GPa) = 133.80466 54.24291 38.98546
#
# Poissons Ratio (x) = 0.12933 0.03255
# Poissons Ratio (y) = 0.31903 0.04295
# Poissons Ratio (z) = 0.11173 0.05976
#
# Static dielectric constant tensor:
#      x y z
#    x 4.118070 0.000000 0.344380 
#    y 0.000000 3.895360 0.000000 
#    z 0.344380 0.000000 3.656830 
# 
# 
# High freq. dielectric constant tensor:
#      x y z
#    x 1.838010 0.000000 0.032480 
#    y 0.000000 1.800890 0.000000 
#    z 0.032480 0.000000 1.827060 
# 
# From -- ./inp_files/479.got.cif
#   From: 2010.06.25/outbox.cif.g09.slc.cpg/sg9_1_cif.got.tgz:479.got - 2010.06.27 21:40:51.
