data_PCOD8055736
_publ_section_title
;
Structure prediction by ZEFSAII (Michael W. Deem and Ramdas Pophale) SiO2 
 PCOD8055736
Probable space group: C C
;
_chemical_formula_sum "Si O2"
_cell_formula_units_Z 28
_cell_length_a 7.268766
_cell_length_b 16.679820
_cell_length_c 11.876091
_cell_angle_alpha 90.000000
_cell_angle_beta 138.272361
_cell_angle_gamma 90.000000
_cell_volume 958.368754
_symmetry_space_group_name_H-M "C C"
_symmetry_group_IT_number 9
_symmetry_cell_setting 'monoclinic'
loop_
_space_group_symop_operation_xyz
x,y,z
x,-y,1/2+z
1/2+x,1/2+y,z
1/2+x,1/2-y,1/2+z
loop_
_atom_site_type_symbol
_atom_site_label
_atom_site_fract_x
_atom_site_fract_y
_atom_site_fract_z
Si Si1 0.364780 0.136446 0.181100
Si Si2 0.505766 0.590419 0.212688
Si Si3 0.142651 0.346832 0.255732
Si Si4 0.572080 0.699737 0.775283
Si Si5 0.809468 0.482803 0.044078
Si Si6 0.875525 0.061049 0.535296
Si Si7 0.576413 0.728011 0.408196
O O1 0.379399 0.226943 0.143615
O O2 0.604036 0.107642 0.375238
O O3 0.094489 0.129007 0.135008
O O4 0.356904 0.078681 0.067761
O O5 0.756408 0.545583 0.392885
O O6 0.301623 0.516498 0.082533
O O7 0.405571 0.664566 0.247767
O O8 0.155307 0.311421 0.385224
O O9 0.438133 0.325645 0.334112
O O10 0.091908 0.442644 0.225062
O O11 0.860588 0.313266 0.070816
O O12 0.565208 0.625025 0.688889
O O13 0.877032 0.742738 0.918957
O O14 0.550943 0.462361 0.006250
#
# Coordination Sequence:
#
# PCOD8055736 Si02
#       7
#     4   4   4   4   4   4   4
#     4  11  24  44  70 101 139 187 236 287 358 424
#     4  10  23  46  67 100 142 183 229 295 355 418
#     4  11  24  45  71 100 142 182 230 294 349 415
#     4  12  26  42  72 104 140 184 236 286 354 422
#     4  10  23  46  67 100 142 183 229 295 355 418
#     4  11  24  44  70 101 139 187 236 287 358 424
#     4  11  24  45  71 100 142 182 230 294 349 415
#
# _framework density 29.216311999999999
#
# number of rings (size 3 to 8) (size 9 to 14) (size 15 to 20)
#    0.000    1.143    2.857    3.429    0.000    6.857 
#    0.000    0.000    0.000    0.000    0.000    0.000 
#    0.000    0.000    0.000    0.000    0.000    0.000 
#
# Total GULP energy -173433.302563 kJ/mol
# GULP energy per Si atom -12388.093040 kJ/mol
# Density = 2.914981 g / cm^3
# Si number density = 29.216312 Si / 1000 Ang^3
#
#
#
# Elastic Constant Matrix: (Units=GPa)
#
#
# Indices 1 2 3 4 5 6 
#
# 1 98.8120 25.3610 4.5088 -0.0003 3.6395 -0.0001
# 2 25.3610 130.6498 -8.3802 0.0007 7.5084 0.0006
# 3 4.5088 -8.3802 30.3291 -0.0032 13.1884 -0.0022
# 4 -0.0003 0.0007 -0.0032 33.8992 -0.0014 6.8468
# 5 3.6395 7.5084 13.1884 -0.0014 38.2618 -0.0010
# 6 -0.0001 0.0006 -0.0022 6.8468 -0.0010 46.2984
#
#
#
# Elastic Compliance Matrix: (Units=1/GPa)
#
#
# Indices 1 2 3 4 5 6 
#
# 1 0.010798 -0.002257 -0.002323 0.000000 0.000217 0.000000
# 2 -0.002257 0.008503 0.003902 0.000000 -0.002799 0.000000
# 3 -0.002323 0.003902 0.040738 0.000003 -0.014587 0.000001
# 4 0.000000 0.000000 0.000003 0.030407 0.000000 -0.004497
# 5 0.000217 -0.002799 -0.014587 0.000000 0.031692 0.000000
# 6 0.000000 0.000000 0.000001 -0.004497 0.000000 0.022264
#
#
# Mechanical properties :
#
#
# Convention : Reuss Voigt Hill
#
# Bulk Modulus (GPa) = 17.04085 33.64113 25.34099
# Shear Modulus (GPa) = 30.24429 39.57863 34.91146
#
# Velocity S-wave (km/s) = 3.22092 3.68458 3.46053
# Velocity P-wave (km/s) = 4.43596 5.44436 4.96582
#
# Compressibility (1/GPa) = 0.05868253
#
# Stress axis : x y z
#
# Youngs Moduli (GPa) = 92.61281 117.59985 24.54702
#
# Poissons Ratio (x) = 0.26547 0.05703
# Poissons Ratio (y) = 0.20907 -0.09579
# Poissons Ratio (z) = 0.21516 -0.45891
#
# Static dielectric constant tensor:
#      x y z
#    x 5.186110 0.000000 -0.042400 
#    y 0.000000 6.393060 0.000000 
#    z -0.042400 0.000000 5.236760 
# 
# 
# High freq. dielectric constant tensor:
#      x y z
#    x 2.174810 0.000000 -0.000520 
#    y 0.000000 2.217970 0.000000 
#    z -0.000520 0.000000 2.181880 
# 
# From -- ./inp_files/23673.got.cif
#   From: 2010.06.25/outbox.cif.g09.slc.cpg/sg9_12_cif.got.tgz:23673.got - 2010.06.27 21:40:51.
