data_PCOD8055641
_publ_section_title
;
Structure prediction by ZEFSAII (Michael W. Deem and Ramdas Pophale) SiO2 
 PCOD8055641
Probable space group: C C
;
_chemical_formula_sum "Si O2"
_cell_formula_units_Z 32
_cell_length_a 10.626682
_cell_length_b 8.013539
_cell_length_c 18.427667
_cell_angle_alpha 90.000000
_cell_angle_beta 72.778758
_cell_angle_gamma 90.000000
_cell_volume 1498.899317
_symmetry_space_group_name_H-M "C C"
_symmetry_group_IT_number 9
_symmetry_cell_setting 'monoclinic'
loop_
_space_group_symop_operation_xyz
x,y,z
x,-y,1/2+z
1/2+x,1/2+y,z
1/2+x,1/2-y,1/2+z
loop_
_atom_site_type_symbol
_atom_site_label
_atom_site_fract_x
_atom_site_fract_y
_atom_site_fract_z
Si Si1 0.235230 0.344143 0.511480
Si Si2 0.235069 0.357963 0.265991
Si Si3 0.208134 0.964047 0.679159
Si Si4 0.997881 0.145699 0.788000
Si Si5 0.752973 0.544436 0.005715
Si Si6 0.525274 0.449848 0.440970
Si Si7 0.542883 0.835608 0.420520
Si Si8 0.696346 0.833614 0.680392
O O1 0.374654 0.437786 0.492226
O O2 0.133657 0.418006 0.468777
O O3 0.168705 0.370870 0.600990
O O4 0.263159 0.151498 0.491924
O O5 0.263024 0.184087 0.219687
O O6 0.340827 0.362660 0.313155
O O7 0.095494 0.381438 0.330707
O O8 0.267182 0.508953 0.205266
O O9 0.223746 0.905723 0.593685
O O10 0.273373 0.152569 0.678052
O O11 0.056056 0.989385 0.730761
O O12 0.046872 0.147397 0.862342
O O13 0.052684 0.316065 0.742552
O O14 0.630737 0.622713 0.980930
O O15 0.891179 0.615725 0.954172
O O16 0.559293 0.640149 0.423901
#
# Coordination Sequence:
#
# PCOD8055641 Si02
#       8
#     4   4   4   4   4   4   4   4
#     4  10  23  44  63  93 135 169 213 275 331 384
#     4  12  23  43  71  95 132 177 220 272 338 388
#     4   9  23  47  59 100 133 167 219 281 320 388
#     4  10  23  45  63  95 135 168 219 282 321 393
#     4  10  25  41  66  94 134 174 220 267 329 399
#     4  11  23  43  65  93 137 174 210 278 332 382
#     4  11  24  41  65 101 127 174 221 266 330 398
#     4   9  24  42  64  97 125 173 220 269 327 398
#
# _framework density 21.348997000000001
#
# number of rings (size 3 to 8) (size 9 to 14) (size 15 to 20)
#    0.750    1.000    2.500    0.000    7.000    2.000 
#    2.250    0.000    0.000    0.000    0.000    0.000 
#    0.000    0.000    0.000    0.000    0.000    0.000 
#
# Total GULP energy -198212.770388 kJ/mol
# GULP energy per Si atom -12388.298149 kJ/mol
# Density = 2.130041 g / cm^3
# Si number density = 21.348997 Si / 1000 Ang^3
#
#
#
# Elastic Constant Matrix: (Units=GPa)
#
#
# Indices 1 2 3 4 5 6 
#
# 1 115.5601 21.2453 35.1927 0.0000 11.6290 0.0000
# 2 21.2453 76.1792 36.0694 0.0000 15.3883 0.0000
# 3 35.1927 36.0694 122.4048 0.0000 10.0963 0.0000
# 4 0.0000 0.0000 0.0000 28.2311 0.0000 -3.4523
# 5 11.6290 15.3883 10.0963 0.0000 30.9102 0.0000
# 6 0.0000 0.0000 0.0000 -3.4523 0.0000 21.9998
#
#
#
# Elastic Compliance Matrix: (Units=1/GPa)
#
#
# Indices 1 2 3 4 5 6 
#
# 1 0.009801 -0.001180 -0.002276 0.000000 -0.002357 0.000000
# 2 -0.001180 0.016691 -0.004039 0.000000 -0.006546 0.000000
# 3 -0.002276 -0.004039 0.010048 0.000000 -0.000415 0.000000
# 4 0.000000 0.000000 0.000000 0.036115 0.000000 0.005667
# 5 -0.002357 -0.006546 -0.000415 0.000000 0.036633 0.000000
# 6 0.000000 0.000000 0.000000 0.005667 0.000000 0.046344
#
#
# Mechanical properties :
#
#
# Convention : Reuss Voigt Hill
#
# Bulk Modulus (GPa) = 46.40278 55.46211 50.93244
# Shear Modulus (GPa) = 28.12076 31.00401 29.56238
#
# Velocity S-wave (km/s) = 3.63325 3.81497 3.72522
# Velocity P-wave (km/s) = 6.27561 6.74096 6.51244
#
# Compressibility (1/GPa) = 0.02155043
#
# Stress axis : x y z
#
# Youngs Moduli (GPa) = 102.03455 59.91344 99.51828
#
# Poissons Ratio (x) = 0.07068 0.22648
# Poissons Ratio (y) = 0.12037 0.40197
# Poissons Ratio (z) = 0.23221 0.24200
#
# Static dielectric constant tensor:
#      x y z
#    x 3.689430 0.000000 0.086480 
#    y 0.000000 3.721210 0.000000 
#    z 0.086480 0.000000 3.989590 
# 
# 
# High freq. dielectric constant tensor:
#      x y z
#    x 1.813360 0.000000 -0.002280 
#    y 0.000000 1.824740 0.000000 
#    z -0.002280 0.000000 1.857340 
# 
# From -- ./inp_files/29816.got.cif
#   From: 2010.06.25/outbox.cif.g09.slc.cpg/sg9_15_cif.got.tgz:29816.got - 2010.06.27 21:40:51.
