data_PCOD8055030
_publ_section_title
;
Structure prediction by ZEFSAII (Michael W. Deem and Ramdas Pophale) SiO2 
 PCOD8055030
Probable space group: C C
;
_chemical_formula_sum "Si O2"
_cell_formula_units_Z 32
_cell_length_a 5.228869
_cell_length_b 31.487629
_cell_length_c 8.571487
_cell_angle_alpha 90.000000
_cell_angle_beta 94.310792
_cell_angle_gamma 90.000000
_cell_volume 1407.257360
_symmetry_space_group_name_H-M "C C"
_symmetry_group_IT_number 9
_symmetry_cell_setting 'monoclinic'
loop_
_space_group_symop_operation_xyz
x,y,z
x,-y,1/2+z
1/2+x,1/2+y,z
1/2+x,1/2-y,1/2+z
loop_
_atom_site_type_symbol
_atom_site_label
_atom_site_fract_x
_atom_site_fract_y
_atom_site_fract_z
Si Si1 0.601420 0.929849 0.468260
Si Si2 0.237617 0.124330 0.514117
Si Si3 0.767340 0.775850 0.189909
Si Si4 0.775803 0.872913 0.211770
Si Si5 0.194160 0.982485 0.300418
Si Si6 0.455698 0.063430 0.290587
Si Si7 0.232183 0.221161 0.494520
Si Si8 0.357673 0.520133 0.513895
O O1 0.771039 0.896315 0.379383
O O2 0.340880 0.940107 0.359355
O O3 0.547409 0.911168 0.639442
O O4 0.752016 0.972941 0.500044
O O5 0.504051 0.121255 0.617031
O O6 0.243788 0.093154 0.364444
O O7 0.186142 0.171820 0.451618
O O8 0.004030 0.108476 0.613211
O O9 0.833049 0.823560 0.247900
O O10 0.483765 0.772591 0.109085
O O11 0.778399 0.745459 0.337432
O O12 0.982825 0.761029 0.074821
O O13 0.934816 0.968264 0.195906
O O14 0.369093 0.017055 0.214984
O O15 0.128295 0.015183 0.438000
O O16 0.678446 0.055746 0.429831
#
# Coordination Sequence:
#
# PCOD8055030 Si02
#       8
#     4   4   4   4   4   4   4   4
#     4  11  25  41  62  95 124 166 227 274 326 395
#     4  10  25  43  66  97 134 177 216 268 334 396
#     4  10  21  42  69 102 136 173 219 264 326 398
#     4  10  25  43  66  97 134 177 216 268 334 396
#     4  11  24  41  62  88 127 169 218 277 338 385
#     4  11  25  41  62  95 124 166 227 274 326 395
#     4  10  21  42  69 102 136 173 219 264 326 398
#     4  11  24  41  62  88 127 169 218 277 338 385
#
# _framework density 22.739265
#
# number of rings (size 3 to 8) (size 9 to 14) (size 15 to 20)
#    0.000    1.500    2.500    0.750    7.000    1.000 
#    0.000    1.250    0.000    0.000    0.000    0.000 
#    0.000    0.000    0.000    0.000    0.000    0.000 
#
# Total GULP energy -198343.780685 kJ/mol
# GULP energy per Si atom -12396.486293 kJ/mol
# Density = 2.268751 g / cm^3
# Si number density = 22.739265 Si / 1000 Ang^3
#
#
#
# Elastic Constant Matrix: (Units=GPa)
#
#
# Indices 1 2 3 4 5 6 
#
# 1 95.1652 28.3690 33.6414 0.0000 -3.6907 0.0000
# 2 28.3690 86.3529 64.2298 0.0000 -16.8639 0.0000
# 3 33.6414 64.2298 130.4326 0.0000 -12.5936 0.0000
# 4 0.0000 0.0000 0.0000 34.3138 0.0000 -9.9251
# 5 -3.6907 -16.8639 -12.5936 0.0000 43.3467 0.0000
# 6 0.0000 0.0000 0.0000 -9.9251 0.0000 27.2628
#
#
#
# Elastic Compliance Matrix: (Units=1/GPa)
#
#
# Indices 1 2 3 4 5 6 
#
# 1 0.011925 -0.002680 -0.001810 0.000000 -0.000553 0.000000
# 2 -0.002680 0.019824 -0.008589 0.000000 0.004989 0.000000
# 3 -0.001810 -0.008589 0.012373 0.000000 0.000099 0.000000
# 4 0.000000 0.000000 0.000000 0.032573 0.000000 0.011858
# 5 -0.000553 0.004989 0.000099 0.000000 0.024992 0.000000
# 6 0.000000 0.000000 0.000000 0.011858 0.000000 0.040997
#
#
# Mechanical properties :
#
#
# Convention : Reuss Voigt Hill
#
# Bulk Modulus (GPa) = 55.66457 62.71457 59.18957
# Shear Modulus (GPa) = 28.59952 33.36536 30.98244
#
# Velocity S-wave (km/s) = 3.55028 3.83469 3.69522
# Velocity P-wave (km/s) = 6.42951 6.87359 6.65525
#
# Compressibility (1/GPa) = 0.01796475
#
# Stress axis : x y z
#
# Youngs Moduli (GPa) = 83.85662 50.44505 80.82358
#
# Poissons Ratio (x) = 0.13518 0.14625
# Poissons Ratio (y) = 0.22471 0.69419
# Poissons Ratio (z) = 0.15174 0.43327
#
# Static dielectric constant tensor:
#      x y z
#    x 4.611850 0.000000 -0.500480 
#    y 0.000000 4.016370 0.000000 
#    z -0.500480 0.000000 4.351440 
# 
# 
# High freq. dielectric constant tensor:
#      x y z
#    x 1.913760 0.000000 -0.015220 
#    y 0.000000 1.882070 0.000000 
#    z -0.015220 0.000000 1.897430 
# 
# From -- ./inp_files/4375.got.cif
#   From: 2010.06.25/outbox.cif.g09.slc.cpg/sg9_3_cif.got.tgz:4375.got - 2010.06.27 21:40:51.
