data_PCOD8055875
_publ_section_title
;
Structure prediction by ZEFSAII (Michael W. Deem and Ramdas Pophale) SiO2 
 PCOD8055875
Probable space group: C C
;
_chemical_formula_sum "Si O2"
_cell_formula_units_Z 28
_cell_length_a 15.732669
_cell_length_b 8.805245
_cell_length_c 14.557780
_cell_angle_alpha 90.000000
_cell_angle_beta 142.802832
_cell_angle_gamma 90.000000
_cell_volume 1219.209188
_symmetry_space_group_name_H-M "C C"
_symmetry_group_IT_number 9
_symmetry_cell_setting 'monoclinic'
loop_
_space_group_symop_operation_xyz
x,y,z
x,-y,1/2+z
1/2+x,1/2+y,z
1/2+x,1/2-y,1/2+z
loop_
_atom_site_type_symbol
_atom_site_label
_atom_site_fract_x
_atom_site_fract_y
_atom_site_fract_z
Si Si1 0.287850 0.657952 0.228900
Si Si2 0.938436 0.573485 0.466654
Si Si3 0.538899 0.863042 0.404221
Si Si4 0.658593 0.418481 0.226179
Si Si5 0.469306 0.408244 0.435617
Si Si6 0.471204 0.067973 0.191586
Si Si7 0.155954 0.831540 0.420745
O O1 0.443127 0.724692 0.352525
O O2 0.206089 0.745957 0.240930
O O3 0.316892 0.478068 0.274664
O O4 0.202313 0.684247 0.059103
O O5 0.778157 0.538765 0.302434
O O6 0.953516 0.754549 0.480490
O O7 0.983217 0.482851 0.596741
O O8 0.033699 0.507865 0.467896
O O9 0.486468 0.909964 0.258856
O O10 0.624558 0.436458 0.304975
O O11 0.523523 0.464364 0.052509
O O12 0.571636 0.390056 0.436235
O O13 0.602675 0.166144 0.342067
O O14 0.324812 0.159242 0.085746
#
# Coordination Sequence:
#
# PCOD8055875 Si02
#       7
#     4   4   4   4   4   4   4
#     4  11  24  43  73  99 143 192 229 288 362 415
#     4  10  24  44  69 101 137 180 235 296 344 415
#     4  11  23  45  69  99 139 184 236 289 347 424
#     4  10  24  48  67 101 146 184 234 290 348 430
#     4  12  25  43  75 106 140 185 239 295 350 419
#     4  11  25  45  72 102 146 183 238 292 352 426
#     4  11  25  44  73 102 139 194 231 290 355 423
#
# _framework density 22.965706999999998
#
# number of rings (size 3 to 8) (size 9 to 14) (size 15 to 20)
#    0.000    1.143    2.857    2.571    8.000    1.143 
#    2.571    0.000    0.000    0.000    0.000    0.000 
#    0.000    0.000    0.000    0.000    0.000    0.000 
#
# Total GULP energy -173492.583072 kJ/mol
# GULP energy per Si atom -12392.327362 kJ/mol
# Density = 2.291344 g / cm^3
# Si number density = 22.965707 Si / 1000 Ang^3
#
#
#
# Elastic Constant Matrix: (Units=GPa)
#
#
# Indices 1 2 3 4 5 6 
#
# 1 63.1212 22.5136 20.4137 0.0000 -5.9164 0.0000
# 2 22.5136 102.3632 28.4543 0.0000 10.0840 0.0000
# 3 20.4137 28.4543 124.6697 0.0000 3.1807 0.0000
# 4 0.0000 0.0000 0.0000 46.3560 0.0000 -7.5533
# 5 -5.9164 10.0840 3.1807 0.0000 28.4886 0.0000
# 6 0.0000 0.0000 0.0000 -7.5533 0.0000 19.6332
#
#
#
# Elastic Compliance Matrix: (Units=1/GPa)
#
#
# Indices 1 2 3 4 5 6 
#
# 1 0.018512 -0.003985 -0.002262 0.000000 0.005508 0.000000
# 2 -0.003985 0.011635 -0.001882 0.000000 -0.004736 0.000000
# 3 -0.002262 -0.001882 0.008841 0.000000 -0.000791 0.000000
# 4 0.000000 0.000000 0.000000 0.023015 0.000000 0.008854
# 5 0.005508 -0.004736 -0.000791 0.000000 0.038010 0.000000
# 6 0.000000 0.000000 0.000000 0.008854 0.000000 0.054341
#
#
# Mechanical properties :
#
#
# Convention : Reuss Voigt Hill
#
# Bulk Modulus (GPa) = 43.99588 48.10193 46.04890
# Shear Modulus (GPa) = 28.05997 33.48040 30.77019
#
# Velocity S-wave (km/s) = 3.49925 3.82231 3.66434
# Velocity P-wave (km/s) = 5.96029 6.36166 6.16424
#
# Compressibility (1/GPa) = 0.02272940
#
# Stress axis : x y z
#
# Youngs Moduli (GPa) = 54.01969 85.94456 113.10457
#
# Poissons Ratio (x) = 0.34251 0.25585
# Poissons Ratio (y) = 0.21528 0.21289
# Poissons Ratio (z) = 0.12220 0.16177
#
# Static dielectric constant tensor:
#      x y z
#    x 4.039780 0.000000 -0.025780 
#    y 0.000000 4.008490 0.000000 
#    z -0.025780 0.000000 4.454540 
# 
# 
# High freq. dielectric constant tensor:
#      x y z
#    x 1.888210 0.000000 -0.003860 
#    y 0.000000 1.901390 0.000000 
#    z -0.003860 0.000000 1.927630 
# 
# From -- ./inp_files/11306.got.cif
#   From: 2010.06.25/outbox.cif.g09.slc.cpg/sg9_6_cif.got.tgz:11306.got - 2010.06.27 21:40:51.
