data_PCOD8055293
_publ_section_title
;
Structure prediction by ZEFSAII (Michael W. Deem and Ramdas Pophale) SiO2 
 PCOD8055293
Probable space group: C C
;
_chemical_formula_sum "Si O2"
_cell_formula_units_Z 32
_cell_length_a 17.117643
_cell_length_b 18.581155
_cell_length_c 9.913932
_cell_angle_alpha 90.000000
_cell_angle_beta 29.314050
_cell_angle_gamma 90.000000
_cell_volume 1543.834423
_symmetry_space_group_name_H-M "C C"
_symmetry_group_IT_number 9
_symmetry_cell_setting 'monoclinic'
loop_
_space_group_symop_operation_xyz
x,y,z
x,-y,1/2+z
1/2+x,1/2+y,z
1/2+x,1/2-y,1/2+z
loop_
_atom_site_type_symbol
_atom_site_label
_atom_site_fract_x
_atom_site_fract_y
_atom_site_fract_z
Si Si1 0.610980 0.524179 0.532910
Si Si2 0.458350 0.193783 0.683540
Si Si3 0.086472 0.548974 0.071640
Si Si4 0.432068 0.049187 0.584323
Si Si5 0.054902 0.691650 0.968243
Si Si6 0.752684 0.322398 0.751542
Si Si7 0.905256 0.976001 0.601726
Si Si8 0.760276 0.175654 0.400583
O O1 0.747778 0.471202 0.381270
O O2 0.681352 0.603258 0.409216
O O3 0.549649 0.492983 0.484309
O O4 0.468286 0.525429 0.854548
O O5 0.460290 0.133591 0.565047
O O6 0.632765 0.205637 0.484720
O O7 0.405218 0.268135 0.694553
O O8 0.333647 0.167277 0.984289
O O9 0.046358 0.630573 0.094253
O O10 0.986002 0.527420 0.353844
O O11 0.041016 0.494254 0.023044
O O12 0.274927 0.539211 0.814182
O O13 0.881526 0.705795 0.165669
O O14 0.110443 0.764917 0.955879
O O15 0.179250 0.665241 0.667952
O O16 0.827718 0.899732 0.751357
#
# Coordination Sequence:
#
# PCOD8055293 Si02
#       8
#     4   4   4   4   4   4   4   4
#     4  12  26  42  65  99 133 167 214 272 322 378
#     4  10  22  41  67  94 127 171 214 262 323 386
#     4  12  24  44  69  95 128 175 218 264 323 387
#     4  12  24  44  69  95 128 175 218 264 323 387
#     4  10  22  41  67  94 127 171 214 262 323 386
#     4  10  22  42  65  94 130 169 214 263 321 387
#     4  12  26  42  65  99 133 167 214 272 322 378
#     4  10  22  42  65  94 130 169 214 263 321 387
#
# _framework density 20.727612000000001
#
# number of rings (size 3 to 8) (size 9 to 14) (size 15 to 20)
#    0.000    1.000    2.500    4.500    3.500    1.000 
#    0.000    2.500    0.000    0.000    0.000    0.000 
#    0.000    0.000    0.000    0.000    0.000    0.000 
#
# Total GULP energy -198529.452568 kJ/mol
# GULP energy per Si atom -12408.090786 kJ/mol
# Density = 2.068043 g / cm^3
# Si number density = 20.727612 Si / 1000 Ang^3
#
#
#
# Elastic Constant Matrix: (Units=GPa)
#
#
# Indices 1 2 3 4 5 6 
#
# 1 105.7371 54.4748 36.4079 0.0026 -9.2665 0.0004
# 2 54.4748 74.2307 17.2904 -0.0029 -10.0324 -0.0014
# 3 36.4079 17.2904 68.6503 -0.0097 -8.6274 0.0045
# 4 0.0026 -0.0029 -0.0097 33.4001 -0.0030 -8.1870
# 5 -9.2665 -10.0324 -8.6274 -0.0030 36.4942 0.0000
# 6 0.0004 -0.0014 0.0045 -8.1870 0.0000 43.7693
#
#
#
# Elastic Compliance Matrix: (Units=1/GPa)
#
#
# Indices 1 2 3 4 5 6 
#
# 1 0.017529 -0.011388 -0.006454 -0.000004 -0.000205 -0.000001
# 2 -0.011388 0.022076 0.000906 0.000004 0.003391 0.000001
# 3 -0.006454 0.000906 0.018125 0.000006 0.002895 -0.000001
# 4 -0.000004 0.000004 0.000006 0.031379 0.000004 0.005869
# 5 -0.000205 0.003391 0.002895 0.000004 0.028966 0.000001
# 6 -0.000001 0.000001 -0.000001 0.005869 0.000001 0.023945
#
#
# Mechanical properties :
#
#
# Convention : Reuss Voigt Hill
#
# Bulk Modulus (GPa) = 41.91583 51.66271 46.78927
# Shear Modulus (GPa) = 27.19695 32.09573 29.64634
#
# Velocity S-wave (km/s) = 3.62624 3.93931 3.78601
# Velocity P-wave (km/s) = 6.14808 6.75793 6.46020
#
# Compressibility (1/GPa) = 0.02385734
#
# Stress axis : x y z
#
# Youngs Moduli (GPa) = 57.04965 45.29788 55.17249
#
# Poissons Ratio (x) = 0.51585 0.35607
# Poissons Ratio (y) = 0.64968 -0.04996
# Poissons Ratio (z) = 0.36818 -0.04102
#
# Static dielectric constant tensor:
#      x y z
#    x 3.920530 0.000020 -0.125130 
#    y 0.000020 3.751970 -0.000070 
#    z -0.125130 -0.000070 3.994600 
# 
# 
# High freq. dielectric constant tensor:
#      x y z
#    x 1.825690 0.000000 -0.008630 
#    y 0.000000 1.813750 0.000000 
#    z -0.008630 0.000000 1.806850 
# 
# From -- ./inp_files/10079.got.cif
#   From: 2010.06.25/outbox.cif.g09.slc.cpg/sg9_6_cif.got.tgz:10079.got - 2010.06.27 21:40:51.
