data_PCOD8055958
_publ_section_title
;
Structure prediction by ZEFSAII (Michael W. Deem and Ramdas Pophale) SiO2 
 PCOD8055958
Probable space group: C C
;
_chemical_formula_sum "Si O2"
_cell_formula_units_Z 32
_cell_length_a 11.402366
_cell_length_b 15.013154
_cell_length_c 17.316737
_cell_angle_alpha 90.000000
_cell_angle_beta 152.227923
_cell_angle_gamma 90.000000
_cell_volume 1381.266271
_symmetry_space_group_name_H-M "C C"
_symmetry_group_IT_number 9
_symmetry_cell_setting 'monoclinic'
loop_
_space_group_symop_operation_xyz
x,y,z
x,-y,1/2+z
1/2+x,1/2+y,z
1/2+x,1/2-y,1/2+z
loop_
_atom_site_type_symbol
_atom_site_label
_atom_site_fract_x
_atom_site_fract_y
_atom_site_fract_z
Si Si1 0.958970 0.363807 0.486850
Si Si2 0.570665 0.039679 0.463565
Si Si3 0.040226 0.940843 0.485535
Si Si4 0.932481 0.768252 0.832955
Si Si5 0.606069 0.003956 0.814050
Si Si6 0.458685 0.810184 0.185572
Si Si7 0.960081 0.855737 0.284100
Si Si8 0.199305 0.188442 0.196816
O O1 0.871275 0.306404 0.361700
O O2 0.747185 0.357552 0.427345
O O3 0.005177 0.465387 0.488495
O O4 0.199994 0.330142 0.674700
O O5 0.794923 0.104170 0.619304
O O6 0.333280 0.103769 0.313938
O O7 0.656181 0.989940 0.434679
O O8 0.008655 0.852992 0.522464
O O9 0.876115 0.023810 0.429651
O O10 0.919542 0.919532 0.333317
O O11 0.343347 0.952102 0.650873
O O12 0.027339 0.722627 0.810425
O O13 0.159691 0.826506 0.000114
O O14 0.580062 0.093911 0.749208
O O15 0.549488 0.740447 0.174959
O O16 0.888914 0.754005 0.262298
#
# Coordination Sequence:
#
# PCOD8055958 Si02
#       8
#     4   4   4   4   4   4   4   4
#     4  11  27  48  73 111 150 201 244 316 382 462
#     4  11  28  48  75 109 148 198 256 315 373 460
#     4  11  27  47  73 108 146 194 251 311 378 452
#     4  10  25  43  73 108 151 192 247 306 387 454
#     4  11  25  47  72 106 149 192 248 310 381 439
#     4  11  22  44  78 104 145 193 253 305 378 450
#     4  12  28  45  75 106 151 195 253 307 384 453
#     4  11  26  48  77 106 144 195 252 312 379 450
#
# _framework density 23.167145999999999
#
# number of rings (size 3 to 8) (size 9 to 14) (size 15 to 20)
#    0.000    1.000    2.500    1.500   14.000    0.000 
#    4.500    0.000    0.000    0.000    0.000    0.000 
#    0.000    0.000    0.000    0.000    0.000    0.000 
#
# Total GULP energy -198271.615957 kJ/mol
# GULP energy per Si atom -12391.975997 kJ/mol
# Density = 2.311442 g / cm^3
# Si number density = 23.167146 Si / 1000 Ang^3
#
#
#
# Elastic Constant Matrix: (Units=GPa)
#
#
# Indices 1 2 3 4 5 6 
#
# 1 121.6064 36.5754 29.4945 -0.0043 6.3372 -0.0029
# 2 36.5754 102.4487 37.6390 0.0249 3.2291 0.0030
# 3 29.4945 37.6390 83.1390 0.0385 -12.1659 0.0081
# 4 -0.0043 0.0249 0.0385 33.2912 0.0038 -4.5039
# 5 6.3372 3.2291 -12.1659 0.0038 37.8578 -0.0016
# 6 -0.0029 0.0030 0.0081 -4.5039 -0.0016 36.9354
#
#
#
# Elastic Compliance Matrix: (Units=1/GPa)
#
#
# Indices 1 2 3 4 5 6 
#
# 1 0.009720 -0.002409 -0.002692 0.000007 -0.002287 0.000002
# 2 -0.002409 0.012603 -0.005194 -0.000004 -0.002341 -0.000001
# 3 -0.002692 -0.005194 0.016228 -0.000017 0.006109 -0.000005
# 4 0.000007 -0.000004 -0.000017 0.030542 -0.000009 0.003724
# 5 -0.002287 -0.002341 0.006109 -0.000009 0.028960 -0.000001
# 6 0.000002 -0.000001 -0.000005 0.003724 -0.000001 0.027528
#
#
# Mechanical properties :
#
#
# Convention : Reuss Voigt Hill
#
# Bulk Modulus (GPa) = 55.67438 57.17907 56.42673
# Shear Modulus (GPa) = 32.86051 35.18257 34.02154
#
# Velocity S-wave (km/s) = 3.77026 3.90120 3.83629
# Velocity P-wave (km/s) = 6.56026 6.71023 6.63567
#
# Compressibility (1/GPa) = 0.01796158
#
# Stress axis : x y z
#
# Youngs Moduli (GPa) = 102.88125 79.34721 61.62066
#
# Poissons Ratio (x) = 0.19114 0.16590
# Poissons Ratio (y) = 0.24783 0.32003
# Poissons Ratio (z) = 0.27699 0.41209
#
# Static dielectric constant tensor:
#      x y z
#    x 4.324080 0.000010 -0.016700 
#    y 0.000010 4.064640 -0.000020 
#    z -0.016700 -0.000020 4.393950 
# 
# 
# High freq. dielectric constant tensor:
#      x y z
#    x 1.928520 0.000000 0.000510 
#    y 0.000000 1.900020 0.000000 
#    z 0.000510 0.000000 1.939710 
# 
# From -- ./inp_files/7623.got.cif
#   From: 2010.06.25/outbox.cif.g09.slc.cpg/sg9_4_cif.got.tgz:7623.got - 2010.06.27 21:40:51.
