data_PCOD8055176
_publ_section_title
;
Structure prediction by ZEFSAII (Michael W. Deem and Ramdas Pophale) SiO2 
 PCOD8055176
Probable space group: C C
;
_chemical_formula_sum "Si O2"
_cell_formula_units_Z 28
_cell_length_a 14.895731
_cell_length_b 11.754572
_cell_length_c 8.998481
_cell_angle_alpha 90.000000
_cell_angle_beta 56.295287
_cell_angle_gamma 90.000000
_cell_volume 1310.730472
_symmetry_space_group_name_H-M "C C"
_symmetry_group_IT_number 9
_symmetry_cell_setting 'monoclinic'
loop_
_space_group_symop_operation_xyz
x,y,z
x,-y,1/2+z
1/2+x,1/2+y,z
1/2+x,1/2-y,1/2+z
loop_
_atom_site_type_symbol
_atom_site_label
_atom_site_fract_x
_atom_site_fract_y
_atom_site_fract_z
Si Si1 0.238930 0.927266 0.345310
Si Si2 0.456156 0.787728 0.146090
Si Si3 0.341685 0.619442 0.921864
Si Si4 0.797780 0.905333 0.784135
Si Si5 0.217938 0.195467 0.392564
Si Si6 0.570617 0.319056 0.287343
Si Si7 0.155428 0.744103 0.626387
O O1 0.363145 0.882813 0.218998
O O2 0.169228 0.892417 0.265638
O O3 0.180668 0.871240 0.541568
O O4 0.242468 0.062403 0.355443
O O5 0.409619 0.660955 0.198616
O O6 0.529780 0.794651 0.227109
O O7 0.534471 0.786174 0.927755
O O8 0.310053 0.534836 0.819969
O O9 0.321548 0.745785 0.874868
O O10 0.466679 0.602107 0.849924
O O11 0.266448 0.599938 0.137587
O O12 0.713556 0.846531 0.969083
O O13 0.113656 0.224070 0.589147
O O14 0.193915 0.258070 0.259500
#
# Coordination Sequence:
#
# PCOD8055176 Si02
#       7
#     4   4   4   4   4   4   4
#     4  10  22  42  67  96 132 174 222 273 329 393
#     4   9  20  42  66  90 129 180 212 268 333 395
#     4  11  24  41  66  96 132 171 216 275 326 394
#     4  10  22  41  67  92 130 173 222 264 330 389
#     4  12  24  39  64 104 132 165 225 280 326 395
#     4  10  22  38  66  94 129 172 218 269 329 391
#     4  10  22  39  66  94 132 173 219 271 327 391
#
# _framework density 21.362133
#
# number of rings (size 3 to 8) (size 9 to 14) (size 15 to 20)
#    0.000    1.714    0.000    5.143    8.000    2.286 
#    2.571    0.000    9.429    0.000    0.000    0.000 
#    0.000    0.000    0.000    0.000    0.000    0.000 
#
# Total GULP energy -173486.390289 kJ/mol
# GULP energy per Si atom -12391.885021 kJ/mol
# Density = 2.131351 g / cm^3
# Si number density = 21.362133 Si / 1000 Ang^3
#
#
#
# Elastic Constant Matrix: (Units=GPa)
#
#
# Indices 1 2 3 4 5 6 
#
# 1 135.7548 66.4175 58.5830 0.0000 7.0719 0.0000
# 2 66.4175 92.0222 34.6869 0.0000 -0.4880 0.0000
# 3 58.5830 34.6869 109.5980 0.0000 7.8761 0.0000
# 4 0.0000 0.0000 0.0000 24.1185 0.0000 8.1148
# 5 7.0719 -0.4880 7.8761 0.0000 36.5528 0.0000
# 6 0.0000 0.0000 0.0000 8.1148 0.0000 20.6963
#
#
#
# Elastic Compliance Matrix: (Units=1/GPa)
#
#
# Indices 1 2 3 4 5 6 
#
# 1 0.013234 -0.007881 -0.004457 0.000000 -0.001705 0.000000
# 2 -0.007881 0.017070 -0.001337 0.000000 0.002041 0.000000
# 3 -0.004457 -0.001337 0.012056 0.000000 -0.001753 0.000000
# 4 0.000000 0.000000 0.000000 0.047763 0.000000 -0.018727
# 5 -0.001705 0.002041 -0.001753 0.000000 0.028093 0.000000
# 6 0.000000 0.000000 0.000000 -0.018727 0.000000 0.055661
#
#
# Mechanical properties :
#
#
# Convention : Reuss Voigt Hill
#
# Bulk Modulus (GPa) = 66.62074 72.97221 69.79648
# Shear Modulus (GPa) = 24.24504 28.11937 26.18220
#
# Velocity S-wave (km/s) = 3.37256 3.63205 3.50471
# Velocity P-wave (km/s) = 6.81320 7.19880 7.00865
#
# Compressibility (1/GPa) = 0.01501034
#
# Stress axis : x y z
#
# Youngs Moduli (GPa) = 75.56228 58.58401 82.94773
#
# Poissons Ratio (x) = 0.46168 0.36972
# Poissons Ratio (y) = 0.59548 0.11087
# Poissons Ratio (z) = 0.33680 0.07830
#
# Static dielectric constant tensor:
#      x y z
#    x 3.969210 0.000000 0.072810 
#    y 0.000000 3.592710 0.000000 
#    z 0.072810 0.000000 4.142370 
# 
# 
# High freq. dielectric constant tensor:
#      x y z
#    x 1.843810 0.000000 0.006570 
#    y 0.000000 1.813730 0.000000 
#    z 0.006570 0.000000 1.844260 
# 
# From -- ./inp_files/9027.got.cif
#   From: 2010.06.25/outbox.cif.g09.slc.cpg/sg9_5_cif.got.tgz:9027.got - 2010.06.27 21:40:51.
