data_PCOD8055790
_publ_section_title
;
Structure prediction by ZEFSAII (Michael W. Deem and Ramdas Pophale) SiO2 
 PCOD8055790
Probable space group: C C
;
_chemical_formula_sum "Si O2"
_cell_formula_units_Z 28
_cell_length_a 5.091411
_cell_length_b 8.997370
_cell_length_c 27.230088
_cell_angle_alpha 90.000000
_cell_angle_beta 79.374611
_cell_angle_gamma 90.000000
_cell_volume 1226.003405
_symmetry_space_group_name_H-M "C C"
_symmetry_group_IT_number 9
_symmetry_cell_setting 'monoclinic'
loop_
_space_group_symop_operation_xyz
x,y,z
x,-y,1/2+z
1/2+x,1/2+y,z
1/2+x,1/2-y,1/2+z
loop_
_atom_site_type_symbol
_atom_site_label
_atom_site_fract_x
_atom_site_fract_y
_atom_site_fract_z
Si Si1 0.656960 0.280564 0.462140
Si Si2 0.047516 0.497434 0.918710
Si Si3 0.326818 0.571142 0.810584
Si Si4 0.997914 0.584886 0.121403
Si Si5 0.115022 0.654767 0.009418
Si Si6 0.362697 0.238464 0.773845
Si Si7 0.462595 0.753850 0.158416
O O1 0.580989 0.180608 0.416786
O O2 0.405105 0.273551 0.508318
O O3 0.743371 0.438739 0.433659
O O4 0.903988 0.233633 0.489738
O O5 0.192692 0.575280 0.868511
O O6 0.190437 0.529173 0.966385
O O7 0.398245 0.404727 0.792293
O O8 0.596152 0.666019 0.805026
O O9 0.122747 0.643233 0.778973
O O10 0.987386 0.587917 0.062816
O O11 0.243732 0.685487 0.129923
O O12 0.042869 0.417541 0.137709
O O13 0.722862 0.649890 0.151918
O O14 0.333786 0.238263 0.716427
#
# Coordination Sequence:
#
# PCOD8055790 Si02
#       7
#     4   4   4   4   4   4   4
#     4  10  24  40  64  90 140 171 221 271 329 391
#     4  10  26  40  66  95 137 174 225 272 335 408
#     4  12  26  43  74 100 137 181 230 279 354 407
#     4  12  26  43  74 100 137 181 229 281 352 410
#     4  10  26  40  66  95 137 173 227 270 337 406
#     4  12  26  48  71 103 137 179 233 293 342 408
#     4  12  26  48  71 103 137 179 233 292 345 404
#
# _framework density 22.838433999999999
#
# number of rings (size 3 to 8) (size 9 to 14) (size 15 to 20)
#    0.857    0.000    0.000    6.000   10.000    0.000 
#    0.000    0.000    0.000    0.000    0.000    0.000 
#    0.000    0.000    0.000    0.000    0.000    0.000 
#
# Total GULP energy -173481.496178 kJ/mol
# GULP energy per Si atom -12391.535441 kJ/mol
# Density = 2.278645 g / cm^3
# Si number density = 22.838434 Si / 1000 Ang^3
#
#
#
# Elastic Constant Matrix: (Units=GPa)
#
#
# Indices 1 2 3 4 5 6 
#
# 1 129.0949 30.1024 -1.5093 0.0000 -12.5642 0.0000
# 2 30.1024 85.9554 32.5937 0.0000 4.1566 0.0000
# 3 -1.5093 32.5937 102.0492 0.0000 -8.2432 0.0000
# 4 0.0000 0.0000 0.0000 31.3238 0.0000 5.4373
# 5 -12.5642 4.1566 -8.2432 0.0000 27.1863 0.0000
# 6 0.0000 0.0000 0.0000 5.4373 0.0000 27.9024
#
#
#
# Elastic Compliance Matrix: (Units=1/GPa)
#
#
# Indices 1 2 3 4 5 6 
#
# 1 0.009303 -0.004264 0.001947 0.000000 0.005542 0.000000
# 2 -0.004264 0.015504 -0.005500 0.000000 -0.006009 0.000000
# 3 0.001947 -0.005500 0.012020 0.000000 0.005385 0.000000
# 4 0.000000 0.000000 0.000000 0.033042 0.000000 -0.006439
# 5 0.005542 -0.006009 0.005385 0.000000 0.041896 0.000000
# 6 0.000000 0.000000 0.000000 -0.006439 0.000000 0.037094
#
#
# Mechanical properties :
#
#
# Convention : Reuss Voigt Hill
#
# Bulk Modulus (GPa) = 47.18866 48.83033 48.00949
# Shear Modulus (GPa) = 29.14499 34.34336 31.74418
#
# Velocity S-wave (km/s) = 3.57618 3.88203 3.73224
# Velocity P-wave (km/s) = 6.14483 6.44366 6.29602
#
# Compressibility (1/GPa) = 0.02119153
#
# Stress axis : x y z
#
# Youngs Moduli (GPa) = 107.49591 64.50154 83.19667
#
# Poissons Ratio (x) = 0.27505 -0.16200
# Poissons Ratio (y) = 0.45839 0.45759
# Poissons Ratio (z) = -0.20931 0.35477
#
# Static dielectric constant tensor:
#      x y z
#    x 4.143060 0.000000 -0.049090 
#    y 0.000000 4.183750 0.000000 
#    z -0.049090 0.000000 4.085050 
# 
# 
# High freq. dielectric constant tensor:
#      x y z
#    x 1.912880 0.000000 -0.005690 
#    y 0.000000 1.898260 0.000000 
#    z -0.005690 0.000000 1.907730 
# 
# From -- ./inp_files/36243.got.cif
#   From: 2010.06.25/outbox.cif.g09.slc.cpg/sg9_19_cif.got.tgz:36243.got - 2010.06.27 21:40:51.
