data_PCOD8055621
_publ_section_title
;
Structure prediction by ZEFSAII (Michael W. Deem and Ramdas Pophale) SiO2 
 PCOD8055621
Probable space group: C C
;
_chemical_formula_sum "Si O2"
_cell_formula_units_Z 32
_cell_length_a 13.219279
_cell_length_b 9.252852
_cell_length_c 22.043701
_cell_angle_alpha 90.000000
_cell_angle_beta 31.936306
_cell_angle_gamma 90.000000
_cell_volume 1426.277457
_symmetry_space_group_name_H-M "C C"
_symmetry_group_IT_number 9
_symmetry_cell_setting 'monoclinic'
loop_
_space_group_symop_operation_xyz
x,y,z
x,-y,1/2+z
1/2+x,1/2+y,z
1/2+x,1/2-y,1/2+z
loop_
_atom_site_type_symbol
_atom_site_label
_atom_site_fract_x
_atom_site_fract_y
_atom_site_fract_z
Si Si1 0.692700 0.454249 0.913220
Si Si2 0.029124 0.660567 0.745804
Si Si3 0.879602 0.833573 0.555772
Si Si4 0.742127 0.145208 0.849290
Si Si5 0.425801 0.988695 0.074586
Si Si6 0.193463 0.493744 0.053398
Si Si7 0.984711 0.041350 0.308941
Si Si8 0.346102 0.437573 0.164945
O O1 0.885499 0.531633 0.837400
O O2 0.744886 0.319095 0.843366
O O3 0.568752 0.574376 0.939848
O O4 0.566434 0.396178 0.034992
O O5 0.120978 0.635766 0.633125
O O6 0.925413 0.816270 0.800333
O O7 0.197653 0.673255 0.709849
O O8 0.934289 0.669938 0.540628
O O9 0.727530 0.861430 0.577941
O O10 0.799810 0.903409 0.659640
O O11 0.819666 0.068402 0.749698
O O12 0.890238 0.098955 0.826340
O O13 0.526772 0.091503 0.973591
O O14 0.534759 0.012537 0.082507
O O15 0.210234 0.028835 0.197248
O O16 0.394690 0.444243 0.921773
#
# Coordination Sequence:
#
# PCOD8055621 Si02
#       8
#     4   4   4   4   4   4   4   4
#     4  10  23  43  68  96 141 177 232 286 355 430
#     4  11  24  43  71  99 136 194 228 287 363 428
#     4   9  23  47  67 103 136 187 235 279 372 426
#     4  11  25  43  65 106 135 176 238 293 351 428
#     4  11  25  46  71 102 144 183 239 305 355 422
#     4  10  25  45  71 101 140 183 246 284 360 438
#     4  11  27  43  67 105 138 180 240 290 362 421
#     4   9  24  42  68  96 138 174 240 278 356 429
#
# _framework density 22.436026999999999
#
# number of rings (size 3 to 8) (size 9 to 14) (size 15 to 20)
#    0.750    1.000    0.000    2.250    8.750    4.000 
#    2.250    0.000    0.000    0.000    0.000    0.000 
#    0.000    0.000    0.000    0.000    0.000    0.000 
#
# Total GULP energy -198275.189358 kJ/mol
# GULP energy per Si atom -12392.199335 kJ/mol
# Density = 2.238496 g / cm^3
# Si number density = 22.436027 Si / 1000 Ang^3
#
#
#
# Elastic Constant Matrix: (Units=GPa)
#
#
# Indices 1 2 3 4 5 6 
#
# 1 98.1593 40.4872 59.8600 0.0000 2.2278 0.0000
# 2 40.4872 133.8535 34.7144 0.0000 -5.0956 0.0000
# 3 59.8600 34.7144 162.6759 -0.0002 -6.4673 0.0001
# 4 0.0000 0.0000 -0.0002 25.9003 -0.0001 -5.5510
# 5 2.2278 -5.0956 -6.4673 -0.0001 37.8610 0.0000
# 6 0.0000 0.0000 0.0001 -5.5510 0.0000 21.2843
#
#
#
# Elastic Compliance Matrix: (Units=1/GPa)
#
#
# Indices 1 2 3 4 5 6 
#
# 1 0.014435 -0.003225 -0.004707 0.000000 -0.002087 0.000000
# 2 -0.003225 0.008652 -0.000610 0.000000 0.001250 0.000000
# 3 -0.004707 -0.000610 0.008072 0.000000 0.001574 0.000000
# 4 0.000000 0.000000 0.000000 0.040896 0.000000 0.010666
# 5 -0.002087 0.001250 0.001574 0.000000 0.026972 0.000000
# 6 0.000000 0.000000 0.000000 0.010666 0.000000 0.049765
#
#
# Mechanical properties :
#
#
# Convention : Reuss Voigt Hill
#
# Bulk Modulus (GPa) = 71.04235 73.86799 72.45517
# Shear Modulus (GPa) = 29.31405 34.31760 31.81582
#
# Velocity S-wave (km/s) = 3.61856 3.91522 3.76981
# Velocity P-wave (km/s) = 7.01369 7.30985 7.16330
#
# Compressibility (1/GPa) = 0.01407611
#
# Stress axis : x y z
#
# Youngs Moduli (GPa) = 69.27458 115.57848 123.88868
#
# Poissons Ratio (x) = 0.37276 0.58309
# Poissons Ratio (y) = 0.22342 0.07556
# Poissons Ratio (z) = 0.32604 0.07049
#
# Static dielectric constant tensor:
#      x y z
#    x 3.774890 0.000000 -0.093000 
#    y 0.000000 3.941060 0.000000 
#    z -0.093000 0.000000 4.227290 
# 
# 
# High freq. dielectric constant tensor:
#      x y z
#    x 1.866710 0.000000 -0.010690 
#    y 0.000000 1.877900 0.000000 
#    z -0.010690 0.000000 1.896600 
# 
# From -- ./inp_files/35569.got.cif
#   From: 2010.06.25/outbox.cif.g09.slc.cpg/sg9_18_cif.got.tgz:35569.got - 2010.06.27 21:40:51.
