data_PCOD8055210
_publ_section_title
;
Structure prediction by ZEFSAII (Michael W. Deem and Ramdas Pophale) SiO2 
 PCOD8055210
Probable space group: C C
;
_chemical_formula_sum "Si O2"
_cell_formula_units_Z 32
_cell_length_a 12.490763
_cell_length_b 13.511891
_cell_length_c 9.354747
_cell_angle_alpha 90.000000
_cell_angle_beta 80.660278
_cell_angle_gamma 90.000000
_cell_volume 1557.906527
_symmetry_space_group_name_H-M "C C"
_symmetry_group_IT_number 9
_symmetry_cell_setting 'monoclinic'
loop_
_space_group_symop_operation_xyz
x,y,z
x,-y,1/2+z
1/2+x,1/2+y,z
1/2+x,1/2-y,1/2+z
loop_
_atom_site_type_symbol
_atom_site_label
_atom_site_fract_x
_atom_site_fract_y
_atom_site_fract_z
Si Si1 0.933000 0.904957 0.917850
Si Si2 0.781760 0.466047 0.545730
Si Si3 0.924897 0.713678 0.093075
Si Si4 0.495102 0.918112 0.959766
Si Si5 0.467055 0.296858 0.382823
Si Si6 0.089229 0.439989 0.644003
Si Si7 0.337436 0.430671 0.622919
Si Si8 0.633614 0.468373 0.320418
O O1 0.888502 0.921295 0.768205
O O2 0.931271 0.789862 0.959934
O O3 0.055385 0.945795 0.897502
O O4 0.861142 0.961727 0.051742
O O5 0.824465 0.360367 0.591776
O O6 0.875167 0.548892 0.533553
O O7 0.739775 0.454522 0.394039
O O8 0.676800 0.500561 0.656505
O O9 0.906857 0.768667 0.248407
O O10 0.037864 0.652769 0.069344
O O11 0.508855 0.800180 0.956618
O O12 0.516267 0.961897 0.798291
O O13 0.585106 0.961735 0.047981
O O14 0.382602 0.349361 0.504741
O O15 0.569495 0.365179 0.323590
O O16 0.209861 0.413518 0.664776
#
# Coordination Sequence:
#
# PCOD8055210 Si02
#       8
#     4   4   4   4   4   4   4   4
#     4  11  23  42  61  89 125 156 202 254 296 360
#     4  11  23  40  63  90 121 161 202 249 306 360
#     4  10  23  40  59  88 124 155 199 253 300 359
#     4  10  22  40  59  87 124 156 200 255 299 356
#     4  10  22  40  60  89 121 155 201 251 299 359
#     4  10  22  40  60  86 119 158 197 246 305 357
#     4  11  23  40  63  88 118 162 201 245 303 357
#     4  11  22  40  63  89 120 161 202 247 304 362
#
# _framework density 20.540384
#
# number of rings (size 3 to 8) (size 9 to 14) (size 15 to 20)
#    0.000    1.500    0.000    6.750    0.000   10.000 
#    0.000    1.250    0.000    0.000    0.000    0.000 
#    0.000    0.000    0.000    0.000    0.000    0.000 
#
# Total GULP energy -198459.412941 kJ/mol
# GULP energy per Si atom -12403.713309 kJ/mol
# Density = 2.049363 g / cm^3
# Si number density = 20.540384 Si / 1000 Ang^3
#
#
#
# Elastic Constant Matrix: (Units=GPa)
#
#
# Indices 1 2 3 4 5 6 
#
# 1 104.3763 42.9177 35.1512 0.0000 4.2012 0.0000
# 2 42.9177 131.1659 40.3343 0.0000 -10.0080 0.0000
# 3 35.1512 40.3343 75.5428 0.0000 -2.3324 0.0000
# 4 0.0000 0.0000 0.0000 41.4634 0.0000 2.9921
# 5 4.2012 -10.0080 -2.3324 0.0000 35.3123 0.0000
# 6 0.0000 0.0000 0.0000 2.9921 0.0000 18.3013
#
#
#
# Elastic Compliance Matrix: (Units=1/GPa)
#
#
# Indices 1 2 3 4 5 6 
#
# 1 0.012316 -0.002919 -0.004252 0.000000 -0.002573 0.000000
# 2 -0.002919 0.009998 -0.003890 0.000000 0.002924 0.000000
# 3 -0.004252 -0.003890 0.017310 0.000000 0.000547 0.000000
# 4 0.000000 0.000000 0.000000 0.024406 0.000000 -0.003990
# 5 -0.002573 0.002924 0.000547 0.000000 0.029490 0.000000
# 6 0.000000 0.000000 0.000000 -0.003990 0.000000 0.055293
#
#
# Mechanical properties :
#
#
# Convention : Reuss Voigt Hill
#
# Bulk Modulus (GPa) = 57.13282 60.87684 59.00483
# Shear Modulus (GPa) = 28.28552 31.86084 30.07318
#
# Velocity S-wave (km/s) = 3.71491 3.94271 3.83051
# Velocity P-wave (km/s) = 6.80265 7.10131 6.95358
#
# Compressibility (1/GPa) = 0.01750308
#
# Stress axis : x y z
#
# Youngs Moduli (GPa) = 81.19234 100.01776 57.77042
#
# Poissons Ratio (x) = 0.29193 0.24564
# Poissons Ratio (y) = 0.23698 0.22472
# Poissons Ratio (z) = 0.34524 0.38906
#
# Static dielectric constant tensor:
#      x y z
#    x 3.586300 0.000000 0.062310 
#    y 0.000000 3.797740 0.000000 
#    z 0.062310 0.000000 3.773690 
# 
# 
# High freq. dielectric constant tensor:
#      x y z
#    x 1.800550 0.000000 0.004630 
#    y 0.000000 1.804670 0.000000 
#    z 0.004630 0.000000 1.815860 
# 
# From -- ./inp_files/7454.got.cif
#   From: 2010.06.25/outbox.cif.g09.slc.cpg/sg9_4_cif.got.tgz:7454.got - 2010.06.27 21:40:51.
