data_PCOD8055329
_publ_section_title
;
Structure prediction by ZEFSAII (Michael W. Deem and Ramdas Pophale) SiO2 
 PCOD8055329
Probable space group: C C
;
_chemical_formula_sum "Si O2"
_cell_formula_units_Z 32
_cell_length_a 13.877968
_cell_length_b 11.320835
_cell_length_c 14.402234
_cell_angle_alpha 90.000000
_cell_angle_beta 37.298258
_cell_angle_gamma 90.000000
_cell_volume 1371.138050
_symmetry_space_group_name_H-M "C C"
_symmetry_group_IT_number 9
_symmetry_cell_setting 'monoclinic'
loop_
_space_group_symop_operation_xyz
x,y,z
x,-y,1/2+z
1/2+x,1/2+y,z
1/2+x,1/2-y,1/2+z
loop_
_atom_site_type_symbol
_atom_site_label
_atom_site_fract_x
_atom_site_fract_y
_atom_site_fract_z
Si Si1 0.310460 0.847975 0.623630
Si Si2 0.194759 0.022063 0.028172
Si Si3 0.474904 0.663193 0.386807
Si Si4 0.275760 0.823093 0.078405
Si Si5 0.456512 0.597148 0.924017
Si Si6 0.032383 0.453900 0.002320
Si Si7 0.378370 0.580444 0.189780
Si Si8 0.913936 0.315240 0.252898
O O1 0.251573 0.922298 0.580663
O O2 0.362453 0.718174 0.551239
O O3 0.147383 0.835622 0.806177
O O4 0.444067 0.919169 0.578088
O O5 0.274878 0.092378 0.882524
O O6 0.003830 0.028178 0.167475
O O7 0.249760 0.886158 0.997751
O O8 0.421262 0.529473 0.401276
O O9 0.486073 0.749237 0.287381
O O10 0.119143 0.843066 0.262362
O O11 0.306196 0.685960 0.028795
O O12 0.434061 0.869843 0.008434
O O13 0.466379 0.564241 0.024771
O O14 0.207482 0.483040 0.828429
O O15 0.046220 0.389885 0.093262
O O16 0.341208 0.718355 0.238781
#
# Coordination Sequence:
#
# PCOD8055329 Si02
#       8
#     4   4   4   4   4   4   4   4
#     4  10  23  43  68 100 141 184 233 287 359 423
#     4  10  22  42  66  96 142 178 236 297 353 407
#     4  11  24  44  72 102 141 190 234 291 355 423
#     4  11  23  45  64 103 140 193 236 298 355 426
#     4  12  24  42  72  97 147 189 242 290 359 422
#     4  11  23  40  68 106 140 177 247 293 352 423
#     4  12  23  36  68 108 136 184 236 300 352 424
#     4  11  22  42  72 104 137 183 240 302 343 430
#
# _framework density 23.338277999999999
#
# number of rings (size 3 to 8) (size 9 to 14) (size 15 to 20)
#    0.000    1.000    5.000    2.250    3.500    0.000 
#    2.250    0.000   11.000    0.000    0.000    0.000 
#    0.000    0.000    0.000    0.000    0.000    0.000 
#
# Total GULP energy -198247.465429 kJ/mol
# GULP energy per Si atom -12390.466589 kJ/mol
# Density = 2.328516 g / cm^3
# Si number density = 23.338278 Si / 1000 Ang^3
#
#
#
# Elastic Constant Matrix: (Units=GPa)
#
#
# Indices 1 2 3 4 5 6 
#
# 1 63.8657 46.4328 39.0021 0.0000 -11.5952 0.0000
# 2 46.4328 155.8126 57.1266 0.0000 -14.8395 0.0000
# 3 39.0021 57.1266 115.9837 0.0000 -18.9974 0.0000
# 4 0.0000 0.0000 0.0000 39.1436 0.0000 0.9279
# 5 -11.5952 -14.8395 -18.9974 0.0000 35.1462 0.0000
# 6 0.0000 0.0000 0.0000 0.9279 0.0000 38.0489
#
#
#
# Elastic Compliance Matrix: (Units=1/GPa)
#
#
# Indices 1 2 3 4 5 6 
#
# 1 0.022506 -0.004676 -0.004797 0.000000 0.002858 0.000000
# 2 -0.004676 0.008862 -0.002668 0.000000 0.000757 0.000000
# 3 -0.004797 -0.002668 0.012184 0.000000 0.003877 0.000000
# 4 0.000000 0.000000 0.000000 0.025562 0.000000 -0.000623
# 5 0.002858 0.000757 0.003877 0.000000 0.031810 0.000000
# 6 0.000000 0.000000 0.000000 -0.000623 0.000000 0.026297
#
#
# Mechanical properties :
#
#
# Convention : Reuss Voigt Hill
#
# Bulk Modulus (GPa) = 51.89623 68.97611 60.43617
# Shear Modulus (GPa) = 31.66028 35.34110 33.50069
#
# Velocity S-wave (km/s) = 3.68718 3.89562 3.79283
# Velocity P-wave (km/s) = 6.35703 7.06071 6.71809
#
# Compressibility (1/GPa) = 0.01926922
#
# Stress axis : x y z
#
# Youngs Moduli (GPa) = 44.43329 112.84353 82.07304
#
# Poissons Ratio (x) = 0.52764 0.39369
# Poissons Ratio (y) = 0.20777 0.21901
# Poissons Ratio (z) = 0.21314 0.30112
#
# Static dielectric constant tensor:
#      x y z
#    x 3.899520 0.000000 -0.103510 
#    y 0.000000 4.584850 0.000000 
#    z -0.103510 0.000000 4.424710 
# 
# 
# High freq. dielectric constant tensor:
#      x y z
#    x 1.889830 0.000000 -0.007530 
#    y 0.000000 1.920230 0.000000 
#    z -0.007530 0.000000 1.930570 
# 
# From -- ./inp_files/25848.got.cif
#   From: 2010.06.25/outbox.cif.g09.slc.cpg/sg9_13_cif.got.tgz:25848.got - 2010.06.27 21:40:51.
