data_PCOD8055860
_publ_section_title
;
Structure prediction by ZEFSAII (Michael W. Deem and Ramdas Pophale) SiO2 
 PCOD8055860
Probable space group: C C
;
_chemical_formula_sum "Si O2"
_cell_formula_units_Z 32
_cell_length_a 22.000755
_cell_length_b 9.021718
_cell_length_c 10.121930
_cell_angle_alpha 90.000000
_cell_angle_beta 134.702053
_cell_angle_gamma 90.000000
_cell_volume 1427.979129
_symmetry_space_group_name_H-M "C C"
_symmetry_group_IT_number 9
_symmetry_cell_setting 'monoclinic'
loop_
_space_group_symop_operation_xyz
x,y,z
x,-y,1/2+z
1/2+x,1/2+y,z
1/2+x,1/2-y,1/2+z
loop_
_atom_site_type_symbol
_atom_site_label
_atom_site_fract_x
_atom_site_fract_y
_atom_site_fract_z
Si Si1 0.255570 0.486969 0.896320
Si Si2 0.270215 0.991121 0.933711
Si Si3 0.524688 0.655983 0.333803
Si Si4 0.860052 0.772031 0.442798
Si Si5 0.637346 0.269085 0.224649
Si Si6 0.571919 0.685933 0.911102
Si Si7 0.655072 0.250142 0.823778
Si Si8 0.889666 0.746737 0.199633
O O1 0.291065 0.593682 0.834379
O O2 0.179996 0.379839 0.732838
O O3 0.208645 0.598761 0.927455
O O4 0.332360 0.386901 0.070082
O O5 0.313872 0.886748 0.889867
O O6 0.221445 0.882572 0.961978
O O7 0.197309 0.097750 0.762292
O O8 0.341134 0.091232 0.112306
O O9 0.546008 0.713633 0.513901
O O10 0.547717 0.484968 0.359181
O O11 0.576635 0.748853 0.303904
O O12 0.424960 0.690967 0.161526
O O13 0.912050 0.771659 0.387002
O O14 0.628220 0.265976 0.369812
O O15 0.479941 0.768136 0.763209
O O16 0.623230 0.726620 0.122527
#
# Coordination Sequence:
#
# PCOD8055860 Si02
#       8
#     4   4   4   4   4   4   4   4
#     4  10  26  42  66 105 135 174 220 288 337 404
#     4  10  24  44  66 101 127 180 225 286 334 404
#     4  12  23  44  67 104 132 182 232 276 340 411
#     4  11  25  46  71  98 141 178 231 281 346 405
#     4  11  26  42  71 100 138 178 228 280 343 405
#     4  12  23  46  67  99 140 183 225 276 346 411
#     4  11  24  42  71  96 137 179 228 277 337 409
#     4  11  25  46  71  97 142 182 223 284 349 401
#
# _framework density 22.409291
#
# number of rings (size 3 to 8) (size 9 to 14) (size 15 to 20)
#    0.000    1.000    5.000    0.000   10.500    2.000 
#    2.250    0.000    0.000    0.000    0.000    0.000 
#    0.000    0.000    0.000    0.000    0.000    0.000 
#
# Total GULP energy -198287.635876 kJ/mol
# GULP energy per Si atom -12392.977242 kJ/mol
# Density = 2.235829 g / cm^3
# Si number density = 22.409291 Si / 1000 Ang^3
#
#
#
# Elastic Constant Matrix: (Units=GPa)
#
#
# Indices 1 2 3 4 5 6 
#
# 1 91.1148 26.4374 25.5018 0.0000 2.4381 0.0000
# 2 26.4374 139.2225 30.3804 0.0000 13.9264 0.0000
# 3 25.5018 30.3804 88.7477 0.0000 5.3147 0.0000
# 4 0.0000 0.0000 0.0000 23.5722 0.0000 7.0279
# 5 2.4381 13.9264 5.3147 0.0000 39.1278 0.0000
# 6 0.0000 0.0000 0.0000 7.0279 0.0000 20.0459
#
#
#
# Elastic Compliance Matrix: (Units=1/GPa)
#
#
# Indices 1 2 3 4 5 6 
#
# 1 0.012294 -0.001713 -0.002961 0.000000 0.000246 0.000000
# 2 -0.001713 0.008236 -0.002176 0.000000 -0.002529 0.000000
# 3 -0.002961 -0.002176 0.012911 0.000000 -0.000795 0.000000
# 4 0.000000 0.000000 0.000000 0.047375 0.000000 -0.016609
# 5 0.000246 -0.002529 -0.000795 0.000000 0.026550 0.000000
# 6 0.000000 0.000000 0.000000 -0.016609 0.000000 0.055709
#
#
# Mechanical properties :
#
#
# Convention : Reuss Voigt Hill
#
# Bulk Modulus (GPa) = 50.65403 53.74716 52.20059
# Shear Modulus (GPa) = 27.26952 32.33352 29.80152
#
# Velocity S-wave (km/s) = 3.49217 3.80262 3.65070
# Velocity P-wave (km/s) = 6.23806 6.58151 6.41209
#
# Compressibility (1/GPa) = 0.01974177
#
# Stress axis : x y z
#
# Youngs Moduli (GPa) = 81.33770 121.42160 77.45246
#
# Poissons Ratio (x) = 0.20800 0.22935
# Poissons Ratio (y) = 0.13934 0.16851
# Poissons Ratio (z) = 0.24085 0.26416
#
# Static dielectric constant tensor:
#      x y z
#    x 3.987180 0.000000 0.290430 
#    y 0.000000 4.251980 0.000000 
#    z 0.290430 0.000000 3.892370 
# 
# 
# High freq. dielectric constant tensor:
#      x y z
#    x 1.875300 0.000000 0.023740 
#    y 0.000000 1.893130 0.000000 
#    z 0.023740 0.000000 1.875850 
# 
# From -- ./inp_files/12421.got.cif
#   From: 2010.06.25/outbox.cif.g09.slc.cpg/sg9_7_cif.got.tgz:12421.got - 2010.06.27 21:40:51.
