data_PCOD8055495
_publ_section_title
;
Structure prediction by ZEFSAII (Michael W. Deem and Ramdas Pophale) SiO2 
 PCOD8055495
Probable space group: C C
;
_chemical_formula_sum "Si O2"
_cell_formula_units_Z 32
_cell_length_a 15.953747
_cell_length_b 11.180790
_cell_length_c 9.344883
_cell_angle_alpha 90.000000
_cell_angle_beta 124.978624
_cell_angle_gamma 90.000000
_cell_volume 1365.799617
_symmetry_space_group_name_H-M "C C"
_symmetry_group_IT_number 9
_symmetry_cell_setting 'monoclinic'
loop_
_space_group_symop_operation_xyz
x,y,z
x,-y,1/2+z
1/2+x,1/2+y,z
1/2+x,1/2-y,1/2+z
loop_
_atom_site_type_symbol
_atom_site_label
_atom_site_fract_x
_atom_site_fract_y
_atom_site_fract_z
Si Si1 0.881100 0.108404 0.080680
Si Si2 0.670101 0.383936 0.025540
Si Si3 0.078346 0.629201 0.002261
Si Si4 0.365860 0.105179 0.915597
Si Si5 0.817569 0.353199 0.925844
Si Si6 0.186329 0.465664 0.889827
Si Si7 0.979868 0.966383 0.403411
Si Si8 0.835431 0.772253 0.153079
O O1 0.882537 0.251422 0.071952
O O2 0.906318 0.071414 0.267877
O O3 0.964757 0.043379 0.059817
O O4 0.768962 0.064875 0.920573
O O5 0.611743 0.260510 0.989078
O O6 0.760898 0.393906 0.226687
O O7 0.711451 0.383355 0.903374
O O8 0.596265 0.498838 0.978439
O O9 0.131700 0.593214 0.202242
O O10 0.103094 0.530076 0.907593
O O11 0.957060 0.637783 0.899128
O O12 0.386232 0.972141 0.995792
O O13 0.361975 0.197336 0.040512
O O14 0.796373 0.313047 0.742162
O O15 0.243757 0.363627 0.035517
O O16 0.941178 0.840854 0.297868
#
# Coordination Sequence:
#
# PCOD8055495 Si02
#       8
#     4   4   4   4   4   4   4   4
#     4  10  22  46  76 105 142 190 252 299 362 450
#     4  12  28  47  71 111 151 189 248 312 377 442
#     4  12  28  44  76 108 146 200 246 303 383 444
#     4  12  29  49  69 107 156 192 245 317 378 442
#     4  11  25  47  70 103 152 190 232 319 375 436
#     4  11  23  48  76 108 143 198 254 304 360 466
#     4  10  25  43  77 106 139 191 249 299 364 440
#     4  10  24  52  75 102 147 202 252 303 371 454
#
# _framework density 23.429499
#
# number of rings (size 3 to 8) (size 9 to 14) (size 15 to 20)
#    0.000    1.000    2.500    3.000   10.500    0.000 
#    2.250    0.000    0.000    0.000    0.000    0.000 
#    0.000    0.000    0.000    0.000    0.000    0.000 
#
# Total GULP energy -198432.393889 kJ/mol
# GULP energy per Si atom -12402.024618 kJ/mol
# Density = 2.337617 g / cm^3
# Si number density = 23.429499 Si / 1000 Ang^3
#
#
#
# Elastic Constant Matrix: (Units=GPa)
#
#
# Indices 1 2 3 4 5 6 
#
# 1 152.2145 47.7045 27.0179 0.0000 -18.9023 0.0000
# 2 47.7045 117.3048 13.8074 0.0000 -8.6251 0.0000
# 3 27.0179 13.8074 42.9143 0.0000 -3.5013 0.0000
# 4 0.0000 0.0000 0.0000 26.1068 0.0000 -2.7553
# 5 -18.9023 -8.6251 -3.5013 0.0000 31.8152 0.0000
# 6 0.0000 0.0000 0.0000 -2.7553 0.0000 47.8649
#
#
#
# Elastic Compliance Matrix: (Units=1/GPa)
#
#
# Indices 1 2 3 4 5 6 
#
# 1 0.008672 -0.002736 -0.004258 0.000000 0.003942 0.000000
# 2 -0.002736 0.009866 -0.001379 0.000000 0.000897 0.000000
# 3 -0.004258 -0.001379 0.026427 0.000000 0.000005 0.000000
# 4 0.000000 0.000000 0.000000 0.038538 0.000000 0.002218
# 5 0.003942 0.000897 0.000005 0.000000 0.034017 0.000000
# 6 0.000000 0.000000 0.000000 0.002218 0.000000 0.021020
#
#
# Mechanical properties :
#
#
# Convention : Reuss Voigt Hill
#
# Bulk Modulus (GPa) = 35.43576 54.38814 44.91195
# Shear Modulus (GPa) = 30.35964 36.08431 33.22198
#
# Velocity S-wave (km/s) = 3.60361 3.92870 3.76966
# Velocity P-wave (km/s) = 5.69841 6.62144 6.17719
#
# Compressibility (1/GPa) = 0.02822008
#
# Stress axis : x y z
#
# Youngs Moduli (GPa) = 115.30782 101.36217 37.84013
#
# Poissons Ratio (x) = 0.27730 0.16113
# Poissons Ratio (y) = 0.31546 0.05217
# Poissons Ratio (z) = 0.49099 0.13974
#
# Static dielectric constant tensor:
#      x y z
#    x 4.364850 0.000000 -0.130170 
#    y 0.000000 4.456050 0.000000 
#    z -0.130170 0.000000 4.170330 
# 
# 
# High freq. dielectric constant tensor:
#      x y z
#    x 1.927370 0.000000 -0.011950 
#    y 0.000000 1.941650 0.000000 
#    z -0.011950 0.000000 1.930260 
# 
# From -- ./inp_files/9331.got.cif
#   From: 2010.06.25/outbox.cif.g09.slc.cpg/sg9_5_cif.got.tgz:9331.got - 2010.06.27 21:40:51.
