data_PCOD8055854
_publ_section_title
;
Structure prediction by ZEFSAII (Michael W. Deem and Ramdas Pophale) SiO2 
 PCOD8055854
Probable space group: C C
;
_chemical_formula_sum "Si O2"
_cell_formula_units_Z 28
_cell_length_a 26.754380
_cell_length_b 6.140889
_cell_length_c 9.160643
_cell_angle_alpha 90.000000
_cell_angle_beta 58.739815
_cell_angle_gamma 90.000000
_cell_volume 1286.549761
_symmetry_space_group_name_H-M "C C"
_symmetry_group_IT_number 9
_symmetry_cell_setting 'monoclinic'
loop_
_space_group_symop_operation_xyz
x,y,z
x,-y,1/2+z
1/2+x,1/2+y,z
1/2+x,1/2-y,1/2+z
loop_
_atom_site_type_symbol
_atom_site_label
_atom_site_fract_x
_atom_site_fract_y
_atom_site_fract_z
Si Si1 0.612220 0.553259 0.830630
Si Si2 0.668920 0.053325 0.414098
Si Si3 0.935237 0.298394 0.804780
Si Si4 0.216624 0.768145 0.605599
Si Si5 0.890586 0.995734 0.122386
Si Si6 0.564539 0.231844 0.139106
Si Si7 0.345929 0.798373 0.439998
O O1 0.640516 0.750019 0.872502
O O2 0.666351 0.446700 0.662221
O O3 0.563645 0.629565 0.788878
O O4 0.578090 0.384970 0.982311
O O5 0.717512 0.129777 0.455740
O O6 0.703057 0.885201 0.262298
O O7 0.614844 0.946576 0.582540
O O8 0.890579 0.499997 0.872379
O O9 0.001891 0.385117 0.710155
O O10 0.930151 0.158913 0.664214
O O11 0.927911 0.148459 0.958621
O O12 0.279273 0.885052 0.534633
O O13 0.853252 0.148419 0.286171
O O14 0.851026 0.841066 0.080560
#
# Coordination Sequence:
#
# PCOD8055854 Si02
#       7
#     4   4   4   4   4   4   4
#     4  11  23  42  65  99 128 174 214 273 333 391
#     4  11  23  42  65  99 128 174 214 273 333 391
#     4  11  24  44  68  96 135 178 223 281 335 400
#     4  11  24  42  67  96 131 170 222 269 332 400
#     4  10  24  44  64 100 126 176 230 268 344 390
#     4  11  24  42  67  96 131 170 222 269 332 400
#     4  11  24  44  68  96 135 178 223 281 335 400
#
# _framework density 21.763638
#
# number of rings (size 3 to 8) (size 9 to 14) (size 15 to 20)
#    0.000    1.143    2.857    2.571    0.000    9.143 
#    0.000    0.000    0.000    0.000    0.000    0.000 
#    0.000    0.000    0.000    0.000    0.000    0.000 
#
# Total GULP energy -173596.332841 kJ/mol
# GULP energy per Si atom -12399.738060 kJ/mol
# Density = 2.171410 g / cm^3
# Si number density = 21.763638 Si / 1000 Ang^3
#
#
#
# Elastic Constant Matrix: (Units=GPa)
#
#
# Indices 1 2 3 4 5 6 
#
# 1 159.0760 49.9138 60.4856 0.0000 -13.9330 0.0000
# 2 49.9138 98.8177 33.1813 0.0000 -4.1757 0.0000
# 3 60.4856 33.1813 93.3407 0.0000 16.0740 0.0000
# 4 0.0000 0.0000 0.0000 19.6380 0.0000 0.9028
# 5 -13.9330 -4.1757 16.0740 0.0000 37.6092 0.0000
# 6 0.0000 0.0000 0.0000 0.9028 0.0000 37.9830
#
#
#
# Elastic Compliance Matrix: (Units=1/GPa)
#
#
# Indices 1 2 3 4 5 6 
#
# 1 0.010270 -0.002622 -0.006830 0.000000 0.006433 0.000000
# 2 -0.002622 0.012544 -0.003058 0.000000 0.001728 0.000000
# 3 -0.006830 -0.003058 0.018049 0.000000 -0.010584 0.000000
# 4 0.000000 0.000000 0.000000 0.050977 0.000000 -0.001212
# 5 0.006433 0.001728 -0.010584 0.000000 0.033688 0.000000
# 6 0.000000 0.000000 0.000000 -0.001212 0.000000 0.026356
#
#
# Mechanical properties :
#
#
# Convention : Reuss Voigt Hill
#
# Bulk Modulus (GPa) = 63.12178 70.93287 67.02732
# Shear Modulus (GPa) = 27.44458 32.88962 30.16710
#
# Velocity S-wave (km/s) = 3.55495 3.89166 3.72711
# Velocity P-wave (km/s) = 6.77617 7.27024 7.02755
#
# Compressibility (1/GPa) = 0.01584239
#
# Stress axis : x y z
#
# Youngs Moduli (GPa) = 97.37517 79.72105 55.40374
#
# Poissons Ratio (x) = 0.20902 0.37844
# Poissons Ratio (y) = 0.25530 0.16941
# Poissons Ratio (z) = 0.66512 0.24377
#
# Static dielectric constant tensor:
#      x y z
#    x 3.865120 0.000000 0.210540 
#    y 0.000000 4.121630 0.000000 
#    z 0.210540 0.000000 4.039180 
# 
# 
# High freq. dielectric constant tensor:
#      x y z
#    x 1.862270 0.000000 0.014470 
#    y 0.000000 1.854410 0.000000 
#    z 0.014470 0.000000 1.865730 
# 
# From -- ./inp_files/11913.got.cif
#   From: 2010.06.25/outbox.cif.g09.slc.cpg/sg9_6_cif.got.tgz:11913.got - 2010.06.27 21:40:51.
