data_PCOD8055065
_publ_section_title
;
Structure prediction by ZEFSAII (Michael W. Deem and Ramdas Pophale) SiO2 
 PCOD8055065
Probable space group: C C
;
_chemical_formula_sum "Si O2"
_cell_formula_units_Z 28
_cell_length_a 12.375807
_cell_length_b 12.480954
_cell_length_c 8.800310
_cell_angle_alpha 90.000000
_cell_angle_beta 64.438924
_cell_angle_gamma 90.000000
_cell_volume 1226.270871
_symmetry_space_group_name_H-M "C C"
_symmetry_group_IT_number 9
_symmetry_cell_setting 'monoclinic'
loop_
_space_group_symop_operation_xyz
x,y,z
x,-y,1/2+z
1/2+x,1/2+y,z
1/2+x,1/2-y,1/2+z
loop_
_atom_site_type_symbol
_atom_site_label
_atom_site_fract_x
_atom_site_fract_y
_atom_site_fract_z
Si Si1 0.755100 0.806503 0.469390
Si Si2 0.385033 0.918571 0.331183
Si Si3 0.476424 0.597556 0.696400
Si Si4 0.041205 0.243358 0.399647
Si Si5 0.640017 0.400897 0.587462
Si Si6 0.405373 0.882496 0.974166
Si Si7 0.123737 0.242656 0.820304
O O1 0.848691 0.900624 0.363511
O O2 0.636136 0.814319 0.437515
O O3 0.816919 0.689181 0.422854
O O4 0.718556 0.817690 0.670749
O O5 0.452765 0.813478 0.350466
O O6 0.269477 0.957477 0.506932
O O7 0.353137 0.914490 0.172165
O O8 0.460934 0.023678 0.332811
O O9 0.458053 0.669769 0.557666
O O10 0.525515 0.478385 0.624088
O O11 0.580674 0.649251 0.733064
O O12 0.119398 0.162306 0.253352
O O13 0.676977 0.315539 0.433767
O O14 0.517900 0.811564 0.953027
#
# Coordination Sequence:
#
# PCOD8055065 Si02
#       7
#     4   4   4   4   4   4   4
#     4  10  22  46  68  97 138 185 221 284 351 408
#     4  12  26  41  69 102 134 180 235 287 341 417
#     4  10  23  39  70 100 135 180 229 284 348 417
#     4  11  24  43  65 100 141 176 227 285 347 414
#     4  12  23  42  70 104 134 176 234 289 342 410
#     4  11  25  42  68  99 132 183 235 282 345 415
#     4  10  21  43  66  96 140 178 227 285 352 409
#
# _framework density 22.833452999999999
#
# number of rings (size 3 to 8) (size 9 to 14) (size 15 to 20)
#    0.000    1.143    2.857    3.429   10.000    0.000 
#    0.000    7.143    0.000    0.000    0.000    0.000 
#    0.000    0.000    0.000    0.000    0.000    0.000 
#
# Total GULP energy -173465.351789 kJ/mol
# GULP energy per Si atom -12390.382271 kJ/mol
# Density = 2.278148 g / cm^3
# Si number density = 22.833453 Si / 1000 Ang^3
#
#
#
# Elastic Constant Matrix: (Units=GPa)
#
#
# Indices 1 2 3 4 5 6 
#
# 1 64.0304 14.5880 29.1790 0.0000 -4.1185 0.0000
# 2 14.5880 59.4741 19.9469 0.0000 -2.7419 0.0000
# 3 29.1790 19.9469 119.7095 0.0000 -13.2509 0.0000
# 4 0.0000 0.0000 0.0000 33.6720 0.0000 0.5959
# 5 -4.1185 -2.7419 -13.2509 0.0000 43.5811 0.0000
# 6 0.0000 0.0000 0.0000 0.5959 0.0000 21.3226
#
#
#
# Elastic Compliance Matrix: (Units=1/GPa)
#
#
# Indices 1 2 3 4 5 6 
#
# 1 0.018110 -0.003134 -0.003854 0.000000 0.000342 0.000000
# 2 -0.003134 0.018354 -0.002276 0.000000 0.000167 0.000000
# 3 -0.003854 -0.002276 0.009951 0.000000 0.002518 0.000000
# 4 0.000000 0.000000 0.000000 0.029713 0.000000 -0.000830
# 5 0.000342 0.000167 0.002518 0.000000 0.023754 0.000000
# 6 0.000000 0.000000 0.000000 -0.000830 0.000000 0.046922
#
#
# Mechanical properties :
#
#
# Convention : Reuss Voigt Hill
#
# Bulk Modulus (GPa) = 35.85904 41.18243 38.52073
# Shear Modulus (GPa) = 28.63247 31.68181 30.15714
#
# Velocity S-wave (km/s) = 3.54499 3.72898 3.63815
# Velocity P-wave (km/s) = 5.70040 6.05108 5.87836
#
# Compressibility (1/GPa) = 0.02788697
#
# Stress axis : x y z
#
# Youngs Moduli (GPa) = 55.21833 54.48493 100.49242
#
# Poissons Ratio (x) = 0.17074 0.38732
# Poissons Ratio (y) = 0.17303 0.22872
# Poissons Ratio (z) = 0.21282 0.12401
#
# Static dielectric constant tensor:
#      x y z
#    x 3.827500 0.000000 -0.234700 
#    y 0.000000 3.868970 0.000000 
#    z -0.234700 0.000000 4.439140 
# 
# 
# High freq. dielectric constant tensor:
#      x y z
#    x 1.889300 0.000000 -0.005240 
#    y 0.000000 1.881290 0.000000 
#    z -0.005240 0.000000 1.920920 
# 
# From -- ./inp_files/9017.got.cif
#   From: 2010.06.25/outbox.cif.g09.slc.cpg/sg9_5_cif.got.tgz:9017.got - 2010.06.27 21:40:51.
