data_PCOD8055275
_publ_section_title
;
Structure prediction by ZEFSAII (Michael W. Deem and Ramdas Pophale) SiO2 
 PCOD8055275
Probable space group: C C
;
_chemical_formula_sum "Si O2"
_cell_formula_units_Z 32
_cell_length_a 15.637994
_cell_length_b 17.685727
_cell_length_c 9.737973
_cell_angle_alpha 90.000000
_cell_angle_beta 150.417392
_cell_angle_gamma 90.000000
_cell_volume 1329.585348
_symmetry_space_group_name_H-M "C C"
_symmetry_group_IT_number 9
_symmetry_cell_setting 'monoclinic'
loop_
_space_group_symop_operation_xyz
x,y,z
x,-y,1/2+z
1/2+x,1/2+y,z
1/2+x,1/2-y,1/2+z
loop_
_atom_site_type_symbol
_atom_site_label
_atom_site_fract_x
_atom_site_fract_y
_atom_site_fract_z
Si Si1 0.958480 0.720111 0.195060
Si Si2 0.310778 0.223021 0.558441
Si Si3 0.074596 0.039954 0.014719
Si Si4 0.696036 0.434633 0.967090
Si Si5 0.195894 0.307499 0.637042
Si Si6 0.758963 0.319266 0.685992
Si Si7 0.091484 0.532819 0.064334
Si Si8 0.187542 0.423422 0.974813
O O1 0.893485 0.688808 0.250481
O O2 0.070710 0.793815 0.375474
O O3 0.089349 0.656695 0.315250
O O4 0.805332 0.746092 0.879236
O O5 0.179362 0.155320 0.420718
O O6 0.237163 0.297695 0.531514
O O7 0.318661 0.229375 0.403583
O O8 0.496764 0.211098 0.886079
O O9 0.101156 0.020692 0.211401
O O10 0.236027 0.092728 0.191827
O O11 0.094419 0.960593 0.961913
O O12 0.893210 0.083255 0.736688
O O13 0.897076 0.454683 0.245662
O O14 0.219323 0.395731 0.708039
O O15 0.160749 0.457827 0.087674
O O16 0.105076 0.519606 0.246886
#
# Coordination Sequence:
#
# PCOD8055275 Si02
#       8
#     4   4   4   4   4   4   4   4
#     4  12  24  43  68  96 132 176 223 282 340 404
#     4  10  23  40  63  96 131 172 226 279 337 405
#     4  11  23  41  63  95 134 179 228 281 343 412
#     4  10  22  41  64  93 133 177 228 284 342 407
#     4  11  23  42  66  94 133 175 226 281 336 403
#     4  11  23  40  64  93 130 173 223 278 340 405
#     4  11  24  44  67  99 136 181 231 282 342 411
#     4  12  26  43  67 100 137 179 231 285 344 411
#
# _framework density 24.067655999999999
#
# number of rings (size 3 to 8) (size 9 to 14) (size 15 to 20)
#    0.000    1.000    0.000    7.500    0.000    6.000 
#    0.000    0.000    0.000    0.000    0.000    0.000 
#    0.000    0.000    0.000    0.000    0.000    0.000 
#
# Total GULP energy -198384.793333 kJ/mol
# GULP energy per Si atom -12399.049583 kJ/mol
# Density = 2.401288 g / cm^3
# Si number density = 24.067656 Si / 1000 Ang^3
#
#
#
# Elastic Constant Matrix: (Units=GPa)
#
#
# Indices 1 2 3 4 5 6 
#
# 1 71.3793 14.2583 40.9715 0.0000 -10.0648 0.0000
# 2 14.2583 50.3813 29.6096 0.0000 1.4319 0.0000
# 3 40.9715 29.6096 123.8251 0.0000 -12.2299 0.0000
# 4 0.0000 0.0000 0.0000 24.9933 0.0000 -6.7148
# 5 -10.0648 1.4319 -12.2299 0.0000 43.3749 0.0000
# 6 0.0000 0.0000 0.0000 -6.7148 0.0000 30.2960
#
#
#
# Elastic Compliance Matrix: (Units=1/GPa)
#
#
# Indices 1 2 3 4 5 6 
#
# 1 0.017743 -0.002105 -0.005096 0.000000 0.002750 0.000000
# 2 -0.002105 0.023586 -0.005214 0.000000 -0.002737 0.000000
# 3 -0.005096 -0.005214 0.011222 0.000000 0.002154 0.000000
# 4 0.000000 0.000000 0.000000 0.042544 0.000000 0.009429
# 5 0.002750 -0.002737 0.002154 0.000000 0.024390 0.000000
# 6 0.000000 0.000000 0.000000 0.009429 0.000000 0.035098
#
#
# Mechanical properties :
#
#
# Convention : Reuss Voigt Hill
#
# Bulk Modulus (GPa) = 36.07286 46.14051 41.10668
# Shear Modulus (GPa) = 26.50372 30.44925 28.47649
#
# Velocity S-wave (km/s) = 3.32206 3.56076 3.44348
# Velocity P-wave (km/s) = 5.45302 6.00983 5.73818
#
# Compressibility (1/GPa) = 0.02772167
#
# Stress axis : x y z
#
# Youngs Moduli (GPa) = 56.36073 42.39731 89.11390
#
# Poissons Ratio (x) = 0.08923 0.45412
# Poissons Ratio (y) = 0.11861 0.46465
# Poissons Ratio (z) = 0.28721 0.22106
#
# Static dielectric constant tensor:
#      x y z
#    x 4.331010 0.000000 -0.151350 
#    y 0.000000 4.136980 0.000000 
#    z -0.151350 0.000000 4.343870 
# 
# 
# High freq. dielectric constant tensor:
#      x y z
#    x 1.960010 0.000000 -0.007780 
#    y 0.000000 1.934620 0.000000 
#    z -0.007780 0.000000 1.966040 
# 
# From -- ./inp_files/10111.got.cif
#   From: 2010.06.25/outbox.cif.g09.slc.cpg/sg9_6_cif.got.tgz:10111.got - 2010.06.27 21:40:51.
