data_PCOD8055945
_publ_section_title
;
Structure prediction by ZEFSAII (Michael W. Deem and Ramdas Pophale) SiO2 
 PCOD8055945
Probable space group: C C
;
_chemical_formula_sum "Si O2"
_cell_formula_units_Z 32
_cell_length_a 12.356053
_cell_length_b 13.230470
_cell_length_c 8.279663
_cell_angle_alpha 90.000000
_cell_angle_beta 119.221476
_cell_angle_gamma 90.000000
_cell_volume 1181.278107
_symmetry_space_group_name_H-M "C C"
_symmetry_group_IT_number 9
_symmetry_cell_setting 'monoclinic'
loop_
_space_group_symop_operation_xyz
x,y,z
x,-y,1/2+z
1/2+x,1/2+y,z
1/2+x,1/2-y,1/2+z
loop_
_atom_site_type_symbol
_atom_site_label
_atom_site_fract_x
_atom_site_fract_y
_atom_site_fract_z
Si Si1 0.125000 0.111530 0.789790
Si Si2 0.901753 0.970491 0.277707
Si Si3 0.414118 0.648697 0.110359
Si Si4 0.470738 0.055455 0.839228
Si Si5 0.302474 0.929510 0.932572
Si Si6 0.178005 0.412274 0.940966
Si Si7 0.158544 0.779602 0.635508
Si Si8 0.177268 0.299115 0.618336
O O1 0.148752 0.184381 0.654884
O O2 0.978280 0.107956 0.720997
O O3 0.180357 0.998596 0.811330
O O4 0.182349 0.151237 0.997812
O O5 0.888225 0.933055 0.448675
O O6 0.961489 0.083339 0.302152
O O7 0.771963 0.991196 0.090421
O O8 0.525948 0.719953 0.132586
O O9 0.286675 0.706919 0.064332
O O10 0.350057 0.091196 0.649484
O O11 0.419260 0.990446 0.949461
O O12 0.555823 0.974436 0.806815
O O13 0.549854 0.153864 0.952560
O O14 0.269987 0.819173 0.832980
O O15 0.223808 0.361442 0.809041
O O16 0.169244 0.334513 0.085059
#
# Coordination Sequence:
#
# PCOD8055945 Si02
#       8
#     4   4   4   4   4   4   4   4
#     4  10  24  48  77 110 154 204 260 322 392 467
#     4  11  23  43  79 103 150 204 262 322 388 465
#     4  11  23  44  76 110 147 201 268 319 388 466
#     4  12  26  45  79 111 158 204 259 322 396 467
#     4  12  24  48  78 112 155 207 259 320 395 469
#     4  11  25  48  78 107 156 208 261 322 395 466
#     4  10  24  48  78 111 152 205 259 322 392 468
#     4  11  25  48  77 114 152 205 264 323 392 470
#
# _framework density 27.089300999999999
#
# number of rings (size 3 to 8) (size 9 to 14) (size 15 to 20)
#    0.000    1.000    5.000    0.750    1.750    5.000 
#    6.750    0.000    0.000    0.000    0.000    0.000 
#    0.000    0.000    0.000    0.000    0.000    0.000 
#
# Total GULP energy -198224.947683 kJ/mol
# GULP energy per Si atom -12389.059230 kJ/mol
# Density = 2.702764 g / cm^3
# Si number density = 27.089301 Si / 1000 Ang^3
#
#
#
# Elastic Constant Matrix: (Units=GPa)
#
#
# Indices 1 2 3 4 5 6 
#
# 1 146.7808 34.6903 30.5169 0.0000 -17.5421 0.0000
# 2 34.6903 93.7586 50.6630 0.0000 -13.1363 0.0000
# 3 30.5169 50.6630 116.6680 0.0000 4.3097 0.0000
# 4 0.0000 0.0000 0.0000 36.4477 0.0000 -17.0231
# 5 -17.5421 -13.1363 4.3097 0.0000 36.8287 0.0000
# 6 0.0000 0.0000 0.0000 -17.0231 0.0000 33.4937
#
#
#
# Elastic Compliance Matrix: (Units=1/GPa)
#
#
# Indices 1 2 3 4 5 6 
#
# 1 0.007912 -0.001664 -0.001471 0.000000 0.003347 0.000000
# 2 -0.001664 0.015590 -0.006539 0.000000 0.005534 0.000000
# 3 -0.001471 -0.006539 0.011959 0.000000 -0.004432 0.000000
# 4 0.000000 0.000000 0.000000 0.035977 0.000000 0.018285
# 5 0.003347 0.005534 -0.004432 0.000000 0.031239 0.000000
# 6 0.000000 0.000000 0.000000 0.018285 0.000000 0.039150
#
#
# Mechanical properties :
#
#
# Convention : Reuss Voigt Hill
#
# Bulk Modulus (GPa) = 62.05733 65.43865 63.74799
# Shear Modulus (GPa) = 30.02179 37.44317 33.73248
#
# Velocity S-wave (km/s) = 3.33265 3.72185 3.53261
# Velocity P-wave (km/s) = 6.14548 6.53289 6.34214
#
# Compressibility (1/GPa) = 0.01611413
#
# Stress axis : x y z
#
# Youngs Moduli (GPa) = 126.39214 64.14354 83.61622
#
# Poissons Ratio (x) = 0.10671 0.12297
# Poissons Ratio (y) = 0.21028 0.54678
# Poissons Ratio (z) = 0.18589 0.41945
#
# Static dielectric constant tensor:
#      x y z
#    x 4.948210 0.000000 -0.146190 
#    y 0.000000 4.785970 0.000000 
#    z -0.146190 0.000000 4.721230 
# 
# 
# High freq. dielectric constant tensor:
#      x y z
#    x 2.099250 0.000000 -0.012350 
#    y 0.000000 2.096260 0.000000 
#    z -0.012350 0.000000 2.091540 
# 
# From -- ./inp_files/7657.got.cif
#   From: 2010.06.25/outbox.cif.g09.slc.cpg/sg9_4_cif.got.tgz:7657.got - 2010.06.27 21:40:51.
