data_PCOD8055181
_publ_section_title
;
Structure prediction by ZEFSAII (Michael W. Deem and Ramdas Pophale) SiO2 
 PCOD8055181
Probable space group: C C
;
_chemical_formula_sum "Si O2"
_cell_formula_units_Z 32
_cell_length_a 10.753865
_cell_length_b 10.789998
_cell_length_c 13.401690
_cell_angle_alpha 90.000000
_cell_angle_beta 92.625795
_cell_angle_gamma 90.000000
_cell_volume 1553.421399
_symmetry_space_group_name_H-M "C C"
_symmetry_group_IT_number 9
_symmetry_cell_setting 'monoclinic'
loop_
_space_group_symop_operation_xyz
x,y,z
x,-y,1/2+z
1/2+x,1/2+y,z
1/2+x,1/2-y,1/2+z
loop_
_atom_site_type_symbol
_atom_site_label
_atom_site_fract_x
_atom_site_fract_y
_atom_site_fract_z
Si Si1 0.471210 0.543020 0.736010
Si Si2 0.871661 0.291612 0.668177
Si Si3 0.659683 0.653102 0.902337
Si Si4 0.992517 0.530025 0.309079
Si Si5 0.884073 0.478507 0.502960
Si Si6 0.589279 0.337544 0.616122
Si Si7 0.377265 0.831181 0.169787
Si Si8 0.751170 0.128690 0.283051
O O1 0.397716 0.645779 0.668913
O O2 0.573492 0.602368 0.811512
O O3 0.543054 0.469413 0.653307
O O4 0.374687 0.456599 0.795284
O O5 0.931606 0.364500 0.574717
O O6 0.726939 0.317425 0.660103
O O7 0.928328 0.341145 0.774344
O O8 0.765548 0.553863 0.931401
O O9 0.724418 0.785634 0.878866
O O10 0.575227 0.670833 0.996665
O O11 0.132768 0.536113 0.268032
O O12 0.993853 0.518053 0.430010
O O13 0.905362 0.420742 0.263710
O O14 0.838274 0.592217 0.570647
O O15 0.509943 0.229172 0.659277
O O16 0.271407 0.728336 0.192676
#
# Coordination Sequence:
#
# PCOD8055181 Si02
#       8
#     4   4   4   4   4   4   4   4
#     4  11  24  43  66  96 131 169 214 267 320 379
#     4  10  22  39  68  93 128 170 215 264 321 375
#     4  11  22  40  65  92 129 168 213 264 316 381
#     4  11  20  39  67  89 131 170 210 263 319 377
#     4  10  22  38  68  95 125 176 212 263 322 383
#     4  10  23  41  64  94 130 170 213 268 316 381
#     4  10  22  40  61  94 127 166 216 262 318 376
#     4  11  23  40  67  91 129 169 207 263 318 378
#
# _framework density 20.599689999999999
#
# number of rings (size 3 to 8) (size 9 to 14) (size 15 to 20)
#    0.000    1.500    2.500    2.250    3.500    2.000 
#    0.000    6.250    8.250    0.000    0.000    0.000 
#    0.000    0.000    0.000    0.000    0.000    0.000 
#
# Total GULP energy -198300.955041 kJ/mol
# GULP energy per Si atom -12393.809690 kJ/mol
# Density = 2.055280 g / cm^3
# Si number density = 20.599690 Si / 1000 Ang^3
#
#
#
# Elastic Constant Matrix: (Units=GPa)
#
#
# Indices 1 2 3 4 5 6 
#
# 1 85.8319 48.7368 43.8590 0.0000 -11.3735 0.0000
# 2 48.7368 121.2420 51.6567 0.0000 -4.6295 0.0000
# 3 43.8590 51.6567 116.1160 0.0000 -22.7204 0.0000
# 4 0.0000 0.0000 0.0000 15.4717 0.0000 -4.7523
# 5 -11.3735 -4.6295 -22.7204 0.0000 22.6778 0.0000
# 6 0.0000 0.0000 0.0000 -4.7523 0.0000 32.6861
#
#
#
# Elastic Compliance Matrix: (Units=1/GPa)
#
#
# Indices 1 2 3 4 5 6 
#
# 1 0.016812 -0.005231 -0.003212 0.000000 0.004146 0.000000
# 2 -0.005231 0.011978 -0.004214 0.000000 -0.004400 0.000000
# 3 -0.003212 -0.004214 0.013951 0.000000 0.011507 0.000000
# 4 0.000000 0.000000 0.000000 0.067656 0.000000 0.009837
# 5 0.004146 -0.004400 0.011507 0.000000 0.056805 0.000000
# 6 0.000000 0.000000 0.000000 0.009837 0.000000 0.032024
#
#
# Mechanical properties :
#
#
# Convention : Reuss Voigt Hill
#
# Bulk Modulus (GPa) = 57.37969 67.96609 62.67289
# Shear Modulus (GPa) = 21.70627 26.09627 23.90127
#
# Velocity S-wave (km/s) = 3.24962 3.56311 3.40997
# Velocity P-wave (km/s) = 6.48037 7.07058 6.78190
#
# Compressibility (1/GPa) = 0.01742777
#
# Stress axis : x y z
#
# Youngs Moduli (GPa) = 59.48307 83.48536 71.67844
#
# Poissons Ratio (x) = 0.43673 0.23020
# Poissons Ratio (y) = 0.31117 0.30204
# Poissons Ratio (z) = 0.19103 0.35179
#
# Static dielectric constant tensor:
#      x y z
#    x 3.710500 0.000000 -0.244540 
#    y 0.000000 4.064120 0.000000 
#    z -0.244540 0.000000 3.887750 
# 
# 
# High freq. dielectric constant tensor:
#      x y z
#    x 1.804260 0.000000 -0.015190 
#    y 0.000000 1.815940 0.000000 
#    z -0.015190 0.000000 1.798530 
# 
# From -- ./inp_files/16218.got.cif
#   From: 2010.06.25/outbox.cif.g09.slc.cpg/sg9_9_cif.got.tgz:16218.got - 2010.06.27 21:40:51.
