data_PCOD8055632
_publ_section_title
;
Structure prediction by ZEFSAII (Michael W. Deem and Ramdas Pophale) SiO2 
 PCOD8055632
Probable space group: C C
;
_chemical_formula_sum "Si O2"
_cell_formula_units_Z 32
_cell_length_a 8.158976
_cell_length_b 11.921838
_cell_length_c 15.919041
_cell_angle_alpha 90.000000
_cell_angle_beta 108.517864
_cell_angle_gamma 90.000000
_cell_volume 1468.273724
_symmetry_space_group_name_H-M "C C"
_symmetry_group_IT_number 9
_symmetry_cell_setting 'monoclinic'
loop_
_space_group_symop_operation_xyz
x,y,z
x,-y,1/2+z
1/2+x,1/2+y,z
1/2+x,1/2-y,1/2+z
loop_
_atom_site_type_symbol
_atom_site_label
_atom_site_fract_x
_atom_site_fract_y
_atom_site_fract_z
Si Si1 0.936420 0.621046 0.300370
Si Si2 0.769909 0.022044 0.690326
Si Si3 0.653514 0.750956 0.091660
Si Si4 0.270112 0.504611 0.388464
Si Si5 0.022979 0.679664 0.136480
Si Si6 0.085751 0.872023 0.019805
Si Si7 0.831458 0.248481 0.934184
Si Si8 0.120148 0.035047 0.162438
O O1 0.028776 0.689885 0.239406
O O2 0.832783 0.712080 0.338159
O O3 0.797952 0.529260 0.244323
O O4 0.077909 0.550348 0.375224
O O5 0.800266 0.006138 0.794037
O O6 0.634708 0.930657 0.630542
O O7 0.958644 0.023561 0.679838
O O8 0.693068 0.141238 0.653682
O O9 0.818698 0.682967 0.080303
O O10 0.563375 0.664581 0.141491
O O11 0.523451 0.777931 0.996080
O O12 0.397515 0.595128 0.452448
O O13 0.287480 0.383032 0.435047
O O14 0.098834 0.783435 0.098099
O O15 0.161706 0.982051 0.077261
O O16 0.195825 0.825956 0.960761
#
# Coordination Sequence:
#
# PCOD8055632 Si02
#       8
#     4   4   4   4   4   4   4   4
#     4  10  25  47  67 100 141 183 234 289 355 418
#     4  11  24  45  75  96 141 187 231 293 354 423
#     4  11  23  42  71 101 143 181 235 288 348 420
#     4  11  25  48  67 103 142 180 234 297 351 415
#     4  10  23  43  70 103 132 185 233 280 355 417
#     4  12  25  44  70 105 140 180 239 288 351 421
#     4  12  26  43  69 103 144 185 235 294 350 415
#     4  11  23  46  67 103 135 183 237 285 354 431
#
# _framework density 21.794301000000001
#
# number of rings (size 3 to 8) (size 9 to 14) (size 15 to 20)
#    0.000    1.000    2.500    3.750    5.250    0.000 
#    6.750    0.000    0.000    0.000    0.000    0.000 
#    0.000    0.000    0.000    0.000    0.000    0.000 
#
# Total GULP energy -198262.806576 kJ/mol
# GULP energy per Si atom -12391.425411 kJ/mol
# Density = 2.174470 g / cm^3
# Si number density = 21.794301 Si / 1000 Ang^3
#
#
#
# Elastic Constant Matrix: (Units=GPa)
#
#
# Indices 1 2 3 4 5 6 
#
# 1 95.7896 48.8969 46.0768 0.0000 8.4845 0.0000
# 2 48.8969 139.9916 56.7004 0.0000 1.0764 0.0000
# 3 46.0768 56.7004 99.7726 0.0000 11.9305 0.0000
# 4 0.0000 0.0000 0.0000 42.4777 0.0000 3.2975
# 5 8.4845 1.0764 11.9305 0.0000 44.6478 0.0000
# 6 0.0000 0.0000 0.0000 3.2975 0.0000 32.9359
#
#
#
# Elastic Compliance Matrix: (Units=1/GPa)
#
#
# Indices 1 2 3 4 5 6 
#
# 1 0.014426 -0.003115 -0.004724 0.000000 -0.001404 0.000000
# 2 -0.003115 0.010017 -0.004438 0.000000 0.001536 0.000000
# 3 -0.004724 -0.004438 0.015089 0.000000 -0.003027 0.000000
# 4 0.000000 0.000000 0.000000 0.023726 0.000000 -0.002375
# 5 -0.001404 0.001536 -0.003027 0.000000 0.023436 0.000000
# 6 0.000000 0.000000 0.000000 -0.002375 0.000000 0.030600
#
#
# Mechanical properties :
#
#
# Convention : Reuss Voigt Hill
#
# Bulk Modulus (GPa) = 66.76463 70.98912 68.87687
# Shear Modulus (GPa) = 34.05061 36.27093 35.16077
#
# Velocity S-wave (km/s) = 3.95696 4.08393 4.02095
# Velocity P-wave (km/s) = 7.18173 7.40818 7.29583
#
# Compressibility (1/GPa) = 0.01497799
#
# Stress axis : x y z
#
# Youngs Moduli (GPa) = 69.31774 99.83235 66.27519
#
# Poissons Ratio (x) = 0.31093 0.31311
# Poissons Ratio (y) = 0.21589 0.29412
# Poissons Ratio (z) = 0.32749 0.44304
#
# Static dielectric constant tensor:
#      x y z
#    x 3.985710 0.000000 0.092070 
#    y 0.000000 4.185850 0.000000 
#    z 0.092070 0.000000 3.996570 
# 
# 
# High freq. dielectric constant tensor:
#      x y z
#    x 1.855320 0.000000 0.006420 
#    y 0.000000 1.864700 0.000000 
#    z 0.006420 0.000000 1.860090 
# 
# From -- ./inp_files/22801.got.cif
#   From: 2010.06.25/outbox.cif.g09.slc.cpg/sg9_12_cif.got.tgz:22801.got - 2010.06.27 21:40:51.
