data_PCOD8055726
_publ_section_title
;
Structure prediction by ZEFSAII (Michael W. Deem and Ramdas Pophale) SiO2 
 PCOD8055726
Probable space group: C C
;
_chemical_formula_sum "Si O2"
_cell_formula_units_Z 24
_cell_length_a 4.666441
_cell_length_b 18.761363
_cell_length_c 9.122445
_cell_angle_alpha 90.000000
_cell_angle_beta 109.577981
_cell_angle_gamma 90.000000
_cell_volume 752.485618
_symmetry_space_group_name_H-M "C C"
_symmetry_group_IT_number 9
_symmetry_cell_setting 'monoclinic'
loop_
_space_group_symop_operation_xyz
x,y,z
x,-y,1/2+z
1/2+x,1/2+y,z
1/2+x,1/2-y,1/2+z
loop_
_atom_site_type_symbol
_atom_site_label
_atom_site_fract_x
_atom_site_fract_y
_atom_site_fract_z
Si Si1 0.826900 0.127983 0.416220
Si Si2 0.298659 0.290957 0.221352
Si Si3 0.925634 0.435461 0.492418
Si Si4 0.681152 0.365031 0.697663
Si Si5 0.400126 0.069426 0.647480
Si Si6 0.946648 0.714990 0.939479
O O1 0.603571 0.139059 0.639108
O O2 0.469314 0.109204 0.350509
O O3 0.887174 0.206442 0.511046
O O4 0.052846 0.072136 0.529846
O O5 0.241871 0.213255 0.128615
O O6 0.655261 0.310872 0.294287
O O7 0.201793 0.263562 0.365980
O O8 0.628312 0.419964 0.550350
O O9 0.078063 0.504556 0.594672
O O10 0.869502 0.449830 0.312967
O O11 0.090451 0.356851 0.541056
O O12 0.395866 0.364368 0.755758
#
# Coordination Sequence:
#
# PCOD8055726 Si02
#       6
#     4   4   4   4   4   4
#     4  10  23  45  74 107 143 189 247 312 375 441
#     4   9  21  42  70 102 140 186 242 303 366 434
#     4  11  25  45  73 111 155 203 252 309 376 451
#     4  10  23  45  74 106 142 189 249 311 374 441
#     4  11  25  47  74 112 157 203 250 309 378 452
#     4   9  21  42  69 102 139 186 242 302 365 435
#
# _framework density 31.894300000000001
#
# number of rings (size 3 to 8) (size 9 to 14) (size 15 to 20)
#    0.000    2.000    0.000    1.000    0.000   17.333 
#    0.000   11.667    0.000    0.000    0.000    0.000 
#    0.000    0.000    0.000    0.000    0.000    0.000 
#
# Total GULP energy -148662.038056 kJ/mol
# GULP energy per Si atom -12388.503171 kJ/mol
# Density = 3.182171 g / cm^3
# Si number density = 31.894300 Si / 1000 Ang^3
#
#
#
# Elastic Constant Matrix: (Units=GPa)
#
#
# Indices 1 2 3 4 5 6 
#
# 1 109.2963 19.1137 46.6603 0.0000 9.8486 0.0000
# 2 19.1137 197.5766 78.0582 0.0000 -18.0736 0.0000
# 3 46.6603 78.0582 196.5338 0.0000 -2.8657 0.0000
# 4 0.0000 0.0000 0.0000 72.0303 0.0000 -13.6136
# 5 9.8486 -18.0736 -2.8657 0.0000 41.2286 0.0000
# 6 0.0000 0.0000 0.0000 -13.6136 0.0000 40.7705
#
#
#
# Elastic Compliance Matrix: (Units=1/GPa)
#
#
# Indices 1 2 3 4 5 6 
#
# 1 0.010485 -0.000323 -0.002402 0.000000 -0.002813 0.000000
# 2 -0.000323 0.006275 -0.002377 0.000000 0.002663 0.000000
# 3 -0.002402 -0.002377 0.006602 0.000000 -0.000009 0.000000
# 4 0.000000 0.000000 0.000000 0.014818 0.000000 0.004948
# 5 -0.002813 0.002663 -0.000009 0.000000 0.026094 0.000000
# 6 0.000000 0.000000 0.000000 0.004948 0.000000 0.026180
#
#
# Mechanical properties :
#
#
# Convention : Reuss Voigt Hill
#
# Bulk Modulus (GPa) = 75.99312 87.89678 81.94495
# Shear Modulus (GPa) = 47.59928 54.77753 51.18840
#
# Velocity S-wave (km/s) = 3.86736 4.14873 4.01051
# Velocity P-wave (km/s) = 6.61969 7.11111 6.86979
#
# Compressibility (1/GPa) = 0.01315909
#
# Stress axis : x y z
#
# Youngs Moduli (GPa) = 95.37569 159.35787 151.45968
#
# Poissons Ratio (x) = 0.05141 0.36383
# Poissons Ratio (y) = 0.03077 0.36001
# Poissons Ratio (z) = 0.22911 0.37878
#
# Static dielectric constant tensor:
#      x y z
#    x 5.844670 0.000000 -0.976690 
#    y 0.000000 6.367720 0.000000 
#    z -0.976690 0.000000 6.493930 
# 
# 
# High freq. dielectric constant tensor:
#      x y z
#    x 2.314870 0.000000 -0.053760 
#    y 0.000000 2.331040 0.000000 
#    z -0.053760 0.000000 2.374070 
# 
# From -- ./inp_files/3832.got.cif
#   From: 2010.06.25/outbox.cif.g09.slc.cpg/sg9_2_cif.got.tgz:3832.got - 2010.06.27 21:40:51.
