data_PCOD8055362
_publ_section_title
;
Structure prediction by ZEFSAII (Michael W. Deem and Ramdas Pophale) SiO2 
 PCOD8055362
Probable space group: C C
;
_chemical_formula_sum "Si O2"
_cell_formula_units_Z 32
_cell_length_a 8.421875
_cell_length_b 17.798481
_cell_length_c 13.895265
_cell_angle_alpha 90.000000
_cell_angle_beta 138.048277
_cell_angle_gamma 90.000000
_cell_volume 1392.395800
_symmetry_space_group_name_H-M "C C"
_symmetry_group_IT_number 9
_symmetry_cell_setting 'monoclinic'
loop_
_space_group_symop_operation_xyz
x,y,z
x,-y,1/2+z
1/2+x,1/2+y,z
1/2+x,1/2-y,1/2+z
loop_
_atom_site_type_symbol
_atom_site_label
_atom_site_fract_x
_atom_site_fract_y
_atom_site_fract_z
Si Si1 0.354280 0.326424 0.878800
Si Si2 0.961415 0.129721 0.060993
Si Si3 0.056049 0.298341 0.064976
Si Si4 0.163073 0.578400 0.759171
Si Si5 0.633363 0.560185 0.855417
Si Si6 0.408594 0.927826 0.659746
Si Si7 0.042218 0.189549 0.676416
Si Si8 0.140328 0.891857 0.835483
O O1 0.251741 0.248566 0.791456
O O2 0.546253 0.361935 0.894419
O O3 0.145375 0.386125 0.798434
O O4 0.489567 0.314065 0.040021
O O5 0.949465 0.217290 0.034651
O O6 0.209842 0.089144 0.148939
O O7 0.932122 0.117731 0.162165
O O8 0.748116 0.091490 0.906823
O O9 0.070566 0.343648 0.172204
O O10 0.308245 0.285746 0.128475
O O11 0.874065 0.342871 0.912976
O O12 0.374135 0.549295 0.785863
O O13 0.954906 0.517128 0.671905
O O14 0.625571 0.608600 0.754293
O O15 0.729128 0.477456 0.876759
O O16 0.808802 0.600851 0.011169
#
# Coordination Sequence:
#
# PCOD8055362 Si02
#       8
#     4   4   4   4   4   4   4   4
#     4  12  26  46  70 105 144 186 240 299 352 425
#     4  11  25  42  71 101 139 187 236 290 357 429
#     4  11  23  46  71 102 136 187 235 293 358 426
#     4  10  22  42  72 101 140 181 237 292 350 420
#     4  10  23  44  69 103 141 182 234 293 353 420
#     4  11  21  45  71 100 139 188 234 288 349 431
#     4  11  26  46  76 101 137 195 241 286 356 438
#     4  12  26  43  66 105 148 178 233 303 357 413
#
# _framework density 22.981973
#
# number of rings (size 3 to 8) (size 9 to 14) (size 15 to 20)
#    0.000    1.000    3.750    2.250    7.000    0.000 
#    2.250    0.000    0.000    0.000    0.000    0.000 
#    0.000    0.000    0.000    0.000    0.000    0.000 
#
# Total GULP energy -198447.041074 kJ/mol
# GULP energy per Si atom -12402.940067 kJ/mol
# Density = 2.292967 g / cm^3
# Si number density = 22.981973 Si / 1000 Ang^3
#
#
#
# Elastic Constant Matrix: (Units=GPa)
#
#
# Indices 1 2 3 4 5 6 
#
# 1 41.5810 25.7736 34.0366 0.0005 -18.5870 0.0002
# 2 25.7736 122.7260 35.3115 0.0002 -8.8537 0.0000
# 3 34.0366 35.3115 145.1031 0.0012 -35.0933 0.0005
# 4 0.0005 0.0002 0.0012 42.9361 0.0005 1.3725
# 5 -18.5870 -8.8537 -35.0933 0.0005 40.8053 0.0002
# 6 0.0002 0.0000 0.0005 1.3725 0.0002 26.1205
#
#
#
# Elastic Compliance Matrix: (Units=1/GPa)
#
#
# Indices 1 2 3 4 5 6 
#
# 1 0.036193 -0.005515 -0.004356 0.000000 0.011544 0.000000
# 2 -0.005515 0.009602 -0.001448 0.000000 -0.001674 0.000000
# 3 -0.004356 -0.001448 0.009735 0.000000 0.006074 0.000000
# 4 0.000000 0.000000 0.000000 0.023330 -0.000001 -0.001226
# 5 0.011544 -0.001674 0.006074 -0.000001 0.034625 0.000000
# 6 0.000000 0.000000 0.000000 -0.001226 0.000000 0.038349
#
#
# Mechanical properties :
#
#
# Convention : Reuss Voigt Hill
#
# Bulk Modulus (GPa) = 30.40176 55.51706 42.95941
# Shear Modulus (GPa) = 26.96355 36.25825 31.61090
#
# Velocity S-wave (km/s) = 3.42899 3.97631 3.71275
# Velocity P-wave (km/s) = 5.37908 6.72983 6.09201
#
# Compressibility (1/GPa) = 0.03289283
#
# Stress axis : x y z
#
# Youngs Moduli (GPa) = 27.62935 104.14212 102.72511
#
# Poissons Ratio (x) = 0.57433 0.44747
# Poissons Ratio (y) = 0.15237 0.14874
# Poissons Ratio (z) = 0.12035 0.15080
#
# Static dielectric constant tensor:
#      x y z
#    x 3.922790 0.000000 -0.057730 
#    y 0.000000 4.142220 0.000000 
#    z -0.057730 0.000000 4.394570 
# 
# 
# High freq. dielectric constant tensor:
#      x y z
#    x 1.884180 0.000000 -0.004830 
#    y 0.000000 1.918120 0.000000 
#    z -0.004830 0.000000 1.926590 
# 
# From -- ./inp_files/23664.got.cif
#   From: 2010.06.25/outbox.cif.g09.slc.cpg/sg9_12_cif.got.tgz:23664.got - 2010.06.27 21:40:51.
