data_PCOD8055067
_publ_section_title
;
Structure prediction by ZEFSAII (Michael W. Deem and Ramdas Pophale) SiO2 
 PCOD8055067
Probable space group: C C
;
_chemical_formula_sum "Si O2"
_cell_formula_units_Z 24
_cell_length_a 13.052183
_cell_length_b 6.903077
_cell_length_c 13.313433
_cell_angle_alpha 90.000000
_cell_angle_beta 40.899127
_cell_angle_gamma 90.000000
_cell_volume 785.376141
_symmetry_space_group_name_H-M "C C"
_symmetry_group_IT_number 9
_symmetry_cell_setting 'monoclinic'
loop_
_space_group_symop_operation_xyz
x,y,z
x,-y,1/2+z
1/2+x,1/2+y,z
1/2+x,1/2-y,1/2+z
loop_
_atom_site_type_symbol
_atom_site_label
_atom_site_fract_x
_atom_site_fract_y
_atom_site_fract_z
Si Si1 0.594720 0.531673 0.569400
Si Si2 0.763242 0.383205 0.608726
Si Si3 0.571919 0.303785 0.374044
Si Si4 0.606121 0.191420 0.890146
Si Si5 0.775033 0.882817 0.881722
Si Si6 0.716296 0.884402 0.605416
O O1 0.747992 0.404977 0.496708
O O2 0.581949 0.584278 0.457274
O O3 0.454656 0.388785 0.712656
O O4 0.611357 0.741874 0.611014
O O5 0.652962 0.552374 0.734895
O O6 0.686809 0.197258 0.720294
O O7 0.939164 0.410601 0.513093
O O8 0.659395 0.285789 0.420067
O O9 0.385578 0.301187 0.513828
O O10 0.620378 0.096832 0.282736
O O11 0.719607 0.091837 0.883920
O O12 0.754728 0.910254 0.019154
#
# Coordination Sequence:
#
# PCOD8055067 Si02
#       6
#     4   4   4   4   4   4
#     4  10  22  42  70 102 137 182 230 283 352 412
#     4  11  24  48  71 102 144 183 236 293 351 416
#     4  11  24  42  74 105 139 186 234 292 350 417
#     4  11  24  46  71 101 144 186 231 290 356 418
#     4  11  21  41  73 102 135 188 231 281 359 411
#     4  10  21  43  67 100 145 183 228 287 352 412
#
# _framework density 30.558603000000002
#
# number of rings (size 3 to 8) (size 9 to 14) (size 15 to 20)
#    0.000    1.333    5.000    2.000    2.333    0.000 
#    3.000    0.000    0.000    0.000    0.000    0.000 
#    0.000    0.000    0.000    0.000    0.000    0.000 
#
# Total GULP energy -148705.418985 kJ/mol
# GULP energy per Si atom -12392.118249 kJ/mol
# Density = 3.048905 g / cm^3
# Si number density = 30.558603 Si / 1000 Ang^3
#
#
#
# Elastic Constant Matrix: (Units=GPa)
#
#
# Indices 1 2 3 4 5 6 
#
# 1 169.1284 17.3372 63.0665 0.0000 17.0570 0.0000
# 2 17.3372 85.4106 -2.3486 0.0000 -8.1345 0.0000
# 3 63.0665 -2.3486 135.1984 0.0000 8.5810 0.0000
# 4 0.0000 0.0000 0.0000 34.3319 0.0000 -14.1906
# 5 17.0570 -8.1345 8.5810 0.0000 67.6963 0.0000
# 6 0.0000 0.0000 0.0000 -14.1906 0.0000 47.4929
#
#
#
# Elastic Compliance Matrix: (Units=1/GPa)
#
#
# Indices 1 2 3 4 5 6 
#
# 1 0.007551 -0.001787 -0.003447 0.000000 -0.001680 0.000000
# 2 -0.001787 0.012269 0.000932 0.000000 0.001806 0.000000
# 3 -0.003447 0.000932 0.009031 0.000000 -0.000164 0.000000
# 4 0.000000 0.000000 0.000000 0.033232 0.000000 0.009929
# 5 -0.001680 0.001806 -0.000164 0.000000 0.015433 0.000000
# 6 0.000000 0.000000 0.000000 0.009929 0.000000 0.024023
#
#
# Mechanical properties :
#
#
# Convention : Reuss Voigt Hill
#
# Bulk Modulus (GPa) = 49.39090 60.64974 55.02032
# Shear Modulus (GPa) = 42.77531 50.68303 46.72917
#
# Velocity S-wave (km/s) = 3.74542 4.07695 3.91470
# Velocity P-wave (km/s) = 5.90779 6.48476 6.20299
#
# Compressibility (1/GPa) = 0.02024664
#
# Stress axis : x y z
#
# Youngs Moduli (GPa) = 132.44067 81.50850 110.73122
#
# Poissons Ratio (x) = 0.14569 0.38164
# Poissons Ratio (y) = 0.23673 -0.10323
# Poissons Ratio (z) = 0.45646 -0.07599
#
# Static dielectric constant tensor:
#      x y z
#    x 5.961870 0.000000 1.079930 
#    y 0.000000 6.722530 0.000000 
#    z 1.079930 0.000000 6.321110 
# 
# 
# High freq. dielectric constant tensor:
#      x y z
#    x 2.275590 0.000000 0.043150 
#    y 0.000000 2.345730 0.000000 
#    z 0.043150 0.000000 2.261680 
# 
# From -- ./inp_files/8734.got.cif
#   From: 2010.06.25/outbox.cif.g09.slc.cpg/sg9_5_cif.got.tgz:8734.got - 2010.06.27 21:40:51.
