data_PCOD8055826
_publ_section_title
;
Structure prediction by ZEFSAII (Michael W. Deem and Ramdas Pophale) SiO2 
 PCOD8055826
Probable space group: C C
;
_chemical_formula_sum "Si O2"
_cell_formula_units_Z 20
_cell_length_a 5.249107
_cell_length_b 18.153226
_cell_length_c 8.655952
_cell_angle_alpha 90.000000
_cell_angle_beta 88.598191
_cell_angle_gamma 90.000000
_cell_volume 824.563457
_symmetry_space_group_name_H-M "C C"
_symmetry_group_IT_number 9
_symmetry_cell_setting 'monoclinic'
loop_
_space_group_symop_operation_xyz
x,y,z
x,-y,1/2+z
1/2+x,1/2+y,z
1/2+x,1/2-y,1/2+z
loop_
_atom_site_type_symbol
_atom_site_label
_atom_site_fract_x
_atom_site_fract_y
_atom_site_fract_z
Si Si1 0.616120 0.764037 0.955190
Si Si2 0.537928 0.072892 0.559805
Si Si3 0.218868 0.011720 0.826125
Si Si4 0.615590 0.200383 0.102831
Si Si5 0.386736 0.446355 0.599847
O O1 0.646819 0.764272 0.770831
O O2 0.625597 0.845032 0.025898
O O3 0.340688 0.730475 0.992738
O O4 0.841284 0.716437 0.030984
O O5 0.445032 0.031041 0.407885
O O6 0.325512 0.068831 0.697147
O O7 0.786847 0.029864 0.610683
O O8 0.063758 0.943564 0.749654
O O9 0.053118 0.063090 0.942249
O O10 0.656157 0.112040 0.110836
#
# Coordination Sequence:
#
# PCOD8055826 Si02
#       5
#     4   4   4   4   4
#     4  12  30  50  77 111 156 202 255 315 385 456
#     4  11  25  46  76 107 149 192 259 307 384 447
#     4  10  24  42  80 110 144 194 254 320 376 452
#     4  12  30  50  77 111 156 202 255 315 385 456
#     4  11  25  46  76 107 149 192 259 307 384 447
#
# _framework density 24.255258999999999
#
# number of rings (size 3 to 8) (size 9 to 14) (size 15 to 20)
#    0.000    0.800    0.000    4.800   19.600    3.200 
#    0.000    0.000    0.000    0.000    0.000    0.000 
#    0.000    0.000    0.000    0.000    0.000    0.000 
#
# Total GULP energy -124035.542859 kJ/mol
# GULP energy per Si atom -12403.554286 kJ/mol
# Density = 2.420005 g / cm^3
# Si number density = 24.255259 Si / 1000 Ang^3
#
#
#
# Elastic Constant Matrix: (Units=GPa)
#
#
# Indices 1 2 3 4 5 6 
#
# 1 81.4660 4.1123 26.4466 0.0000 -5.9820 0.0000
# 2 4.1123 56.4317 5.4081 0.0000 -6.1943 0.0000
# 3 26.4466 5.4081 123.1513 0.0000 11.2799 0.0000
# 4 0.0000 0.0000 0.0000 27.1438 0.0000 -4.6533
# 5 -5.9820 -6.1943 11.2799 0.0000 28.7300 0.0000
# 6 0.0000 0.0000 0.0000 -4.6533 0.0000 51.5313
#
#
#
# Elastic Compliance Matrix: (Units=1/GPa)
#
#
# Indices 1 2 3 4 5 6 
#
# 1 0.013657 -0.000230 -0.003297 0.000000 0.004089 0.000000
# 2 -0.000230 0.018326 -0.001154 0.000000 0.004356 0.000000
# 3 -0.003297 -0.001154 0.009299 0.000000 -0.004586 0.000000
# 4 0.000000 0.000000 0.000000 0.037420 0.000000 0.003379
# 5 0.004089 0.004356 -0.004586 0.000000 0.038398 0.000000
# 6 0.000000 0.000000 0.000000 0.003379 0.000000 0.019711
#
#
# Mechanical properties :
#
#
# Convention : Reuss Voigt Hill
#
# Bulk Modulus (GPa) = 31.32996 36.99811 34.16403
# Shear Modulus (GPa) = 31.88474 36.48650 34.18562
#
# Velocity S-wave (km/s) = 3.62961 3.88270 3.75828
# Velocity P-wave (km/s) = 5.52360 5.94872 5.74010
#
# Compressibility (1/GPa) = 0.03191833
#
# Stress axis : x y z
#
# Youngs Moduli (GPa) = 73.22087 54.56691 107.53908
#
# Poissons Ratio (x) = 0.01258 0.35458
# Poissons Ratio (y) = 0.01687 0.12413
# Poissons Ratio (z) = 0.24143 0.06299
#
# Static dielectric constant tensor:
#      x y z
#    x 4.369380 0.000000 -0.036210 
#    y 0.000000 4.227470 0.000000 
#    z -0.036210 0.000000 4.635060 
# 
# 
# High freq. dielectric constant tensor:
#      x y z
#    x 1.976860 0.000000 -0.003830 
#    y 0.000000 1.950970 0.000000 
#    z -0.003830 0.000000 1.985530 
# 
# From -- ./inp_files/3588.got.cif
#   From: 2010.06.25/outbox.cif.g09.slc.cpg/sg9_2_cif.got.tgz:3588.got - 2010.06.27 21:40:51.
