data_PCOD8055345
_publ_section_title
;
Structure prediction by ZEFSAII (Michael W. Deem and Ramdas Pophale) SiO2 
 PCOD8055345
Probable space group: C C
;
_chemical_formula_sum "Si O2"
_cell_formula_units_Z 32
_cell_length_a 9.616818
_cell_length_b 10.956613
_cell_length_c 14.751540
_cell_angle_alpha 90.000000
_cell_angle_beta 109.271504
_cell_angle_gamma 90.000000
_cell_volume 1467.239708
_symmetry_space_group_name_H-M "C C"
_symmetry_group_IT_number 9
_symmetry_cell_setting 'monoclinic'
loop_
_space_group_symop_operation_xyz
x,y,z
x,-y,1/2+z
1/2+x,1/2+y,z
1/2+x,1/2-y,1/2+z
loop_
_atom_site_type_symbol
_atom_site_label
_atom_site_fract_x
_atom_site_fract_y
_atom_site_fract_z
Si Si1 0.729250 0.457543 0.103590
Si Si2 0.540642 0.159573 0.443199
Si Si3 0.081172 0.621850 0.983515
Si Si4 0.725079 0.328481 0.925564
Si Si5 0.571107 0.537191 0.244749
Si Si6 0.040388 0.230361 0.756497
Si Si7 0.288144 0.296538 0.685783
Si Si8 0.838179 0.300494 0.556054
O O1 0.606399 0.509109 0.146974
O O2 0.821494 0.344563 0.165769
O O3 0.836168 0.567731 0.103306
O O4 0.656617 0.408624 0.994132
O O5 0.401454 0.188395 0.478405
O O6 0.487293 0.191632 0.330282
O O7 0.679366 0.240894 0.504163
O O8 0.576849 0.017498 0.453266
O O9 0.142269 0.698068 0.910551
O O10 0.192991 0.634169 0.090453
O O11 0.922977 0.678566 0.979166
O O12 0.704252 0.394169 0.824529
O O13 0.552056 0.409288 0.292651
O O14 0.433917 0.625965 0.230193
O O15 0.928516 0.220078 0.647241
O O16 0.195499 0.289514 0.758831
#
# Coordination Sequence:
#
# PCOD8055345 Si02
#       8
#     4   4   4   4   4   4   4   4
#     4  10  22  42  68  96 137 177 227 279 339 410
#     4  12  25  44  70 102 139 182 230 282 346 408
#     4  10  24  44  66  98 136 177 228 278 342 412
#     4  11  25  43  66 107 131 181 239 274 344 419
#     4  11  23  42  70  97 141 180 224 290 343 404
#     4  10  24  42  64 105 135 177 235 281 342 416
#     4   9  22  43  66 102 132 178 231 280 348 408
#     4  11  23  44  70  95 141 180 220 288 348 397
#
# _framework density 21.809660000000001
#
# number of rings (size 3 to 8) (size 9 to 14) (size 15 to 20)
#    0.000    1.500    1.250    3.000    5.250    3.000 
#    0.000    1.250    0.000    0.000    0.000    0.000 
#    0.000    0.000    0.000    0.000    0.000    0.000 
#
# Total GULP energy -198335.553265 kJ/mol
# GULP energy per Si atom -12395.972079 kJ/mol
# Density = 2.176002 g / cm^3
# Si number density = 21.809660 Si / 1000 Ang^3
#
#
#
# Elastic Constant Matrix: (Units=GPa)
#
#
# Indices 1 2 3 4 5 6 
#
# 1 124.1476 74.9274 39.5433 0.0000 3.3617 0.0000
# 2 74.9274 154.8046 37.4242 0.0000 -6.7233 0.0000
# 3 39.5433 37.4242 78.5598 0.0000 -7.4963 0.0000
# 4 0.0000 0.0000 0.0000 33.2196 0.0000 -1.3879
# 5 3.3617 -6.7233 -7.4963 0.0000 29.1518 0.0000
# 6 0.0000 0.0000 0.0000 -1.3879 0.0000 35.3193
#
#
#
# Elastic Compliance Matrix: (Units=1/GPa)
#
#
# Indices 1 2 3 4 5 6 
#
# 1 0.012695 -0.005285 -0.004232 0.000000 -0.003771 0.000000
# 2 -0.005285 0.009519 -0.001647 0.000000 0.002381 0.000000
# 3 -0.004232 -0.001647 0.016048 0.000000 0.004235 0.000000
# 4 0.000000 0.000000 0.000000 0.030152 0.000000 0.001185
# 5 -0.003771 0.002381 0.004235 0.000000 0.036376 0.000000
# 6 0.000000 0.000000 0.000000 0.001185 0.000000 0.028360
#
#
# Mechanical properties :
#
#
# Convention : Reuss Voigt Hill
#
# Bulk Modulus (GPa) = 62.76130 73.47800 68.11965
# Shear Modulus (GPa) = 31.09629 33.24597 32.17113
#
# Velocity S-wave (km/s) = 3.78008 3.90855 3.84485
# Velocity P-wave (km/s) = 6.92035 7.35750 7.14227
#
# Compressibility (1/GPa) = 0.01593338
#
# Stress axis : x y z
#
# Youngs Moduli (GPa) = 78.77246 105.04756 62.31207
#
# Poissons Ratio (x) = 0.55519 0.26371
# Poissons Ratio (y) = 0.41632 0.10265
# Poissons Ratio (z) = 0.33337 0.17305
#
# Static dielectric constant tensor:
#      x y z
#    x 3.951540 0.000000 -0.155290 
#    y 0.000000 4.085950 0.000000 
#    z -0.155290 0.000000 3.759720 
# 
# 
# High freq. dielectric constant tensor:
#      x y z
#    x 1.854450 0.000000 -0.011630 
#    y 0.000000 1.870960 0.000000 
#    z -0.011630 0.000000 1.847380 
# 
# From -- ./inp_files/22804.got.cif
#   From: 2010.06.25/outbox.cif.g09.slc.cpg/sg9_12_cif.got.tgz:22804.got - 2010.06.27 21:40:51.
