data_PCOD8055307
_publ_section_title
;
Structure prediction by ZEFSAII (Michael W. Deem and Ramdas Pophale) SiO2 
 PCOD8055307
Probable space group: C C
;
_chemical_formula_sum "Si O2"
_cell_formula_units_Z 32
_cell_length_a 27.190638
_cell_length_b 8.632154
_cell_length_c 9.214463
_cell_angle_alpha 90.000000
_cell_angle_beta 142.075283
_cell_angle_gamma 90.000000
_cell_volume 1329.288406
_symmetry_space_group_name_H-M "C C"
_symmetry_group_IT_number 9
_symmetry_cell_setting 'monoclinic'
loop_
_space_group_symop_operation_xyz
x,y,z
x,-y,1/2+z
1/2+x,1/2+y,z
1/2+x,1/2-y,1/2+z
loop_
_atom_site_type_symbol
_atom_site_label
_atom_site_fract_x
_atom_site_fract_y
_atom_site_fract_z
Si Si1 0.831870 0.545216 0.483300
Si Si2 0.968587 0.754344 0.679731
Si Si3 0.673977 0.727650 0.170174
Si Si4 0.391537 0.163019 0.902323
Si Si5 0.355213 0.486309 0.289385
Si Si6 0.748149 0.958448 0.792717
Si Si7 0.109750 0.335840 0.304127
Si Si8 0.554750 0.827978 0.669738
O O1 0.889300 0.649447 0.513599
O O2 0.740385 0.599663 0.286710
O O3 0.866034 0.536580 0.723461
O O4 0.841609 0.374103 0.433457
O O5 0.026830 0.701857 0.688346
O O6 0.936677 0.920055 0.548532
O O7 0.016517 0.763112 0.943874
O O8 0.626746 0.709545 0.214857
O O9 0.707922 0.898423 0.282292
O O10 0.618151 0.718755 0.898500
O O11 0.368809 0.331981 0.789949
O O12 0.487183 0.142840 0.137525
O O13 0.282561 0.463924 0.229161
O O14 0.322583 0.399775 0.067039
O O15 0.682241 0.829740 0.592612
O O16 0.097494 0.513077 0.217750
#
# Coordination Sequence:
#
# PCOD8055307 Si02
#       8
#     4   4   4   4   4   4   4   4
#     4  11  23  46  68 103 141 186 251 300 363 443
#     4  11  24  42  70 109 143 189 248 303 375 438
#     4  11  22  42  70 104 143 183 244 306 355 440
#     4  11  24  44  69 102 145 196 240 309 372 440
#     4  12  24  45  71 106 151 188 251 308 370 444
#     4  11  21  41  70 102 142 191 243 298 362 444
#     4  11  22  39  73 113 141 192 249 302 372 444
#     4  10  22  41  71 105 146 187 242 300 371 447
#
# _framework density 24.073032999999999
#
# number of rings (size 3 to 8) (size 9 to 14) (size 15 to 20)
#    0.000    1.000    5.000    2.250    3.500    2.000 
#    0.000    5.000    0.000    0.000    0.000    0.000 
#    0.000    0.000    0.000    0.000    0.000    0.000 
#
# Total GULP energy -198247.113095 kJ/mol
# GULP energy per Si atom -12390.444568 kJ/mol
# Density = 2.401824 g / cm^3
# Si number density = 24.073033 Si / 1000 Ang^3
#
#
#
# Elastic Constant Matrix: (Units=GPa)
#
#
# Indices 1 2 3 4 5 6 
#
# 1 111.6315 24.6418 37.4986 0.0000 10.6222 0.0000
# 2 24.6418 39.4724 39.6168 0.0000 -1.4369 0.0000
# 3 37.4986 39.6168 150.3304 0.0000 6.2701 0.0000
# 4 0.0000 0.0000 0.0000 28.6069 0.0000 7.9287
# 5 10.6222 -1.4369 6.2701 0.0000 36.8046 0.0000
# 6 0.0000 0.0000 0.0000 7.9287 0.0000 25.0088
#
#
#
# Elastic Compliance Matrix: (Units=1/GPa)
#
#
# Indices 1 2 3 4 5 6 
#
# 1 0.010911 -0.005888 -0.001036 0.000000 -0.003202 0.000000
# 2 -0.005888 0.037934 -0.008723 0.000000 0.004666 0.000000
# 3 -0.001036 -0.008723 0.009277 0.000000 -0.001622 0.000000
# 4 0.000000 0.000000 0.000000 0.038324 0.000000 -0.012150
# 5 -0.003202 0.004666 -0.001622 0.000000 0.028553 0.000000
# 6 0.000000 0.000000 0.000000 -0.012150 0.000000 0.043838
#
#
# Mechanical properties :
#
#
# Convention : Reuss Voigt Hill
#
# Bulk Modulus (GPa) = 37.27448 56.10542 46.68995
# Shear Modulus (GPa) = 23.91501 31.39586 27.65544
#
# Velocity S-wave (km/s) = 3.15530 3.61528 3.39309
# Velocity P-wave (km/s) = 5.36583 6.38623 5.89814
#
# Compressibility (1/GPa) = 0.02682801
#
# Stress axis : x y z
#
# Youngs Moduli (GPa) = 91.65452 26.36131 107.79396
#
# Poissons Ratio (x) = 0.15520 0.11172
# Poissons Ratio (y) = 0.53962 0.94028
# Poissons Ratio (z) = 0.09499 0.22995
#
# Static dielectric constant tensor:
#      x y z
#    x 4.539780 0.000000 0.118470 
#    y 0.000000 3.879950 0.000000 
#    z 0.118470 0.000000 4.407770 
# 
# 
# High freq. dielectric constant tensor:
#      x y z
#    x 1.972430 0.000000 0.005150 
#    y 0.000000 1.903950 0.000000 
#    z 0.005150 0.000000 1.966040 
# 
# From -- ./inp_files/12444.got.cif
#   From: 2010.06.25/outbox.cif.g09.slc.cpg/sg9_7_cif.got.tgz:12444.got - 2010.06.27 21:40:51.
