data_PCOD8055921
_publ_section_title
;
Structure prediction by ZEFSAII (Michael W. Deem and Ramdas Pophale) SiO2 
 PCOD8055921
Probable space group: C C
;
_chemical_formula_sum "Si O2"
_cell_formula_units_Z 20
_cell_length_a 4.829711
_cell_length_b 19.458566
_cell_length_c 8.772943
_cell_angle_alpha 90.000000
_cell_angle_beta 74.891058
_cell_angle_gamma 90.000000
_cell_volume 795.974137
_symmetry_space_group_name_H-M "C C"
_symmetry_group_IT_number 9
_symmetry_cell_setting 'monoclinic'
loop_
_space_group_symop_operation_xyz
x,y,z
x,-y,1/2+z
1/2+x,1/2+y,z
1/2+x,1/2-y,1/2+z
loop_
_atom_site_type_symbol
_atom_site_label
_atom_site_fract_x
_atom_site_fract_y
_atom_site_fract_z
Si Si1 0.817820 0.175908 0.732380
Si Si2 0.256564 0.411153 0.806585
Si Si3 0.016309 0.520517 0.057852
Si Si4 0.714040 0.324120 0.883774
Si Si5 0.275460 0.911151 0.309331
O O1 0.766849 0.250010 0.808158
O O2 0.516190 0.144056 0.727208
O O3 0.015561 0.182882 0.557981
O O4 0.965872 0.124715 0.834121
O O5 0.565727 0.375066 0.781668
O O6 0.217359 0.433466 0.637201
O O7 0.014944 0.356269 0.889334
O O8 0.235888 0.475937 0.924006
O O9 0.797161 0.475842 0.191623
O O10 0.814714 0.566420 0.978633
#
# Coordination Sequence:
#
# PCOD8055921 Si02
#       5
#     4   4   4   4   4
#     4  12  26  48  73 104 145 193 246 296 354 430
#     4  11  25  46  75 108 146 184 244 295 368 422
#     4  10  24  46  76 110 144 190 232 306 362 436
#     4  12  26  48  73 104 145 193 246 296 354 430
#     4  11  25  46  75 108 146 184 244 295 368 422
#
# _framework density 25.126442999999998
#
# number of rings (size 3 to 8) (size 9 to 14) (size 15 to 20)
#    0.000    0.800    4.000    1.200    2.800   11.200 
#    0.000    0.000    0.000    0.000    0.000    0.000 
#    0.000    0.000    0.000    0.000    0.000    0.000 
#
# Total GULP energy -124101.612157 kJ/mol
# GULP energy per Si atom -12410.161216 kJ/mol
# Density = 2.506925 g / cm^3
# Si number density = 25.126443 Si / 1000 Ang^3
#
#
#
# Elastic Constant Matrix: (Units=GPa)
#
#
# Indices 1 2 3 4 5 6 
#
# 1 68.1764 6.0472 -3.5269 0.0000 14.2772 0.0000
# 2 6.0472 122.9313 40.2778 0.0000 18.9384 0.0000
# 3 -3.5269 40.2778 127.5755 0.0000 31.8035 0.0000
# 4 0.0000 0.0000 0.0000 36.0957 0.0000 -5.3665
# 5 14.2772 18.9384 31.8035 0.0000 33.1593 0.0000
# 6 0.0000 0.0000 0.0000 -5.3665 0.0000 34.7037
#
#
#
# Elastic Compliance Matrix: (Units=1/GPa)
#
#
# Indices 1 2 3 4 5 6 
#
# 1 0.016965 -0.000288 0.003075 0.000000 -0.010090 0.000000
# 2 -0.000288 0.009344 -0.002180 0.000000 -0.003122 0.000000
# 3 0.003075 -0.002180 0.011344 0.000000 -0.010959 0.000000
# 4 0.000000 0.000000 0.000000 0.028356 0.000000 0.004385
# 5 -0.010090 -0.003122 -0.010959 0.000000 0.046796 0.000000
# 6 0.000000 0.000000 0.000000 0.004385 0.000000 0.029493
#
#
# Mechanical properties :
#
#
# Convention : Reuss Voigt Hill
#
# Bulk Modulus (GPa) = 25.72776 44.91995 35.32385
# Shear Modulus (GPa) = 32.45934 39.18409 35.82171
#
# Velocity S-wave (km/s) = 3.59812 3.95330 3.77988
# Velocity P-wave (km/s) = 5.24628 6.22531 5.75665
#
# Compressibility (1/GPa) = 0.03886853
#
# Stress axis : x y z
#
# Youngs Moduli (GPa) = 58.94355 107.02128 88.15501
#
# Poissons Ratio (x) = 0.03079 -0.27109
# Poissons Ratio (y) = 0.01696 0.19215
# Poissons Ratio (z) = -0.18126 0.23327
#
# Static dielectric constant tensor:
#      x y z
#    x 4.630260 0.000000 0.116440 
#    y 0.000000 4.600480 0.000000 
#    z 0.116440 0.000000 4.858120 
# 
# 
# High freq. dielectric constant tensor:
#      x y z
#    x 2.010790 0.000000 0.003620 
#    y 0.000000 2.006000 0.000000 
#    z 0.003620 0.000000 2.015920 
# 
# From -- ./inp_files/3602.got.cif
#   From: 2010.06.25/outbox.cif.g09.slc.cpg/sg9_2_cif.got.tgz:3602.got - 2010.06.27 21:40:51.
