data_PCOD8055156
_publ_section_title
;
Structure prediction by ZEFSAII (Michael W. Deem and Ramdas Pophale) SiO2 
 PCOD8055156
Probable space group: C C
;
_chemical_formula_sum "Si O2"
_cell_formula_units_Z 32
_cell_length_a 17.097655
_cell_length_b 14.468329
_cell_length_c 11.774506
_cell_angle_alpha 90.000000
_cell_angle_beta 31.676594
_cell_angle_gamma 90.000000
_cell_volume 1529.535362
_symmetry_space_group_name_H-M "C C"
_symmetry_group_IT_number 9
_symmetry_cell_setting 'monoclinic'
loop_
_space_group_symop_operation_xyz
x,y,z
x,-y,1/2+z
1/2+x,1/2+y,z
1/2+x,1/2-y,1/2+z
loop_
_atom_site_type_symbol
_atom_site_label
_atom_site_fract_x
_atom_site_fract_y
_atom_site_fract_z
Si Si1 0.316060 0.459289 0.779040
Si Si2 0.632588 0.673483 0.127083
Si Si3 0.204499 0.645329 0.873799
Si Si4 0.921097 0.193018 0.002040
Si Si5 0.491329 0.693806 0.661810
Si Si6 0.305280 0.339140 0.002329
Si Si7 0.212043 0.141847 0.778683
Si Si8 0.628084 0.449089 0.844285
O O1 0.187033 0.537355 0.932273
O O2 0.296787 0.370870 0.719449
O O3 0.463305 0.507708 0.546645
O O4 0.328364 0.430265 0.895957
O O5 0.461020 0.701155 0.353430
O O6 0.728913 0.765073 0.016086
O O7 0.674987 0.599321 0.169841
O O8 0.658149 0.630656 0.973393
O O9 0.350533 0.691693 0.750926
O O10 0.207267 0.642820 0.733920
O O11 0.058066 0.702731 0.090260
O O12 0.861192 0.298378 0.079014
O O13 0.939957 0.159572 0.849132
O O14 0.080154 0.188583 0.868027
O O15 0.624834 0.627218 0.449734
O O16 0.244434 0.034270 0.708415
#
# Coordination Sequence:
#
# PCOD8055156 Si02
#       8
#     4   4   4   4   4   4   4   4
#     4  10  22  36  65  92 120 163 211 245 305 371
#     4  12  21  41  67  93 126 161 212 260 306 368
#     4  11  23  41  65  94 122 166 209 258 308 368
#     4  11  23  41  63  92 127 161 204 255 314 367
#     4  11  23  41  63  92 127 161 204 255 314 367
#     4  12  21  41  67  93 126 161 212 260 306 368
#     4  11  23  41  65  94 122 166 209 258 308 368
#     4  10  22  36  65  92 120 163 211 245 305 371
#
# _framework density 20.921386999999999
#
# number of rings (size 3 to 8) (size 9 to 14) (size 15 to 20)
#    0.000    1.000    7.500    0.750    7.000    0.000 
#    0.000    2.500    0.000    0.000    0.000    0.000 
#    0.000    0.000    0.000    0.000    0.000    0.000 
#
# Total GULP energy -198321.963579 kJ/mol
# GULP energy per Si atom -12395.122724 kJ/mol
# Density = 2.087377 g / cm^3
# Si number density = 20.921387 Si / 1000 Ang^3
#
#
#
# Elastic Constant Matrix: (Units=GPa)
#
#
# Indices 1 2 3 4 5 6 
#
# 1 94.7071 35.6574 32.2207 0.0000 31.0867 0.0000
# 2 35.6574 102.2079 22.5947 0.0000 3.5928 0.0000
# 3 32.2207 22.5947 44.3088 0.0000 18.6202 0.0000
# 4 0.0000 0.0000 0.0000 30.7828 0.0000 -4.1167
# 5 31.0867 3.5928 18.6202 0.0000 33.2505 0.0000
# 6 0.0000 0.0000 0.0000 -4.1167 0.0000 34.3732
#
#
#
# Elastic Compliance Matrix: (Units=1/GPa)
#
#
# Indices 1 2 3 4 5 6 
#
# 1 0.018836 -0.004914 -0.005250 0.000000 -0.014140 0.000000
# 2 -0.004914 0.012478 -0.005432 0.000000 0.006288 0.000000
# 3 -0.005250 -0.005432 0.035110 0.000000 -0.014166 0.000000
# 4 0.000000 0.000000 0.000000 0.033014 0.000000 0.003954
# 5 -0.014140 0.006288 -0.014166 0.000000 0.050548 0.000000
# 6 0.000000 0.000000 0.000000 0.003954 0.000000 0.029566
#
#
# Mechanical properties :
#
#
# Convention : Reuss Voigt Hill
#
# Bulk Modulus (GPa) = 28.38270 46.90771 37.64520
# Shear Modulus (GPa) = 22.47316 29.73138 26.10227
#
# Velocity S-wave (km/s) = 3.28101 3.77384 3.53602
# Velocity P-wave (km/s) = 5.28670 6.43885 5.89101
#
# Compressibility (1/GPa) = 0.03523273
#
# Stress axis : x y z
#
# Youngs Moduli (GPa) = 53.08944 80.14043 28.48218
#
# Poissons Ratio (x) = 0.39380 0.14952
# Poissons Ratio (y) = 0.26087 0.15472
# Poissons Ratio (z) = 0.27870 0.43533
#
# Static dielectric constant tensor:
#      x y z
#    x 3.778470 0.000000 0.181290 
#    y 0.000000 4.301370 0.000000 
#    z 0.181290 0.000000 3.518020 
# 
# 
# High freq. dielectric constant tensor:
#      x y z
#    x 1.818840 0.000000 0.030360 
#    y 0.000000 1.827540 0.000000 
#    z 0.030360 0.000000 1.793200 
# 
# From -- ./inp_files/9721.got.cif
#   From: 2010.06.25/outbox.cif.g09.slc.cpg/sg9_5_cif.got.tgz:9721.got - 2010.06.27 21:40:51.
