data_PCOD8055555
_publ_section_title
;
Structure prediction by ZEFSAII (Michael W. Deem and Ramdas Pophale) SiO2 
 PCOD8055555
Probable space group: C C
;
_chemical_formula_sum "Si O2"
_cell_formula_units_Z 32
_cell_length_a 15.110083
_cell_length_b 9.067582
_cell_length_c 11.500786
_cell_angle_alpha 90.000000
_cell_angle_beta 94.130910
_cell_angle_gamma 90.000000
_cell_volume 1571.651052
_symmetry_space_group_name_H-M "C C"
_symmetry_group_IT_number 9
_symmetry_cell_setting 'monoclinic'
loop_
_space_group_symop_operation_xyz
x,y,z
x,-y,1/2+z
1/2+x,1/2+y,z
1/2+x,1/2-y,1/2+z
loop_
_atom_site_type_symbol
_atom_site_label
_atom_site_fract_x
_atom_site_fract_y
_atom_site_fract_z
Si Si1 0.279490 0.672453 0.567220
Si Si2 0.110068 0.366983 0.899487
Si Si3 0.941246 0.117515 0.426852
Si Si4 0.609784 0.787947 0.426087
Si Si5 0.673215 0.712045 0.689040
Si Si6 0.003596 0.827859 0.547833
Si Si7 0.841758 0.117331 0.188116
Si Si8 0.673018 0.367102 0.715712
O O1 0.201095 0.684841 0.467131
O O2 0.374320 0.689969 0.513861
O O3 0.281736 0.513903 0.630361
O O4 0.260183 0.802928 0.658113
O O5 0.111696 0.541449 0.895688
O O6 0.108653 0.301658 0.769321
O O7 0.022903 0.302650 0.956972
O O8 0.891447 0.057485 0.307551
O O9 0.007823 0.245399 0.396672
O O10 0.001318 0.986365 0.484640
O O11 0.641356 0.749626 0.557549
O O12 0.674446 0.698697 0.345726
O O13 0.775188 0.754700 0.718040
O O14 0.671446 0.541567 0.720013
O O15 0.081990 0.815569 0.647926
O O16 0.908764 0.810334 0.601171
#
# Coordination Sequence:
#
# PCOD8055555 Si02
#       8
#     4   4   4   4   4   4   4   4
#     4  10  23  41  67  94 130 173 219 270 326 389
#     4  11  24  42  67  97 132 172 221 270 325 391
#     4  11  22  41  67  98 131 172 218 271 329 392
#     4  12  25  42  68  98 133 175 221 269 331 389
#     4  12  25  42  68  98 133 175 221 269 331 389
#     4  10  23  41  67  94 130 173 219 270 326 389
#     4  11  22  41  67  98 131 172 218 271 329 392
#     4  11  24  42  67  97 132 172 221 270 325 391
#
# _framework density 20.360752999999999
#
# number of rings (size 3 to 8) (size 9 to 14) (size 15 to 20)
#    0.000    1.000    5.000    1.500    3.500    1.000 
#    0.000    1.250    0.000    0.000    0.000    0.000 
#    0.000    0.000    0.000    0.000    0.000    0.000 
#
# Total GULP energy -198414.962128 kJ/mol
# GULP energy per Si atom -12400.935133 kJ/mol
# Density = 2.031441 g / cm^3
# Si number density = 20.360753 Si / 1000 Ang^3
#
#
#
# Elastic Constant Matrix: (Units=GPa)
#
#
# Indices 1 2 3 4 5 6 
#
# 1 60.8361 26.3359 24.6671 0.0000 -18.1046 0.0000
# 2 26.3359 134.3134 55.7981 0.0000 -30.6823 0.0000
# 3 24.6671 55.7981 139.0728 0.0000 -15.9918 0.0000
# 4 0.0000 0.0000 0.0000 32.7862 0.0000 -7.8498
# 5 -18.1046 -30.6823 -15.9918 0.0000 34.9091 0.0000
# 6 0.0000 0.0000 0.0000 -7.8498 0.0000 36.0238
#
#
#
# Elastic Compliance Matrix: (Units=1/GPa)
#
#
# Indices 1 2 3 4 5 6 
#
# 1 0.020358 -0.001132 -0.002171 0.000000 0.008568 0.000000
# 2 -0.001132 0.010688 -0.003246 0.000000 0.007320 0.000000
# 3 -0.002171 -0.003246 0.008888 0.000000 0.000093 0.000000
# 4 0.000000 0.000000 0.000000 0.032180 0.000000 0.007012
# 5 0.008568 0.007320 0.000093 0.000000 0.039565 0.000000
# 6 0.000000 0.000000 0.000000 0.007012 0.000000 0.029287
#
#
# Mechanical properties :
#
#
# Convention : Reuss Voigt Hill
#
# Bulk Modulus (GPa) = 37.26390 60.86940 49.06665
# Shear Modulus (GPa) = 30.67292 35.90523 33.28908
#
# Velocity S-wave (km/s) = 3.88554 4.20390 4.04785
# Velocity P-wave (km/s) = 6.20254 7.31602 6.78217
#
# Compressibility (1/GPa) = 0.02683563
#
# Stress axis : x y z
#
# Youngs Moduli (GPa) = 49.12061 93.56568 112.50535
#
# Poissons Ratio (x) = 0.10596 0.24428
# Poissons Ratio (y) = 0.05563 0.36514
# Poissons Ratio (z) = 0.10665 0.30367
#
# Static dielectric constant tensor:
#      x y z
#    x 3.737200 0.000000 -0.132040 
#    y 0.000000 3.637000 0.000000 
#    z -0.132040 0.000000 3.999540 
# 
# 
# High freq. dielectric constant tensor:
#      x y z
#    x 1.792750 0.000000 -0.012850 
#    y 0.000000 1.787050 0.000000 
#    z -0.012850 0.000000 1.813800 
# 
# From -- ./inp_files/17786.got.cif
#   From: 2010.06.25/outbox.cif.g09.slc.cpg/sg9_9_cif.got.tgz:17786.got - 2010.06.27 21:40:51.
