data_PCOD8055473
_publ_section_title
;
Structure prediction by ZEFSAII (Michael W. Deem and Ramdas Pophale) SiO2 
 PCOD8055473
Probable space group: C C
;
_chemical_formula_sum "Si O2"
_cell_formula_units_Z 32
_cell_length_a 9.735103
_cell_length_b 15.581863
_cell_length_c 10.644088
_cell_angle_alpha 90.000000
_cell_angle_beta 63.335183
_cell_angle_gamma 90.000000
_cell_volume 1442.894085
_symmetry_space_group_name_H-M "C C"
_symmetry_group_IT_number 9
_symmetry_cell_setting 'monoclinic'
loop_
_space_group_symop_operation_xyz
x,y,z
x,-y,1/2+z
1/2+x,1/2+y,z
1/2+x,1/2-y,1/2+z
loop_
_atom_site_type_symbol
_atom_site_label
_atom_site_fract_x
_atom_site_fract_y
_atom_site_fract_z
Si Si1 0.225070 0.380177 0.475530
Si Si2 0.249698 0.073327 0.557919
Si Si3 0.926104 0.860135 0.171951
Si Si4 0.883799 0.254030 0.076966
Si Si5 0.855760 0.065696 0.453729
Si Si6 0.901945 0.317244 0.574683
Si Si7 0.744984 0.754291 0.904986
Si Si8 0.212382 0.056510 0.285832
O O1 0.307229 0.333194 0.326462
O O2 0.280465 0.326786 0.574016
O O3 0.269811 0.479249 0.455221
O O4 0.044319 0.382090 0.524025
O O5 0.357583 0.157063 0.513045
O O6 0.252232 0.032775 0.415131
O O7 0.078788 0.100801 0.668193
O O8 0.295182 0.006083 0.649163
O O9 0.972473 0.775051 0.078134
O O10 0.847722 0.926324 0.107592
O O11 0.827527 0.269853 0.241561
O O12 0.063519 0.232015 0.984986
O O13 0.769641 0.145376 0.424231
O O14 0.031112 0.060050 0.335979
O O15 0.824988 0.310509 0.469977
O O16 0.776450 0.348771 0.727830
#
# Coordination Sequence:
#
# PCOD8055473 Si02
#       8
#     4   4   4   4   4   4   4   4
#     4  12  25  44  75  99 141 184 235 289 362 429
#     4  11  24  45  72 105 142 186 240 294 360 427
#     4  10  22  45  70  97 137 183 236 282 360 429
#     4  12  27  46  73 104 148 188 244 297 366 431
#     4  10  25  44  70 104 140 181 232 298 356 429
#     4  11  26  45  73 102 137 190 234 291 356 435
#     4  11  28  46  73 105 146 185 244 301 360 428
#     4  11  25  45  74 102 145 187 239 292 362 432
#
# _framework density 22.177648999999999
#
# number of rings (size 3 to 8) (size 9 to 14) (size 15 to 20)
#    0.000    1.000    2.500    2.250   14.000    1.000 
#    2.250    0.000    0.000    0.000    0.000    0.000 
#    0.000    0.000    0.000    0.000    0.000    0.000 
#
# Total GULP energy -198383.439974 kJ/mol
# GULP energy per Si atom -12398.964998 kJ/mol
# Density = 2.212717 g / cm^3
# Si number density = 22.177649 Si / 1000 Ang^3
#
#
#
# Elastic Constant Matrix: (Units=GPa)
#
#
# Indices 1 2 3 4 5 6 
#
# 1 126.5779 48.8849 45.1969 0.0000 -8.9071 0.0000
# 2 48.8849 88.7674 21.5780 0.0000 -1.9904 0.0000
# 3 45.1969 21.5780 127.4535 0.0000 5.2411 0.0000
# 4 0.0000 0.0000 0.0000 35.7276 0.0000 -1.4729
# 5 -8.9071 -1.9904 5.2411 0.0000 30.3774 0.0000
# 6 0.0000 0.0000 0.0000 -1.4729 0.0000 29.9640
#
#
#
# Elastic Compliance Matrix: (Units=1/GPa)
#
#
# Indices 1 2 3 4 5 6 
#
# 1 0.011408 -0.005407 -0.003277 0.000000 0.003556 0.000000
# 2 -0.005407 0.014349 -0.000489 0.000000 -0.000561 0.000000
# 3 -0.003277 -0.000489 0.009197 0.000000 -0.002580 0.000000
# 4 0.000000 0.000000 0.000000 0.028046 0.000000 0.001379
# 5 0.003556 -0.000561 -0.002580 0.000000 0.034370 0.000000
# 6 0.000000 0.000000 0.000000 0.001379 0.000000 0.033441
#
#
# Mechanical properties :
#
#
# Convention : Reuss Voigt Hill
#
# Bulk Modulus (GPa) = 60.20390 63.79091 61.99740
# Shear Modulus (GPa) = 32.32205 34.35638 33.33922
#
# Velocity S-wave (km/s) = 3.82175 3.94019 3.88142
# Velocity P-wave (km/s) = 6.83224 7.03748 6.93562
#
# Compressibility (1/GPa) = 0.01661022
#
# Stress axis : x y z
#
# Youngs Moduli (GPa) = 87.65408 69.69068 108.73383
#
# Poissons Ratio (x) = 0.37678 0.35627
# Poissons Ratio (y) = 0.47390 0.05317
# Poissons Ratio (z) = 0.28720 0.03408
#
# Static dielectric constant tensor:
#      x y z
#    x 4.035630 0.000000 0.115750 
#    y 0.000000 3.883630 0.000000 
#    z 0.115750 0.000000 3.943150 
# 
# 
# High freq. dielectric constant tensor:
#      x y z
#    x 1.875090 0.000000 0.003770 
#    y 0.000000 1.875730 0.000000 
#    z 0.003770 0.000000 1.877500 
# 
# From -- ./inp_files/14676.got.cif
#   From: 2010.06.25/outbox.cif.g09.slc.cpg/sg9_8_cif.got.tgz:14676.got - 2010.06.27 21:40:51.
