data_PCOD8055638
_publ_section_title
;
Structure prediction by ZEFSAII (Michael W. Deem and Ramdas Pophale) SiO2 
 PCOD8055638
Probable space group: C C
;
_chemical_formula_sum "Si O2"
_cell_formula_units_Z 28
_cell_length_a 17.011508
_cell_length_b 8.727116
_cell_length_c 22.096361
_cell_angle_alpha 90.000000
_cell_angle_beta 160.411187
_cell_angle_gamma 90.000000
_cell_volume 1099.830956
_symmetry_space_group_name_H-M "C C"
_symmetry_group_IT_number 9
_symmetry_cell_setting 'monoclinic'
loop_
_space_group_symop_operation_xyz
x,y,z
x,-y,1/2+z
1/2+x,1/2+y,z
1/2+x,1/2-y,1/2+z
loop_
_atom_site_type_symbol
_atom_site_label
_atom_site_fract_x
_atom_site_fract_y
_atom_site_fract_z
Si Si1 0.181680 0.298791 0.208240
Si Si2 0.611886 0.069017 0.777765
Si Si3 0.612708 0.689882 0.383501
Si Si4 0.605806 0.764718 0.938894
Si Si5 0.804692 0.486482 0.864601
Si Si6 0.116764 0.410899 0.488729
Si Si7 0.106731 0.765874 0.310860
O O1 0.391919 0.329044 0.312848
O O2 0.260219 0.386232 0.325978
O O3 0.150203 0.118398 0.206065
O O4 0.944446 0.367048 0.008395
O O5 0.675785 0.177444 0.880858
O O6 0.337702 0.084989 0.560022
O O7 0.692175 0.895447 0.846978
O O8 0.537703 0.763958 0.393126
O O9 0.398629 0.586431 0.204091
O O10 0.725906 0.706400 0.962552
O O11 0.540192 0.944145 0.892788
O O12 0.844078 0.748580 0.150409
O O13 0.646943 0.594894 0.792983
O O14 0.982045 0.592227 0.955140
#
# Coordination Sequence:
#
# PCOD8055638 Si02
#       7
#     4   4   4   4   4   4   4
#     4  11  25  48  74 105 147 208 242 308 385 467
#     4  11  24  44  75 106 146 198 253 306 381 445
#     4  10  23  43  75 106 151 201 251 305 385 450
#     4  11  25  45  71 103 150 193 255 306 382 447
#     4  11  27  48  76 107 154 198 257 316 383 457
#     4  10  23  46  69 107 146 199 250 311 372 454
#     4  12  27  46  72 114 144 195 254 330 370 444
#
# _framework density 25.458459000000001
#
# number of rings (size 3 to 8) (size 9 to 14) (size 15 to 20)
#    0.000    1.143    1.429    3.429   10.000    3.429 
#    2.571    1.429    0.000    0.000    0.000    0.000 
#    0.000    0.000    0.000    0.000    0.000    0.000 
#
# Total GULP energy -173475.805877 kJ/mol
# GULP energy per Si atom -12391.128991 kJ/mol
# Density = 2.540051 g / cm^3
# Si number density = 25.458459 Si / 1000 Ang^3
#
#
#
# Elastic Constant Matrix: (Units=GPa)
#
#
# Indices 1 2 3 4 5 6 
#
# 1 170.3518 60.7009 11.4911 -0.0068 -1.0761 -0.0110
# 2 60.7009 112.1593 23.0621 -0.0699 0.8947 -0.0150
# 3 11.4911 23.0621 41.0019 -0.1521 -2.1132 -0.0281
# 4 -0.0068 -0.0699 -0.1521 34.8531 -0.0057 2.3197
# 5 -1.0761 0.8947 -2.1132 -0.0057 34.2262 -0.0004
# 6 -0.0110 -0.0150 -0.0281 2.3197 -0.0004 45.2339
#
#
#
# Elastic Compliance Matrix: (Units=1/GPa)
#
#
# Indices 1 2 3 4 5 6 
#
# 1 0.007278 -0.003987 0.000221 -0.000006 0.000347 0.000001
# 2 -0.003987 0.012279 -0.005831 -0.000002 -0.000806 0.000000
# 3 0.000221 -0.005831 0.027704 0.000109 0.001870 0.000010
# 4 -0.000006 -0.000002 0.000109 0.028791 0.000011 -0.001476
# 5 0.000347 -0.000806 0.001870 0.000011 0.029365 0.000001
# 6 0.000001 0.000000 0.000010 -0.001476 0.000001 0.022183
#
#
# Mechanical properties :
#
#
# Convention : Reuss Voigt Hill
#
# Bulk Modulus (GPa) = 35.62950 57.11347 46.37148
# Shear Modulus (GPa) = 32.02068 38.07991 35.05029
#
# Velocity S-wave (km/s) = 3.55034 3.87171 3.71450
# Velocity P-wave (km/s) = 5.55267 6.51687 6.05399
#
# Compressibility (1/GPa) = 0.02806663
#
# Stress axis : x y z
#
# Youngs Moduli (GPa) = 137.39599 81.43939 36.09642
#
# Poissons Ratio (x) = 0.32471 -0.00797
# Poissons Ratio (y) = 0.54782 0.21047
# Poissons Ratio (z) = -0.03032 0.47485
#
# Static dielectric constant tensor:
#      x y z
#    x 4.806920 -0.000030 -0.186120 
#    y -0.000030 4.476260 -0.000140 
#    z -0.186120 -0.000140 4.414160 
# 
# 
# High freq. dielectric constant tensor:
#      x y z
#    x 2.032780 0.000000 -0.010980 
#    y 0.000000 2.009840 -0.000010 
#    z -0.010980 -0.000010 2.014410 
# 
# From -- ./inp_files/35811.got.cif
#   From: 2010.06.25/outbox.cif.g09.slc.cpg/sg9_18_cif.got.tgz:35811.got - 2010.06.27 21:40:51.
