data_PCOD8055241
_publ_section_title
;
Structure prediction by ZEFSAII (Michael W. Deem and Ramdas Pophale) SiO2 
 PCOD8055241
Probable space group: C C
;
_chemical_formula_sum "Si O2"
_cell_formula_units_Z 32
_cell_length_a 8.823973
_cell_length_b 11.393162
_cell_length_c 15.133539
_cell_angle_alpha 90.000000
_cell_angle_beta 96.785297
_cell_angle_gamma 90.000000
_cell_volume 1510.763143
_symmetry_space_group_name_H-M "C C"
_symmetry_group_IT_number 9
_symmetry_cell_setting 'monoclinic'
loop_
_space_group_symop_operation_xyz
x,y,z
x,-y,1/2+z
1/2+x,1/2+y,z
1/2+x,1/2-y,1/2+z
loop_
_atom_site_type_symbol
_atom_site_label
_atom_site_fract_x
_atom_site_fract_y
_atom_site_fract_z
Si Si1 0.237800 0.777012 0.962590
Si Si2 0.029909 0.259582 0.767009
Si Si3 0.051461 0.368820 0.588833
Si Si4 0.079725 0.236935 0.963512
Si Si5 0.676656 0.722545 0.260637
Si Si6 0.708204 0.102608 0.615589
Si Si7 0.542999 0.517605 0.686802
Si Si8 0.236797 0.025302 0.032904
O O1 0.405683 0.724337 0.984017
O O2 0.160129 0.748509 0.862828
O O3 0.122005 0.724661 0.026117
O O4 0.273403 0.914956 0.974261
O O5 0.105048 0.329192 0.690739
O O6 0.095826 0.295270 0.867170
O O7 0.853616 0.298855 0.749889
O O8 0.067680 0.120772 0.759908
O O9 0.103591 0.499405 0.574434
O O10 0.871014 0.381837 0.564099
O O11 0.196419 0.303269 0.036295
O O12 0.120507 0.100221 0.966427
O O13 0.635373 0.837465 0.198928
O O14 0.565392 0.612197 0.230588
O O15 0.875079 0.046335 0.637455
O O16 0.665130 0.526815 0.617337
#
# Coordination Sequence:
#
# PCOD8055241 Si02
#       8
#     4   4   4   4   4   4   4   4
#     4  11  25  44  68 100 134 171 226 274 332 394
#     4  10  22  40  67  95 129 173 225 268 330 392
#     4  12  24  42  64 102 132 174 222 270 331 404
#     4  11  23  44  65  96 137 176 219 281 325 387
#     4  10  22  44  67  94 130 175 219 275 328 392
#     4  11  24  40  67  97 134 176 222 268 334 392
#     4  11  20  42  71  92 129 176 220 272 333 395
#     4  12  22  42  71  94 131 175 217 272 339 390
#
# _framework density 21.181349000000001
#
# number of rings (size 3 to 8) (size 9 to 14) (size 15 to 20)
#    0.000    1.000    5.000    2.250    0.000    1.000 
#    2.250    1.250    0.000    0.000    0.000    0.000 
#    0.000    0.000    0.000    0.000    0.000    0.000 
#
# Total GULP energy -198249.788259 kJ/mol
# GULP energy per Si atom -12390.611766 kJ/mol
# Density = 2.113314 g / cm^3
# Si number density = 21.181349 Si / 1000 Ang^3
#
#
#
# Elastic Constant Matrix: (Units=GPa)
#
#
# Indices 1 2 3 4 5 6 
#
# 1 93.0870 43.8179 43.6496 0.0000 3.2627 0.0000
# 2 43.8179 105.5778 42.0103 0.0000 9.7945 0.0000
# 3 43.6496 42.0103 131.1660 0.0000 -6.9106 0.0000
# 4 0.0000 0.0000 0.0000 18.4903 0.0000 -2.0587
# 5 3.2627 9.7945 -6.9106 0.0000 28.1658 0.0000
# 6 0.0000 0.0000 0.0000 -2.0587 0.0000 39.5667
#
#
#
# Elastic Compliance Matrix: (Units=1/GPa)
#
#
# Indices 1 2 3 4 5 6 
#
# 1 0.014537 -0.004588 -0.003417 0.000000 -0.000927 0.000000
# 2 -0.004588 0.012950 -0.002867 0.000000 -0.004676 0.000000
# 3 -0.003417 -0.002867 0.009881 0.000000 0.003817 0.000000
# 4 0.000000 0.000000 0.000000 0.054397 0.000000 0.002830
# 5 -0.000927 -0.004676 0.003817 0.000000 0.038174 0.000000
# 6 0.000000 0.000000 0.000000 0.002830 0.000000 0.025421
#
#
# Mechanical properties :
#
#
# Convention : Reuss Voigt Hill
#
# Bulk Modulus (GPa) = 64.00578 65.42072 64.71325
# Shear Modulus (GPa) = 27.42541 30.60142 29.01342
#
# Velocity S-wave (km/s) = 3.60222 3.80509 3.70505
# Velocity P-wave (km/s) = 6.89818 7.08929 6.99439
#
# Compressibility (1/GPa) = 0.01562359
#
# Stress axis : x y z
#
# Youngs Moduli (GPa) = 68.79038 77.21767 101.20828
#
# Poissons Ratio (x) = 0.35424 0.34584
# Poissons Ratio (y) = 0.31558 0.29021
# Poissons Ratio (z) = 0.23507 0.22142
#
# Static dielectric constant tensor:
#      x y z
#    x 3.720550 0.000000 0.026820 
#    y 0.000000 3.895050 0.000000 
#    z 0.026820 0.000000 3.993680 
# 
# 
# High freq. dielectric constant tensor:
#      x y z
#    x 1.819790 0.000000 0.004780 
#    y 0.000000 1.839400 0.000000 
#    z 0.004780 0.000000 1.835950 
# 
# From -- ./inp_files/22739.got.cif
#   From: 2010.06.25/outbox.cif.g09.slc.cpg/sg9_12_cif.got.tgz:22739.got - 2010.06.27 21:40:51.
