data_PCOD8055435
_publ_section_title
;
Structure prediction by ZEFSAII (Michael W. Deem and Ramdas Pophale) SiO2 
 PCOD8055435
Probable space group: C C
;
_chemical_formula_sum "Si O2"
_cell_formula_units_Z 20
_cell_length_a 6.710217
_cell_length_b 13.974709
_cell_length_c 13.524111
_cell_angle_alpha 90.000000
_cell_angle_beta 135.136704
_cell_angle_gamma 90.000000
_cell_volume 894.611326
_symmetry_space_group_name_H-M "C C"
_symmetry_group_IT_number 9
_symmetry_cell_setting 'monoclinic'
loop_
_space_group_symop_operation_xyz
x,y,z
x,-y,1/2+z
1/2+x,1/2+y,z
1/2+x,1/2-y,1/2+z
loop_
_atom_site_type_symbol
_atom_site_label
_atom_site_fract_x
_atom_site_fract_y
_atom_site_fract_z
Si Si1 0.822260 0.256400 0.965250
Si Si2 0.568553 0.961406 0.792963
Si Si3 0.781935 0.369118 0.271140
Si Si4 0.899747 0.252001 0.768064
Si Si5 0.686882 0.430563 0.030279
O O1 0.545662 0.196359 0.892858
O O2 0.929511 0.232348 0.893920
O O3 0.750616 0.369064 0.954457
O O4 0.073124 0.230053 0.128292
O O5 0.567476 0.847752 0.800683
O O6 0.389316 0.019049 0.815355
O O7 0.440698 0.993878 0.641288
O O8 0.897733 0.990684 0.915993
O O9 0.527982 0.340206 0.255512
O O10 0.672161 0.356034 0.119227
#
# Coordination Sequence:
#
# PCOD8055435 Si02
#       5
#     4   4   4   4   4
#     4  12  24  45  72 108 143 201 241 310 377 444
#     4  10  22  44  70 103 148 187 249 303 369 438
#     4  10  24  46  70 101 149 186 248 303 363 448
#     4  12  24  44  74 104 150 197 249 304 383 432
#     4  10  22  47  70 108 146 193 249 306 372 442
#
# _framework density 22.356079000000001
#
# number of rings (size 3 to 8) (size 9 to 14) (size 15 to 20)
#    1.200    0.000    4.000    2.400    0.000    0.000 
#   10.800    0.000    0.000    0.000    0.000    0.000 
#    0.000    0.000    0.000    0.000    0.000    0.000 
#
# Total GULP energy -123917.481621 kJ/mol
# GULP energy per Si atom -12391.748162 kJ/mol
# Density = 2.230520 g / cm^3
# Si number density = 22.356079 Si / 1000 Ang^3
#
#
#
# Elastic Constant Matrix: (Units=GPa)
#
#
# Indices 1 2 3 4 5 6 
#
# 1 73.1416 16.5644 33.1759 0.0005 3.3908 0.0003
# 2 16.5644 63.4698 23.2638 0.0002 5.0150 0.0001
# 3 33.1759 23.2638 101.4583 0.0005 32.9017 0.0003
# 4 0.0005 0.0002 0.0005 35.1661 0.0005 7.5805
# 5 3.3908 5.0150 32.9017 0.0005 43.1698 0.0003
# 6 0.0003 0.0001 0.0003 7.5805 0.0003 48.4241
#
#
#
# Elastic Compliance Matrix: (Units=1/GPa)
#
#
# Indices 1 2 3 4 5 6 
#
# 1 0.016832 -0.002436 -0.006121 0.000000 0.003626 0.000000
# 2 -0.002436 0.017612 -0.003507 0.000000 0.000818 0.000000
# 3 -0.006121 -0.003507 0.016436 0.000000 -0.011639 0.000000
# 4 0.000000 0.000000 0.000000 0.029430 0.000000 -0.004607
# 5 0.003626 0.000818 -0.011639 0.000000 0.031655 0.000000
# 6 0.000000 0.000000 0.000000 -0.004607 0.000000 0.021372
#
#
# Mechanical properties :
#
#
# Convention : Reuss Voigt Hill
#
# Bulk Modulus (GPa) = 37.38064 42.67534 40.02799
# Shear Modulus (GPa) = 30.05109 36.35637 33.20373
#
# Velocity S-wave (km/s) = 3.67031 4.03704 3.85804
# Velocity P-wave (km/s) = 5.89224 6.39223 6.14732
#
# Compressibility (1/GPa) = 0.02675182
#
# Stress axis : x y z
#
# Youngs Moduli (GPa) = 59.40994 56.77927 60.84053
#
# Poissons Ratio (x) = 0.13830 0.37243
# Poissons Ratio (y) = 0.14471 0.21339
# Poissons Ratio (z) = 0.36367 0.19914
#
# Static dielectric constant tensor:
#      x y z
#    x 3.748290 0.000000 0.176500 
#    y 0.000000 3.819450 0.000000 
#    z 0.176500 0.000000 4.055380 
# 
# 
# High freq. dielectric constant tensor:
#      x y z
#    x 1.856630 0.000000 0.022120 
#    y 0.000000 1.868990 0.000000 
#    z 0.022120 0.000000 1.892390 
# 
# From -- ./inp_files/12940.got.cif
#   From: 2010.06.25/outbox.cif.g09.slc.cpg/sg9_7_cif.got.tgz:12940.got - 2010.06.27 21:40:51.
