data_PCOD8055767
_publ_section_title
;
Structure prediction by ZEFSAII (Michael W. Deem and Ramdas Pophale) SiO2 
 PCOD8055767
Probable space group: C C
;
_chemical_formula_sum "Si O2"
_cell_formula_units_Z 32
_cell_length_a 12.488880
_cell_length_b 14.261823
_cell_length_c 8.583703
_cell_angle_alpha 90.000000
_cell_angle_beta 114.270626
_cell_angle_gamma 90.000000
_cell_volume 1393.748025
_symmetry_space_group_name_H-M "C C"
_symmetry_group_IT_number 9
_symmetry_cell_setting 'monoclinic'
loop_
_space_group_symop_operation_xyz
x,y,z
x,-y,1/2+z
1/2+x,1/2+y,z
1/2+x,1/2-y,1/2+z
loop_
_atom_site_type_symbol
_atom_site_label
_atom_site_fract_x
_atom_site_fract_y
_atom_site_fract_z
Si Si1 0.220380 0.884130 0.737050
Si Si2 0.298916 0.592655 0.348928
Si Si3 0.479592 0.115681 0.433939
Si Si4 0.504996 0.281941 0.653231
Si Si5 0.169013 0.928682 0.348559
Si Si6 0.541744 0.930300 0.636269
Si Si7 0.927451 0.019371 0.147232
Si Si8 0.863945 0.704075 0.858480
O O1 0.172902 0.903514 0.533589
O O2 0.138357 0.810140 0.783223
O O3 0.233566 0.973812 0.856259
O O4 0.351952 0.848532 0.804246
O O5 0.179289 0.581429 0.177228
O O6 0.406324 0.552476 0.310523
O O7 0.309570 0.529893 0.510930
O O8 0.326373 0.698775 0.415002
O O9 0.533978 0.211611 0.529665
O O10 0.548244 0.078741 0.325943
O O11 0.488165 0.031722 0.564671
O O12 0.451540 0.382777 0.567869
O O13 0.420799 0.226222 0.723238
O O14 0.242116 0.854942 0.284184
O O15 0.035221 0.944399 0.208113
O O16 0.464416 0.848073 0.516275
#
# Coordination Sequence:
#
# PCOD8055767 Si02
#       8
#     4   4   4   4   4   4   4   4
#     4  11  23  44  70 105 140 192 231 309 358 431
#     4  11  26  45  71 100 147 188 236 297 367 429
#     4  12  24  43  68 100 144 184 244 290 365 435
#     4  10  26  42  68 104 143 186 240 296 369 427
#     4  11  23  44  75 104 142 182 250 299 359 433
#     4  12  26  44  70 104 143 190 237 304 366 427
#     4  10  23  48  69 102 138 190 235 295 363 433
#     4  11  25  44  69 111 139 190 243 302 363 433
#
# _framework density 22.959674
#
# number of rings (size 3 to 8) (size 9 to 14) (size 15 to 20)
#    0.000    1.000    2.500    3.000    5.250    4.000 
#    0.000    0.000    0.000    0.000    0.000    0.000 
#    0.000    0.000    0.000    0.000    0.000    0.000 
#
# Total GULP energy -198218.771353 kJ/mol
# GULP energy per Si atom -12388.673210 kJ/mol
# Density = 2.290742 g / cm^3
# Si number density = 22.959674 Si / 1000 Ang^3
#
#
#
# Elastic Constant Matrix: (Units=GPa)
#
#
# Indices 1 2 3 4 5 6 
#
# 1 117.5953 58.5777 28.2302 0.0000 10.8886 0.0000
# 2 58.5777 160.9697 66.2246 0.0000 15.8074 0.0000
# 3 28.2302 66.2246 73.4803 0.0000 10.4766 0.0000
# 4 0.0000 0.0000 0.0000 36.3057 0.0000 3.8487
# 5 10.8886 15.8074 10.4766 0.0000 43.7286 0.0000
# 6 0.0000 0.0000 0.0000 3.8487 0.0000 42.8334
#
#
#
# Elastic Compliance Matrix: (Units=1/GPa)
#
#
# Indices 1 2 3 4 5 6 
#
# 1 0.010486 -0.003355 -0.000834 0.000000 -0.001198 0.000000
# 2 -0.003355 0.011041 -0.008502 0.000000 -0.001119 0.000000
# 3 -0.000834 -0.008502 0.021872 0.000000 -0.001959 0.000000
# 4 0.000000 0.000000 0.000000 0.027809 0.000000 -0.002499
# 5 -0.001198 -0.001119 -0.001959 0.000000 0.024040 0.000000
# 6 0.000000 0.000000 0.000000 -0.002499 0.000000 0.023571
#
#
# Mechanical properties :
#
#
# Convention : Reuss Voigt Hill
#
# Bulk Modulus (GPa) = 55.50625 73.12339 64.31482
# Shear Modulus (GPa) = 33.28732 37.84105 35.56418
#
# Velocity S-wave (km/s) = 3.81178 4.06415 3.93998
# Velocity P-wave (km/s) = 6.60310 7.34444 6.98361
#
# Compressibility (1/GPa) = 0.01801599
#
# Stress axis : x y z
#
# Youngs Moduli (GPa) = 95.36310 90.57015 45.72145
#
# Poissons Ratio (x) = 0.30388 0.03813
# Poissons Ratio (y) = 0.31997 0.38874
# Poissons Ratio (z) = 0.07952 0.77006
#
# Static dielectric constant tensor:
#      x y z
#    x 4.308930 0.000000 -0.080750 
#    y 0.000000 4.309940 0.000000 
#    z -0.080750 0.000000 3.780160 
# 
# 
# High freq. dielectric constant tensor:
#      x y z
#    x 1.924720 0.000000 0.000220 
#    y 0.000000 1.914390 0.000000 
#    z 0.000220 0.000000 1.883380 
# 
# From -- ./inp_files/7505.got.cif
#   From: 2010.06.25/outbox.cif.g09.slc.cpg/sg9_4_cif.got.tgz:7505.got - 2010.06.27 21:40:51.
