data_PCOD8055617
_publ_section_title
;
Structure prediction by ZEFSAII (Michael W. Deem and Ramdas Pophale) SiO2 
 PCOD8055617
Probable space group: C C
;
_chemical_formula_sum "Si O2"
_cell_formula_units_Z 32
_cell_length_a 6.355993
_cell_length_b 28.294633
_cell_length_c 8.647677
_cell_angle_alpha 90.000000
_cell_angle_beta 67.835635
_cell_angle_gamma 90.000000
_cell_volume 1440.281404
_symmetry_space_group_name_H-M "C C"
_symmetry_group_IT_number 9
_symmetry_cell_setting 'monoclinic'
loop_
_space_group_symop_operation_xyz
x,y,z
x,-y,1/2+z
1/2+x,1/2+y,z
1/2+x,1/2-y,1/2+z
loop_
_atom_site_type_symbol
_atom_site_label
_atom_site_fract_x
_atom_site_fract_y
_atom_site_fract_z
Si Si1 0.154890 0.435462 0.331280
Si Si2 0.753123 0.004753 0.543106
Si Si3 0.850286 0.195772 0.571761
Si Si4 0.280025 0.205482 0.244330
Si Si5 0.261154 0.131023 0.000079
Si Si6 0.029969 0.645913 0.430085
Si Si7 0.407261 0.431296 0.748102
Si Si8 0.081596 0.121029 0.716718
O O1 0.090017 0.475192 0.475300
O O2 0.095263 0.459082 0.183199
O O3 0.429194 0.426710 0.264355
O O4 0.010836 0.388497 0.393541
O O5 0.927933 0.038018 0.398567
O O6 0.882041 0.967287 0.613660
O O7 0.827491 0.240693 0.688949
O O8 0.624178 0.178197 0.545165
O O9 0.033005 0.203116 0.387057
O O10 0.918621 0.156750 0.674929
O O11 0.287175 0.180919 0.075074
O O12 0.462707 0.181887 0.310240
O O13 0.140144 0.096430 0.156598
O O14 0.120694 0.137724 0.881806
O O15 0.814785 0.616533 0.555785
O O16 0.204911 0.607363 0.315328
#
# Coordination Sequence:
#
# PCOD8055617 Si02
#       8
#     4   4   4   4   4   4   4   4
#     4  11  24  45  66 101 137 183 231 285 346 410
#     4  10  23  43  67  98 137 176 239 283 338 416
#     4  11  26  46  69 104 141 179 237 283 342 418
#     4  11  28  42  73 103 135 187 226 290 340 418
#     4  12  25  43  72 100 141 184 226 286 352 414
#     4  11  25  49  70  99 144 187 229 286 351 414
#     4  11  22  45  66 101 136 181 228 287 346 409
#     4  11  25  45  71 100 137 191 224 284 345 413
#
# _framework density 22.217880000000001
#
# number of rings (size 3 to 8) (size 9 to 14) (size 15 to 20)
#    0.000    1.000    2.500    3.000    7.000    2.000 
#    9.000    0.000    0.000    0.000    0.000    0.000 
#    0.000    0.000    0.000    0.000    0.000    0.000 
#
# Total GULP energy -198347.867163 kJ/mol
# GULP energy per Si atom -12396.741698 kJ/mol
# Density = 2.216731 g / cm^3
# Si number density = 22.217880 Si / 1000 Ang^3
#
#
#
# Elastic Constant Matrix: (Units=GPa)
#
#
# Indices 1 2 3 4 5 6 
#
# 1 98.8321 32.2811 44.6802 0.0000 0.8357 0.0000
# 2 32.2811 77.9652 39.3354 0.0000 -4.3029 0.0000
# 3 44.6802 39.3354 119.7256 0.0000 12.7113 0.0000
# 4 0.0000 0.0000 0.0000 55.8280 0.0000 1.0305
# 5 0.8357 -4.3029 12.7113 0.0000 41.6112 0.0000
# 6 0.0000 0.0000 0.0000 1.0305 0.0000 4.4074
#
#
#
# Elastic Compliance Matrix: (Units=1/GPa)
#
#
# Indices 1 2 3 4 5 6 
#
# 1 0.012932 -0.003430 -0.003756 0.000000 0.000533 0.000000
# 2 -0.003430 0.016719 -0.004551 0.000000 0.003188 0.000000
# 3 -0.003756 -0.004551 0.011670 0.000000 -0.003960 0.000000
# 4 0.000000 0.000000 0.000000 0.017990 0.000000 -0.004206
# 5 0.000533 0.003188 -0.003960 0.000000 0.025561 0.000000
# 6 0.000000 0.000000 0.000000 -0.004206 0.000000 0.227876
#
#
# Mechanical properties :
#
#
# Convention : Reuss Voigt Hill
#
# Bulk Modulus (GPa) = 56.03434 58.79071 57.41252
# Shear Modulus (GPa) = 14.61264 32.38440 23.49852
#
# Velocity S-wave (km/s) = 2.56734 3.82197 3.25567
# Velocity P-wave (km/s) = 5.83639 6.78197 6.32687
#
# Compressibility (1/GPa) = 0.01784620
#
# Stress axis : x y z
#
# Youngs Moduli (GPa) = 77.32817 59.81351 85.69192
#
# Poissons Ratio (x) = 0.20517 0.32183
# Poissons Ratio (y) = 0.26525 0.39000
# Poissons Ratio (z) = 0.29042 0.27222
#
# Static dielectric constant tensor:
#      x y z
#    x 3.839800 0.000000 0.090770 
#    y 0.000000 4.195880 0.000000 
#    z 0.090770 0.000000 4.381440 
# 
# 
# High freq. dielectric constant tensor:
#      x y z
#    x 1.855830 0.000000 0.009090 
#    y 0.000000 1.882480 0.000000 
#    z 0.009090 0.000000 1.901150 
# 
# From -- ./inp_files/4330.got.cif
#   From: 2010.06.25/outbox.cif.g09.slc.cpg/sg9_3_cif.got.tgz:4330.got - 2010.06.27 21:40:51.
