data_PCOD8055468
_publ_section_title
;
Structure prediction by ZEFSAII (Michael W. Deem and Ramdas Pophale) SiO2 
 PCOD8055468
Probable space group: C C
;
_chemical_formula_sum "Si O2"
_cell_formula_units_Z 20
_cell_length_a 7.266789
_cell_length_b 11.923865
_cell_length_c 15.346124
_cell_angle_alpha 90.000000
_cell_angle_beta 140.480967
_cell_angle_gamma 90.000000
_cell_volume 846.143028
_symmetry_space_group_name_H-M "C C"
_symmetry_group_IT_number 9
_symmetry_cell_setting 'monoclinic'
loop_
_space_group_symop_operation_xyz
x,y,z
x,-y,1/2+z
1/2+x,1/2+y,z
1/2+x,1/2-y,1/2+z
loop_
_atom_site_type_symbol
_atom_site_label
_atom_site_fract_x
_atom_site_fract_y
_atom_site_fract_z
Si Si1 0.601230 0.023859 0.488510
Si Si2 0.051743 0.737682 0.678556
Si Si3 0.143070 0.181461 0.389435
Si Si4 0.170808 0.505413 0.202229
Si Si5 0.739498 0.479718 0.697388
O O1 0.607402 0.949810 0.580413
O O2 0.932689 0.042770 0.580094
O O3 0.443092 0.140064 0.454663
O O4 0.428192 0.965181 0.345257
O O5 0.995670 0.737085 0.763519
O O6 0.244452 0.627919 0.725115
O O7 0.217825 0.847838 0.709013
O O8 0.737664 0.739577 0.514496
O O9 0.937149 0.075985 0.337682
O O10 0.886350 0.511759 0.157248
#
# Coordination Sequence:
#
# PCOD8055468 Si02
#       5
#     4   4   4   4   4
#     4  10  22  45  69 100 145 175 232 297 335 423
#     4  10  24  45  67 102 145 176 242 286 352 426
#     4  10  23  47  69 107 140 184 239 293 348 422
#     4  11  24  46  73  99 142 188 228 295 352 406
#     4  11  25  45  72 106 142 187 235 287 363 411
#
# _framework density 23.636666999999999
#
# number of rings (size 3 to 8) (size 9 to 14) (size 15 to 20)
#    0.000    1.600    4.000    0.000    8.400    0.000 
#   10.800    0.000    0.000    0.000    0.000    0.000 
#    0.000    0.000    0.000    0.000    0.000    0.000 
#
# Total GULP energy -123892.671349 kJ/mol
# GULP energy per Si atom -12389.267135 kJ/mol
# Density = 2.358287 g / cm^3
# Si number density = 23.636667 Si / 1000 Ang^3
#
#
#
# Elastic Constant Matrix: (Units=GPa)
#
#
# Indices 1 2 3 4 5 6 
#
# 1 149.5764 20.2292 68.5280 0.0001 5.3942 0.0001
# 2 20.2292 40.8593 24.1190 -0.0002 -0.4903 -0.0001
# 3 68.5280 24.1190 190.3261 -0.0014 -10.1024 -0.0008
# 4 0.0001 -0.0002 -0.0014 36.1200 -0.0006 -2.2444
# 5 5.3942 -0.4903 -10.1024 -0.0006 41.1071 -0.0004
# 6 0.0001 -0.0001 -0.0008 -2.2444 -0.0004 24.0350
#
#
#
# Elastic Compliance Matrix: (Units=1/GPa)
#
#
# Indices 1 2 3 4 5 6 
#
# 1 0.008370 -0.002518 -0.002791 0.000000 -0.001814 0.000000
# 2 -0.002518 0.027222 -0.002541 0.000000 0.000031 0.000000
# 3 -0.002791 -0.002541 0.006686 0.000000 0.001979 0.000000
# 4 0.000000 0.000000 0.000000 0.027847 0.000001 0.002600
# 5 -0.001814 0.000031 0.001979 0.000001 0.025052 0.000001
# 6 0.000000 0.000000 0.000000 0.002600 0.000001 0.041849
#
#
# Mechanical properties :
#
#
# Convention : Reuss Voigt Hill
#
# Bulk Modulus (GPa) = 37.62681 67.39049 52.50865
# Shear Modulus (GPa) = 30.94340 38.11144 34.52742
#
# Velocity S-wave (km/s) = 3.62211 4.01981 3.82613
# Velocity P-wave (km/s) = 5.78328 7.07941 6.46391
#
# Compressibility (1/GPa) = 0.02657679
#
# Stress axis : x y z
#
# Youngs Moduli (GPa) = 119.47122 36.73561 149.56374
#
# Poissons Ratio (x) = 0.09251 0.41742
# Poissons Ratio (y) = 0.30087 0.38008
# Poissons Ratio (z) = 0.33343 0.09336
#
# Static dielectric constant tensor:
#      x y z
#    x 4.171310 0.000000 -0.493950 
#    y 0.000000 4.028380 0.000000 
#    z -0.493950 0.000000 4.879550 
# 
# 
# High freq. dielectric constant tensor:
#      x y z
#    x 1.924780 0.000000 -0.029150 
#    y 0.000000 1.911260 0.000000 
#    z -0.029150 0.000000 1.956940 
# 
# From -- ./inp_files/4698.got.cif
#   From: 2010.06.25/outbox.cif.g09.slc.cpg/sg9_3_cif.got.tgz:4698.got - 2010.06.27 21:40:51.
