data_PCOD8055721
_publ_section_title
;
Structure prediction by ZEFSAII (Michael W. Deem and Ramdas Pophale) SiO2 
 PCOD8055721
Probable space group: C C
;
_chemical_formula_sum "Si O2"
_cell_formula_units_Z 20
_cell_length_a 15.060069
_cell_length_b 11.289214
_cell_length_c 7.658713
_cell_angle_alpha 90.000000
_cell_angle_beta 35.535523
_cell_angle_gamma 90.000000
_cell_volume 756.794104
_symmetry_space_group_name_H-M "C C"
_symmetry_group_IT_number 9
_symmetry_cell_setting 'monoclinic'
loop_
_space_group_symop_operation_xyz
x,y,z
x,-y,1/2+z
1/2+x,1/2+y,z
1/2+x,1/2-y,1/2+z
loop_
_atom_site_type_symbol
_atom_site_label
_atom_site_fract_x
_atom_site_fract_y
_atom_site_fract_z
Si Si1 0.796960 0.168193 0.848130
Si Si2 0.296919 0.415987 0.728850
Si Si3 0.803262 0.434478 0.305878
Si Si4 0.621169 0.368228 0.276952
Si Si5 0.472263 0.142928 0.862102
O O1 0.932967 0.245285 0.546210
O O2 0.756499 0.056399 0.791350
O O3 0.849049 0.117488 0.950958
O O4 0.648559 0.252721 0.111267
O O5 0.443755 0.382029 0.613111
O O6 0.150798 0.345568 0.033966
O O7 0.729245 0.352746 0.274291
O O8 0.667115 0.512575 0.602665
O O9 0.878495 0.349979 0.330360
O O10 0.936417 0.519238 0.016328
#
# Coordination Sequence:
#
# PCOD8055721 Si02
#       5
#     4   4   4   4   4
#     4  11  28  47  73 110 151 194 241 306 373 429
#     4  12  26  47  76 111 144 190 256 302 355 446
#     4   9  20  44  75 109 150 196 240 295 371 447
#     4  10  23  45  73 107 149 193 242 301 367 433
#     4  10  23  47  79 109 150 195 241 304 370 433
#
# _framework density 26.427267000000001
#
# number of rings (size 3 to 8) (size 9 to 14) (size 15 to 20)
#    0.000    1.600    0.000    2.400    0.000   12.800 
#    0.000    6.000    0.000    0.000    0.000    0.000 
#    0.000    0.000    0.000    0.000    0.000    0.000 
#
# Total GULP energy -124051.877865 kJ/mol
# GULP energy per Si atom -12405.187786 kJ/mol
# Density = 2.636712 g / cm^3
# Si number density = 26.427267 Si / 1000 Ang^3
#
#
#
# Elastic Constant Matrix: (Units=GPa)
#
#
# Indices 1 2 3 4 5 6 
#
# 1 108.8176 44.5544 80.5082 0.0000 2.5608 0.0000
# 2 44.5544 154.9826 82.7694 0.0000 1.3359 0.0000
# 3 80.5082 82.7694 185.8955 0.0000 -9.0814 0.0000
# 4 0.0000 0.0000 0.0000 30.4053 0.0000 26.6266
# 5 2.5608 1.3359 -9.0814 0.0000 45.8868 0.0000
# 6 0.0000 0.0000 0.0000 26.6266 0.0000 32.5292
#
#
#
# Elastic Compliance Matrix: (Units=1/GPa)
#
#
# Indices 1 2 3 4 5 6 
#
# 1 0.013796 -0.000932 -0.005651 0.000000 -0.001861 0.000000
# 2 -0.000932 0.008574 -0.003457 0.000000 -0.000882 0.000000
# 3 -0.005651 -0.003457 0.009478 0.000000 0.002292 0.000000
# 4 0.000000 0.000000 0.000000 0.116142 0.000000 -0.095067
# 5 -0.001861 -0.000882 0.002292 0.000000 0.022376 0.000000
# 6 0.000000 0.000000 0.000000 -0.095067 0.000000 0.108558
#
#
# Mechanical properties :
#
#
# Convention : Reuss Voigt Hill
#
# Bulk Modulus (GPa) = 84.97568 96.15106 90.56337
# Shear Modulus (GPa) = 16.50571 37.88849 27.19710
#
# Velocity S-wave (km/s) = 2.50185 3.79052 3.21149
# Velocity P-wave (km/s) = 6.36946 7.45786 6.93504
#
# Compressibility (1/GPa) = 0.01176807
#
# Stress axis : x y z
#
# Youngs Moduli (GPa) = 72.48638 116.62970 105.51138
#
# Poissons Ratio (x) = 0.10873 0.59619
# Poissons Ratio (y) = 0.06758 0.36475
# Poissons Ratio (z) = 0.40959 0.40318
#
# Static dielectric constant tensor:
#      x y z
#    x 4.495000 0.000000 0.338000 
#    y 0.000000 4.821850 0.000000 
#    z 0.338000 0.000000 4.788100 
# 
# 
# High freq. dielectric constant tensor:
#      x y z
#    x 2.040520 0.000000 0.012390 
#    y 0.000000 2.076810 0.000000 
#    z 0.012390 0.000000 2.067580 
# 
# From -- ./inp_files/4734.got.cif
#   From: 2010.06.25/outbox.cif.g09.slc.cpg/sg9_3_cif.got.tgz:4734.got - 2010.06.27 21:40:51.
