data_PCOD8055880
_publ_section_title
;
Structure prediction by ZEFSAII (Michael W. Deem and Ramdas Pophale) SiO2 
 PCOD8055880
Probable space group: C C
;
_chemical_formula_sum "Si O2"
_cell_formula_units_Z 28
_cell_length_a 19.304998
_cell_length_b 7.007992
_cell_length_c 9.549223
_cell_angle_alpha 90.000000
_cell_angle_beta 67.189922
_cell_angle_gamma 90.000000
_cell_volume 1190.873772
_symmetry_space_group_name_H-M "C C"
_symmetry_group_IT_number 9
_symmetry_cell_setting 'monoclinic'
loop_
_space_group_symop_operation_xyz
x,y,z
x,-y,1/2+z
1/2+x,1/2+y,z
1/2+x,1/2-y,1/2+z
loop_
_atom_site_type_symbol
_atom_site_label
_atom_site_fract_x
_atom_site_fract_y
_atom_site_fract_z
Si Si1 0.839280 0.370580 0.005660
Si Si2 0.992846 0.292929 0.010328
Si Si3 0.522672 0.136157 0.184711
Si Si4 0.100594 0.052021 0.468178
Si Si5 0.840506 0.788890 0.976176
Si Si6 0.878493 0.887551 0.249992
Si Si7 0.198998 0.914948 0.628955
O O1 0.757141 0.416455 0.136598
O O2 0.876039 0.576521 0.933661
O O3 0.819554 0.244420 0.883242
O O4 0.902015 0.274213 0.057491
O O5 0.025331 0.080458 0.016150
O O6 0.035919 0.383263 0.841385
O O7 0.009071 0.429377 0.129071
O O8 0.455715 0.286167 0.224728
O O9 0.589533 0.245205 0.053585
O O10 0.164827 0.944579 0.502788
O O11 0.131122 0.103303 0.290394
O O12 0.871308 0.899199 0.816662
O O13 0.867073 0.897671 0.094173
O O14 0.749459 0.775787 0.064813
#
# Coordination Sequence:
#
# PCOD8055880 Si02
#       7
#     4   4   4   4   4   4   4
#     4   9  23  45  71 101 142 187 240 303 347 429
#     4  11  25  46  76 104 141 192 243 296 365 429
#     4  11  26  44  70 106 143 186 241 294 359 443
#     4  12  25  48  68 107 149 195 233 300 366 441
#     4  10  24  44  71 106 140 184 238 302 362 428
#     4  11  23  43  72 108 137 182 243 303 356 425
#     4  10  24  48  70  98 150 188 238 296 367 429
#
# _framework density 23.512149999999998
#
# number of rings (size 3 to 8) (size 9 to 14) (size 15 to 20)
#    0.857    0.571    2.857    0.857    6.000    4.571 
#    7.714    0.000    0.000    0.000    0.000    0.000 
#    0.000    0.000    0.000    0.000    0.000    0.000 
#
# Total GULP energy -173438.163000 kJ/mol
# GULP energy per Si atom -12388.440214 kJ/mol
# Density = 2.345863 g / cm^3
# Si number density = 23.512150 Si / 1000 Ang^3
#
#
#
# Elastic Constant Matrix: (Units=GPa)
#
#
# Indices 1 2 3 4 5 6 
#
# 1 58.0621 -0.6670 -23.9543 0.0000 4.1070 0.0000
# 2 -0.6670 65.5736 -7.9259 0.0000 4.7003 0.0000
# 3 -23.9543 -7.9259 45.6311 0.0000 15.2207 0.0000
# 4 0.0000 0.0000 0.0000 -140.9429 0.0000 -352.1411
# 5 4.1070 4.7003 15.2207 0.0000 38.7709 0.0000
# 6 0.0000 0.0000 0.0000 -352.1411 0.0000 -634.4730
#
#
#
# Elastic Compliance Matrix: (Units=1/GPa)
#
#
# Indices 1 2 3 4 5 6 
#
# 1 0.024842 0.002962 0.016746 0.000000 -0.009565 0.000000
# 2 0.002962 0.016329 0.005933 0.000000 -0.004623 0.000000
# 3 0.016746 0.005933 0.037476 0.000000 -0.017205 0.000000
# 4 0.000000 0.000000 0.000000 0.018349 0.000000 -0.010184
# 5 -0.009565 -0.004623 -0.017205 0.000000 0.034121 0.000000
# 6 0.000000 0.000000 0.000000 -0.010184 0.000000 0.004076
#
#
# Mechanical properties :
#
#
# Convention : Reuss Voigt Hill
#
# Bulk Modulus (GPa) = 7.69642 11.57470 9.63556
# Shear Modulus (GPa) = 39.30259 -133.87473 -47.28607
#
# Velocity S-wave (km/s) = 4.09294 -7.55395 -4.48943
# Velocity P-wave (km/s) = 5.06129 8.43501 4.77141
#
# Compressibility (1/GPa) = 0.12993052
#
# Stress axis : x y z
#
# Youngs Moduli (GPa) = 40.25375 61.24189 26.68408
#
# Poissons Ratio (x) = -0.18142 -0.44686
# Poissons Ratio (y) = -0.11925 -0.15833
# Poissons Ratio (z) = -0.67410 -0.36337
#
# Static dielectric constant tensor:
#      x y z
#    x 4.012100 0.000000 0.057760 
#    y 0.000000 4.772450 0.000000 
#    z 0.057760 0.000000 4.601720 
# 
# 
# High freq. dielectric constant tensor:
#      x y z
#    x 1.911050 0.000000 0.003190 
#    y 0.000000 1.924570 0.000000 
#    z 0.003190 0.000000 1.941630 
# 
# From -- ./inp_files/11199.got.cif
#   From: 2010.06.25/outbox.cif.g09.slc.cpg/sg9_6_cif.got.tgz:11199.got - 2010.06.27 21:40:51.
