data_PCOD8055724
_publ_section_title
;
Structure prediction by ZEFSAII (Michael W. Deem and Ramdas Pophale) SiO2 
 PCOD8055724
Probable space group: C C
;
_chemical_formula_sum "Si O2"
_cell_formula_units_Z 28
_cell_length_a 8.818711
_cell_length_b 28.689556
_cell_length_c 5.396971
_cell_angle_alpha 90.000000
_cell_angle_beta 125.579500
_cell_angle_gamma 90.000000
_cell_volume 1110.540993
_symmetry_space_group_name_H-M "C C"
_symmetry_group_IT_number 9
_symmetry_cell_setting 'monoclinic'
loop_
_space_group_symop_operation_xyz
x,y,z
x,-y,1/2+z
1/2+x,1/2+y,z
1/2+x,1/2-y,1/2+z
loop_
_atom_site_type_symbol
_atom_site_label
_atom_site_fract_x
_atom_site_fract_y
_atom_site_fract_z
Si Si1 0.473630 0.829845 0.555740
Si Si2 0.983248 0.184085 0.125534
Si Si3 0.162173 0.886090 0.448172
Si Si4 0.816719 0.885698 0.822094
Si Si5 0.590576 0.215029 0.654092
Si Si6 0.853997 0.520583 0.185156
Si Si7 0.773278 0.017418 0.072629
O O1 0.269181 0.853003 0.353542
O O2 0.623672 0.870401 0.765371
O O3 0.500126 0.810864 0.304083
O O4 0.479270 0.792287 0.788538
O O5 0.798657 0.197021 0.791822
O O6 0.112180 0.144325 0.137168
O O7 0.906352 0.162551 0.307321
O O8 0.103764 0.231278 0.257386
O O9 0.307088 0.925257 0.675164
O O10 0.969256 0.906841 0.155746
O O11 0.765962 0.926189 0.574716
O O12 0.762601 0.495559 0.337878
O O13 0.073533 0.509103 0.376270
O O14 0.877825 0.997371 0.417719
#
# Coordination Sequence:
#
# PCOD8055724 Si02
#       7
#     4   4   4   4   4   4   4
#     4  11  26  47  75 108 152 198 241 308 366 432
#     4  11  27  47  74 111 151 193 249 305 365 437
#     4  12  27  45  78 109 149 191 254 302 367 438
#     4  11  27  47  72 112 149 192 251 305 364 437
#     4  11  26  48  74 107 154 197 243 301 373 432
#     4  10  24  45  70 104 140 189 240 295 367 433
#     4  10  23  45  73  99 143 192 236 298 366 431
#
# _framework density 25.212938999999999
#
# number of rings (size 3 to 8) (size 9 to 14) (size 15 to 20)
#    0.000    1.143    1.429    2.571   10.000    6.857 
#    0.000    0.000    0.000    0.000    0.000    0.000 
#    0.000    0.000    0.000    0.000    0.000    0.000 
#
# Total GULP energy -173484.925303 kJ/mol
# GULP energy per Si atom -12391.780379 kJ/mol
# Density = 2.515555 g / cm^3
# Si number density = 25.212939 Si / 1000 Ang^3
#
#
#
# Elastic Constant Matrix: (Units=GPa)
#
#
# Indices 1 2 3 4 5 6 
#
# 1 69.8775 5.5081 28.0925 0.0000 -15.4134 0.0000
# 2 5.5081 84.5351 4.4949 0.0000 -7.3266 0.0000
# 3 28.0925 4.4949 79.1975 0.0000 -24.6098 0.0000
# 4 0.0000 0.0000 0.0000 37.4362 0.0000 0.1646
# 5 -15.4134 -7.3266 -24.6098 0.0000 53.1555 0.0000
# 6 0.0000 0.0000 0.0000 0.1646 0.0000 45.2857
#
#
#
# Elastic Compliance Matrix: (Units=1/GPa)
#
#
# Indices 1 2 3 4 5 6 
#
# 1 0.017001 -0.000619 -0.005244 0.000000 0.002416 0.000000
# 2 -0.000619 0.011998 -0.000004 0.000000 0.001472 0.000000
# 3 -0.005244 -0.000004 0.016369 0.000000 0.006057 0.000000
# 4 0.000000 0.000000 0.000000 0.026713 0.000000 -0.000097
# 5 0.002416 0.001472 0.006057 0.000000 0.022521 0.000000
# 6 0.000000 0.000000 0.000000 -0.000097 0.000000 0.022082
#
#
# Mechanical properties :
#
#
# Convention : Reuss Voigt Hill
#
# Bulk Modulus (GPa) = 29.73295 34.42235 32.07765
# Shear Modulus (GPa) = 35.80895 40.20979 38.00937
#
# Velocity S-wave (km/s) = 3.77272 3.99784 3.88691
# Velocity P-wave (km/s) = 5.54944 5.91545 5.73536
#
# Compressibility (1/GPa) = 0.03363272
#
# Stress axis : x y z
#
# Youngs Moduli (GPa) = 58.82011 83.35019 61.08936
#
# Poissons Ratio (x) = 0.05163 0.32038
# Poissons Ratio (y) = 0.03644 0.00023
# Poissons Ratio (z) = 0.30848 0.00031
#
# Static dielectric constant tensor:
#      x y z
#    x 4.822020 0.000000 -0.171000 
#    y 0.000000 4.567680 0.000000 
#    z -0.171000 0.000000 4.761390 
# 
# 
# High freq. dielectric constant tensor:
#      x y z
#    x 2.014760 0.000000 0.001200 
#    y 0.000000 2.006910 0.000000 
#    z 0.001200 0.000000 1.994250 
# 
# From -- ./inp_files/1334.got.cif
#   From: 2010.06.25/outbox.cif.g09.slc.cpg/sg9_1_cif.got.tgz:1334.got - 2010.06.27 21:40:51.
