data_PCOD8055627
_publ_section_title
;
Structure prediction by ZEFSAII (Michael W. Deem and Ramdas Pophale) SiO2 
 PCOD8055627
Probable space group: C C
;
_chemical_formula_sum "Si O2"
_cell_formula_units_Z 32
_cell_length_a 11.363107
_cell_length_b 10.410633
_cell_length_c 23.353624
_cell_angle_alpha 90.000000
_cell_angle_beta 153.180546
_cell_angle_gamma 90.000000
_cell_volume 1246.461632
_symmetry_space_group_name_H-M "C C"
_symmetry_group_IT_number 9
_symmetry_cell_setting 'monoclinic'
loop_
_space_group_symop_operation_xyz
x,y,z
x,-y,1/2+z
1/2+x,1/2+y,z
1/2+x,1/2-y,1/2+z
loop_
_atom_site_type_symbol
_atom_site_label
_atom_site_fract_x
_atom_site_fract_y
_atom_site_fract_z
Si Si1 0.820780 0.601666 0.601420
Si Si2 0.301587 0.684806 0.430852
Si Si3 0.697208 0.783234 0.343743
Si Si4 0.459581 0.537233 0.253175
Si Si5 0.637010 0.114598 0.473935
Si Si6 0.620359 0.318129 0.246167
Si Si7 0.882763 0.454260 0.522135
Si Si8 0.686196 0.833851 0.465285
O O1 0.554046 0.600980 0.522430
O O2 0.836697 0.724685 0.565803
O O3 0.086276 0.601923 0.755629
O O4 0.832800 0.470676 0.569005
O O5 0.114581 0.612742 0.394850
O O6 0.116814 0.716421 0.296794
O O7 0.396045 0.811141 0.505074
O O8 0.443291 0.690492 0.237221
O O9 0.799139 0.840562 0.448991
O O10 0.901829 0.684773 0.403456
O O11 0.604458 0.462031 0.265022
O O12 0.166589 0.480511 0.132645
O O13 0.641410 0.527793 0.388603
O O14 0.885055 0.200485 0.600219
O O15 0.688317 0.962077 0.507101
O O16 0.883760 0.297907 0.325210
#
# Coordination Sequence:
#
# PCOD8055627 Si02
#       8
#     4   4   4   4   4   4   4   4
#     4  11  24  45  72  98 138 183 232 292 353 421
#     4  10  25  45  68 100 139 185 231 291 354 425
#     4  12  24  42  70 103 136 183 235 291 358 422
#     4  11  21  43  70  99 135 180 238 293 346 427
#     4  12  26  45  67 103 142 181 235 290 353 431
#     4  10  23  43  69  94 133 182 228 283 357 412
#     4  11  24  41  73 101 136 181 245 286 350 427
#     4  11  25  44  69 102 135 183 230 288 355 421
#
# _framework density 25.672671000000001
#
# number of rings (size 3 to 8) (size 9 to 14) (size 15 to 20)
#    0.000    1.000    3.750    2.250    5.250    1.000 
#    2.250    0.000    0.000    0.000    0.000    0.000 
#    0.000    0.000    0.000    0.000    0.000    0.000 
#
# Total GULP energy -198245.252626 kJ/mol
# GULP energy per Si atom -12390.328289 kJ/mol
# Density = 2.561424 g / cm^3
# Si number density = 25.672671 Si / 1000 Ang^3
#
#
#
# Elastic Constant Matrix: (Units=GPa)
#
#
# Indices 1 2 3 4 5 6 
#
# 1 125.9675 9.8098 11.2194 0.0000 -9.0525 0.0010
# 2 9.8098 23.4465 -12.6685 -0.0007 9.8936 0.0004
# 3 11.2194 -12.6685 98.8230 -0.0067 -2.0100 -0.0010
# 4 0.0000 -0.0007 -0.0067 14.9019 0.0010 -8.5757
# 5 -9.0525 9.8936 -2.0100 0.0010 34.0356 0.0007
# 6 0.0010 0.0004 -0.0010 -8.5757 0.0007 35.6235
#
#
#
# Elastic Compliance Matrix: (Units=1/GPa)
#
#
# Indices 1 2 3 4 5 6 
#
# 1 0.008889 -0.006402 -0.001746 -0.000002 0.004122 -0.000001
# 2 -0.006402 0.056991 0.007670 0.000009 -0.017816 0.000002
# 3 -0.001746 0.007670 0.011259 0.000007 -0.002029 0.000002
# 4 -0.000002 0.000009 0.000007 0.077897 -0.000005 0.018752
# 5 0.004122 -0.017816 -0.002029 -0.000005 0.035536 -0.000002
# 6 -0.000001 0.000002 0.000002 0.018752 -0.000002 0.032586
#
#
# Mechanical properties :
#
#
# Convention : Reuss Voigt Hill
#
# Bulk Modulus (GPa) = 13.12607 29.43983 21.28295
# Shear Modulus (GPa) = 20.03944 32.90393 26.47169
#
# Velocity S-wave (km/s) = 2.79691 3.58393 3.21459
# Velocity P-wave (km/s) = 3.94388 5.34961 4.69960
#
# Compressibility (1/GPa) = 0.07618429
#
# Stress axis : x y z
#
# Youngs Moduli (GPa) = 112.50092 17.54668 88.81513
#
# Poissons Ratio (x) = 0.11233 0.15507
# Poissons Ratio (y) = 0.72020 -0.68124
# Poissons Ratio (z) = 0.19642 -0.13459
#
# Static dielectric constant tensor:
#      x y z
#    x 4.767360 0.000000 -0.232990 
#    y 0.000000 4.410920 -0.000010 
#    z -0.232990 -0.000010 4.493030 
# 
# 
# High freq. dielectric constant tensor:
#      x y z
#    x 2.028990 0.000000 -0.013220 
#    y 0.000000 2.013930 0.000000 
#    z -0.013220 0.000000 2.021490 
# 
# From -- ./inp_files/24728.got.cif
#   From: 2010.06.25/outbox.cif.g09.slc.cpg/sg9_13_cif.got.tgz:24728.got - 2010.06.27 21:40:51.
