data_PCOD8055980
_publ_section_title
;
Structure prediction by ZEFSAII (Michael W. Deem and Ramdas Pophale) SiO2 
 PCOD8055980
Probable space group: C C
;
_chemical_formula_sum "Si O2"
_cell_formula_units_Z 32
_cell_length_a 23.131205
_cell_length_b 5.317933
_cell_length_c 14.256162
_cell_angle_alpha 90.000000
_cell_angle_beta 131.529791
_cell_angle_gamma 90.000000
_cell_volume 1312.804320
_symmetry_space_group_name_H-M "C C"
_symmetry_group_IT_number 9
_symmetry_cell_setting 'monoclinic'
loop_
_space_group_symop_operation_xyz
x,y,z
x,-y,1/2+z
1/2+x,1/2+y,z
1/2+x,1/2-y,1/2+z
loop_
_atom_site_type_symbol
_atom_site_label
_atom_site_fract_x
_atom_site_fract_y
_atom_site_fract_z
Si Si1 0.371100 0.142694 0.169560
Si Si2 0.359958 0.728655 0.864020
Si Si3 0.095880 0.618928 0.253070
Si Si4 0.923382 0.254748 0.528035
Si Si5 0.031773 0.535560 0.869048
Si Si6 0.703252 0.527165 0.457259
Si Si7 0.596890 0.495762 0.511514
Si Si8 0.190552 0.733829 0.755958
O O1 0.374723 0.301768 0.269188
O O2 0.381385 0.293568 0.083043
O O3 0.441412 0.946113 0.248062
O O4 0.290127 0.007121 0.083157
O O5 0.268544 0.688147 0.782634
O O6 0.407245 0.496088 0.953864
O O7 0.390697 0.992610 0.941437
O O8 0.077071 0.423159 0.318854
O O9 0.162942 0.796219 0.362911
O O10 0.130022 0.497853 0.193653
O O11 0.015580 0.750885 0.139850
O O12 0.054761 0.262830 0.936540
O O13 0.040741 0.763019 0.953747
O O14 0.658655 0.595522 0.502833
O O15 0.708748 0.743689 0.385571
O O16 0.642374 0.464339 0.658383
#
# Coordination Sequence:
#
# PCOD8055980 Si02
#       8
#     4   4   4   4   4   4   4   4
#     4  11  25  50  75 110 158 196 245 316 376 452
#     4  12  28  48  77 115 148 203 250 306 387 448
#     4  10  25  45  76 103 147 199 247 311 367 440
#     4  11  28  50  77 111 153 196 256 310 377 449
#     4  10  25  47  72 105 145 192 248 301 375 434
#     4  11  23  48  70 106 149 194 242 306 374 442
#     4  11  25  46  71 108 142 192 248 305 364 442
#     4  12  25  44  78 106 150 194 250 305 370 445
#
# _framework density 24.375298000000001
#
# number of rings (size 3 to 8) (size 9 to 14) (size 15 to 20)
#    0.000    1.000    3.750    0.750    5.250    5.000 
#    4.500    0.000    0.000    0.000    0.000    0.000 
#    0.000    0.000    0.000    0.000    0.000    0.000 
#
# Total GULP energy -198251.711862 kJ/mol
# GULP energy per Si atom -12390.731991 kJ/mol
# Density = 2.431982 g / cm^3
# Si number density = 24.375298 Si / 1000 Ang^3
#
#
#
# Elastic Constant Matrix: (Units=GPa)
#
#
# Indices 1 2 3 4 5 6 
#
# 1 71.2979 23.5181 25.3282 0.0001 -3.8368 0.0000
# 2 23.5181 108.1008 33.3506 0.0002 3.3701 0.0000
# 3 25.3282 33.3506 114.9257 0.0000 0.9504 0.0000
# 4 0.0001 0.0002 0.0000 35.0123 0.0001 -5.4272
# 5 -3.8368 3.3701 0.9504 0.0001 52.8021 0.0000
# 6 0.0000 0.0000 0.0000 -5.4272 0.0000 19.7459
#
#
#
# Elastic Compliance Matrix: (Units=1/GPa)
#
#
# Indices 1 2 3 4 5 6 
#
# 1 0.015958 -0.002665 -0.002755 0.000000 0.001379 0.000000
# 2 -0.002665 0.010624 -0.002489 0.000000 -0.000827 0.000000
# 3 -0.002755 -0.002489 0.010033 0.000000 -0.000222 0.000000
# 4 0.000000 0.000000 0.000000 0.029832 0.000000 0.008199
# 5 0.001379 -0.000827 -0.000222 0.000000 0.019096 0.000000
# 6 0.000000 0.000000 0.000000 0.008199 0.000000 0.052897
#
#
# Mechanical properties :
#
#
# Convention : Reuss Voigt Hill
#
# Bulk Modulus (GPa) = 48.08411 50.96867 49.52639
# Shear Modulus (GPa) = 31.01958 35.65390 33.33674
#
# Velocity S-wave (km/s) = 3.57120 3.82868 3.70218
# Velocity P-wave (km/s) = 6.06416 6.36400 6.21588
#
# Compressibility (1/GPa) = 0.02079689
#
# Stress axis : x y z
#
# Youngs Moduli (GPa) = 62.66628 94.12654 99.67579
#
# Poissons Ratio (x) = 0.25082 0.27460
# Poissons Ratio (y) = 0.16699 0.24808
# Poissons Ratio (z) = 0.17264 0.23427
#
# Static dielectric constant tensor:
#      x y z
#    x 4.858610 0.000000 -0.159050 
#    y 0.000000 4.033190 0.000000 
#    z -0.159050 0.000000 4.686890 
# 
# 
# High freq. dielectric constant tensor:
#      x y z
#    x 1.992390 0.000000 -0.001010 
#    y 0.000000 1.944450 0.000000 
#    z -0.001010 0.000000 1.989370 
# 
# From -- ./inp_files/27614.got.cif
#   From: 2010.06.25/outbox.cif.g09.slc.cpg/sg9_14_cif.got.tgz:27614.got - 2010.06.27 21:40:51.
