data_PCOD8055871
_publ_section_title
;
Structure prediction by ZEFSAII (Michael W. Deem and Ramdas Pophale) SiO2 
 PCOD8055871
Probable space group: C C
;
_chemical_formula_sum "Si O2"
_cell_formula_units_Z 28
_cell_length_a 21.845415
_cell_length_b 9.019399
_cell_length_c 7.654058
_cell_angle_alpha 90.000000
_cell_angle_beta 45.650063
_cell_angle_gamma 90.000000
_cell_volume 1078.416578
_symmetry_space_group_name_H-M "C C"
_symmetry_group_IT_number 9
_symmetry_cell_setting 'monoclinic'
loop_
_space_group_symop_operation_xyz
x,y,z
x,-y,1/2+z
1/2+x,1/2+y,z
1/2+x,1/2-y,1/2+z
loop_
_atom_site_type_symbol
_atom_site_label
_atom_site_fract_x
_atom_site_fract_y
_atom_site_fract_z
Si Si1 0.232910 0.648254 0.127020
Si Si2 0.266471 0.879423 0.357016
Si Si3 0.735291 0.172337 0.722586
Si Si4 0.447706 0.034385 0.464674
Si Si5 0.044109 0.239732 0.581798
Si Si6 0.540469 0.191947 0.581854
Si Si7 0.575076 0.465154 0.715107
O O1 0.270164 0.765192 0.189260
O O2 0.272593 0.486926 0.089006
O O3 0.131968 0.625267 0.353022
O O4 0.255769 0.699114 0.885346
O O5 0.280479 0.797283 0.514348
O O6 0.178154 0.970634 0.535654
O O7 0.345809 0.992955 0.174332
O O8 0.634476 0.178826 0.879885
O O9 0.471116 0.134095 0.243533
O O10 0.473292 0.142886 0.570613
O O11 0.503325 0.882557 0.338241
O O12 0.026669 0.121094 0.465040
O O13 0.046200 0.135845 0.754066
O O14 0.551728 0.369197 0.586793
#
# Coordination Sequence:
#
# PCOD8055871 Si02
#       7
#     4   4   4   4   4   4   4
#     4  11  19  42  73  96 130 184 236 274 328 425
#     4  10  26  43  64 101 140 176 226 283 351 403
#     4  11  21  40  73 100 131 188 233 279 335 434
#     4  12  24  44  68 105 137 169 227 299 347 399
#     4  11  22  41  68  98 134 172 234 279 340 406
#     4  11  22  42  72  97 131 182 232 275 344 415
#     4  10  24  44  68  95 131 187 226 273 335 430
#
# _framework density 25.963991
#
# number of rings (size 3 to 8) (size 9 to 14) (size 15 to 20)
#    0.000    1.143    4.286    1.714    4.000    2.286 
#   10.286    0.000    0.000    0.000    0.000    0.000 
#    0.000    0.000    0.000    0.000    0.000    0.000 
#
# Total GULP energy -173576.034739 kJ/mol
# GULP energy per Si atom -12398.288196 kJ/mol
# Density = 2.590490 g / cm^3
# Si number density = 25.963991 Si / 1000 Ang^3
#
#
#
# Elastic Constant Matrix: (Units=GPa)
#
#
# Indices 1 2 3 4 5 6 
#
# 1 53.1603 -12.6565 23.9874 0.0000 3.3575 0.0000
# 2 -12.6565 85.4751 -2.0513 0.0000 -21.2458 0.0000
# 3 23.9874 -2.0513 85.5616 0.0000 -0.9289 0.0000
# 4 0.0000 0.0000 0.0000 25.8274 0.0000 3.9687
# 5 3.3575 -21.2458 -0.9289 0.0000 45.9324 0.0000
# 6 0.0000 0.0000 0.0000 3.9687 0.0000 19.9267
#
#
#
# Elastic Compliance Matrix: (Units=1/GPa)
#
#
# Indices 1 2 3 4 5 6 
#
# 1 0.022363 0.003079 -0.006199 0.000000 -0.000336 0.000000
# 2 0.003079 0.013656 -0.000470 0.000000 0.006082 0.000000
# 3 -0.006199 -0.000470 0.013420 0.000000 0.000507 0.000000
# 4 0.000000 0.000000 0.000000 0.039941 0.000000 -0.007955
# 5 -0.000336 0.006082 0.000507 0.000000 0.024619 0.000000
# 6 0.000000 0.000000 0.000000 -0.007955 0.000000 0.051768
#
#
# Mechanical properties :
#
#
# Convention : Reuss Voigt Hill
#
# Bulk Modulus (GPa) = 23.66418 26.97291 25.31855
# Shear Modulus (GPa) = 26.73340 32.66514 29.69927
#
# Velocity S-wave (km/s) = 3.21227 3.55081 3.38577
# Velocity P-wave (km/s) = 4.78459 5.21748 5.00572
#
# Compressibility (1/GPa) = 0.04225797
#
# Stress axis : x y z
#
# Youngs Moduli (GPa) = 44.71754 73.22974 74.51734
#
# Poissons Ratio (x) = -0.22548 0.46195
# Poissons Ratio (y) = -0.13769 0.03501
# Poissons Ratio (z) = 0.27721 0.03440
#
# Static dielectric constant tensor:
#      x y z
#    x 4.474570 0.000000 0.538360 
#    y 0.000000 4.743960 0.000000 
#    z 0.538360 0.000000 4.946720 
# 
# 
# High freq. dielectric constant tensor:
#      x y z
#    x 2.018830 0.000000 0.040360 
#    y 0.000000 2.051360 0.000000 
#    z 0.040360 0.000000 2.033800 
# 
# From -- ./inp_files/10355.got.cif
#   From: 2010.06.25/outbox.cif.g09.slc.cpg/sg9_6_cif.got.tgz:10355.got - 2010.06.27 21:40:51.
