data_PCOD8055776
_publ_section_title
;
Structure prediction by ZEFSAII (Michael W. Deem and Ramdas Pophale) SiO2 
 PCOD8055776
Probable space group: C C
;
_chemical_formula_sum "Si O2"
_cell_formula_units_Z 28
_cell_length_a 8.928486
_cell_length_b 5.111187
_cell_length_c 28.345509
_cell_angle_alpha 90.000000
_cell_angle_beta 108.689962
_cell_angle_gamma 90.000000
_cell_volume 1225.338279
_symmetry_space_group_name_H-M "C C"
_symmetry_group_IT_number 9
_symmetry_cell_setting 'monoclinic'
loop_
_space_group_symop_operation_xyz
x,y,z
x,-y,1/2+z
1/2+x,1/2+y,z
1/2+x,1/2-y,1/2+z
loop_
_atom_site_type_symbol
_atom_site_label
_atom_site_fract_x
_atom_site_fract_y
_atom_site_fract_z
Si Si1 0.547660 0.781591 0.116680
Si Si2 0.266252 0.349883 0.224892
Si Si3 0.177884 0.217202 0.579403
Si Si4 0.201248 0.192451 0.315501
Si Si5 0.887890 0.311686 0.926846
Si Si6 0.593227 0.310878 0.964163
Si Si7 0.089323 0.302608 0.768938
O O1 0.639768 0.747010 0.174867
O O2 0.362825 0.759762 0.110101
O O3 0.605752 0.561479 0.086313
O O4 0.582188 0.063023 0.097808
O O5 0.281684 0.158153 0.272047
O O6 0.219703 0.638234 0.240589
O O7 0.443799 0.316623 0.223184
O O8 0.155555 0.262133 0.521893
O O9 0.325159 0.259945 0.368682
O O10 0.070567 0.424961 0.296749
O O11 0.126931 0.905099 0.314673
O O12 0.742207 0.374769 0.946406
O O13 0.997654 0.566077 0.933815
O O14 0.983885 0.065726 0.956192
#
# Coordination Sequence:
#
# PCOD8055776 Si02
#       7
#     4   4   4   4   4   4   4
#     4  12  27  44  76 101 139 182 230 280 353 409
#     4  10  26  41  68  98 139 174 226 271 337 405
#     4  12  26  47  71 103 137 179 233 290 345 402
#     4  10  26  41  68  98 139 175 223 274 333 411
#     4  12  27  44  76 101 139 182 231 277 356 403
#     4  12  26  47  71 103 137 179 233 292 339 410
#     4  10  24  38  66  90 144 171 220 270 327 392
#
# _framework density 22.850835
#
# number of rings (size 3 to 8) (size 9 to 14) (size 15 to 20)
#    0.857    0.000    0.000    6.000   10.000    0.000 
#    0.000    0.000    0.000    0.000    0.000    0.000 
#    0.000    0.000    0.000    0.000    0.000    0.000 
#
# Total GULP energy -173482.014143 kJ/mol
# GULP energy per Si atom -12391.572439 kJ/mol
# Density = 2.279883 g / cm^3
# Si number density = 22.850835 Si / 1000 Ang^3
#
#
#
# Elastic Constant Matrix: (Units=GPa)
#
#
# Indices 1 2 3 4 5 6 
#
# 1 75.5056 37.6200 4.0020 0.0000 13.7867 0.0000
# 2 37.6200 126.4498 11.1807 0.0000 12.1108 0.0000
# 3 4.0020 11.1807 94.7017 0.0000 -1.7518 0.0000
# 4 0.0000 0.0000 0.0000 29.1419 0.0000 3.5821
# 5 13.7867 12.1108 -1.7518 0.0000 34.2059 0.0000
# 6 0.0000 0.0000 0.0000 3.5821 0.0000 27.0586
#
#
#
# Elastic Compliance Matrix: (Units=1/GPa)
#
#
# Indices 1 2 3 4 5 6 
#
# 1 0.016353 -0.004356 -0.000270 0.000000 -0.005063 0.000000
# 2 -0.004356 0.009446 -0.000961 0.000000 -0.001638 0.000000
# 3 -0.000270 -0.000961 0.010703 0.000000 0.000998 0.000000
# 4 0.000000 0.000000 0.000000 0.034883 0.000000 -0.004618
# 5 -0.005063 -0.001638 0.000998 0.000000 0.031906 0.000000
# 6 0.000000 0.000000 0.000000 -0.004618 0.000000 0.037568
#
#
# Mechanical properties :
#
#
# Convention : Reuss Voigt Hill
#
# Bulk Modulus (GPa) = 39.48538 44.69581 42.09059
# Shear Modulus (GPa) = 31.15693 34.33824 32.74758
#
# Velocity S-wave (km/s) = 3.69656 3.88069 3.78974
# Velocity P-wave (km/s) = 5.96125 6.29936 6.13264
#
# Compressibility (1/GPa) = 0.02532583
#
# Stress axis : x y z
#
# Youngs Moduli (GPa) = 61.14949 105.86206 93.43301
#
# Poissons Ratio (x) = 0.46119 0.02526
# Poissons Ratio (y) = 0.26640 0.08983
# Poissons Ratio (z) = 0.01653 0.10178
#
# Static dielectric constant tensor:
#      x y z
#    x 4.196240 0.000000 0.070860 
#    y 0.000000 4.157740 0.000000 
#    z 0.070860 0.000000 4.150600 
# 
# 
# High freq. dielectric constant tensor:
#      x y z
#    x 1.899400 0.000000 0.008940 
#    y 0.000000 1.914570 0.000000 
#    z 0.008940 0.000000 1.907240 
# 
# From -- ./inp_files/36286.got.cif
#   From: 2010.06.25/outbox.cif.g09.slc.cpg/sg9_19_cif.got.tgz:36286.got - 2010.06.27 21:40:51.
