data_PCOD8055379
_publ_section_title
;
Structure prediction by ZEFSAII (Michael W. Deem and Ramdas Pophale) SiO2 
 PCOD8055379
Probable space group: C C
;
_chemical_formula_sum "Si O2"
_cell_formula_units_Z 24
_cell_length_a 24.516836
_cell_length_b 9.284170
_cell_length_c 11.835433
_cell_angle_alpha 90.000000
_cell_angle_beta 153.029457
_cell_angle_gamma 90.000000
_cell_volume 1221.799467
_symmetry_space_group_name_H-M "C C"
_symmetry_group_IT_number 9
_symmetry_cell_setting 'monoclinic'
loop_
_space_group_symop_operation_xyz
x,y,z
x,-y,1/2+z
1/2+x,1/2+y,z
1/2+x,1/2-y,1/2+z
loop_
_atom_site_type_symbol
_atom_site_label
_atom_site_fract_x
_atom_site_fract_y
_atom_site_fract_z
Si Si1 0.810480 0.028829 0.959860
Si Si2 0.517942 0.284738 0.854444
Si Si3 0.472644 0.223751 0.518985
Si Si4 0.706311 0.796520 0.086420
Si Si5 0.089704 0.565618 0.173233
Si Si6 0.047690 0.903890 0.446373
O O1 0.723445 0.996218 0.902745
O O2 0.736664 0.053245 0.707467
O O3 0.914801 0.905971 0.139626
O O4 0.875755 0.181659 0.108935
O O5 0.538791 0.251606 0.760425
O O6 0.592058 0.428197 0.031640
O O7 0.552345 0.148005 0.991194
O O8 0.328247 0.235094 0.257008
O O9 0.530325 0.338679 0.539120
O O10 0.495773 0.061194 0.520898
O O11 0.602510 0.827821 0.802959
O O12 0.647142 0.684033 0.062935
#
# Coordination Sequence:
#
# PCOD8055379 Si02
#       6
#     4   4   4   4   4   4
#     4   9  21  42  62  90 128 165 211 260 319 377
#     4   9  24  42  62  98 125 165 220 251 323 386
#     4  11  23  43  66  96 130 167 215 266 314 382
#     4  11  22  42  66  92 130 170 211 268 316 376
#     4  12  22  42  68  92 130 169 211 266 322 376
#     4  10  22  43  66  90 131 168 212 265 318 373
#
# _framework density 19.643159000000001
#
# number of rings (size 3 to 8) (size 9 to 14) (size 15 to 20)
#    1.000    0.667    3.333    1.000    2.333    1.333 
#   12.000    0.000    0.000    0.000    0.000    0.000 
#    0.000    0.000    0.000    0.000    0.000    0.000 
#
# Total GULP energy -148683.371968 kJ/mol
# GULP energy per Si atom -12390.280997 kJ/mol
# Density = 1.959845 g / cm^3
# Si number density = 19.643159 Si / 1000 Ang^3
#
#
#
# Elastic Constant Matrix: (Units=GPa)
#
#
# Indices 1 2 3 4 5 6 
#
# 1 120.4810 72.1421 36.9079 0.0000 -4.3792 0.0000
# 2 72.1421 115.4334 41.0959 0.0000 -15.8885 0.0000
# 3 36.9079 41.0959 62.4579 0.0000 -13.2866 0.0000
# 4 0.0000 0.0000 0.0000 33.0679 0.0000 -3.8552
# 5 -4.3792 -15.8885 -13.2866 0.0000 39.8364 0.0000
# 6 0.0000 0.0000 0.0000 -3.8552 0.0000 31.0803
#
#
#
# Elastic Compliance Matrix: (Units=1/GPa)
#
#
# Indices 1 2 3 4 5 6 
#
# 1 0.014029 -0.007824 -0.003743 0.000000 -0.002827 0.000000
# 2 -0.007824 0.015856 -0.005002 0.000000 0.003796 0.000000
# 3 -0.003743 -0.005002 0.022606 0.000000 0.005133 0.000000
# 4 0.000000 0.000000 0.000000 0.030685 0.000000 0.003806
# 5 -0.002827 0.003796 0.005133 0.000000 0.028018 0.000000
# 6 0.000000 0.000000 0.000000 0.003806 0.000000 0.032647
#
#
# Mechanical properties :
#
#
# Convention : Reuss Voigt Hill
#
# Bulk Modulus (GPa) = 51.67392 66.51823 59.09607
# Shear Modulus (GPa) = 27.25836 30.67868 28.96852
#
# Velocity S-wave (km/s) = 3.72919 3.95625 3.84440
# Velocity P-wave (km/s) = 6.70119 7.40311 7.06088
#
# Compressibility (1/GPa) = 0.01935212
#
# Stress axis : x y z
#
# Youngs Moduli (GPa) = 71.28103 63.06751 44.23592
#
# Poissons Ratio (x) = 0.49344 0.16559
# Poissons Ratio (y) = 0.55771 0.22127
# Poissons Ratio (z) = 0.26683 0.31547
#
# Static dielectric constant tensor:
#      x y z
#    x 3.579310 0.000000 -0.021250 
#    y 0.000000 3.452000 0.000000 
#    z -0.021250 0.000000 3.441240 
# 
# 
# High freq. dielectric constant tensor:
#      x y z
#    x 1.771910 0.000000 -0.001500 
#    y 0.000000 1.755590 0.000000 
#    z -0.001500 0.000000 1.753510 
# 
# From -- ./inp_files/15837.got.cif
#   From: 2010.06.25/outbox.cif.g09.slc.cpg/sg9_8_cif.got.tgz:15837.got - 2010.06.27 21:40:51.
