data_PCOD8055697
_publ_section_title
;
Structure prediction by ZEFSAII (Michael W. Deem and Ramdas Pophale) SiO2 
 PCOD8055697
Probable space group: C C
;
_chemical_formula_sum "Si O2"
_cell_formula_units_Z 24
_cell_length_a 9.925246
_cell_length_b 10.533388
_cell_length_c 12.797600
_cell_angle_alpha 90.000000
_cell_angle_beta 115.995296
_cell_angle_gamma 90.000000
_cell_volume 1202.584131
_symmetry_space_group_name_H-M "C C"
_symmetry_group_IT_number 9
_symmetry_cell_setting 'monoclinic'
loop_
_space_group_symop_operation_xyz
x,y,z
x,-y,1/2+z
1/2+x,1/2+y,z
1/2+x,1/2-y,1/2+z
loop_
_atom_site_type_symbol
_atom_site_label
_atom_site_fract_x
_atom_site_fract_y
_atom_site_fract_z
Si Si1 0.803930 0.371282 0.589300
Si Si2 0.015333 0.236543 0.325845
Si Si3 0.276344 0.070870 0.402484
Si Si4 0.055633 0.927318 0.658159
Si Si5 0.519688 0.965524 0.832231
Si Si6 0.351087 0.374615 0.968948
O O1 0.780228 0.491574 0.508260
O O2 0.654212 0.351947 0.606296
O O3 0.830421 0.247368 0.532060
O O4 0.950346 0.395532 0.708865
O O5 0.926265 0.164116 0.386223
O O6 0.194478 0.205894 0.399995
O O7 0.985481 0.384856 0.316984
O O8 0.962495 0.176490 0.195664
O O9 0.442920 0.090021 0.411803
O O10 0.172974 0.001448 0.277467
O O11 0.949295 0.027155 0.567402
O O12 0.694821 0.941236 0.891349
#
# Coordination Sequence:
#
# PCOD8055697 Si02
#       6
#     4   4   4   4   4   4
#     4  11  23  42  69  92 136 172 213 272 326 386
#     4  10  23  45  66  96 132 172 216 268 325 391
#     4   9  21  46  64  91 133 172 211 269 332 377
#     4   9  22  44  65  94 130 177 209 263 336 377
#     4  11  26  41  66 104 122 172 228 266 324 387
#     4  12  25  42  70 101 129 173 221 272 321 392
#
# _framework density 19.957025000000002
#
# number of rings (size 3 to 8) (size 9 to 14) (size 15 to 20)
#    1.000    0.667    3.333    0.000    2.333    6.667 
#    0.000    0.000    0.000    0.000    0.000    0.000 
#    0.000    0.000    0.000    0.000    0.000    0.000 
#
# Total GULP energy -148716.945743 kJ/mol
# GULP energy per Si atom -12393.078812 kJ/mol
# Density = 1.991160 g / cm^3
# Si number density = 19.957025 Si / 1000 Ang^3
#
#
#
# Elastic Constant Matrix: (Units=GPa)
#
#
# Indices 1 2 3 4 5 6 
#
# 1 264.2713 91.9322 95.6624 0.0000 18.8073 0.0000
# 2 91.9322 74.7380 28.4187 0.0000 17.0329 0.0000
# 3 95.6624 28.4187 94.5873 0.0000 3.3531 0.0000
# 4 0.0000 0.0000 0.0000 -6.8788 0.0000 -4.8997
# 5 18.8073 17.0329 3.3531 0.0000 48.5159 0.0000
# 6 0.0000 0.0000 0.0000 -4.8997 0.0000 26.5935
#
#
#
# Elastic Compliance Matrix: (Units=1/GPa)
#
#
# Indices 1 2 3 4 5 6 
#
# 1 0.009328 -0.008898 -0.006760 0.000000 -0.000025 0.000000
# 2 -0.008898 0.024910 0.001707 0.000000 -0.005414 0.000000
# 3 -0.006760 0.001707 0.016866 0.000000 0.000856 0.000000
# 4 0.000000 0.000000 0.000000 -0.128509 0.000000 -0.023677
# 5 -0.000025 -0.005414 0.000856 0.000000 0.022463 0.000000
# 6 0.000000 0.000000 0.000000 -0.023677 0.000000 0.033241
#
#
# Mechanical properties :
#
#
# Convention : Reuss Voigt Hill
#
# Bulk Modulus (GPa) = 43.09990 96.18036 69.64013
# Shear Modulus (GPa) = 358.82607 28.15167 193.48887
#
# Velocity S-wave (km/s) = 13.42348 3.75989 9.85714
# Velocity P-wave (km/s) = 16.18321 8.19435 12.82660
#
# Compressibility (1/GPa) = 0.02320191
#
# Stress axis : x y z
#
# Youngs Moduli (GPa) = 107.20308 40.14450 59.29180
#
# Poissons Ratio (x) = 0.35721 0.40080
# Poissons Ratio (y) = 0.95390 -0.10120
# Poissons Ratio (z) = 0.72467 -0.06852
#
# Static dielectric constant tensor:
#      x y z
#    x 3.722090 0.000000 -0.193010 
#    y 0.000000 3.505900 0.000000 
#    z -0.193010 0.000000 3.684660 
# 
# 
# High freq. dielectric constant tensor:
#      x y z
#    x 1.792130 0.000000 -0.015380 
#    y 0.000000 1.763470 0.000000 
#    z -0.015380 0.000000 1.784070 
# 
# From -- ./inp_files/14103.got.cif
#   From: 2010.06.25/outbox.cif.g09.slc.cpg/sg9_8_cif.got.tgz:14103.got - 2010.06.27 21:40:51.
