data_PCOD8055666
_publ_section_title
;
Structure prediction by ZEFSAII (Michael W. Deem and Ramdas Pophale) SiO2 
 PCOD8055666
Probable space group: C C
;
_chemical_formula_sum "Si O2"
_cell_formula_units_Z 32
_cell_length_a 8.974050
_cell_length_b 11.165253
_cell_length_c 14.743232
_cell_angle_alpha 90.000000
_cell_angle_beta 110.238213
_cell_angle_gamma 90.000000
_cell_volume 1386.034758
_symmetry_space_group_name_H-M "C C"
_symmetry_group_IT_number 9
_symmetry_cell_setting 'monoclinic'
loop_
_space_group_symop_operation_xyz
x,y,z
x,-y,1/2+z
1/2+x,1/2+y,z
1/2+x,1/2-y,1/2+z
loop_
_atom_site_type_symbol
_atom_site_label
_atom_site_fract_x
_atom_site_fract_y
_atom_site_fract_z
Si Si1 0.140970 0.630789 0.512130
Si Si2 0.020946 0.512022 0.303061
Si Si3 0.331231 0.811398 0.444986
Si Si4 0.152693 0.696066 0.930394
Si Si5 0.863281 0.074293 0.110380
Si Si6 0.306587 0.076164 0.488258
Si Si7 0.203867 0.300424 0.737319
Si Si8 0.686278 0.450639 0.164470
O O1 0.068210 0.578952 0.404304
O O2 0.236783 0.754067 0.510639
O O3 0.264471 0.548698 0.591498
O O4 0.981851 0.636557 0.539370
O O5 0.100982 0.379420 0.330071
O O6 0.079472 0.591260 0.229763
O O7 0.833050 0.493575 0.257231
O O8 0.523654 0.805025 0.486796
O O9 0.291325 0.735298 0.347755
O O10 0.293522 0.952095 0.430533
O O11 0.313531 0.643489 0.008449
O O12 0.193141 0.831639 0.909516
O O13 0.833805 0.152319 0.193928
O O14 0.049264 0.048042 0.145907
O O15 0.240266 0.055290 0.573307
O O16 0.121028 0.180091 0.681799
#
# Coordination Sequence:
#
# PCOD8055666 Si02
#       8
#     4   4   4   4   4   4   4   4
#     4  10  23  44  70 102 137 190 236 285 356 426
#     4  10  23  47  67  97 147 179 232 293 354 413
#     4  11  24  46  71  99 146 188 232 292 360 420
#     4  11  23  47  68 100 141 188 231 292 351 431
#     4  11  24  45  71 103 138 182 241 288 359 418
#     4  12  24  42  74 103 142 183 241 291 352 429
#     4  11  24  48  68 101 141 184 232 302 353 419
#     4  12  25  43  71 107 140 184 233 299 357 418
#
# _framework density 23.087444000000001
#
# number of rings (size 3 to 8) (size 9 to 14) (size 15 to 20)
#    0.000    1.000    5.000    1.500    1.750    2.000 
#    4.500    0.000    0.000    0.000    0.000    0.000 
#    0.000    0.000    0.000    0.000    0.000    0.000 
#
# Total GULP energy -198286.987941 kJ/mol
# GULP energy per Si atom -12392.936746 kJ/mol
# Density = 2.303490 g / cm^3
# Si number density = 23.087444 Si / 1000 Ang^3
#
#
#
# Elastic Constant Matrix: (Units=GPa)
#
#
# Indices 1 2 3 4 5 6 
#
# 1 109.1562 69.2236 29.1189 0.0000 11.4333 0.0000
# 2 69.2236 150.9019 21.3612 0.0000 13.8210 0.0000
# 3 29.1189 21.3612 63.0485 0.0000 13.1427 0.0000
# 4 0.0000 0.0000 0.0000 39.3745 0.0000 -5.6253
# 5 11.4333 13.8210 13.1427 0.0000 32.3881 0.0000
# 6 0.0000 0.0000 0.0000 -5.6253 0.0000 47.1466
#
#
#
# Elastic Compliance Matrix: (Units=1/GPa)
#
#
# Indices 1 2 3 4 5 6 
#
# 1 0.014064 -0.005763 -0.004392 0.000000 -0.000723 0.000000
# 2 -0.005763 0.009469 -0.000140 0.000000 -0.001949 0.000000
# 3 -0.004392 -0.000140 0.019227 0.000000 -0.006192 0.000000
# 4 0.000000 0.000000 0.000000 0.025838 0.000000 0.003083
# 5 -0.000723 -0.001949 -0.006192 0.000000 0.034475 0.000000
# 6 0.000000 0.000000 0.000000 0.003083 0.000000 0.021578
#
#
# Mechanical properties :
#
#
# Convention : Reuss Voigt Hill
#
# Bulk Modulus (GPa) = 45.10717 62.50156 53.80437
# Shear Modulus (GPa) = 32.75864 37.34202 35.05033
#
# Velocity S-wave (km/s) = 3.77091 4.02608 3.90058
# Velocity P-wave (km/s) = 6.20803 6.98161 6.60615
#
# Compressibility (1/GPa) = 0.02216942
#
# Stress axis : x y z
#
# Youngs Moduli (GPa) = 71.10595 105.60692 52.00918
#
# Poissons Ratio (x) = 0.60866 0.22842
# Poissons Ratio (y) = 0.40982 0.00728
# Poissons Ratio (z) = 0.31229 0.01478
#
# Static dielectric constant tensor:
#      x y z
#    x 4.441840 0.000000 -0.035330 
#    y 0.000000 4.596480 0.000000 
#    z -0.035330 0.000000 3.879160 
# 
# 
# High freq. dielectric constant tensor:
#      x y z
#    x 1.910300 0.000000 0.001900 
#    y 0.000000 1.926040 0.000000 
#    z 0.001900 0.000000 1.895550 
# 
# From -- ./inp_files/22802.got.cif
#   From: 2010.06.25/outbox.cif.g09.slc.cpg/sg9_12_cif.got.tgz:22802.got - 2010.06.27 21:40:51.
