data_PCOD8055816
_publ_section_title
;
Structure prediction by ZEFSAII (Michael W. Deem and Ramdas Pophale) SiO2 
 PCOD8055816
Probable space group: C C
;
_chemical_formula_sum "Si O2"
_cell_formula_units_Z 24
_cell_length_a 7.331654
_cell_length_b 11.275267
_cell_length_c 13.118348
_cell_angle_alpha 90.000000
_cell_angle_beta 96.828306
_cell_angle_gamma 90.000000
_cell_volume 1076.753938
_symmetry_space_group_name_H-M "C C"
_symmetry_group_IT_number 9
_symmetry_cell_setting 'monoclinic'
loop_
_space_group_symop_operation_xyz
x,y,z
x,-y,1/2+z
1/2+x,1/2+y,z
1/2+x,1/2-y,1/2+z
loop_
_atom_site_type_symbol
_atom_site_label
_atom_site_fract_x
_atom_site_fract_y
_atom_site_fract_z
Si Si1 0.207330 0.450982 0.130160
Si Si2 0.986402 0.419352 0.782987
Si Si3 0.813147 0.629664 0.852258
Si Si4 0.038909 0.200903 0.669636
Si Si5 0.067425 0.732177 0.469457
Si Si6 0.670948 0.179022 0.986622
O O1 0.418998 0.418698 0.169835
O O2 0.199128 0.556393 0.048396
O O3 0.109210 0.486475 0.228207
O O4 0.116507 0.329802 0.079533
O O5 0.813920 0.489900 0.821549
O O6 0.920695 0.314186 0.702946
O O7 0.103079 0.365413 0.883986
O O8 0.722893 0.696622 0.750346
O O9 0.700526 0.656293 0.949596
O O10 0.025517 0.666226 0.885074
O O11 0.097954 0.219038 0.557300
O O12 0.860738 0.778981 0.450491
#
# Coordination Sequence:
#
# PCOD8055816 Si02
#       6
#     4   4   4   4   4   4
#     4  11  23  46  70  98 138 176 229 285 335 407
#     4  10  24  42  65  99 137 172 226 280 329 410
#     4  11  23  44  68 100 134 181 226 273 343 401
#     4  10  24  44  67 102 135 178 227 283 342 400
#     4  11  24  43  70 100 136 182 222 281 339 397
#     4  11  24  45  68  99 138 177 230 282 332 407
#
# _framework density 22.289214000000001
#
# number of rings (size 3 to 8) (size 9 to 14) (size 15 to 20)
#    0.000    1.333    3.333    1.000    4.667    2.667 
#    9.000    0.000    0.000    0.000    0.000    0.000 
#    0.000    0.000    0.000    0.000    0.000    0.000 
#
# Total GULP energy -148736.153159 kJ/mol
# GULP energy per Si atom -12394.679430 kJ/mol
# Density = 2.223848 g / cm^3
# Si number density = 22.289214 Si / 1000 Ang^3
#
#
#
# Elastic Constant Matrix: (Units=GPa)
#
#
# Indices 1 2 3 4 5 6 
#
# 1 126.3600 59.9150 52.0664 0.0000 7.3001 0.0000
# 2 59.9150 93.2387 35.1023 0.0000 -3.7646 0.0000
# 3 52.0664 35.1023 99.5205 0.0000 11.7282 0.0000
# 4 0.0000 0.0000 0.0000 32.2715 0.0000 -8.9958
# 5 7.3001 -3.7646 11.7282 0.0000 35.9214 0.0000
# 6 0.0000 0.0000 0.0000 -8.9958 0.0000 40.8826
#
#
#
# Elastic Compliance Matrix: (Units=1/GPa)
#
#
# Indices 1 2 3 4 5 6 
#
# 1 0.012994 -0.006874 -0.004137 0.000000 -0.002010 0.000000
# 2 -0.006874 0.016286 -0.002615 0.000000 0.003957 0.000000
# 3 -0.004137 -0.002615 0.013591 0.000000 -0.003871 0.000000
# 4 0.000000 0.000000 0.000000 0.033012 0.000000 0.007264
# 5 -0.002010 0.003957 -0.003871 0.000000 0.029926 0.000000
# 6 0.000000 0.000000 0.000000 0.007264 0.000000 0.026059
#
#
# Mechanical properties :
#
#
# Convention : Reuss Voigt Hill
#
# Bulk Modulus (GPa) = 64.01669 68.14296 66.07983
# Shear Modulus (GPa) = 30.42775 33.28413 31.85594
#
# Velocity S-wave (km/s) = 3.69878 3.86850 3.78459
# Velocity P-wave (km/s) = 6.85745 7.11282 6.98630
#
# Compressibility (1/GPa) = 0.01562093
#
# Stress axis : x y z
#
# Youngs Moduli (GPa) = 76.96033 61.40152 73.57946
#
# Poissons Ratio (x) = 0.42205 0.30437
# Poissons Ratio (y) = 0.52899 0.19239
# Poissons Ratio (z) = 0.31836 0.16055
#
# Static dielectric constant tensor:
#      x y z
#    x 3.862840 0.000000 -0.089860 
#    y 0.000000 4.223800 0.000000 
#    z -0.089860 0.000000 4.056030 
# 
# 
# High freq. dielectric constant tensor:
#      x y z
#    x 1.857880 0.000000 -0.002460 
#    y 0.000000 1.877510 0.000000 
#    z -0.002460 0.000000 1.888740 
# 
# From -- ./inp_files/21564.got.cif
#   From: 2010.06.25/outbox.cif.g09.slc.cpg/sg9_11_cif.got.tgz:21564.got - 2010.06.27 21:40:51.
