data_PCOD8055867
_publ_section_title
;
Structure prediction by ZEFSAII (Michael W. Deem and Ramdas Pophale) SiO2 
 PCOD8055867
Probable space group: C C
;
_chemical_formula_sum "Si O2"
_cell_formula_units_Z 32
_cell_length_a 14.573477
_cell_length_b 11.585384
_cell_length_c 8.332810
_cell_angle_alpha 90.000000
_cell_angle_beta 72.657914
_cell_angle_gamma 90.000000
_cell_volume 1342.951053
_symmetry_space_group_name_H-M "C C"
_symmetry_group_IT_number 9
_symmetry_cell_setting 'monoclinic'
loop_
_space_group_symop_operation_xyz
x,y,z
x,-y,1/2+z
1/2+x,1/2+y,z
1/2+x,1/2-y,1/2+z
loop_
_atom_site_type_symbol
_atom_site_label
_atom_site_fract_x
_atom_site_fract_y
_atom_site_fract_z
Si Si1 0.482990 0.621158 0.114070
Si Si2 0.777704 0.800593 0.695916
Si Si3 0.765091 0.561397 0.825092
Si Si4 0.567370 0.156560 0.397701
Si Si5 0.081518 0.932086 0.888156
Si Si6 0.035278 0.583277 0.048021
Si Si7 0.204687 0.279684 0.391381
Si Si8 0.332839 0.143571 0.117873
O O1 0.369114 0.626879 0.209819
O O2 0.543171 0.626934 0.246715
O O3 0.516446 0.724854 0.978972
O O4 0.496043 0.493256 0.030705
O O5 0.806066 0.667182 0.702426
O O6 0.683339 0.831359 0.850346
O O7 0.763104 0.820435 0.515681
O O8 0.656982 0.536532 0.820647
O O9 0.832409 0.449882 0.763171
O O10 0.766794 0.593832 0.011417
O O11 0.528330 0.055028 0.534898
O O12 0.541677 0.125424 0.227858
O O13 0.140391 0.835483 0.958087
O O14 0.128308 0.619322 0.893087
O O15 0.945092 0.653667 0.014758
O O16 0.281651 0.261029 0.207164
#
# Coordination Sequence:
#
# PCOD8055867 Si02
#       8
#     4   4   4   4   4   4   4   4
#     4  12  26  45  74 106 141 187 243 298 357 433
#     4  11  24  43  66 101 142 182 234 289 359 430
#     4  11  21  40  68  99 136 179 234 296 344 415
#     4  11  26  45  70 100 146 188 237 297 359 425
#     4  11  24  44  73 103 144 184 241 296 361 417
#     4  11  25  44  69 102 144 186 238 290 361 423
#     4  10  24  44  68 100 139 190 231 292 359 419
#     4  11  22  39  70 101 132 184 244 290 346 422
#
# _framework density 23.828119000000001
#
# number of rings (size 3 to 8) (size 9 to 14) (size 15 to 20)
#    0.000    1.000    1.250    6.000    5.250    2.000 
#    2.250    0.000    0.000    0.000    0.000    0.000 
#    0.000    0.000    0.000    0.000    0.000    0.000 
#
# Total GULP energy -198350.476774 kJ/mol
# GULP energy per Si atom -12396.904798 kJ/mol
# Density = 2.377389 g / cm^3
# Si number density = 23.828119 Si / 1000 Ang^3
#
#
#
# Elastic Constant Matrix: (Units=GPa)
#
#
# Indices 1 2 3 4 5 6 
#
# 1 151.9789 22.9404 36.2018 0.0000 -2.6287 0.0000
# 2 22.9404 55.2822 -4.0457 0.0000 2.9487 0.0000
# 3 36.2018 -4.0457 49.0340 0.0000 5.5554 0.0000
# 4 0.0000 0.0000 0.0000 49.6976 0.0000 -3.7699
# 5 -2.6287 2.9487 5.5554 0.0000 33.0221 0.0000
# 6 0.0000 0.0000 0.0000 -3.7699 0.0000 31.6173
#
#
#
# Elastic Compliance Matrix: (Units=1/GPa)
#
#
# Indices 1 2 3 4 5 6 
#
# 1 0.009021 -0.004401 -0.007288 0.000000 0.002337 0.000000
# 2 -0.004401 0.020466 0.005286 0.000000 -0.003067 0.000000
# 3 -0.007288 0.005286 0.026842 0.000000 -0.005568 0.000000
# 4 0.000000 0.000000 0.000000 0.020305 0.000000 0.002421
# 5 0.002337 -0.003067 -0.005568 0.000000 0.031679 0.000000
# 6 0.000000 0.000000 0.000000 0.002421 0.000000 0.031917
#
#
# Mechanical properties :
#
#
# Convention : Reuss Voigt Hill
#
# Bulk Modulus (GPa) = 22.97755 40.72091 31.84923
# Shear Modulus (GPa) = 29.84297 36.28065 33.06181
#
# Velocity S-wave (km/s) = 3.54280 3.90628 3.72897
# Velocity P-wave (km/s) = 5.13802 6.12143 5.65116
#
# Compressibility (1/GPa) = 0.04352074
#
# Stress axis : x y z
#
# Youngs Moduli (GPa) = 110.85720 48.86206 37.25569
#
# Poissons Ratio (x) = 0.21506 0.27151
# Poissons Ratio (y) = 0.48791 -0.19692
# Poissons Ratio (z) = 0.80791 -0.25826
#
# Static dielectric constant tensor:
#      x y z
#    x 4.476280 0.000000 -0.190180 
#    y 0.000000 4.300160 0.000000 
#    z -0.190180 0.000000 4.139690 
# 
# 
# High freq. dielectric constant tensor:
#      x y z
#    x 1.956620 0.000000 -0.004730 
#    y 0.000000 1.934760 0.000000 
#    z -0.004730 0.000000 1.929160 
# 
# From -- ./inp_files/9246.got.cif
#   From: 2010.06.25/outbox.cif.g09.slc.cpg/sg9_5_cif.got.tgz:9246.got - 2010.06.27 21:40:51.
