data_PCOD8055605
_publ_section_title
;
Structure prediction by ZEFSAII (Michael W. Deem and Ramdas Pophale) SiO2 
 PCOD8055605
Probable space group: C C
;
_chemical_formula_sum "Si O2"
_cell_formula_units_Z 20
_cell_length_a 30.839141
_cell_length_b 5.030099
_cell_length_c 19.698649
_cell_angle_alpha 90.000000
_cell_angle_beta 16.576108
_cell_angle_gamma 90.000000
_cell_volume 871.765864
_symmetry_space_group_name_H-M "C C"
_symmetry_group_IT_number 9
_symmetry_cell_setting 'monoclinic'
loop_
_space_group_symop_operation_xyz
x,y,z
x,-y,1/2+z
1/2+x,1/2+y,z
1/2+x,1/2-y,1/2+z
loop_
_atom_site_type_symbol
_atom_site_label
_atom_site_fract_x
_atom_site_fract_y
_atom_site_fract_z
Si Si1 0.727610 0.163891 0.491760
Si Si2 0.216553 0.159721 0.425040
Si Si3 0.884573 0.794035 0.460686
Si Si4 0.451831 0.355182 0.975540
Si Si5 0.738734 0.712703 0.120814
O O1 0.771788 0.370652 0.366377
O O2 0.543131 0.174211 0.782713
O O3 0.812483 0.247952 0.434421
O O4 0.768854 0.871212 0.404352
O O5 0.034926 0.170184 0.688579
O O6 0.294157 0.223404 0.236289
O O7 0.821572 0.500335 0.543828
O O8 0.922137 0.858180 0.483908
O O9 0.754446 0.004574 0.634150
O O10 0.562838 0.380664 0.874946
#
# Coordination Sequence:
#
# PCOD8055605 Si02
#       5
#     4   4   4   4   4
#     4   9  22  40  65  88 128 165 206 259 317 364
#     4  11  21  42  68  89 127 173 206 261 322 369
#     4  11  22  42  65  98 124 170 214 261 316 380
#     4   9  24  43  67  89 135 167 207 269 314 376
#     4  10  23  43  65  90 136 165 207 270 315 371
#
# _framework density 22.941939000000001
#
# number of rings (size 3 to 8) (size 9 to 14) (size 15 to 20)
#    1.200    0.800    0.000    3.600    0.000    6.400 
#   10.800    0.000    0.000    0.000    0.000    0.000 
#    0.000    0.000    0.000    0.000    0.000    0.000 
#
# Total GULP energy -123892.078078 kJ/mol
# GULP energy per Si atom -12389.207808 kJ/mol
# Density = 2.288972 g / cm^3
# Si number density = 22.941939 Si / 1000 Ang^3
#
#
#
# Elastic Constant Matrix: (Units=GPa)
#
#
# Indices 1 2 3 4 5 6 
#
# 1 68.6474 24.8695 28.3076 -0.0029 -7.8664 0.0005
# 2 24.8695 88.3570 9.6989 -0.0092 -1.3774 0.0041
# 3 28.3076 9.6989 95.2700 -0.0034 13.5011 -0.0002
# 4 -0.0029 -0.0092 -0.0034 22.2993 -0.0020 7.0273
# 5 -7.8664 -1.3774 13.5011 -0.0020 33.5349 -0.0004
# 6 0.0005 0.0041 -0.0002 7.0273 -0.0004 38.2449
#
#
#
# Elastic Compliance Matrix: (Units=1/GPa)
#
#
# Indices 1 2 3 4 5 6 
#
# 1 0.019710 -0.004740 -0.006365 0.000000 0.006991 0.000000
# 2 -0.004740 0.012617 0.000221 0.000005 -0.000683 -0.000002
# 3 -0.006365 0.000221 0.013336 0.000001 -0.006853 0.000000
# 4 0.000000 0.000005 0.000001 0.047601 0.000003 -0.008746
# 5 0.006991 -0.000683 -0.006853 0.000003 0.034191 0.000000
# 6 0.000000 -0.000002 0.000000 -0.008746 0.000000 0.027754
#
#
# Mechanical properties :
#
#
# Convention : Reuss Voigt Hill
#
# Bulk Modulus (GPa) = 41.84920 42.00295 41.92607
# Shear Modulus (GPa) = 27.03542 31.44238 29.23890
#
# Velocity S-wave (km/s) = 3.43655 3.70607 3.57385
# Velocity P-wave (km/s) = 5.83330 6.05486 5.94512
#
# Compressibility (1/GPa) = 0.02389532
#
# Stress axis : x y z
#
# Youngs Moduli (GPa) = 50.73539 79.25791 74.98316
#
# Poissons Ratio (x) = 0.37569 0.47724
# Poissons Ratio (y) = 0.24049 -0.01655
# Poissons Ratio (z) = 0.32291 -0.01749
#
# Static dielectric constant tensor:
#      x y z
#    x 3.958410 0.000000 -0.081140 
#    y 0.000000 3.927140 0.000000 
#    z -0.081140 0.000000 3.866880 
# 
# 
# High freq. dielectric constant tensor:
#      x y z
#    x 1.895870 0.000000 -0.000780 
#    y 0.000000 1.908760 0.000000 
#    z -0.000780 0.000000 1.874680 
# 
# From -- ./inp_files/21025.got.cif
#   From: 2010.06.25/outbox.cif.g09.slc.cpg/sg9_11_cif.got.tgz:21025.got - 2010.06.27 21:40:51.
