data_PCOD8055313
_publ_section_title
;
Structure prediction by ZEFSAII (Michael W. Deem and Ramdas Pophale) SiO2 
 PCOD8055313
Probable space group: C C
;
_chemical_formula_sum "Si O2"
_cell_formula_units_Z 28
_cell_length_a 10.926966
_cell_length_b 8.755659
_cell_length_c 29.108809
_cell_angle_alpha 90.000000
_cell_angle_beta 152.110009
_cell_angle_gamma 90.000000
_cell_volume 1302.717558
_symmetry_space_group_name_H-M "C C"
_symmetry_group_IT_number 9
_symmetry_cell_setting 'monoclinic'
loop_
_space_group_symop_operation_xyz
x,y,z
x,-y,1/2+z
1/2+x,1/2+y,z
1/2+x,1/2-y,1/2+z
loop_
_atom_site_type_symbol
_atom_site_label
_atom_site_fract_x
_atom_site_fract_y
_atom_site_fract_z
Si Si1 0.530780 0.926276 0.772660
Si Si2 0.905440 0.490076 0.082479
Si Si3 0.937429 0.479287 0.495162
Si Si4 0.319336 0.151908 0.780216
Si Si5 0.267477 0.240821 0.107615
Si Si6 0.499030 0.225530 0.936273
Si Si7 0.846447 0.998799 0.290897
O O1 0.422614 0.034820 0.776548
O O2 0.716389 0.017668 0.798122
O O3 0.292950 0.846370 0.665310
O O4 0.718140 0.798095 0.856990
O O5 0.757945 0.611787 0.065345
O O6 0.155401 0.413943 0.191169
O O7 0.005937 0.575729 0.069520
O O8 0.710949 0.358690 0.000495
O O9 0.636394 0.436381 0.385584
O O10 0.002781 0.661041 0.514656
O O11 0.096199 0.385665 0.509308
O O12 0.469611 0.129585 0.878911
O O13 0.357715 0.326104 0.777303
O O14 0.005334 0.136394 0.681841
#
# Coordination Sequence:
#
# PCOD8055313 Si02
#       7
#     4   4   4   4   4   4   4
#     4   9  19  43  67  88 129 165 219 266 319 379
#     4  10  22  42  61  94 130 169 213 263 325 374
#     4  12  23  41  65  95 134 164 216 268 317 385
#     4   9  19  43  64  93 124 169 217 266 318 380
#     4   9  24  40  63  93 127 170 217 261 322 380
#     4  10  23  38  62  99 125 166 218 260 320 388
#     4   9  22  39  66  94 127 171 214 262 323 376
#
# _framework density 21.49353
#
# number of rings (size 3 to 8) (size 9 to 14) (size 15 to 20)
#    0.000    2.857    2.857    0.000    6.000    6.857 
#    0.000    0.000    0.000    0.000    0.000    0.000 
#    0.000    0.000    0.000    0.000    0.000    0.000 
#
# Total GULP energy -173437.781916 kJ/mol
# GULP energy per Si atom -12388.412994 kJ/mol
# Density = 2.144461 g / cm^3
# Si number density = 21.493530 Si / 1000 Ang^3
#
#
#
# Elastic Constant Matrix: (Units=GPa)
#
#
# Indices 1 2 3 4 5 6 
#
# 1 130.8485 66.4700 53.8146 0.0000 -30.5892 0.0000
# 2 66.4700 65.1496 24.4259 0.0000 -21.5922 0.0000
# 3 53.8146 24.4259 103.2167 0.0000 -18.2432 -0.0001
# 4 0.0000 0.0000 0.0000 27.2666 0.0000 -8.5832
# 5 -30.5892 -21.5922 -18.2432 0.0000 34.0276 0.0000
# 6 0.0000 0.0000 -0.0001 -8.5832 0.0000 46.3358
#
#
#
# Elastic Compliance Matrix: (Units=1/GPa)
#
#
# Indices 1 2 3 4 5 6 
#
# 1 0.018866 -0.015916 -0.005366 0.000000 0.003983 0.000000
# 2 -0.015916 0.033556 0.001759 0.000000 0.007928 0.000000
# 3 -0.005366 0.001759 0.012609 0.000000 0.003053 0.000000
# 4 0.000000 0.000000 0.000000 0.038946 0.000000 0.007214
# 5 0.003983 0.007928 0.003053 0.000000 0.039636 0.000000
# 6 0.000000 0.000000 0.000000 0.007214 0.000000 0.022918
#
#
# Mechanical properties :
#
#
# Convention : Reuss Voigt Hill
#
# Bulk Modulus (GPa) = 38.48408 65.40398 51.94403
# Shear Modulus (GPa) = 23.33844 31.82628 27.58236
#
# Velocity S-wave (km/s) = 3.29878 3.85221 3.58619
# Velocity P-wave (km/s) = 5.69676 7.09096 6.43175
#
# Compressibility (1/GPa) = 0.02598477
#
# Stress axis : x y z
#
# Youngs Moduli (GPa) = 53.00656 29.80060 79.30710
#
# Poissons Ratio (x) = 0.47431 0.42553
# Poissons Ratio (y) = 0.84367 -0.13947
# Poissons Ratio (z) = 0.28441 -0.05241
#
# Static dielectric constant tensor:
#      x y z
#    x 3.766930 0.000000 -0.077940 
#    y 0.000000 3.431540 0.000000 
#    z -0.077940 0.000000 4.201760 
# 
# 
# High freq. dielectric constant tensor:
#      x y z
#    x 1.843060 0.000000 -0.010060 
#    y 0.000000 1.805990 0.000000 
#    z -0.010060 0.000000 1.855560 
# 
# From -- ./inp_files/33184.got.cif
#   From: 2010.06.25/outbox.cif.g09.slc.cpg/sg9_17_cif.got.tgz:33184.got - 2010.06.27 21:40:51.
