data_PCOD8055248
_publ_section_title
;
Structure prediction by ZEFSAII (Michael W. Deem and Ramdas Pophale) SiO2 
 PCOD8055248
Probable space group: C C
;
_chemical_formula_sum "Si O2"
_cell_formula_units_Z 28
_cell_length_a 16.195197
_cell_length_b 10.575713
_cell_length_c 8.794253
_cell_angle_alpha 90.000000
_cell_angle_beta 123.314507
_cell_angle_gamma 90.000000
_cell_volume 1258.719001
_symmetry_space_group_name_H-M "C C"
_symmetry_group_IT_number 9
_symmetry_cell_setting 'monoclinic'
loop_
_space_group_symop_operation_xyz
x,y,z
x,-y,1/2+z
1/2+x,1/2+y,z
1/2+x,1/2-y,1/2+z
loop_
_atom_site_type_symbol
_atom_site_label
_atom_site_fract_x
_atom_site_fract_y
_atom_site_fract_z
Si Si1 0.222070 0.840135 0.977330
Si Si2 0.688198 0.412384 0.276480
Si Si3 0.768712 0.159250 0.446294
Si Si4 0.164807 0.510646 0.592770
Si Si5 0.901172 0.829426 0.617652
Si Si6 0.565449 0.154647 0.752226
Si Si7 0.454966 0.431683 0.998726
O O1 0.111827 0.790456 0.841733
O O2 0.237889 0.957546 0.881139
O O3 0.235876 0.889375 0.161191
O O4 0.286854 0.712911 0.012489
O O5 0.724706 0.299320 0.423305
O O6 0.569242 0.415813 0.159694
O O7 0.749181 0.080435 0.579828
O O8 0.886611 0.161759 0.532675
O O9 0.715983 0.094969 0.247530
O O10 0.102202 0.610551 0.625443
O O11 0.084478 0.448643 0.400463
O O12 0.939937 0.899550 0.807486
O O13 0.950582 0.692332 0.634834
O O14 0.916581 0.925332 0.492696
#
# Coordination Sequence:
#
# PCOD8055248 Si02
#       7
#     4   4   4   4   4   4   4
#     4  12  26  45  65 103 143 182 230 302 347 415
#     4  12  25  45  69 101 144 185 232 294 358 415
#     4  11  22  42  69 101 133 179 237 286 350 418
#     4  10  22  40  68  98 138 180 228 297 346 412
#     4  12  25  44  74 101 141 184 239 291 349 429
#     4  11  22  44  66  97 140 179 236 286 353 413
#     4  12  22  44  75 101 135 193 234 284 353 424
#
# _framework density 22.244838999999999
#
# number of rings (size 3 to 8) (size 9 to 14) (size 15 to 20)
#    0.000    0.571    5.714    2.571    2.000    2.286 
#    5.143    0.000    0.000    0.000    0.000    0.000 
#    0.000    0.000    0.000    0.000    0.000    0.000 
#
# Total GULP energy -173620.128174 kJ/mol
# GULP energy per Si atom -12401.437727 kJ/mol
# Density = 2.219421 g / cm^3
# Si number density = 22.244839 Si / 1000 Ang^3
#
#
#
# Elastic Constant Matrix: (Units=GPa)
#
#
# Indices 1 2 3 4 5 6 
#
# 1 98.8592 31.6561 34.7361 0.0000 -5.8077 0.0000
# 2 31.6561 120.0034 40.5601 0.0000 -5.0236 0.0000
# 3 34.7361 40.5601 59.3063 0.0000 -8.9597 0.0000
# 4 0.0000 0.0000 0.0000 34.8004 0.0000 -1.6065
# 5 -5.8077 -5.0236 -8.9597 0.0000 38.5037 0.0000
# 6 0.0000 0.0000 0.0000 -1.6065 0.0000 50.1521
#
#
#
# Elastic Compliance Matrix: (Units=1/GPa)
#
#
# Indices 1 2 3 4 5 6 
#
# 1 0.012849 -0.001103 -0.006737 0.000000 0.000226 0.000000
# 2 -0.001103 0.010937 -0.006886 0.000000 -0.000342 0.000000
# 3 -0.006737 -0.006886 0.026147 0.000000 0.004170 0.000000
# 4 0.000000 0.000000 0.000000 0.028778 0.000000 0.000922
# 5 0.000226 -0.000342 0.004170 0.000000 0.026931 0.000000
# 6 0.000000 0.000000 0.000000 0.000922 0.000000 0.019969
#
#
# Mechanical properties :
#
#
# Convention : Reuss Voigt Hill
#
# Bulk Modulus (GPa) = 48.82495 54.67479 51.74987
# Shear Modulus (GPa) = 30.88522 36.10567 33.49545
#
# Velocity S-wave (km/s) = 3.73020 4.03315 3.88463
# Velocity P-wave (km/s) = 6.36781 6.80591 6.59050
#
# Compressibility (1/GPa) = 0.02048133
#
# Stress axis : x y z
#
# Youngs Moduli (GPa) = 77.82610 91.43289 38.24565
#
# Poissons Ratio (x) = 0.10084 0.25767
# Poissons Ratio (y) = 0.08583 0.26334
# Poissons Ratio (z) = 0.52434 0.62957
#
# Static dielectric constant tensor:
#      x y z
#    x 4.088270 0.000000 -0.050050 
#    y 0.000000 4.027240 0.000000 
#    z -0.050050 0.000000 3.893690 
# 
# 
# High freq. dielectric constant tensor:
#      x y z
#    x 1.884810 0.000000 -0.004670 
#    y 0.000000 1.879500 0.000000 
#    z -0.004670 0.000000 1.867140 
# 
# From -- ./inp_files/9026.got.cif
#   From: 2010.06.25/outbox.cif.g09.slc.cpg/sg9_5_cif.got.tgz:9026.got - 2010.06.27 21:40:51.
