data_PCOD8055981
_publ_section_title
;
Structure prediction by ZEFSAII (Michael W. Deem and Ramdas Pophale) SiO2 
 PCOD8055981
Probable space group: C C
;
_chemical_formula_sum "Si O2"
_cell_formula_units_Z 24
_cell_length_a 8.355329
_cell_length_b 12.586931
_cell_length_c 9.373689
_cell_angle_alpha 90.000000
_cell_angle_beta 97.547324
_cell_angle_gamma 90.000000
_cell_volume 977.271284
_symmetry_space_group_name_H-M "C C"
_symmetry_group_IT_number 9
_symmetry_cell_setting 'monoclinic'
loop_
_space_group_symop_operation_xyz
x,y,z
x,-y,1/2+z
1/2+x,1/2+y,z
1/2+x,1/2-y,1/2+z
loop_
_atom_site_type_symbol
_atom_site_label
_atom_site_fract_x
_atom_site_fract_y
_atom_site_fract_z
Si Si1 0.687070 0.976570 0.217820
Si Si2 0.946749 0.333229 0.658969
Si Si3 0.469895 0.194814 0.826422
Si Si4 0.909958 0.015652 0.489839
Si Si5 0.096832 0.103908 0.213774
Si Si6 0.128878 0.870759 0.200620
O O1 0.620854 0.869903 0.281920
O O2 0.748788 0.955212 0.064803
O O3 0.552504 0.066064 0.214126
O O4 0.850782 0.011144 0.320495
O O5 0.769119 0.347701 0.697272
O O6 0.939111 0.327449 0.487558
O O7 0.022482 0.228679 0.744737
O O8 0.504301 0.319316 0.811553
O O9 0.314133 0.163550 0.713507
O O10 0.052715 0.103626 0.534011
O O11 0.986209 0.904152 0.556755
O O12 0.115382 0.983662 0.287135
#
# Coordination Sequence:
#
# PCOD8055981 Si02
#       6
#     4   4   4   4   4   4
#     4  12  23  49  77 118 151 202 256 314 382 461
#     4  12  26  49  78 113 156 206 250 322 385 459
#     4  12  26  49  79 113 155 203 262 312 386 460
#     4  10  25  45  77 108 154 194 258 317 376 450
#     4  10  26  50  72 113 147 199 259 314 381 449
#     4  10  26  46  75 109 149 198 255 313 378 453
#
# _framework density 24.558177000000001
#
# number of rings (size 3 to 8) (size 9 to 14) (size 15 to 20)
#    1.000    0.000    3.333    2.000    7.000    1.333 
#    3.000    0.000    0.000    0.000    0.000    0.000 
#    0.000    0.000    0.000    0.000    0.000    0.000 
#
# Total GULP energy -148684.925947 kJ/mol
# GULP energy per Si atom -12390.410496 kJ/mol
# Density = 2.450228 g / cm^3
# Si number density = 24.558177 Si / 1000 Ang^3
#
#
#
# Elastic Constant Matrix: (Units=GPa)
#
#
# Indices 1 2 3 4 5 6 
#
# 1 142.3373 40.8137 37.5829 0.0000 0.7455 0.0000
# 2 40.8137 150.7375 32.8517 0.0000 -5.2237 0.0000
# 3 37.5829 32.8517 64.0846 0.0000 7.6125 0.0000
# 4 0.0000 0.0000 0.0000 26.4647 0.0000 3.9522
# 5 0.7455 -5.2237 7.6125 0.0000 31.2412 0.0000
# 6 0.0000 0.0000 0.0000 3.9522 0.0000 52.4976
#
#
#
# Elastic Compliance Matrix: (Units=1/GPa)
#
#
# Indices 1 2 3 4 5 6 
#
# 1 0.008572 -0.001335 -0.004420 0.000000 0.000649 0.000000
# 2 -0.001335 0.007833 -0.003493 0.000000 0.002193 0.000000
# 3 -0.004420 -0.003493 0.020641 0.000000 -0.005508 0.000000
# 4 0.000000 0.000000 0.000000 0.038216 0.000000 -0.002877
# 5 0.000649 0.002193 -0.005508 0.000000 0.033702 0.000000
# 6 0.000000 0.000000 0.000000 -0.002877 0.000000 0.019265
#
#
# Mechanical properties :
#
#
# Convention : Reuss Voigt Hill
#
# Bulk Modulus (GPa) = 53.90679 64.40621 59.15650
# Shear Modulus (GPa) = 32.69937 38.43476 35.56707
#
# Velocity S-wave (km/s) = 3.65294 3.96036 3.80975
# Velocity P-wave (km/s) = 6.30795 6.86990 6.59491
#
# Compressibility (1/GPa) = 0.01855054
#
# Stress axis : x y z
#
# Youngs Moduli (GPa) = 116.65855 127.66883 48.44686
#
# Poissons Ratio (x) = 0.17047 0.21412
# Poissons Ratio (y) = 0.15577 0.16921
# Poissons Ratio (z) = 0.51560 0.44591
#
# Static dielectric constant tensor:
#      x y z
#    x 4.550840 0.000000 0.182590 
#    y 0.000000 4.692920 0.000000 
#    z 0.182590 0.000000 3.983530 
# 
# 
# High freq. dielectric constant tensor:
#      x y z
#    x 1.999080 0.000000 0.001740 
#    y 0.000000 1.990080 0.000000 
#    z 0.001740 0.000000 1.955210 
# 
# From -- ./inp_files/14205.got.cif
#   From: 2010.06.25/outbox.cif.g09.slc.cpg/sg9_8_cif.got.tgz:14205.got - 2010.06.27 21:40:51.
