data_PCOD8055082
_publ_section_title
;
Structure prediction by ZEFSAII (Michael W. Deem and Ramdas Pophale) SiO2 
 PCOD8055082
Probable space group: C C
;
_chemical_formula_sum "Si O2"
_cell_formula_units_Z 24
_cell_length_a 11.410373
_cell_length_b 9.172943
_cell_length_c 20.449804
_cell_angle_alpha 90.000000
_cell_angle_beta 153.011139
_cell_angle_gamma 90.000000
_cell_volume 971.356619
_symmetry_space_group_name_H-M "C C"
_symmetry_group_IT_number 9
_symmetry_cell_setting 'monoclinic'
loop_
_space_group_symop_operation_xyz
x,y,z
x,-y,1/2+z
1/2+x,1/2+y,z
1/2+x,1/2-y,1/2+z
loop_
_atom_site_type_symbol
_atom_site_label
_atom_site_fract_x
_atom_site_fract_y
_atom_site_fract_z
Si Si1 0.310040 0.477197 0.843280
Si Si2 0.820374 0.530126 0.514918
Si Si3 0.896942 0.758286 0.995076
Si Si4 0.529332 0.287468 0.543123
Si Si5 0.712403 0.912553 0.022211
Si Si6 0.727751 0.470815 0.227790
O O1 0.327845 0.322036 0.889546
O O2 0.333717 0.609481 0.906244
O O3 0.024047 0.489561 0.672676
O O4 0.530481 0.486734 0.897700
O O5 0.883453 0.417193 0.486652
O O6 0.857881 0.693436 0.508003
O O7 0.691837 0.805956 0.948971
O O8 0.177570 0.823733 0.159409
O O9 0.688574 0.178802 0.576357
O O10 0.731599 0.388426 0.682113
O O11 0.488792 0.034073 0.900021
O O12 0.989061 0.993508 0.160262
#
# Coordination Sequence:
#
# PCOD8055082 Si02
#       6
#     4   4   4   4   4   4
#     4  11  26  46  68  98 143 175 224 286 332 399
#     4  12  27  44  70 105 131 183 230 272 341 404
#     4   9  24  42  71  95 135 181 220 277 341 390
#     4  11  24  42  71  96 139 175 220 282 335 399
#     4  10  21  43  70  94 128 178 221 269 341 392
#     4   9  22  41  68  94 132 174 219 270 342 390
#
# _framework density 24.707713999999999
#
# number of rings (size 3 to 8) (size 9 to 14) (size 15 to 20)
#    1.000    0.667    1.667    1.000    4.667    6.667 
#    0.000    0.000    0.000    0.000    0.000    0.000 
#    0.000    0.000    0.000    0.000    0.000    0.000 
#
# Total GULP energy -148731.115186 kJ/mol
# GULP energy per Si atom -12394.259599 kJ/mol
# Density = 2.465148 g / cm^3
# Si number density = 24.707714 Si / 1000 Ang^3
#
#
#
# Elastic Constant Matrix: (Units=GPa)
#
#
# Indices 1 2 3 4 5 6 
#
# 1 63.8261 17.3872 2.3386 0.0074 -4.4784 0.0039
# 2 17.3872 75.7783 -17.7003 0.0058 -8.7046 0.0031
# 3 2.3386 -17.7003 69.8228 0.0191 16.0172 0.0092
# 4 0.0074 0.0058 0.0191 9.8235 0.0028 -5.4240
# 5 -4.4784 -8.7046 16.0172 0.0028 23.0953 0.0015
# 6 0.0039 0.0031 0.0092 -5.4240 0.0015 45.7215
#
#
#
# Elastic Compliance Matrix: (Units=1/GPa)
#
#
# Indices 1 2 3 4 5 6 
#
# 1 0.017111 -0.004091 -0.002399 -0.000008 0.003440 -0.000002
# 2 -0.004091 0.015227 0.003404 -0.000015 0.002585 -0.000003
# 3 -0.002399 0.003404 0.017930 -0.000036 -0.011617 -0.000008
# 4 -0.000008 -0.000015 -0.000036 0.108932 0.000004 0.012923
# 5 0.003440 0.002585 -0.011617 0.000004 0.052997 0.000001
# 6 -0.000002 -0.000003 -0.000008 0.012923 0.000001 0.023405
#
#
# Mechanical properties :
#
#
# Convention : Reuss Voigt Hill
#
# Bulk Modulus (GPa) = 22.67799 23.71980 23.19889
# Shear Modulus (GPa) = 19.49512 29.55483 24.52498
#
# Velocity S-wave (km/s) = 2.81201 3.46233 3.15398
# Velocity P-wave (km/s) = 4.44316 5.06011 4.76163
#
# Compressibility (1/GPa) = 0.04409561
#
# Stress axis : x y z
#
# Youngs Moduli (GPa) = 58.44041 65.67165 55.77132
#
# Poissons Ratio (x) = 0.26870 0.13382
# Poissons Ratio (y) = 0.23911 -0.18986
# Poissons Ratio (z) = 0.14023 -0.22356
#
# Static dielectric constant tensor:
#      x y z
#    x 4.304680 0.000000 -0.059020 
#    y 0.000000 4.463090 0.000000 
#    z -0.059020 0.000000 4.098800 
# 
# 
# High freq. dielectric constant tensor:
#      x y z
#    x 1.977500 0.000000 -0.002090 
#    y 0.000000 1.980620 0.000000 
#    z -0.002090 0.000000 1.967970 
# 
# From -- ./inp_files/29759.got.cif
#   From: 2010.06.25/outbox.cif.g09.slc.cpg/sg9_15_cif.got.tgz:29759.got - 2010.06.27 21:40:51.
