data_PCOD8055306
_publ_section_title
;
Structure prediction by ZEFSAII (Michael W. Deem and Ramdas Pophale) SiO2 
 PCOD8055306
Probable space group: C C
;
_chemical_formula_sum "Si O2"
_cell_formula_units_Z 32
_cell_length_a 12.699809
_cell_length_b 11.304911
_cell_length_c 14.044667
_cell_angle_alpha 90.000000
_cell_angle_beta 138.699010
_cell_angle_gamma 90.000000
_cell_volume 1330.850764
_symmetry_space_group_name_H-M "C C"
_symmetry_group_IT_number 9
_symmetry_cell_setting 'monoclinic'
loop_
_space_group_symop_operation_xyz
x,y,z
x,-y,1/2+z
1/2+x,1/2+y,z
1/2+x,1/2-y,1/2+z
loop_
_atom_site_type_symbol
_atom_site_label
_atom_site_fract_x
_atom_site_fract_y
_atom_site_fract_z
Si Si1 0.729670 0.161865 0.513070
Si Si2 0.570124 0.044790 0.559048
Si Si3 0.665798 0.198426 0.055104
Si Si4 0.582507 0.315594 0.182076
Si Si5 0.719671 0.440752 0.770619
Si Si6 0.051680 0.561263 0.237131
Si Si7 0.185423 0.922732 0.523467
Si Si8 0.035992 0.139785 0.317443
O O1 0.627619 0.054720 0.393579
O O2 0.653044 0.293505 0.454231
O O3 0.904868 0.149236 0.591538
O O4 0.713864 0.123842 0.613385
O O5 0.559222 0.914687 0.506235
O O6 0.608050 0.035274 0.698076
O O7 0.398157 0.102287 0.417524
O O8 0.605680 0.302683 0.084549
O O9 0.849777 0.166504 0.193537
O O10 0.629733 0.248815 0.926191
O O11 0.700481 0.421948 0.291586
O O12 0.623945 0.190883 0.258642
O O13 0.671273 0.419654 0.628206
O O14 0.595441 0.365631 0.749187
O O15 0.864251 0.544782 0.115457
O O16 0.067380 0.017516 0.396328
#
# Coordination Sequence:
#
# PCOD8055306 Si02
#       8
#     4   4   4   4   4   4   4   4
#     4  11  24  45  70 108 144 187 249 302 368 434
#     4  11  24  42  70 104 141 189 240 300 364 439
#     4  11  26  45  73 107 142 191 249 301 367 442
#     4  10  23  40  72 100 136 187 247 293 346 434
#     4  12  23  44  70 104 148 191 236 303 379 430
#     4  10  22  41  71 100 136 193 243 300 352 432
#     4  11  24  46  72 105 145 192 243 308 372 437
#     4  12  26  47  74 106 148 190 247 309 370 444
#
# _framework density 24.04477
#
# number of rings (size 3 to 8) (size 9 to 14) (size 15 to 20)
#    0.000    1.000    3.750    2.250    7.000    2.000 
#    2.250    0.000    0.000    0.000    0.000    0.000 
#    0.000    0.000    0.000    0.000    0.000    0.000 
#
# Total GULP energy -198338.695959 kJ/mol
# GULP energy per Si atom -12396.168497 kJ/mol
# Density = 2.399004 g / cm^3
# Si number density = 24.044770 Si / 1000 Ang^3
#
#
#
# Elastic Constant Matrix: (Units=GPa)
#
#
# Indices 1 2 3 4 5 6 
#
# 1 173.0881 29.0429 46.0330 0.0000 -2.2079 0.0000
# 2 29.0429 28.8643 2.7709 0.0000 6.1447 0.0000
# 3 46.0330 2.7709 82.1270 0.0000 3.5963 0.0000
# 4 0.0000 0.0000 0.0000 33.4906 0.0000 -1.8797
# 5 -2.2079 6.1447 3.5963 0.0000 39.2371 0.0000
# 6 0.0000 0.0000 0.0000 -1.8797 0.0000 44.7084
#
#
#
# Elastic Compliance Matrix: (Units=1/GPa)
#
#
# Indices 1 2 3 4 5 6 
#
# 1 0.008447 -0.008537 -0.004544 0.000000 0.002229 0.000000
# 2 -0.008537 0.044545 0.003623 0.000000 -0.007789 0.000000
# 3 -0.004544 0.003623 0.014696 0.000000 -0.002170 0.000000
# 4 0.000000 0.000000 0.000000 0.029930 0.000000 0.001258
# 5 0.002229 -0.007789 -0.002170 0.000000 0.027030 0.000000
# 6 0.000000 0.000000 0.000000 0.001258 0.000000 0.022420
#
#
# Mechanical properties :
#
#
# Convention : Reuss Voigt Hill
#
# Bulk Modulus (GPa) = 20.50354 48.86366 34.68360
# Shear Modulus (GPa) = 27.43612 37.23605 32.33608
#
# Velocity S-wave (km/s) = 3.38160 3.93951 3.67117
# Velocity P-wave (km/s) = 4.87777 6.40774 5.69437
#
# Compressibility (1/GPa) = 0.04877206
#
# Stress axis : x y z
#
# Youngs Moduli (GPa) = 118.38733 22.44909 68.04544
#
# Poissons Ratio (x) = 0.19166 0.30921
# Poissons Ratio (y) = 1.01072 -0.24656
# Poissons Ratio (z) = 0.53796 -0.08134
#
# Static dielectric constant tensor:
#      x y z
#    x 4.661590 0.000000 -0.332530 
#    y 0.000000 4.300840 0.000000 
#    z -0.332530 0.000000 4.046180 
# 
# 
# High freq. dielectric constant tensor:
#      x y z
#    x 1.978840 0.000000 -0.014090 
#    y 0.000000 1.942380 0.000000 
#    z -0.014090 0.000000 1.937470 
# 
# From -- ./inp_files/24730.got.cif
#   From: 2010.06.25/outbox.cif.g09.slc.cpg/sg9_13_cif.got.tgz:24730.got - 2010.06.27 21:40:51.
