data_PCOD8055562
_publ_section_title
;
Structure prediction by ZEFSAII (Michael W. Deem and Ramdas Pophale) SiO2 
 PCOD8055562
Probable space group: C C
;
_chemical_formula_sum "Si O2"
_cell_formula_units_Z 28
_cell_length_a 20.031134
_cell_length_b 9.517936
_cell_length_c 8.931010
_cell_angle_alpha 90.000000
_cell_angle_beta 45.723164
_cell_angle_gamma 90.000000
_cell_volume 1219.120887
_symmetry_space_group_name_H-M "C C"
_symmetry_group_IT_number 9
_symmetry_cell_setting 'monoclinic'
loop_
_space_group_symop_operation_xyz
x,y,z
x,-y,1/2+z
1/2+x,1/2+y,z
1/2+x,1/2-y,1/2+z
loop_
_atom_site_type_symbol
_atom_site_label
_atom_site_fract_x
_atom_site_fract_y
_atom_site_fract_z
Si Si1 0.419540 0.979912 0.208820
Si Si2 0.546062 0.935205 0.271545
Si Si3 0.208595 0.629043 0.043661
Si Si4 0.212870 0.929159 0.114422
Si Si5 0.116331 0.862411 0.559568
Si Si6 0.323413 0.496774 0.106603
Si Si7 0.927114 0.153080 0.196468
O O1 0.502578 0.005053 0.194250
O O2 0.419982 0.815482 0.161974
O O3 0.319095 0.023234 0.426980
O O4 0.454505 0.083476 0.021063
O O5 0.603723 0.794324 0.143874
O O6 0.615375 0.047501 0.238531
O O7 0.189732 0.793103 0.049954
O O8 0.283192 0.617658 0.061665
O O9 0.241710 0.565920 0.835213
O O10 0.200526 0.888408 0.309432
O O11 0.139141 0.044469 0.169891
O O12 0.025986 0.901271 0.603110
O O13 0.403843 0.561364 0.085999
O O14 0.358121 0.371862 0.944587
#
# Coordination Sequence:
#
# PCOD8055562 Si02
#       7
#     4   4   4   4   4   4   4
#     4  11  26  44  75 100 145 186 242 287 353 426
#     4  11  25  49  71 102 142 191 234 285 361 430
#     4  11  24  42  71 101 136 183 234 284 354 413
#     4  12  27  44  71 108 140 183 241 298 351 412
#     4  11  26  45  71 101 144 183 235 292 358 414
#     4  10  23  41  72 101 142 179 233 290 351 416
#     4  10  23  45  69 103 139 185 233 288 354 419
#
# _framework density 22.967369000000001
#
# number of rings (size 3 to 8) (size 9 to 14) (size 15 to 20)
#    0.000    1.143    0.000    5.143   14.000    1.143 
#    2.571    0.000    0.000    0.000    0.000    0.000 
#    0.000    0.000    0.000    0.000    0.000    0.000 
#
# Total GULP energy -173543.930284 kJ/mol
# GULP energy per Si atom -12395.995020 kJ/mol
# Density = 2.291509 g / cm^3
# Si number density = 22.967369 Si / 1000 Ang^3
#
#
#
# Elastic Constant Matrix: (Units=GPa)
#
#
# Indices 1 2 3 4 5 6 
#
# 1 94.4054 59.9637 16.5993 0.0000 -4.2497 0.0000
# 2 59.9637 119.7400 48.8468 0.0000 -3.0538 0.0000
# 3 16.5993 48.8468 129.4672 0.0000 3.0000 0.0000
# 4 0.0000 0.0000 0.0000 35.6503 0.0000 -1.3434
# 5 -4.2497 -3.0538 3.0000 0.0000 37.2570 0.0000
# 6 0.0000 0.0000 0.0000 -1.3434 0.0000 30.4142
#
#
#
# Elastic Compliance Matrix: (Units=1/GPa)
#
#
# Indices 1 2 3 4 5 6 
#
# 1 0.015710 -0.008285 0.001088 0.000000 0.001025 0.000000
# 2 -0.008285 0.014286 -0.004341 0.000000 0.000575 0.000000
# 3 0.001088 -0.004341 0.009245 0.000000 -0.000976 0.000000
# 4 0.000000 0.000000 0.000000 0.028097 0.000000 0.001241
# 5 0.001025 0.000575 -0.000976 0.000000 0.027083 0.000000
# 6 0.000000 0.000000 0.000000 0.001241 0.000000 0.032934
#
#
# Mechanical properties :
#
#
# Convention : Reuss Voigt Hill
#
# Bulk Modulus (GPa) = 61.86374 66.04801 63.95588
# Shear Modulus (GPa) = 32.08845 35.21115 33.64980
#
# Velocity S-wave (km/s) = 3.74188 3.91972 3.83183
# Velocity P-wave (km/s) = 6.75743 7.02178 6.89087
#
# Compressibility (1/GPa) = 0.01616456
#
# Stress axis : x y z
#
# Youngs Moduli (GPa) = 63.65469 69.99922 108.16720
#
# Poissons Ratio (x) = 0.57993 -0.11767
# Poissons Ratio (y) = 0.52737 0.46956
# Poissons Ratio (z) = -0.06925 0.30387
#
# Static dielectric constant tensor:
#      x y z
#    x 4.137360 0.000000 -0.024930 
#    y 0.000000 3.996730 0.000000 
#    z -0.024930 0.000000 4.271010 
# 
# 
# High freq. dielectric constant tensor:
#      x y z
#    x 1.916510 0.000000 0.000920 
#    y 0.000000 1.898190 0.000000 
#    z 0.000920 0.000000 1.919200 
# 
# From -- ./inp_files/8749.got.cif
#   From: 2010.06.25/outbox.cif.g09.slc.cpg/sg9_5_cif.got.tgz:8749.got - 2010.06.27 21:40:51.
