data_PCOD8055289
_publ_section_title
;
Structure prediction by ZEFSAII (Michael W. Deem and Ramdas Pophale) SiO2 
 PCOD8055289
Probable space group: C C
;
_chemical_formula_sum "Si O2"
_cell_formula_units_Z 32
_cell_length_a 22.632313
_cell_length_b 10.070793
_cell_length_c 9.245515
_cell_angle_alpha 90.000000
_cell_angle_beta 41.538990
_cell_angle_gamma 90.000000
_cell_volume 1397.404401
_symmetry_space_group_name_H-M "C C"
_symmetry_group_IT_number 9
_symmetry_cell_setting 'monoclinic'
loop_
_space_group_symop_operation_xyz
x,y,z
x,-y,1/2+z
1/2+x,1/2+y,z
1/2+x,1/2-y,1/2+z
loop_
_atom_site_type_symbol
_atom_site_label
_atom_site_fract_x
_atom_site_fract_y
_atom_site_fract_z
Si Si1 0.413340 0.883135 0.477140
Si Si2 0.864368 0.890643 0.764988
Si Si3 0.169360 0.558600 0.576610
Si Si4 0.463506 0.476691 0.830733
Si Si5 0.983074 0.787533 0.098073
Si Si6 0.828634 0.600961 0.832102
Si Si7 0.633956 0.355708 0.630630
Si Si8 0.559383 0.964589 0.554514
O O1 0.431444 0.746375 0.538230
O O2 0.337342 0.887127 0.492226
O O3 0.391403 0.990444 0.644150
O O4 0.504706 0.912131 0.222263
O O5 0.853996 0.743930 0.715956
O O6 0.906836 0.864996 0.847519
O O7 0.768414 0.962113 0.955862
O O8 0.929297 0.987927 0.553913
O O9 0.158645 0.707651 0.532175
O O10 0.150614 0.454462 0.481155
O O11 0.091152 0.520479 0.832168
O O12 0.436177 0.603136 0.781809
O O13 0.568133 0.436744 0.642470
O O14 0.994172 0.661548 0.183080
O O15 0.082120 0.839421 0.877449
O O16 0.725611 0.563589 0.987654
#
# Coordination Sequence:
#
# PCOD8055289 Si02
#       8
#     4   4   4   4   4   4   4   4
#     4  12  22  43  69  97 132 172 226 278 328 398
#     4  11  25  42  67  97 134 172 227 273 337 397
#     4  10  22  41  66  97 129 170 217 279 324 395
#     4  12  24  44  68  93 136 181 220 271 342 402
#     4  11  23  41  65  97 129 177 220 266 334 405
#     4  11  26  41  69  99 130 176 224 282 330 384
#     4  10  23  45  64  92 138 171 220 271 330 397
#     4  11  19  39  68  90 132 165 216 266 335 384
#
# _framework density 22.899598999999998
#
# number of rings (size 3 to 8) (size 9 to 14) (size 15 to 20)
#    0.000    1.000    5.000    2.250    1.750    0.000 
#    0.000    0.000    0.000    0.000    0.000    0.000 
#    0.000    0.000    0.000    0.000    0.000    0.000 
#
# Total GULP energy -198236.359326 kJ/mol
# GULP energy per Si atom -12389.772458 kJ/mol
# Density = 2.284748 g / cm^3
# Si number density = 22.899599 Si / 1000 Ang^3
#
#
#
# Elastic Constant Matrix: (Units=GPa)
#
#
# Indices 1 2 3 4 5 6 
#
# 1 165.8930 38.3212 34.5579 0.0000 -8.5735 0.0000
# 2 38.3212 32.1005 30.5808 0.0000 1.5613 0.0000
# 3 34.5579 30.5808 68.5364 0.0000 -5.6432 0.0000
# 4 0.0000 0.0000 0.0000 27.3742 0.0000 2.7105
# 5 -8.5735 1.5613 -5.6432 0.0000 42.6338 0.0000
# 6 0.0000 0.0000 0.0000 2.7105 0.0000 36.5409
#
#
#
# Elastic Compliance Matrix: (Units=1/GPa)
#
#
# Indices 1 2 3 4 5 6 
#
# 1 0.008530 -0.011079 0.000826 0.000000 0.002230 0.000000
# 2 -0.011079 0.069757 -0.026219 0.000000 -0.008253 0.000000
# 3 0.000826 -0.026219 0.026252 0.000000 0.004601 0.000000
# 4 0.000000 0.000000 0.000000 0.036801 0.000000 -0.002730
# 5 0.002230 -0.008253 0.004601 0.000000 0.024815 0.000000
# 6 0.000000 0.000000 0.000000 -0.002730 0.000000 0.027569
#
#
# Mechanical properties :
#
#
# Convention : Reuss Voigt Hill
#
# Bulk Modulus (GPa) = 31.64977 52.60553 42.12765
# Shear Modulus (GPa) = 18.03752 32.18109 25.10931
#
# Velocity S-wave (km/s) = 2.80961 3.75282 3.31493
# Velocity P-wave (km/s) = 4.93723 6.46532 5.75224
#
# Compressibility (1/GPa) = 0.03159581
#
# Stress axis : x y z
#
# Youngs Moduli (GPa) = 117.22772 14.33555 38.09219
#
# Poissons Ratio (x) = 0.15882 -0.03145
# Poissons Ratio (y) = 1.29871 0.99873
# Poissons Ratio (z) = -0.09679 0.37586
#
# Static dielectric constant tensor:
#      x y z
#    x 4.377090 0.000000 0.012690 
#    y 0.000000 4.175730 0.000000 
#    z 0.012690 0.000000 3.794560 
# 
# 
# High freq. dielectric constant tensor:
#      x y z
#    x 1.924090 0.000000 0.001970 
#    y 0.000000 1.901160 0.000000 
#    z 0.001970 0.000000 1.881260 
# 
# From -- ./inp_files/11636.got.cif
#   From: 2010.06.25/outbox.cif.g09.slc.cpg/sg9_6_cif.got.tgz:11636.got - 2010.06.27 21:40:51.
