data_PCOD8055952
_publ_section_title
;
Structure prediction by ZEFSAII (Michael W. Deem and Ramdas Pophale) SiO2 
 PCOD8055952
Probable space group: C C
;
_chemical_formula_sum "Si O2"
_cell_formula_units_Z 24
_cell_length_a 4.625433
_cell_length_b 13.285984
_cell_length_c 13.354346
_cell_angle_alpha 90.000000
_cell_angle_beta 98.570095
_cell_angle_gamma 90.000000
_cell_volume 811.506988
_symmetry_space_group_name_H-M "C C"
_symmetry_group_IT_number 9
_symmetry_cell_setting 'monoclinic'
loop_
_space_group_symop_operation_xyz
x,y,z
x,-y,1/2+z
1/2+x,1/2+y,z
1/2+x,1/2-y,1/2+z
loop_
_atom_site_type_symbol
_atom_site_label
_atom_site_fract_x
_atom_site_fract_y
_atom_site_fract_z
Si Si1 0.563630 0.591952 0.728140
Si Si2 0.575848 0.471129 0.921788
Si Si3 0.628109 0.642091 0.064576
Si Si4 0.135105 0.705415 0.392352
Si Si5 0.089432 0.755297 0.761422
Si Si6 0.014599 0.465571 0.102898
O O1 0.651672 0.513484 0.817243
O O2 0.348410 0.677279 0.755293
O O3 0.867496 0.611765 0.680932
O O4 0.365543 0.537440 0.629801
O O5 0.308350 0.397094 0.898735
O O6 0.445909 0.564318 0.984754
O O7 0.878033 0.427834 0.989546
O O8 0.480755 0.682492 0.158921
O O9 0.923173 0.582559 0.114738
O O10 0.694258 0.740555 0.000921
O O11 0.299522 0.776677 0.311579
O O12 0.792590 0.678022 0.350288
#
# Coordination Sequence:
#
# PCOD8055952 Si02
#       6
#     4   4   4   4   4   4
#     4  12  23  46  72 106 149 195 250 314 385 450
#     4  10  25  47  73 108 151 200 257 314 391 457
#     4  10  25  50  71 116 146 202 264 310 390 466
#     4  12  26  49  74 111 153 203 253 324 391 456
#     4  12  26  46  76 111 153 197 260 323 380 472
#     4  10  25  42  70 104 142 197 242 317 369 459
#
# _framework density 29.574605999999999
#
# number of rings (size 3 to 8) (size 9 to 14) (size 15 to 20)
#    1.000    0.000    1.667    4.000    0.000    8.000 
#    0.000    0.000    0.000    0.000    0.000    0.000 
#    0.000    0.000    0.000    0.000    0.000    0.000 
#
# Total GULP energy -148719.810789 kJ/mol
# GULP energy per Si atom -12393.317566 kJ/mol
# Density = 2.950729 g / cm^3
# Si number density = 29.574606 Si / 1000 Ang^3
#
#
#
# Elastic Constant Matrix: (Units=GPa)
#
#
# Indices 1 2 3 4 5 6 
#
# 1 187.4959 15.5797 47.9972 0.0000 19.1822 0.0000
# 2 15.5797 47.3433 -5.0901 0.0000 -0.1878 0.0000
# 3 47.9972 -5.0901 158.8522 0.0000 -2.5209 0.0000
# 4 0.0000 0.0000 0.0000 39.8550 0.0000 -13.0987
# 5 19.1822 -0.1878 -2.5209 0.0000 34.0080 0.0000
# 6 0.0000 0.0000 0.0000 -13.0987 0.0000 28.6694
#
#
#
# Elastic Compliance Matrix: (Units=1/GPa)
#
#
# Indices 1 2 3 4 5 6 
#
# 1 0.006453 -0.002363 -0.002086 0.000000 -0.003808 0.000000
# 2 -0.002363 0.022062 0.001446 0.000000 0.001562 0.000000
# 3 -0.002086 0.001446 0.006999 0.000000 0.001703 0.000000
# 4 0.000000 0.000000 0.000000 0.029524 0.000000 0.013489
# 5 -0.003808 0.001562 0.001703 0.000000 0.031687 0.000000
# 6 0.000000 0.000000 0.000000 0.013489 0.000000 0.041043
#
#
# Mechanical properties :
#
#
# Convention : Reuss Voigt Hill
#
# Bulk Modulus (GPa) = 33.89028 56.74056 45.31542
# Shear Modulus (GPa) = 32.54965 42.85346 37.70156
#
# Velocity S-wave (km/s) = 3.32112 3.81070 3.57430
# Velocity P-wave (km/s) = 5.11767 6.21201 5.69121
#
# Compressibility (1/GPa) = 0.02950698
#
# Stress axis : x y z
#
# Youngs Moduli (GPa) = 154.95790 45.32767 142.88143
#
# Poissons Ratio (x) = 0.10711 0.29805
# Poissons Ratio (y) = 0.36617 -0.20656
# Poissons Ratio (z) = 0.32325 -0.06553
#
# Static dielectric constant tensor:
#      x y z
#    x 5.508010 0.000000 0.279460 
#    y 0.000000 5.890990 0.000000 
#    z 0.279460 0.000000 6.750780 
# 
# 
# High freq. dielectric constant tensor:
#      x y z
#    x 2.215110 0.000000 0.002170 
#    y 0.000000 2.232480 0.000000 
#    z 0.002170 0.000000 2.241100 
# 
# From -- ./inp_files/21705.got.cif
#   From: 2010.06.25/outbox.cif.g09.slc.cpg/sg9_11_cif.got.tgz:21705.got - 2010.06.27 21:40:51.
