data_PCOD8055333
_publ_section_title
;
Structure prediction by ZEFSAII (Michael W. Deem and Ramdas Pophale) SiO2 
 PCOD8055333
Probable space group: C C
;
_chemical_formula_sum "Si O2"
_cell_formula_units_Z 32
_cell_length_a 10.983782
_cell_length_b 14.534767
_cell_length_c 9.031862
_cell_angle_alpha 90.000000
_cell_angle_beta 76.475700
_cell_angle_gamma 90.000000
_cell_volume 1401.924180
_symmetry_space_group_name_H-M "C C"
_symmetry_group_IT_number 9
_symmetry_cell_setting 'monoclinic'
loop_
_space_group_symop_operation_xyz
x,y,z
x,-y,1/2+z
1/2+x,1/2+y,z
1/2+x,1/2-y,1/2+z
loop_
_atom_site_type_symbol
_atom_site_label
_atom_site_fract_x
_atom_site_fract_y
_atom_site_fract_z
Si Si1 0.553950 0.036989 0.944310
Si Si2 0.264533 0.651879 0.022063
Si Si3 0.070068 0.377234 0.138505
Si Si4 0.817639 0.813696 0.173818
Si Si5 0.786774 0.324789 0.226413
Si Si6 0.451893 0.493722 0.062888
Si Si7 0.805053 0.365304 0.549580
Si Si8 0.130300 0.001534 0.255789
O O1 0.629797 0.108243 0.025815
O O2 0.588348 0.046114 0.762646
O O3 0.405547 0.053816 0.998127
O O4 0.586925 0.932413 0.980242
O O5 0.324555 0.682719 0.848966
O O6 0.359228 0.577527 0.061490
O O7 0.244304 0.735670 0.144103
O O8 0.176902 0.303144 0.144248
O O9 0.936765 0.328143 0.174789
O O10 0.881300 0.896807 0.065745
O O11 0.879380 0.717114 0.110895
O O12 0.749927 0.324523 0.410759
O O13 0.716758 0.415055 0.183720
O O14 0.587106 0.497001 0.939563
O O15 0.493049 0.497710 0.221439
O O16 0.697933 0.404416 0.688320
#
# Coordination Sequence:
#
# PCOD8055333 Si02
#       8
#     4   4   4   4   4   4   4   4
#     4  10  22  42  67  94 127 169 223 273 335 397
#     4  11  26  44  69 102 137 178 229 285 344 409
#     4  10  22  42  67  94 127 169 223 273 335 397
#     4  11  26  44  69 102 135 181 229 283 344 408
#     4  11  26  44  69 102 137 178 229 285 344 409
#     4  12  26  45  71 100 143 187 230 279 348 415
#     4  11  26  44  69 102 135 181 229 283 344 408
#     4  12  26  45  71 100 143 187 230 279 348 415
#
# _framework density 22.825772000000001
#
# number of rings (size 3 to 8) (size 9 to 14) (size 15 to 20)
#    0.000    1.000    5.000    0.000    7.000    3.000 
#    0.000    0.000    0.000    0.000    0.000    0.000 
#    0.000    0.000    0.000    0.000    0.000    0.000 
#
# Total GULP energy -198311.796022 kJ/mol
# GULP energy per Si atom -12394.487251 kJ/mol
# Density = 2.277382 g / cm^3
# Si number density = 22.825772 Si / 1000 Ang^3
#
#
#
# Elastic Constant Matrix: (Units=GPa)
#
#
# Indices 1 2 3 4 5 6 
#
# 1 70.2347 6.5650 6.2758 0.0000 5.4185 0.0000
# 2 6.5650 106.9169 28.5836 0.0000 -1.5285 0.0000
# 3 6.2758 28.5836 65.6897 0.0000 1.4215 0.0000
# 4 0.0000 0.0000 0.0000 42.1907 0.0000 2.6735
# 5 5.4185 -1.5285 1.4215 0.0000 37.6310 0.0000
# 6 0.0000 0.0000 0.0000 2.6735 0.0000 24.4709
#
#
#
# Elastic Compliance Matrix: (Units=1/GPa)
#
#
# Indices 1 2 3 4 5 6 
#
# 1 0.014554 -0.000638 -0.001068 0.000000 -0.002081 0.000000
# 2 -0.000638 0.010626 -0.004578 0.000000 0.000696 0.000000
# 3 -0.001068 -0.004578 0.017332 0.000000 -0.000687 0.000000
# 4 0.000000 0.000000 0.000000 0.023867 0.000000 -0.002607
# 5 -0.002081 0.000696 -0.000687 0.000000 0.026928 0.000000
# 6 0.000000 0.000000 0.000000 -0.002607 0.000000 0.041150
#
#
# Mechanical properties :
#
#
# Convention : Reuss Voigt Hill
#
# Bulk Modulus (GPa) = 33.39520 36.18781 34.79151
# Shear Modulus (GPa) = 31.84619 34.28633 33.06626
#
# Velocity S-wave (km/s) = 3.73927 3.87988 3.81023
# Velocity P-wave (km/s) = 5.77106 5.99664 5.88493
#
# Compressibility (1/GPa) = 0.02994442
#
# Stress axis : x y z
#
# Youngs Moduli (GPa) = 68.71167 94.10842 57.69694
#
# Poissons Ratio (x) = 0.06003 0.06161
# Poissons Ratio (y) = 0.04383 0.26413
# Poissons Ratio (z) = 0.07337 0.43081
#
# Static dielectric constant tensor:
#      x y z
#    x 4.082300 0.000000 0.152750 
#    y 0.000000 3.871980 0.000000 
#    z 0.152750 0.000000 4.128200 
# 
# 
# High freq. dielectric constant tensor:
#      x y z
#    x 1.905090 0.000000 0.009220 
#    y 0.000000 1.893510 0.000000 
#    z 0.009220 0.000000 1.905740 
# 
# From -- ./inp_files/7381.got.cif
#   From: 2010.06.25/outbox.cif.g09.slc.cpg/sg9_4_cif.got.tgz:7381.got - 2010.06.27 21:40:51.
