data_PCOD8055782
_publ_section_title
;
Structure prediction by ZEFSAII (Michael W. Deem and Ramdas Pophale) SiO2 
 PCOD8055782
Probable space group: C C
;
_chemical_formula_sum "Si O2"
_cell_formula_units_Z 28
_cell_length_a 5.084859
_cell_length_b 8.988172
_cell_length_c 28.708593
_cell_angle_alpha 90.000000
_cell_angle_beta 69.436278
_cell_angle_gamma 90.000000
_cell_volume 1228.482373
_symmetry_space_group_name_H-M "C C"
_symmetry_group_IT_number 9
_symmetry_cell_setting 'monoclinic'
loop_
_space_group_symop_operation_xyz
x,y,z
x,-y,1/2+z
1/2+x,1/2+y,z
1/2+x,1/2-y,1/2+z
loop_
_atom_site_type_symbol
_atom_site_label
_atom_site_fract_x
_atom_site_fract_y
_atom_site_fract_z
Si Si1 0.289660 0.500492 0.839870
Si Si2 0.431962 0.077383 0.948447
Si Si3 0.200884 0.991646 0.150108
Si Si4 0.909243 0.579554 0.538872
Si Si5 0.997991 0.855565 0.991639
Si Si6 0.363497 0.834533 0.802512
Si Si7 0.126031 0.340639 0.687023
O O1 0.290312 0.665328 0.819003
O O2 0.602684 0.442320 0.829167
O O3 0.130682 0.498996 0.898852
O O4 0.131762 0.388433 0.815011
O O5 0.468158 0.255673 0.946275
O O6 0.112303 0.013984 0.963349
O O7 0.527259 0.046285 0.996053
O O8 0.234710 0.986898 0.092369
O O9 0.217431 0.826816 0.170045
O O10 0.453340 0.089541 0.155121
O O11 0.903274 0.064377 0.180429
O O12 0.716950 0.690835 0.519328
O O13 0.200126 0.652707 0.537591
O O14 0.428004 0.844720 0.744063
#
# Coordination Sequence:
#
# PCOD8055782 Si02
#       7
#     4   4   4   4   4   4   4
#     4  12  27  44  76 101 139 182 232 277 356 405
#     4  10  26  41  68  98 139 176 223 274 333 410
#     4  12  27  44  76 101 139 182 231 279 354 408
#     4  10  26  41  68  98 139 175 225 272 335 408
#     4  10  24  39  66  90 144 169 223 267 332 387
#     4  12  26  48  69 102 135 180 232 294 340 410
#     4  12  26  47  71 100 137 178 234 291 346 402
#
# _framework density 22.792351
#
# number of rings (size 3 to 8) (size 9 to 14) (size 15 to 20)
#    0.857    0.000    0.000    6.000   10.000    0.000 
#    0.000    0.000    0.000    0.000    0.000    0.000 
#    0.000    0.000    0.000    0.000    0.000    0.000 
#
# Total GULP energy -173481.475606 kJ/mol
# GULP energy per Si atom -12391.533972 kJ/mol
# Density = 2.274047 g / cm^3
# Si number density = 22.792351 Si / 1000 Ang^3
#
#
#
# Elastic Constant Matrix: (Units=GPa)
#
#
# Indices 1 2 3 4 5 6 
#
# 1 118.0684 29.9768 6.1558 0.0000 -17.0216 0.0000
# 2 29.9768 95.5517 30.4129 0.0000 -0.9798 0.0000
# 3 6.1558 30.4129 115.3583 0.0001 -12.4603 0.0000
# 4 0.0000 0.0000 0.0001 31.0300 0.0000 5.1472
# 5 -17.0216 -0.9798 -12.4603 0.0000 31.7217 0.0000
# 6 0.0000 0.0000 0.0000 5.1472 0.0000 33.0360
#
#
#
# Elastic Compliance Matrix: (Units=1/GPa)
#
#
# Indices 1 2 3 4 5 6 
#
# 1 0.010111 -0.003425 0.000980 0.000000 0.005704 0.000000
# 2 -0.003425 0.012607 -0.003444 0.000000 -0.002801 0.000000
# 3 0.000980 -0.003444 0.009994 0.000000 0.004345 0.000000
# 4 0.000000 0.000000 0.000000 0.033082 0.000000 -0.005154
# 5 0.005704 -0.002801 0.004345 0.000000 0.036205 0.000000
# 6 0.000000 0.000000 0.000000 -0.005154 0.000000 0.031073
#
#
# Mechanical properties :
#
#
# Convention : Reuss Voigt Hill
#
# Bulk Modulus (GPa) = 47.77107 51.34104 49.55606
# Shear Modulus (GPa) = 32.93204 36.65306 34.79255
#
# Velocity S-wave (km/s) = 3.80527 4.01450 3.91129
# Velocity P-wave (km/s) = 6.34914 6.63798 6.49516
#
# Compressibility (1/GPa) = 0.02093317
#
# Stress axis : x y z
#
# Youngs Moduli (GPa) = 98.90607 79.31822 100.06480
#
# Poissons Ratio (x) = 0.27168 -0.09803
# Poissons Ratio (y) = 0.33878 0.34458
# Poissons Ratio (z) = -0.09689 0.27314
#
# Static dielectric constant tensor:
#      x y z
#    x 4.107420 0.000000 -0.061760 
#    y 0.000000 4.191420 0.000000 
#    z -0.061760 0.000000 4.125240 
# 
# 
# High freq. dielectric constant tensor:
#      x y z
#    x 1.909330 0.000000 -0.007290 
#    y 0.000000 1.897630 0.000000 
#    z -0.007290 0.000000 1.906820 
# 
# From -- ./inp_files/36245.got.cif
#   From: 2010.06.25/outbox.cif.g09.slc.cpg/sg9_19_cif.got.tgz:36245.got - 2010.06.27 21:40:51.
