data_PCOD8055809
_publ_section_title
;
Structure prediction by ZEFSAII (Michael W. Deem and Ramdas Pophale) SiO2 
 PCOD8055809
Probable space group: C C
;
_chemical_formula_sum "Si O2"
_cell_formula_units_Z 32
_cell_length_a 5.273644
_cell_length_b 28.068704
_cell_length_c 9.095339
_cell_angle_alpha 90.000000
_cell_angle_beta 96.038005
_cell_angle_gamma 90.000000
_cell_volume 1338.862677
_symmetry_space_group_name_H-M "C C"
_symmetry_group_IT_number 9
_symmetry_cell_setting 'monoclinic'
loop_
_space_group_symop_operation_xyz
x,y,z
x,-y,1/2+z
1/2+x,1/2+y,z
1/2+x,1/2-y,1/2+z
loop_
_atom_site_type_symbol
_atom_site_label
_atom_site_fract_x
_atom_site_fract_y
_atom_site_fract_z
Si Si1 0.214950 0.528079 0.883440
Si Si2 0.112947 0.849180 0.714262
Si Si3 0.449109 0.804616 0.948867
Si Si4 0.384375 0.992670 0.108820
Si Si5 0.577173 0.549058 0.329603
Si Si6 0.009799 0.119012 0.890451
Si Si7 0.971932 0.341736 0.252999
Si Si8 0.436796 0.735882 0.362921
O O1 0.307751 0.474507 0.855136
O O2 0.034437 0.541578 0.733521
O O3 0.462461 0.562407 0.905646
O O4 0.068768 0.529240 0.030392
O O5 0.129698 0.857869 0.542838
O O6 0.021156 0.895836 0.797000
O O7 0.918882 0.805664 0.736993
O O8 0.392836 0.833756 0.793764
O O9 0.496937 0.843405 0.078918
O O10 0.692909 0.770107 0.953644
O O11 0.199607 0.771883 0.970610
O O12 0.186328 0.024730 0.188087
O O13 0.258239 0.957688 0.982244
O O14 0.731477 0.140278 0.841727
O O15 0.223603 0.127143 0.780336
O O16 0.924262 0.287242 0.291750
#
# Coordination Sequence:
#
# PCOD8055809 Si02
#       8
#     4   4   4   4   4   4   4   4
#     4  11  25  44  68 106 142 184 241 289 361 425
#     4  10  27  43  74 101 143 188 241 288 363 426
#     4  10  25  46  71 105 139 186 241 288 358 428
#     4  10  24  41  73  97 146 184 235 294 354 426
#     4  11  23  46  70 101 142 187 234 295 358 423
#     4  12  29  45  76 105 146 188 240 297 360 422
#     4  12  28  47  73 106 144 189 239 301 357 418
#     4  10  25  44  77  99 146 180 245 290 361 420
#
# _framework density 23.900880000000001
#
# number of rings (size 3 to 8) (size 9 to 14) (size 15 to 20)
#    0.750    0.500    0.000    3.750   12.250    3.000 
#    0.000    0.000    0.000    0.000    0.000    0.000 
#    0.000    0.000    0.000    0.000    0.000    0.000 
#
# Total GULP energy -198361.993803 kJ/mol
# GULP energy per Si atom -12397.624613 kJ/mol
# Density = 2.384648 g / cm^3
# Si number density = 23.900880 Si / 1000 Ang^3
#
#
#
# Elastic Constant Matrix: (Units=GPa)
#
#
# Indices 1 2 3 4 5 6 
#
# 1 115.2298 9.9589 25.4838 0.0000 -9.0571 0.0000
# 2 9.9589 52.5925 0.6491 0.0000 3.5735 0.0000
# 3 25.4838 0.6491 108.7172 0.0000 1.7098 0.0000
# 4 0.0000 0.0000 0.0000 28.8493 0.0000 -3.3097
# 5 -9.0571 3.5735 1.7098 0.0000 28.0641 0.0000
# 6 0.0000 0.0000 0.0000 -3.3097 0.0000 31.4607
#
#
#
# Elastic Compliance Matrix: (Units=1/GPa)
#
#
# Indices 1 2 3 4 5 6 
#
# 1 0.009639 -0.002035 -0.002303 0.000000 0.003510 0.000000
# 2 -0.002035 0.019610 0.000410 0.000000 -0.003179 0.000000
# 3 -0.002303 0.000410 0.009757 0.000000 -0.001390 0.000000
# 4 0.000000 0.000000 0.000000 0.035086 0.000000 0.003691
# 5 0.003510 -0.003179 -0.001390 0.000000 0.037255 0.000000
# 6 0.000000 0.000000 0.000000 0.003691 0.000000 0.032174
#
#
# Mechanical properties :
#
#
# Convention : Reuss Voigt Hill
#
# Bulk Modulus (GPa) = 32.10142 38.74699 35.42421
# Shear Modulus (GPa) = 30.90956 33.70466 32.30711
#
# Velocity S-wave (km/s) = 3.60006 3.75932 3.68055
# Velocity P-wave (km/s) = 5.54444 5.92368 5.73720
#
# Compressibility (1/GPa) = 0.03115127
#
# Stress axis : x y z
#
# Youngs Moduli (GPa) = 103.74122 50.99313 102.48715
#
# Poissons Ratio (x) = 0.10379 0.23598
# Poissons Ratio (y) = 0.21116 -0.04202
# Poissons Ratio (z) = 0.23887 -0.02091
#
# Static dielectric constant tensor:
#      x y z
#    x 4.242670 0.000000 0.095450 
#    y 0.000000 4.160920 0.000000 
#    z 0.095450 0.000000 4.359740 
# 
# 
# High freq. dielectric constant tensor:
#      x y z
#    x 1.948330 0.000000 0.008680 
#    y 0.000000 1.941780 0.000000 
#    z 0.008680 0.000000 1.951300 
# 
# From -- ./inp_files/4510.got.cif
#   From: 2010.06.25/outbox.cif.g09.slc.cpg/sg9_3_cif.got.tgz:4510.got - 2010.06.27 21:40:51.
