data_PCOD8055209
_publ_section_title
;
Structure prediction by ZEFSAII (Michael W. Deem and Ramdas Pophale) SiO2 
 PCOD8055209
Probable space group: C C
;
_chemical_formula_sum "Si O2"
_cell_formula_units_Z 32
_cell_length_a 17.449524
_cell_length_b 16.082822
_cell_length_c 12.151533
_cell_angle_alpha 90.000000
_cell_angle_beta 155.559936
_cell_angle_gamma 90.000000
_cell_volume 1410.930428
_symmetry_space_group_name_H-M "C C"
_symmetry_group_IT_number 9
_symmetry_cell_setting 'monoclinic'
loop_
_space_group_symop_operation_xyz
x,y,z
x,-y,1/2+z
1/2+x,1/2+y,z
1/2+x,1/2-y,1/2+z
loop_
_atom_site_type_symbol
_atom_site_label
_atom_site_fract_x
_atom_site_fract_y
_atom_site_fract_z
Si Si1 0.304250 0.359236 0.312230
Si Si2 0.051452 0.628839 0.126341
Si Si3 0.492665 0.397619 0.776908
Si Si4 0.675585 0.704960 0.700268
Si Si5 0.698176 0.986898 0.003333
Si Si6 0.699320 0.349788 0.457378
Si Si7 0.871204 0.522751 0.707598
Si Si8 0.999421 0.221157 0.885256
O O1 0.350265 0.365479 0.500390
O O2 0.482830 0.329405 0.477080
O O3 0.238594 0.447175 0.176318
O O4 0.148949 0.290699 0.099709
O O5 0.163123 0.695027 0.197410
O O6 0.171179 0.586757 0.379262
O O7 0.891265 0.684155 0.970952
O O8 0.970724 0.553633 0.948251
O O9 0.376428 0.460467 0.700969
O O10 0.560639 0.321865 0.942138
O O11 0.666165 0.436875 0.936345
O O12 0.605732 0.649189 0.713634
O O13 0.507004 0.040011 0.778311
O O14 0.841249 0.423781 0.668692
O O15 0.547147 0.346706 0.354082
O O16 0.806065 0.261678 0.596743
#
# Coordination Sequence:
#
# PCOD8055209 Si02
#       8
#     4   4   4   4   4   4   4   4
#     4  11  23  45  64 102 134 179 231 273 354 413
#     4  11  25  45  70 105 140 182 240 290 354 415
#     4  11  29  44  68 102 143 184 232 283 351 419
#     4  11  24  44  69 104 139 180 237 292 350 416
#     4  12  24  45  72 101 136 185 231 290 346 414
#     4  11  20  42  70 104 137 175 242 287 348 416
#     4  11  25  44  67 102 141 180 229 290 349 412
#     4  10  22  39  72  98 134 181 222 297 336 417
#
# _framework density 22.680067999999999
#
# number of rings (size 3 to 8) (size 9 to 14) (size 15 to 20)
#    0.000    1.000    2.500    3.750    3.500    4.000 
#    2.250    0.000    0.000    0.000    0.000    0.000 
#    0.000    0.000    0.000    0.000    0.000    0.000 
#
# Total GULP energy -198344.383378 kJ/mol
# GULP energy per Si atom -12396.523961 kJ/mol
# Density = 2.262845 g / cm^3
# Si number density = 22.680068 Si / 1000 Ang^3
#
#
#
# Elastic Constant Matrix: (Units=GPa)
#
#
# Indices 1 2 3 4 5 6 
#
# 1 104.4485 27.6074 30.2707 0.0000 6.5088 0.0000
# 2 27.6074 53.2720 8.2327 0.0000 -2.6677 0.0000
# 3 30.2707 8.2327 72.6260 0.0000 -10.2424 0.0000
# 4 0.0000 0.0000 0.0000 18.0927 0.0000 3.6087
# 5 6.5088 -2.6677 -10.2424 0.0000 46.3328 0.0000
# 6 0.0000 0.0000 0.0000 3.6087 0.0000 39.8010
#
#
#
# Elastic Compliance Matrix: (Units=1/GPa)
#
#
# Indices 1 2 3 4 5 6 
#
# 1 0.012865 -0.006037 -0.005142 0.000000 -0.003292 0.000000
# 2 -0.006037 0.021958 0.000336 0.000000 0.002187 0.000000
# 3 -0.005142 0.000336 0.016493 0.000000 0.004388 0.000000
# 4 0.000000 0.000000 0.000000 0.056289 0.000000 -0.005104
# 5 -0.003292 0.002187 0.004388 0.000000 0.023141 0.000000
# 6 0.000000 0.000000 0.000000 -0.005104 0.000000 0.025588
#
#
# Mechanical properties :
#
#
# Convention : Reuss Voigt Hill
#
# Bulk Modulus (GPa) = 33.75098 40.28534 37.01816
# Shear Modulus (GPa) = 26.61015 31.79433 29.20224
#
# Velocity S-wave (km/s) = 3.42904 3.74821 3.59217
# Velocity P-wave (km/s) = 5.53095 6.04426 5.79329
#
# Compressibility (1/GPa) = 0.02962877
#
# Stress axis : x y z
#
# Youngs Moduli (GPa) = 77.72874 45.54151 60.63116
#
# Poissons Ratio (x) = 0.27495 0.31177
# Poissons Ratio (y) = 0.46928 -0.02035
# Poissons Ratio (z) = 0.39969 -0.01529
#
# Static dielectric constant tensor:
#      x y z
#    x 4.599480 0.000000 0.154580 
#    y 0.000000 3.973660 0.000000 
#    z 0.154580 0.000000 3.914290 
# 
# 
# High freq. dielectric constant tensor:
#      x y z
#    x 1.911250 0.000000 0.012240 
#    y 0.000000 1.885740 0.000000 
#    z 0.012240 0.000000 1.888770 
# 
# From -- ./inp_files/7506.got.cif
#   From: 2010.06.25/outbox.cif.g09.slc.cpg/sg9_4_cif.got.tgz:7506.got - 2010.06.27 21:40:51.
