data_PCOD8055215
_publ_section_title
;
Structure prediction by ZEFSAII (Michael W. Deem and Ramdas Pophale) SiO2 
 PCOD8055215
Probable space group: C C
;
_chemical_formula_sum "Si O2"
_cell_formula_units_Z 32
_cell_length_a 12.876983
_cell_length_b 10.153653
_cell_length_c 16.691589
_cell_angle_alpha 90.000000
_cell_angle_beta 38.904064
_cell_angle_gamma 90.000000
_cell_volume 1370.586316
_symmetry_space_group_name_H-M "C C"
_symmetry_group_IT_number 9
_symmetry_cell_setting 'monoclinic'
loop_
_space_group_symop_operation_xyz
x,y,z
x,-y,1/2+z
1/2+x,1/2+y,z
1/2+x,1/2-y,1/2+z
loop_
_atom_site_type_symbol
_atom_site_label
_atom_site_fract_x
_atom_site_fract_y
_atom_site_fract_z
Si Si1 0.735430 0.722208 0.000000
Si Si2 0.618615 0.260511 0.748179
Si Si3 0.524562 0.512946 0.570824
Si Si4 0.683579 0.012946 0.816462
Si Si5 0.089526 0.260511 0.639107
Si Si6 0.472711 0.222208 0.387286
Si Si7 0.181063 0.502544 0.499794
Si Si8 0.027077 0.997456 0.387492
O O1 0.719998 0.735592 0.104943
O O2 0.674614 0.581801 0.004647
O O3 0.922524 0.736323 0.856636
O O4 0.625838 0.843781 0.030124
O O5 0.687706 0.146013 0.762535
O O6 0.651949 0.405159 0.766288
O O7 0.354070 0.436407 0.693643
O O8 0.520435 0.646013 0.624750
O O9 0.522549 0.553375 0.479653
O O10 0.685591 0.053376 0.907634
O O11 0.533527 0.918199 0.882639
O O12 0.285617 0.236323 0.530651
O O13 0.988142 0.264407 0.782343
O O14 0.056192 0.405159 0.620998
O O15 0.582302 0.343781 0.357162
O O16 0.354070 0.500000 0.443643
#
# Coordination Sequence:
#
# PCOD8055215 Si02
#       8
#     4   4   4   4   4   4   4   4
#     4  11  23  43  66  94 129 168 210 264 320 379
#     4  11  23  43  66  94 129 168 210 264 320 379
#     4  12  23  40  66  97 129 170 213 260 318 379
#     4  12  23  40  66  97 129 170 213 260 318 379
#     4  11  23  43  66  94 129 168 210 264 320 379
#     4  11  23  43  66  94 129 168 210 264 320 379
#     4  10  22  40  61  91 128 166 209 260 311 371
#     4  10  22  40  61  91 128 166 209 260 311 371
#
# _framework density 23.347671999999999
#
# number of rings (size 3 to 8) (size 9 to 14) (size 15 to 20)
#    0.000    1.000    0.000    9.750    0.000    0.000 
#    0.000    3.750    0.000    0.000    0.000    0.000 
#    0.000    0.000    0.000    0.000    0.000    0.000 
#
# Total GULP energy -198311.002745 kJ/mol
# GULP energy per Si atom -12394.437672 kJ/mol
# Density = 2.329453 g / cm^3
# Si number density = 23.347672 Si / 1000 Ang^3
#
#
#
# Elastic Constant Matrix: (Units=GPa)
#
#
# Indices 1 2 3 4 5 6 
#
# 1 82.1126 17.7780 9.6667 0.0000 24.4698 0.0000
# 2 17.7780 88.9191 -15.5843 0.0000 4.7523 0.0000
# 3 9.6667 -15.5843 55.0843 0.0000 14.0931 0.0000
# 4 0.0000 0.0000 0.0000 32.7392 0.0000 8.8490
# 5 24.4698 4.7523 14.0931 0.0000 40.6648 0.0000
# 6 0.0000 0.0000 0.0000 8.8490 0.0000 16.3522
#
#
#
# Elastic Compliance Matrix: (Units=1/GPa)
#
#
# Indices 1 2 3 4 5 6 
#
# 1 0.015501 -0.002881 -0.001355 0.000000 -0.008521 0.000000
# 2 -0.002881 0.012664 0.004415 0.000000 -0.001276 0.000000
# 3 -0.001355 0.004415 0.021468 0.000000 -0.007140 0.000000
# 4 0.000000 0.000000 0.000000 0.035777 0.000000 -0.019361
# 5 -0.008521 -0.001276 -0.007140 0.000000 0.032343 0.000000
# 6 0.000000 0.000000 0.000000 -0.019361 0.000000 0.071631
#
#
# Mechanical properties :
#
#
# Convention : Reuss Voigt Hill
#
# Bulk Modulus (GPa) = 20.00395 27.75966 23.88181
# Shear Modulus (GPa) = 24.30830 32.23496 28.27163
#
# Velocity S-wave (km/s) = 3.23018 3.71974 3.48357
# Velocity P-wave (km/s) = 4.74326 5.51037 5.14114
#
# Compressibility (1/GPa) = 0.04999012
#
# Stress axis : x y z
#
# Youngs Moduli (GPa) = 64.51130 78.96228 46.58142
#
# Poissons Ratio (x) = 0.22752 0.06313
# Poissons Ratio (y) = 0.18588 -0.20566
# Poissons Ratio (z) = 0.08743 -0.34863
#
# Static dielectric constant tensor:
#      x y z
#    x 4.047510 0.000000 0.080820 
#    y 0.000000 4.959710 0.000000 
#    z 0.080820 0.000000 4.158350 
# 
# 
# High freq. dielectric constant tensor:
#      x y z
#    x 1.910620 0.000000 0.017560 
#    y 0.000000 1.946320 0.000000 
#    z 0.017560 0.000000 1.922120 
# 
# From -- ./inp_files/24721.got.cif
#   From: 2010.06.25/outbox.cif.g09.slc.cpg/sg9_13_cif.got.tgz:24721.got - 2010.06.27 21:40:51.
