data_PCOD8055201
_publ_section_title
;
Structure prediction by ZEFSAII (Michael W. Deem and Ramdas Pophale) SiO2 
 PCOD8055201
Probable space group: C C
;
_chemical_formula_sum "Si O2"
_cell_formula_units_Z 28
_cell_length_a 12.706439
_cell_length_b 8.022320
_cell_length_c 14.921107
_cell_angle_alpha 90.000000
_cell_angle_beta 124.920487
_cell_angle_gamma 90.000000
_cell_volume 1247.127318
_symmetry_space_group_name_H-M "C C"
_symmetry_group_IT_number 9
_symmetry_cell_setting 'monoclinic'
loop_
_space_group_symop_operation_xyz
x,y,z
x,-y,1/2+z
1/2+x,1/2+y,z
1/2+x,1/2-y,1/2+z
loop_
_atom_site_type_symbol
_atom_site_label
_atom_site_fract_x
_atom_site_fract_y
_atom_site_fract_z
Si Si1 0.898120 0.617189 0.493720
Si Si2 0.228549 0.409690 0.710565
Si Si3 0.526090 0.341956 0.117859
Si Si4 0.783945 0.024987 0.929148
Si Si5 0.670841 0.857156 0.037283
Si Si6 0.372760 0.108509 0.147015
Si Si7 0.295956 0.061450 0.780240
O O1 0.810960 0.781319 0.459418
O O2 0.910560 0.543044 0.599504
O O3 0.829973 0.478919 0.398687
O O4 0.032059 0.664333 0.512954
O O5 0.091446 0.328592 0.609764
O O6 0.219306 0.504951 0.800749
O O7 0.265408 0.541018 0.652137
O O8 0.327617 0.255533 0.772667
O O9 0.462388 0.272172 0.178873
O O10 0.641464 0.471481 0.194686
O O11 0.417820 0.421440 0.001858
O O12 0.676728 0.957371 0.946401
O O13 0.727946 0.671249 0.053412
O O14 0.378589 0.051128 0.252831
#
# Coordination Sequence:
#
# PCOD8055201 Si02
#       7
#     4   4   4   4   4   4   4
#     4  12  24  40  68  97 131 174 220 268 330 397
#     4  10  22  43  66  95 133 167 222 273 321 394
#     4   9  22  42  66  89 134 166 220 272 318 392
#     4  11  24  43  66  98 132 175 220 272 335 389
#     4  11  24  42  67  95 131 172 218 273 329 391
#     4  11  22  41  67  91 130 172 216 271 326 386
#     4  10  22  39  66  93 127 172 214 265 331 381
#
# _framework density 22.451599000000002
#
# number of rings (size 3 to 8) (size 9 to 14) (size 15 to 20)
#    0.857    0.571    1.429    4.286    2.000    0.000 
#    0.000    5.714    0.000    0.000    0.000    0.000 
#    0.000    0.000    0.000    0.000    0.000    0.000 
#
# Total GULP energy -173438.581009 kJ/mol
# GULP energy per Si atom -12388.470072 kJ/mol
# Density = 2.240050 g / cm^3
# Si number density = 22.451599 Si / 1000 Ang^3
#
#
#
# Elastic Constant Matrix: (Units=GPa)
#
#
# Indices 1 2 3 4 5 6 
#
# 1 88.9959 8.8371 3.6213 0.0000 -5.6190 0.0000
# 2 8.8371 69.4512 2.7433 0.0000 -7.7832 0.0000
# 3 3.6213 2.7433 61.7214 0.0000 -15.3033 0.0000
# 4 0.0000 0.0000 0.0000 35.1395 0.0000 -0.1424
# 5 -5.6190 -7.7832 -15.3033 0.0000 35.1074 0.0000
# 6 0.0000 0.0000 0.0000 -0.1424 0.0000 31.7358
#
#
#
# Elastic Compliance Matrix: (Units=1/GPa)
#
#
# Indices 1 2 3 4 5 6 
#
# 1 0.011466 -0.001288 -0.000259 0.000000 0.001437 0.000000
# 2 -0.001288 0.014912 0.000203 0.000000 0.003188 0.000000
# 3 -0.000259 0.000203 0.018173 0.000000 0.007925 0.000000
# 4 0.000000 0.000000 0.000000 0.028459 0.000000 0.000128
# 5 0.001437 0.003188 0.007925 0.000000 0.032875 0.000000
# 6 0.000000 0.000000 0.000000 0.000128 0.000000 0.031511
#
#
# Mechanical properties :
#
#
# Convention : Reuss Voigt Hill
#
# Bulk Modulus (GPa) = 23.88742 27.84133 25.86437
# Shear Modulus (GPa) = 32.45982 34.06099 33.26041
#
# Velocity S-wave (km/s) = 3.80645 3.89920 3.85311
# Velocity P-wave (km/s) = 5.47553 5.71832 5.59824
#
# Compressibility (1/GPa) = 0.04186305
#
# Stress axis : x y z
#
# Youngs Moduli (GPa) = 87.21749 67.06134 55.02672
#
# Poissons Ratio (x) = 0.08635 0.01427
# Poissons Ratio (y) = 0.11231 -0.01119
# Poissons Ratio (z) = 0.02261 -0.01363
#
# Static dielectric constant tensor:
#      x y z
#    x 4.024180 0.000000 0.036360 
#    y 0.000000 4.085440 0.000000 
#    z 0.036360 0.000000 3.716330 
# 
# 
# High freq. dielectric constant tensor:
#      x y z
#    x 1.881520 0.000000 -0.004720 
#    y 0.000000 1.888280 0.000000 
#    z -0.004720 0.000000 1.864990 
# 
# From -- ./inp_files/24127.got.cif
#   From: 2010.06.25/outbox.cif.g09.slc.cpg/sg9_13_cif.got.tgz:24127.got - 2010.06.27 21:40:51.
