data_PCOD8055774
_publ_section_title
;
Structure prediction by ZEFSAII (Michael W. Deem and Ramdas Pophale) SiO2 
 PCOD8055774
Probable space group: C C
;
_chemical_formula_sum "Si O2"
_cell_formula_units_Z 28
_cell_length_a 14.335106
_cell_length_b 16.462488
_cell_length_c 9.147477
_cell_angle_alpha 90.000000
_cell_angle_beta 41.318347
_cell_angle_gamma 90.000000
_cell_volume 1425.282609
_symmetry_space_group_name_H-M "C C"
_symmetry_group_IT_number 9
_symmetry_cell_setting 'monoclinic'
loop_
_space_group_symop_operation_xyz
x,y,z
x,-y,1/2+z
1/2+x,1/2+y,z
1/2+x,1/2-y,1/2+z
loop_
_atom_site_type_symbol
_atom_site_label
_atom_site_fract_x
_atom_site_fract_y
_atom_site_fract_z
Si Si1 0.940050 0.903375 0.795070
Si Si2 0.142752 0.599070 0.144561
Si Si3 0.416290 0.763720 0.224750
Si Si4 0.320651 0.921207 0.044003
Si Si5 0.702113 0.256016 0.228026
Si Si6 0.290404 0.499204 0.219863
Si Si7 0.766518 0.577943 0.927593
O O1 0.880034 0.811570 0.873656
O O2 0.107380 0.894150 0.589090
O O3 0.883466 0.942092 0.711159
O O4 0.896919 0.950633 0.990646
O O5 0.201210 0.690463 0.098485
O O6 0.180387 0.547541 0.246424
O O7 0.976584 0.602987 0.308302
O O8 0.209138 0.563056 0.919716
O O9 0.346767 0.752191 0.147843
O O10 0.361533 0.845324 0.371819
O O11 0.581265 0.764462 0.988931
O O12 0.265571 0.001422 0.032094
O O13 0.206779 0.847550 0.153208
O O14 0.334283 0.947721 0.195308
#
# Coordination Sequence:
#
# PCOD8055774 Si02
#       7
#     4   4   4   4   4   4   4
#     4  11  21  41  60  94 122 168 213 257 318 377
#     4  11  21  41  60  94 122 168 213 257 318 377
#     4  11  21  38  64  90 122 168 208 254 314 382
#     4  11  23  40  65  91 125 165 214 261 315 375
#     4  11  21  38  64  90 122 168 208 254 314 382
#     4  10  24  36  66  88 132 164 208 266 316 374
#     4  11  23  40  65  91 125 165 214 261 315 375
#
# _framework density 19.645226000000001
#
# number of rings (size 3 to 8) (size 9 to 14) (size 15 to 20)
#    0.000    1.143    7.143    1.714    0.000    0.000 
#    2.571    1.429    0.000    0.000    0.000    0.000 
#    0.000    0.000    0.000    0.000    0.000    0.000 
#
# Total GULP energy -173521.498275 kJ/mol
# GULP energy per Si atom -12394.392734 kJ/mol
# Density = 1.960051 g / cm^3
# Si number density = 19.645226 Si / 1000 Ang^3
#
#
#
# Elastic Constant Matrix: (Units=GPa)
#
#
# Indices 1 2 3 4 5 6 
#
# 1 46.3025 30.4911 15.8707 0.0002 0.4172 -0.0001
# 2 30.4911 156.3777 34.6796 0.0000 4.4003 -0.0001
# 3 15.8707 34.6796 79.4546 0.0000 -3.6268 -0.0001
# 4 0.0002 0.0000 0.0000 37.1931 -0.0001 0.5664
# 5 0.4172 4.4003 -3.6268 -0.0001 30.6333 0.0000
# 6 -0.0001 -0.0001 -0.0001 0.5664 0.0000 24.6917
#
#
#
# Elastic Compliance Matrix: (Units=1/GPa)
#
#
# Indices 1 2 3 4 5 6 
#
# 1 0.025510 -0.004251 -0.003246 0.000000 -0.000121 0.000000
# 2 -0.004251 0.007848 -0.002639 0.000000 -0.001382 0.000000
# 3 -0.003246 -0.002639 0.014484 0.000000 0.002138 0.000000
# 4 0.000000 0.000000 0.000000 0.026896 0.000000 -0.000617
# 5 -0.000121 -0.001382 0.002138 0.000000 0.033098 0.000000
# 6 0.000000 0.000000 0.000000 -0.000617 0.000000 0.040514
#
#
# Mechanical properties :
#
#
# Convention : Reuss Voigt Hill
#
# Bulk Modulus (GPa) = 36.27157 49.35752 42.81454
# Shear Modulus (GPa) = 28.11985 31.90984 30.01484
#
# Velocity S-wave (km/s) = 3.78747 4.03464 3.91301
# Velocity P-wave (km/s) = 6.13432 6.84714 6.50051
#
# Compressibility (1/GPa) = 0.02756981
#
# Stress axis : x y z
#
# Youngs Moduli (GPa) = 39.20038 127.42394 69.04312
#
# Poissons Ratio (x) = 0.54166 0.22409
# Poissons Ratio (y) = 0.16663 0.18223
# Poissons Ratio (z) = 0.12723 0.33631
#
# Static dielectric constant tensor:
#      x y z
#    x 3.465250 0.000000 -0.100470 
#    y 0.000000 3.940670 0.000000 
#    z -0.100470 0.000000 3.488790 
# 
# 
# High freq. dielectric constant tensor:
#      x y z
#    x 1.752700 0.000000 -0.019530 
#    y 0.000000 1.782940 0.000000 
#    z -0.019530 0.000000 1.759950 
# 
# From -- ./inp_files/7643.got.cif
#   From: 2010.06.25/outbox.cif.g09.slc.cpg/sg9_4_cif.got.tgz:7643.got - 2010.06.27 21:40:51.
