data_PCOD8055404
_publ_section_title
;
Structure prediction by ZEFSAII (Michael W. Deem and Ramdas Pophale) SiO2 
 PCOD8055404
Probable space group: C C
;
_chemical_formula_sum "Si O2"
_cell_formula_units_Z 32
_cell_length_a 8.206707
_cell_length_b 12.434186
_cell_length_c 14.855722
_cell_angle_alpha 90.000000
_cell_angle_beta 74.605602
_cell_angle_gamma 90.000000
_cell_volume 1461.543541
_symmetry_space_group_name_H-M "C C"
_symmetry_group_IT_number 9
_symmetry_cell_setting 'monoclinic'
loop_
_space_group_symop_operation_xyz
x,y,z
x,-y,1/2+z
1/2+x,1/2+y,z
1/2+x,1/2-y,1/2+z
loop_
_atom_site_type_symbol
_atom_site_label
_atom_site_fract_x
_atom_site_fract_y
_atom_site_fract_z
Si Si1 0.502540 0.353779 0.481850
Si Si2 0.979591 0.202783 0.325500
Si Si3 0.193445 0.347939 0.007989
Si Si4 0.660468 0.758553 0.466205
Si Si5 0.305670 0.084798 0.831154
Si Si6 0.466275 0.575319 0.584448
Si Si7 0.938984 0.462054 0.503821
Si Si8 0.660437 0.473515 0.690830
O O1 0.617767 0.271631 0.523090
O O2 0.349703 0.287386 0.462494
O O3 0.609616 0.395261 0.381622
O O4 0.445166 0.454424 0.548783
O O5 0.839315 0.143681 0.409431
O O6 0.896203 0.304987 0.288572
O O7 0.137849 0.241632 0.362719
O O8 0.052233 0.128441 0.237061
O O9 0.285246 0.368350 0.091304
O O10 0.048523 0.434418 0.012232
O O11 0.616761 0.645538 0.519395
O O12 0.536722 0.853737 0.516258
O O13 0.297916 0.008105 0.745379
O O14 0.399028 0.031289 0.902930
O O15 0.517423 0.562580 0.682606
O O16 0.763019 0.454258 0.583240
#
# Coordination Sequence:
#
# PCOD8055404 Si02
#       8
#     4   4   4   4   4   4   4   4
#     4  11  21  42  75  94 134 182 225 281 341 405
#     4   9  23  44  66  99 138 178 234 286 334 411
#     4  10  22  43  73  99 133 184 229 278 346 409
#     4  10  22  44  73  99 134 186 228 277 353 408
#     4  10  23  46  64  99 140 179 229 280 347 407
#     4  11  23  42  65 104 136 175 230 281 339 411
#     4  11  23  45  72 103 137 188 229 280 349 413
#     4  12  25  42  70 101 142 176 232 291 337 410
#
# _framework density 21.894662
#
# number of rings (size 3 to 8) (size 9 to 14) (size 15 to 20)
#    0.000    1.500    2.500    3.000    1.750    2.000 
#    4.500    0.000    0.000    0.000    0.000    0.000 
#    0.000    0.000    0.000    0.000    0.000    0.000 
#
# Total GULP energy -198325.639799 kJ/mol
# GULP energy per Si atom -12395.352487 kJ/mol
# Density = 2.184483 g / cm^3
# Si number density = 21.894662 Si / 1000 Ang^3
#
#
#
# Elastic Constant Matrix: (Units=GPa)
#
#
# Indices 1 2 3 4 5 6 
#
# 1 93.5624 6.0103 4.2963 0.0000 15.1684 0.0000
# 2 6.0103 73.6072 9.1946 0.0000 1.5954 0.0000
# 3 4.2963 9.1946 51.4207 0.0000 14.5484 0.0000
# 4 0.0000 0.0000 0.0000 22.2281 0.0000 5.3175
# 5 15.1684 1.5954 14.5484 0.0000 24.8102 0.0000
# 6 0.0000 0.0000 0.0000 5.3175 0.0000 42.7400
#
#
#
# Elastic Compliance Matrix: (Units=1/GPa)
#
#
# Indices 1 2 3 4 5 6 
#
# 1 0.012004 -0.000988 0.001477 0.000000 -0.008141 0.000000
# 2 -0.000988 0.013987 -0.002799 0.000000 0.001346 0.000000
# 3 0.001477 -0.002799 0.024013 0.000000 -0.014804 0.000000
# 4 0.000000 0.000000 0.000000 0.046368 0.000000 -0.005769
# 5 -0.008141 0.001346 -0.014804 0.000000 0.053878 0.000000
# 6 0.000000 0.000000 0.000000 -0.005769 0.000000 0.024115
#
#
# Mechanical properties :
#
#
# Convention : Reuss Voigt Hill
#
# Bulk Modulus (GPa) = 22.03482 28.62143 25.32812
# Shear Modulus (GPa) = 25.75824 31.22825 28.49324
#
# Velocity S-wave (km/s) = 3.43368 3.78073 3.61138
# Velocity P-wave (km/s) = 5.07997 5.67091 5.38356
#
# Compressibility (1/GPa) = 0.04538272
#
# Stress axis : x y z
#
# Youngs Moduli (GPa) = 83.30845 71.49589 41.64408
#
# Poissons Ratio (x) = 0.07065 -0.06152
# Poissons Ratio (y) = 0.08233 0.11658
# Poissons Ratio (z) = -0.12306 0.20014
#
# Static dielectric constant tensor:
#      x y z
#    x 4.164770 0.000000 0.254850 
#    y 0.000000 4.152620 0.000000 
#    z 0.254850 0.000000 3.659530 
# 
# 
# High freq. dielectric constant tensor:
#      x y z
#    x 1.873000 0.000000 0.023590 
#    y 0.000000 1.876050 0.000000 
#    z 0.023590 0.000000 1.829240 
# 
# From -- ./inp_files/22728.got.cif
#   From: 2010.06.25/outbox.cif.g09.slc.cpg/sg9_12_cif.got.tgz:22728.got - 2010.06.27 21:40:51.
