data_PCOD8055548
_publ_section_title
;
Structure prediction by ZEFSAII (Michael W. Deem and Ramdas Pophale) SiO2 
 PCOD8055548
Probable space group: C C
;
_chemical_formula_sum "Si O2"
_cell_formula_units_Z 32
_cell_length_a 21.036112
_cell_length_b 11.536304
_cell_length_c 8.730190
_cell_angle_alpha 90.000000
_cell_angle_beta 47.525694
_cell_angle_gamma 90.000000
_cell_volume 1562.662276
_symmetry_space_group_name_H-M "C C"
_symmetry_group_IT_number 9
_symmetry_cell_setting 'monoclinic'
loop_
_space_group_symop_operation_xyz
x,y,z
x,-y,1/2+z
1/2+x,1/2+y,z
1/2+x,1/2-y,1/2+z
loop_
_atom_site_type_symbol
_atom_site_label
_atom_site_fract_x
_atom_site_fract_y
_atom_site_fract_z
Si Si1 0.630560 0.366756 0.720010
Si Si2 0.542771 0.606065 0.787917
Si Si3 0.874433 0.880552 0.723610
Si Si4 0.822849 0.105777 0.657304
Si Si5 0.304059 0.861635 0.275038
Si Si6 0.848771 0.578599 0.370405
Si Si7 0.203322 0.197498 0.414758
Si Si8 0.469775 0.276934 0.113704
O O1 0.587694 0.481146 0.719454
O O2 0.705366 0.331782 0.480267
O O3 0.675343 0.380132 0.813721
O O4 0.555319 0.269384 0.866610
O O5 0.620817 0.700896 0.665095
O O6 0.487018 0.633631 0.725730
O O7 0.477881 0.606224 0.037047
O O8 0.854018 0.757725 0.683747
O O9 0.817710 0.973389 0.720606
O O10 0.851530 0.888614 0.936746
O O11 0.730781 0.171097 0.825650
O O12 0.892415 0.168651 0.647121
O O13 0.355625 0.943711 0.311614
O O14 0.307085 0.919487 0.104632
O O15 0.783056 0.632692 0.357336
O O16 0.940483 0.647438 0.214430
#
# Coordination Sequence:
#
# PCOD8055548 Si02
#       8
#     4   4   4   4   4   4   4   4
#     4  11  22  40  68 102 129 171 231 287 333 394
#     4  11  22  40  68 102 129 171 231 287 333 394
#     4  12  25  42  69 102 134 179 230 276 342 412
#     4  11  24  42  66  97 140 176 223 276 346 405
#     4  12  25  42  69 102 134 179 230 276 342 412
#     4  11  24  42  66  97 140 176 223 276 346 405
#     4  10  23  41  65  95 137 175 215 285 345 384
#     4  10  23  41  65  95 137 175 215 285 345 384
#
# _framework density 20.477872000000001
#
# number of rings (size 3 to 8) (size 9 to 14) (size 15 to 20)
#    0.000    1.000    5.000    1.500    7.000    1.000 
#    0.000    1.250    0.000    0.000    0.000    0.000 
#    0.000    0.000    0.000    0.000    0.000    0.000 
#
# Total GULP energy -198284.308251 kJ/mol
# GULP energy per Si atom -12392.769266 kJ/mol
# Density = 2.043126 g / cm^3
# Si number density = 20.477872 Si / 1000 Ang^3
#
#
#
# Elastic Constant Matrix: (Units=GPa)
#
#
# Indices 1 2 3 4 5 6 
#
# 1 72.1444 24.3187 24.0602 0.0000 -3.1195 0.0000
# 2 24.3187 93.1039 41.8843 0.0000 -6.3174 0.0000
# 3 24.0602 41.8843 118.7532 0.0000 -20.8732 0.0000
# 4 0.0000 0.0000 0.0000 34.9266 0.0000 -0.2199
# 5 -3.1195 -6.3174 -20.8732 0.0000 33.0172 0.0000
# 6 0.0000 0.0000 0.0000 -0.2199 0.0000 33.5262
#
#
#
# Elastic Compliance Matrix: (Units=1/GPa)
#
#
# Indices 1 2 3 4 5 6 
#
# 1 0.015615 -0.003150 -0.002137 0.000000 -0.000478 0.000000
# 2 -0.003150 0.013408 -0.004154 0.000000 -0.000358 0.000000
# 3 -0.002137 -0.004154 0.011412 0.000000 0.006218 0.000000
# 4 0.000000 0.000000 0.000000 0.028633 0.000000 0.000188
# 5 -0.000478 -0.000358 0.006218 0.000000 0.034104 0.000000
# 6 0.000000 0.000000 0.000000 0.000188 0.000000 0.029829
#
#
# Mechanical properties :
#
#
# Convention : Reuss Voigt Hill
#
# Bulk Modulus (GPa) = 46.39585 51.61418 49.00502
# Shear Modulus (GPa) = 31.43374 33.20989 32.32182
#
# Velocity S-wave (km/s) = 3.92217 4.03146 3.97719
# Velocity P-wave (km/s) = 6.57396 6.85053 6.71367
#
# Compressibility (1/GPa) = 0.02155365
#
# Stress axis : x y z
#
# Youngs Moduli (GPa) = 64.04193 74.58398 87.62975
#
# Poissons Ratio (x) = 0.23492 0.18725
# Poissons Ratio (y) = 0.20172 0.36399
# Poissons Ratio (z) = 0.13685 0.30980
#
# Static dielectric constant tensor:
#      x y z
#    x 4.017200 0.000000 -0.292910 
#    y 0.000000 4.061680 0.000000 
#    z -0.292910 0.000000 4.202660 
# 
# 
# High freq. dielectric constant tensor:
#      x y z
#    x 1.795550 0.000000 0.002040 
#    y 0.000000 1.784490 0.000000 
#    z 0.002040 0.000000 1.815770 
# 
# From -- ./inp_files/11631.got.cif
#   From: 2010.06.25/outbox.cif.g09.slc.cpg/sg9_6_cif.got.tgz:11631.got - 2010.06.27 21:40:51.
