data_PCOD8055208
_publ_section_title
;
Structure prediction by ZEFSAII (Michael W. Deem and Ramdas Pophale) SiO2 
 PCOD8055208
Probable space group: C C
;
_chemical_formula_sum "Si O2"
_cell_formula_units_Z 28
_cell_length_a 13.870482
_cell_length_b 16.641144
_cell_length_c 5.063394
_cell_angle_alpha 90.000000
_cell_angle_beta 94.149217
_cell_angle_gamma 90.000000
_cell_volume 1165.672830
_symmetry_space_group_name_H-M "C C"
_symmetry_group_IT_number 9
_symmetry_cell_setting 'monoclinic'
loop_
_space_group_symop_operation_xyz
x,y,z
x,-y,1/2+z
1/2+x,1/2+y,z
1/2+x,1/2-y,1/2+z
loop_
_atom_site_type_symbol
_atom_site_label
_atom_site_fract_x
_atom_site_fract_y
_atom_site_fract_z
Si Si1 0.075700 0.120952 0.392270
Si Si2 0.083442 0.277530 0.729813
Si Si3 0.164090 0.448576 0.732174
Si Si4 0.726379 0.324230 0.537261
Si Si5 0.862232 0.132171 0.349450
Si Si6 0.377517 0.264544 0.362674
Si Si7 0.741590 0.454255 0.169743
O O1 0.076217 0.215010 0.485602
O O2 0.124693 0.062490 0.621804
O O3 0.966968 0.091596 0.312162
O O4 0.142106 0.117892 0.140905
O O5 0.100669 0.369643 0.648561
O O6 0.177440 0.257932 0.927117
O O7 0.986105 0.269314 0.881727
O O8 0.136492 0.514695 0.509295
O O9 0.279092 0.431287 0.764494
O O10 0.804187 0.306937 0.778590
O O11 0.780181 0.371086 0.305561
O O12 0.860621 0.162744 0.650984
O O13 0.851157 0.208098 0.151648
O O14 0.775714 0.524749 0.379508
#
# Coordination Sequence:
#
# PCOD8055208 Si02
#       7
#     4   4   4   4   4   4   4
#     4  10  22  39  72  95 132 174 222 285 338 396
#     4  10  23  43  66 101 129 177 240 280 333 417
#     4  12  27  44  66  95 143 188 219 281 351 413
#     4  11  21  41  69  97 127 176 222 292 341 396
#     4  11  23  41  63 101 129 166 232 275 337 406
#     4  11  23  39  72  98 126 170 227 297 327 391
#     4  11  23  39  58  91 132 169 206 260 343 411
#
# _framework density 24.020462999999999
#
# number of rings (size 3 to 8) (size 9 to 14) (size 15 to 20)
#    0.000    1.143    4.286    1.714    4.000    1.143 
#    0.000    1.429    0.000    0.000    0.000    0.000 
#    0.000    0.000    0.000    0.000    0.000    0.000 
#
# Total GULP energy -173498.561410 kJ/mol
# GULP energy per Si atom -12392.754386 kJ/mol
# Density = 2.396579 g / cm^3
# Si number density = 24.020463 Si / 1000 Ang^3
#
#
#
# Elastic Constant Matrix: (Units=GPa)
#
#
# Indices 1 2 3 4 5 6 
#
# 1 41.6417 8.1271 -2.8609 0.0000 7.8508 0.0000
# 2 8.1271 50.3516 14.4914 0.0000 -1.3061 0.0000
# 3 -2.8609 14.4914 86.7160 0.0000 8.7778 0.0000
# 4 0.0000 0.0000 0.0000 38.9921 0.0000 1.4278
# 5 7.8508 -1.3061 8.7778 0.0000 28.1247 0.0000
# 6 0.0000 0.0000 0.0000 1.4278 0.0000 28.6080
#
#
#
# Elastic Compliance Matrix: (Units=1/GPa)
#
#
# Indices 1 2 3 4 5 6 
#
# 1 0.026848 -0.005316 0.002641 0.000000 -0.008566 0.000000
# 2 -0.005316 0.022040 -0.004247 0.000000 0.003833 0.000000
# 3 0.002641 -0.004247 0.012829 0.000000 -0.004938 0.000000
# 4 0.000000 0.000000 0.000000 0.025693 0.000000 -0.001282
# 5 -0.008566 0.003833 -0.004938 0.000000 0.039666 0.000000
# 6 0.000000 0.000000 0.000000 -0.001282 0.000000 0.035019
#
#
# Mechanical properties :
#
#
# Convention : Reuss Voigt Hill
#
# Bulk Modulus (GPa) = 20.88799 24.24716 22.56757
# Shear Modulus (GPa) = 26.05578 29.74173 27.89876
#
# Velocity S-wave (km/s) = 3.29710 3.52260 3.41171
# Velocity P-wave (km/s) = 4.81760 5.16345 4.99352
#
# Compressibility (1/GPa) = 0.04787441
#
# Stress axis : x y z
#
# Youngs Moduli (GPa) = 37.24638 45.37217 77.95105
#
# Poissons Ratio (x) = 0.24119 -0.20588
# Poissons Ratio (y) = 0.19800 0.33102
# Poissons Ratio (z) = -0.09837 0.19267
#
# Static dielectric constant tensor:
#      x y z
#    x 4.190480 0.000000 0.126610 
#    y 0.000000 4.157300 0.000000 
#    z 0.126610 0.000000 4.347650 
# 
# 
# High freq. dielectric constant tensor:
#      x y z
#    x 1.927370 0.000000 0.012120 
#    y 0.000000 1.942800 0.000000 
#    z 0.012120 0.000000 1.963210 
# 
# From -- ./inp_files/2416.got.cif
#   From: 2010.06.25/outbox.cif.g09.slc.cpg/sg9_2_cif.got.tgz:2416.got - 2010.06.27 21:40:51.
