data_PCOD8055861
_publ_section_title
;
Structure prediction by ZEFSAII (Michael W. Deem and Ramdas Pophale) SiO2 
 PCOD8055861
Probable space group: C C
;
_chemical_formula_sum "Si O2"
_cell_formula_units_Z 32
_cell_length_a 6.608950
_cell_length_b 12.487615
_cell_length_c 17.571905
_cell_angle_alpha 90.000000
_cell_angle_beta 97.230049
_cell_angle_gamma 90.000000
_cell_volume 1438.678867
_symmetry_space_group_name_H-M "C C"
_symmetry_group_IT_number 9
_symmetry_cell_setting 'monoclinic'
loop_
_space_group_symop_operation_xyz
x,y,z
x,-y,1/2+z
1/2+x,1/2+y,z
1/2+x,1/2-y,1/2+z
loop_
_atom_site_type_symbol
_atom_site_label
_atom_site_fract_x
_atom_site_fract_y
_atom_site_fract_z
Si Si1 0.817070 0.738641 0.128040
Si Si2 0.551252 0.871766 0.763968
Si Si3 0.111309 0.570642 0.675800
Si Si4 0.560350 0.091077 0.043080
Si Si5 0.233466 0.935026 0.404718
Si Si6 0.401178 0.205647 0.781997
Si Si7 0.949793 0.184831 0.005444
Si Si8 0.757189 0.332177 0.880921
O O1 0.814343 0.863259 0.157077
O O2 0.595908 0.719659 0.080537
O O3 0.859096 0.660659 0.201390
O O4 0.985220 0.707311 0.072161
O O5 0.742623 0.797774 0.756814
O O6 0.465948 0.859922 0.844910
O O7 0.641965 0.989751 0.748751
O O8 0.019995 0.503264 0.601757
O O9 0.955497 0.659343 0.701334
O O10 0.797915 0.098002 0.034751
O O11 0.440267 0.059034 0.962460
O O12 0.287565 0.883941 0.326363
O O13 0.063722 0.866419 0.439108
O O14 0.144361 0.054540 0.388859
O O15 0.604199 0.250105 0.832730
O O16 0.823039 0.284559 0.965641
#
# Coordination Sequence:
#
# PCOD8055861 Si02
#       8
#     4   4   4   4   4   4   4   4
#     4  10  24  44  66  99 133 178 226 281 334 412
#     4  11  25  44  67 100 139 176 229 279 343 416
#     4  11  24  45  69  99 140 179 228 283 344 412
#     4  10  24  45  68 101 139 180 232 286 341 411
#     4  11  24  45  69 102 137 179 232 282 345 409
#     4  12  25  43  70 102 138 181 227 289 344 408
#     4  11  24  46  71  99 137 182 231 283 345 408
#     4  12  24  42  72 100 135 181 227 281 344 412
#
# _framework density 22.242626999999999
#
# number of rings (size 3 to 8) (size 9 to 14) (size 15 to 20)
#    0.000    1.000    5.000    0.750    3.500    4.000 
#    6.750    0.000    0.000    0.000    0.000    0.000 
#    0.000    0.000    0.000    0.000    0.000    0.000 
#
# Total GULP energy -198336.896590 kJ/mol
# GULP energy per Si atom -12396.056037 kJ/mol
# Density = 2.219200 g / cm^3
# Si number density = 22.242627 Si / 1000 Ang^3
#
#
#
# Elastic Constant Matrix: (Units=GPa)
#
#
# Indices 1 2 3 4 5 6 
#
# 1 78.5325 35.0588 26.6852 0.0000 -3.2601 0.0000
# 2 35.0588 124.7770 24.6556 0.0000 -7.8278 0.0000
# 3 26.6852 24.6556 82.1722 0.0000 -7.5022 0.0000
# 4 0.0000 0.0000 0.0000 40.3925 0.0000 -9.1160
# 5 -3.2601 -7.8278 -7.5022 0.0000 28.0708 0.0000
# 6 0.0000 0.0000 0.0000 -9.1160 0.0000 32.3652
#
#
#
# Elastic Compliance Matrix: (Units=1/GPa)
#
#
# Indices 1 2 3 4 5 6 
#
# 1 0.015717 -0.003635 -0.004038 0.000000 -0.000267 0.000000
# 2 -0.003635 0.009443 -0.001487 0.000000 0.001814 0.000000
# 3 -0.004038 -0.001487 0.014193 0.000000 0.002909 0.000000
# 4 0.000000 0.000000 0.000000 0.026438 0.000000 0.007446
# 5 -0.000267 0.001814 0.002909 0.000000 0.036877 0.000000
# 6 0.000000 0.000000 0.000000 0.007446 0.000000 0.032995
#
#
# Mechanical properties :
#
#
# Convention : Reuss Voigt Hill
#
# Bulk Modulus (GPa) = 47.54482 50.92011 49.23246
# Shear Modulus (GPa) = 31.05706 33.43781 32.24743
#
# Velocity S-wave (km/s) = 3.74074 3.88147 3.81176
# Velocity P-wave (km/s) = 6.33084 6.55977 6.44632
#
# Compressibility (1/GPa) = 0.02103279
#
# Stress axis : x y z
#
# Youngs Moduli (GPa) = 63.62410 105.89487 70.45833
#
# Poissons Ratio (x) = 0.38493 0.28450
# Poissons Ratio (y) = 0.23128 0.10480
# Poissons Ratio (z) = 0.25691 0.15751
#
# Static dielectric constant tensor:
#      x y z
#    x 3.846380 0.000000 -0.153550 
#    y 0.000000 4.189270 0.000000 
#    z -0.153550 0.000000 4.080260 
# 
# 
# High freq. dielectric constant tensor:
#      x y z
#    x 1.858280 0.000000 -0.011860 
#    y 0.000000 1.880460 0.000000 
#    z -0.011860 0.000000 1.888510 
# 
# From -- ./inp_files/32020.got.cif
#   From: 2010.06.25/outbox.cif.g09.slc.cpg/sg9_17_cif.got.tgz:32020.got - 2010.06.27 21:40:51.
