data_PCOD8055828
_publ_section_title
;
Structure prediction by ZEFSAII (Michael W. Deem and Ramdas Pophale) SiO2 
 PCOD8055828
Probable space group: C C
;
_chemical_formula_sum "Si O2"
_cell_formula_units_Z 32
_cell_length_a 22.184197
_cell_length_b 6.788030
_cell_length_c 15.123460
_cell_angle_alpha 90.000000
_cell_angle_beta 137.959507
_cell_angle_gamma 90.000000
_cell_volume 1525.071353
_symmetry_space_group_name_H-M "C C"
_symmetry_group_IT_number 9
_symmetry_cell_setting 'monoclinic'
loop_
_space_group_symop_operation_xyz
x,y,z
x,-y,1/2+z
1/2+x,1/2+y,z
1/2+x,1/2-y,1/2+z
loop_
_atom_site_type_symbol
_atom_site_label
_atom_site_fract_x
_atom_site_fract_y
_atom_site_fract_z
Si Si1 0.852470 0.441980 0.119620
Si Si2 0.906007 0.877599 0.968641
Si Si3 0.690456 0.708527 0.882532
Si Si4 0.494563 0.736304 0.737811
Si Si5 0.862088 0.506211 0.329151
Si Si6 0.679486 0.586303 0.218753
Si Si7 0.274256 0.392571 0.424621
Si Si8 0.492820 0.354969 0.433258
O O1 0.861421 0.400936 0.233506
O O2 0.941864 0.554149 0.181202
O O3 0.761005 0.565784 0.006971
O O4 0.843991 0.233190 0.060696
O O5 0.958925 0.897354 0.118958
O O6 0.880193 0.650960 0.926384
O O7 0.822018 0.024922 0.887831
O O8 0.961982 0.942652 0.944605
O O9 0.601511 0.750931 0.842754
O O10 0.666871 0.621830 0.758321
O O11 0.737925 0.919676 0.936446
O O12 0.475115 0.628931 0.809653
O O13 0.764606 0.591310 0.246226
O O14 0.939685 0.670961 0.417763
O O15 0.691611 0.754321 0.306287
O O16 0.597975 0.656680 0.069021
#
# Coordination Sequence:
#
# PCOD8055828 Si02
#       8
#     4   4   4   4   4   4   4   4
#     4  10  24  43  65  98 134 174 227 272 333 400
#     4  12  23  42  70  93 134 176 223 272 336 393
#     4  11  22  43  67 100 131 176 218 277 330 402
#     4  11  24  45  68  97 138 175 221 277 332 401
#     4  11  24  43  64  99 136 171 225 277 327 403
#     4  11  22  42  67 100 135 170 221 273 338 398
#     4  11  23  41  71  93 128 181 221 272 337 385
#     4  11  26  43  68 100 134 177 220 276 333 398
#
# _framework density 20.982626
#
# number of rings (size 3 to 8) (size 9 to 14) (size 15 to 20)
#    0.000    1.000    5.000    1.500    3.500    0.000 
#    2.250    1.250    0.000    0.000    0.000    0.000 
#    0.000    0.000    0.000    0.000    0.000    0.000 
#
# Total GULP energy -198345.945089 kJ/mol
# GULP energy per Si atom -12396.621568 kJ/mol
# Density = 2.093487 g / cm^3
# Si number density = 20.982626 Si / 1000 Ang^3
#
#
#
# Elastic Constant Matrix: (Units=GPa)
#
#
# Indices 1 2 3 4 5 6 
#
# 1 122.3552 47.8581 50.4042 0.0000 9.3643 0.0000
# 2 47.8581 105.6818 42.4190 0.0000 3.3882 0.0000
# 3 50.4042 42.4190 102.4420 0.0000 6.2382 0.0000
# 4 0.0000 0.0000 0.0000 30.4612 0.0000 -3.5982
# 5 9.3643 3.3882 6.2382 0.0000 43.6011 0.0000
# 6 0.0000 0.0000 0.0000 -3.5982 0.0000 32.0009
#
#
#
# Elastic Compliance Matrix: (Units=1/GPa)
#
#
# Indices 1 2 3 4 5 6 
#
# 1 0.011307 -0.003448 -0.004039 0.000000 -0.001583 0.000000
# 2 -0.003448 0.012402 -0.003455 0.000000 0.000271 0.000000
# 3 -0.004039 -0.003455 0.013226 0.000000 -0.000756 0.000000
# 4 0.000000 0.000000 0.000000 0.033271 0.000000 0.003741
# 5 -0.001583 0.000271 -0.000756 0.000000 0.023362 0.000000
# 6 0.000000 0.000000 0.000000 0.003741 0.000000 0.031670
#
#
# Mechanical properties :
#
#
# Convention : Reuss Voigt Hill
#
# Bulk Modulus (GPa) = 66.44791 67.98240 67.21515
# Shear Modulus (GPa) = 32.86474 33.86580 33.36527
#
# Velocity S-wave (km/s) = 3.96192 4.02181 3.99198
# Velocity P-wave (km/s) = 7.25713 7.35094 7.30419
#
# Compressibility (1/GPa) = 0.01504938
#
# Stress axis : x y z
#
# Youngs Moduli (GPa) = 88.44341 80.63116 75.61032
#
# Poissons Ratio (x) = 0.27804 0.30539
# Poissons Ratio (y) = 0.30498 0.26126
# Poissons Ratio (z) = 0.35722 0.27860
#
# Static dielectric constant tensor:
#      x y z
#    x 3.967690 0.000000 0.102510 
#    y 0.000000 3.692800 0.000000 
#    z 0.102510 0.000000 3.825790 
# 
# 
# High freq. dielectric constant tensor:
#      x y z
#    x 1.828670 0.000000 0.001260 
#    y 0.000000 1.817180 0.000000 
#    z 0.001260 0.000000 1.821520 
# 
# From -- ./inp_files/31512.got.cif
#   From: 2010.06.25/outbox.cif.g09.slc.cpg/sg9_16_cif.got.tgz:31512.got - 2010.06.27 21:40:51.
