data_PCOD8055898
_publ_section_title
;
Structure prediction by ZEFSAII (Michael W. Deem and Ramdas Pophale) SiO2 
 PCOD8055898
Probable space group: C C
;
_chemical_formula_sum "Si O2"
_cell_formula_units_Z 32
_cell_length_a 12.567358
_cell_length_b 22.709904
_cell_length_c 8.163091
_cell_angle_alpha 90.000000
_cell_angle_beta 40.473832
_cell_angle_gamma 90.000000
_cell_volume 1512.258359
_symmetry_space_group_name_H-M "C C"
_symmetry_group_IT_number 9
_symmetry_cell_setting 'monoclinic'
loop_
_space_group_symop_operation_xyz
x,y,z
x,-y,1/2+z
1/2+x,1/2+y,z
1/2+x,1/2-y,1/2+z
loop_
_atom_site_type_symbol
_atom_site_label
_atom_site_fract_x
_atom_site_fract_y
_atom_site_fract_z
Si Si1 0.834720 0.189079 0.620670
Si Si2 0.049275 0.294273 0.872124
Si Si3 0.158351 0.426841 0.382817
Si Si4 0.034870 0.925269 0.433548
Si Si5 0.650731 0.708589 0.462735
Si Si6 0.861549 0.811373 0.713015
Si Si7 0.347919 0.491949 0.906500
Si Si8 0.351244 0.111463 0.407556
O O1 0.706158 0.141813 0.841593
O O2 0.758446 0.254432 0.707249
O O3 0.874933 0.172260 0.387764
O O4 0.988862 0.186788 0.561681
O O5 0.126201 0.253036 0.642558
O O6 0.180927 0.317892 0.848736
O O7 0.961604 0.351218 0.902234
O O8 0.916996 0.255701 0.124434
O O9 0.271377 0.465663 0.364242
O O10 0.967703 0.430831 0.660496
O O11 0.198771 0.452087 0.154482
O O12 0.979946 0.856952 0.478807
O O13 0.990747 0.949317 0.666402
O O14 0.227536 0.928137 0.162091
O O15 0.932116 0.966290 0.436709
O O16 0.749679 0.651438 0.401166
#
# Coordination Sequence:
#
# PCOD8055898 Si02
#       8
#     4   4   4   4   4   4   4   4
#     4  12  23  40  65  96 136 175 215 268 326 392
#     4  12  22  39  65 100 133 177 215 258 322 406
#     4  11  23  43  67  96 124 176 219 274 330 381
#     4  11  23  43  67  96 124 176 219 274 330 381
#     4  12  22  39  65 100 133 177 215 258 322 406
#     4  12  23  40  65  96 136 175 215 268 326 392
#     4  10  24  45  70  88 128 171 228 280 326 380
#     4  12  24  39  70 100 132 169 220 266 326 396
#
# _framework density 21.160405000000001
#
# number of rings (size 3 to 8) (size 9 to 14) (size 15 to 20)
#    0.000    0.500    6.250    2.250    0.000    1.000 
#    0.000    0.000    0.000    0.000    0.000    0.000 
#    0.000    0.000    0.000    0.000    0.000    0.000 
#
# Total GULP energy -198400.862110 kJ/mol
# GULP energy per Si atom -12400.053882 kJ/mol
# Density = 2.111224 g / cm^3
# Si number density = 21.160405 Si / 1000 Ang^3
#
#
#
# Elastic Constant Matrix: (Units=GPa)
#
#
# Indices 1 2 3 4 5 6 
#
# 1 55.4959 -4.3391 8.6588 0.0000 7.8662 0.0000
# 2 -4.3391 54.4326 33.2379 0.0000 11.2355 0.0000
# 3 8.6588 33.2379 142.8970 0.0000 3.6136 0.0000
# 4 0.0000 0.0000 0.0000 39.5011 0.0000 -9.8901
# 5 7.8662 11.2355 3.6136 0.0000 25.9900 0.0000
# 6 0.0000 0.0000 0.0000 -9.8901 0.0000 7.3665
#
#
#
# Elastic Compliance Matrix: (Units=1/GPa)
#
#
# Indices 1 2 3 4 5 6 
#
# 1 0.019753 0.004376 -0.002023 0.000000 -0.007589 0.000000
# 2 0.004376 0.024483 -0.005679 0.000000 -0.011119 0.000000
# 3 -0.002023 -0.005679 0.008393 0.000000 0.001900 0.000000
# 4 0.000000 0.000000 0.000000 0.038135 0.000000 0.051199
# 5 -0.007589 -0.011119 0.001900 0.000000 0.045316 0.000000
# 6 0.000000 0.000000 0.000000 0.051199 0.000000 0.204490
#
#
# Mechanical properties :
#
#
# Convention : Reuss Voigt Hill
#
# Bulk Modulus (GPa) = 21.74932 36.43786 29.09359
# Shear Modulus (GPa) = 13.79136 28.92271 21.35704
#
# Velocity S-wave (km/s) = 2.55572 3.70108 3.18038
# Velocity P-wave (km/s) = 4.35999 5.95997 5.22162
#
# Compressibility (1/GPa) = 0.04597845
#
# Stress axis : x y z
#
# Youngs Moduli (GPa) = 50.62558 40.84501 119.14063
#
# Poissons Ratio (x) = -0.17875 0.24101
# Poissons Ratio (y) = -0.22155 0.67656
# Poissons Ratio (z) = 0.10241 0.23195
#
# Static dielectric constant tensor:
#      x y z
#    x 3.724450 0.000000 0.188460 
#    y 0.000000 3.957790 0.000000 
#    z 0.188460 0.000000 4.269060 
# 
# 
# High freq. dielectric constant tensor:
#      x y z
#    x 1.819110 0.000000 0.007140 
#    y 0.000000 1.831700 0.000000 
#    z 0.007140 0.000000 1.840030 
# 
# From -- ./inp_files/8509.got.cif
#   From: 2010.06.25/outbox.cif.g09.slc.cpg/sg9_5_cif.got.tgz:8509.got - 2010.06.27 21:40:51.
