data_PCOD8055609
_publ_section_title
;
Structure prediction by ZEFSAII (Michael W. Deem and Ramdas Pophale) SiO2 
 PCOD8055609
Probable space group: C C
;
_chemical_formula_sum "Si O2"
_cell_formula_units_Z 24
_cell_length_a 23.200307
_cell_length_b 7.628751
_cell_length_c 12.759957
_cell_angle_alpha 90.000000
_cell_angle_beta 30.744394
_cell_angle_gamma 90.000000
_cell_volume 1154.502481
_symmetry_space_group_name_H-M "C C"
_symmetry_group_IT_number 9
_symmetry_cell_setting 'monoclinic'
loop_
_space_group_symop_operation_xyz
x,y,z
x,-y,1/2+z
1/2+x,1/2+y,z
1/2+x,1/2-y,1/2+z
loop_
_atom_site_type_symbol
_atom_site_label
_atom_site_fract_x
_atom_site_fract_y
_atom_site_fract_z
Si Si1 0.186280 0.129224 0.376110
Si Si2 0.991147 0.678292 0.254160
Si Si3 0.498322 0.441655 0.771039
Si Si4 0.784233 0.241825 0.514124
Si Si5 0.863279 0.556539 0.268951
Si Si6 0.551575 0.117985 0.819554
O O1 0.246892 0.130079 0.168817
O O2 0.277364 0.154546 0.326382
O O3 0.104518 0.298358 0.507221
O O4 0.108336 0.955278 0.520758
O O5 0.881804 0.655541 0.350597
O O6 0.010137 0.504974 0.290817
O O7 0.973434 0.857760 0.350009
O O8 0.523024 0.319300 0.832271
O O9 0.391357 0.374803 0.874346
O O10 0.817068 0.362261 0.364133
O O11 0.684641 0.109657 0.635247
O O12 0.985525 0.552232 0.024234
#
# Coordination Sequence:
#
# PCOD8055609 Si02
#       6
#     4   4   4   4   4   4
#     4  10  23  43  66 103 137 176 230 287 336 411
#     4  10  24  43  64 104 132 177 238 273 341 415
#     4  10  23  43  67  99 132 181 228 277 352 393
#     4  12  23  46  74  95 144 187 220 295 343 402
#     4  12  22  43  71 100 138 181 229 286 340 414
#     4  12  23  46  66 101 141 174 235 284 340 413
#
# _framework density 20.788174999999999
#
# number of rings (size 3 to 8) (size 9 to 14) (size 15 to 20)
#    1.000    0.000    6.667    0.000    2.333    0.000 
#   12.000    1.667    0.000    0.000    0.000    0.000 
#    0.000    0.000    0.000    0.000    0.000    0.000 
#
# Total GULP energy -148670.185433 kJ/mol
# GULP energy per Si atom -12389.182119 kJ/mol
# Density = 2.074086 g / cm^3
# Si number density = 20.788175 Si / 1000 Ang^3
#
#
#
# Elastic Constant Matrix: (Units=GPa)
#
#
# Indices 1 2 3 4 5 6 
#
# 1 123.8468 28.3713 35.1286 -0.0001 -19.6200 0.0000
# 2 28.3713 78.9288 47.4563 -0.0004 1.0288 0.0001
# 3 35.1286 47.4563 95.5307 -0.0002 -3.4550 0.0001
# 4 -0.0001 -0.0004 -0.0002 33.4508 0.0001 -10.3166
# 5 -19.6200 1.0288 -3.4550 0.0001 35.7284 0.0000
# 6 0.0000 0.0001 0.0001 -10.3166 0.0000 26.4398
#
#
#
# Elastic Compliance Matrix: (Units=1/GPa)
#
#
# Indices 1 2 3 4 5 6 
#
# 1 0.010130 -0.002266 -0.002404 0.000000 0.005396 0.000000
# 2 -0.002266 0.018642 -0.008521 0.000000 -0.002605 0.000000
# 3 -0.002404 -0.008521 0.015601 0.000000 0.000434 0.000000
# 4 0.000000 0.000000 0.000000 0.033984 0.000000 0.013260
# 5 0.005396 -0.002605 0.000434 0.000000 0.031069 0.000000
# 6 0.000000 0.000000 0.000000 0.013260 0.000000 0.042996
#
#
# Mechanical properties :
#
#
# Convention : Reuss Voigt Hill
#
# Bulk Modulus (GPa) = 55.58908 57.80206 56.69557
# Shear Modulus (GPa) = 27.05595 31.61381 29.33488
#
# Velocity S-wave (km/s) = 3.61155 3.90392 3.76058
# Velocity P-wave (km/s) = 6.64755 6.94164 6.79619
#
# Compressibility (1/GPa) = 0.01798914
#
# Stress axis : x y z
#
# Youngs Moduli (GPa) = 98.71273 53.64302 64.09933
#
# Poissons Ratio (x) = 0.12156 0.15411
# Poissons Ratio (y) = 0.22370 0.54622
# Poissons Ratio (z) = 0.23733 0.45712
#
# Static dielectric constant tensor:
#      x y z
#    x 3.779090 0.000000 -0.211620 
#    y 0.000000 3.544130 0.000000 
#    z -0.211620 0.000000 3.841930 
# 
# 
# High freq. dielectric constant tensor:
#      x y z
#    x 1.825720 0.000000 -0.022260 
#    y 0.000000 1.791650 0.000000 
#    z -0.022260 0.000000 1.807730 
# 
# From -- ./inp_files/17477.got.cif
#   From: 2010.06.25/outbox.cif.g09.slc.cpg/sg9_9_cif.got.tgz:17477.got - 2010.06.27 21:40:51.
