data_PCOD8055846
_publ_section_title
;
Structure prediction by ZEFSAII (Michael W. Deem and Ramdas Pophale) SiO2 
 PCOD8055846
Probable space group: C C
;
_chemical_formula_sum "Si O2"
_cell_formula_units_Z 32
_cell_length_a 7.977983
_cell_length_b 21.446465
_cell_length_c 9.787560
_cell_angle_alpha 90.000000
_cell_angle_beta 116.352775
_cell_angle_gamma 90.000000
_cell_volume 1500.614184
_symmetry_space_group_name_H-M "C C"
_symmetry_group_IT_number 9
_symmetry_cell_setting 'monoclinic'
loop_
_space_group_symop_operation_xyz
x,y,z
x,-y,1/2+z
1/2+x,1/2+y,z
1/2+x,1/2-y,1/2+z
loop_
_atom_site_type_symbol
_atom_site_label
_atom_site_fract_x
_atom_site_fract_y
_atom_site_fract_z
Si Si1 0.401960 0.864945 0.177120
Si Si2 0.994557 0.593600 0.247402
Si Si3 0.723662 0.488404 0.075252
Si Si4 0.512738 0.169424 0.001231
Si Si5 0.843256 0.107387 0.222238
Si Si6 0.010866 0.811883 0.011077
Si Si7 0.705948 0.872627 0.085654
Si Si8 0.480750 0.479751 0.229566
O O1 0.356248 0.930435 0.082723
O O2 0.442184 0.874326 0.352679
O O3 0.590369 0.839852 0.168302
O O4 0.231494 0.815805 0.118485
O O5 0.841693 0.539859 0.199443
O O6 0.192449 0.568583 0.259845
O O7 0.041523 0.619238 0.413903
O O8 0.924177 0.647681 0.115390
O O9 0.587288 0.454263 0.134731
O O10 0.610980 0.520681 0.911367
O O11 0.738166 0.157571 0.088433
O O12 0.462527 0.240912 0.955530
O O13 0.983253 0.143926 0.370858
O O14 0.943429 0.052303 0.176123
O O15 0.875832 0.830060 0.089666
O O16 0.795868 0.937132 0.176342
#
# Coordination Sequence:
#
# PCOD8055846 Si02
#       8
#     4   4   4   4   4   4   4   4
#     4  12  24  42  69 102 128 175 222 274 328 391
#     4   9  22  41  62  96 127 179 208 271 330 385
#     4  12  23  39  66  99 134 170 219 270 334 397
#     4  10  24  43  73  92 133 180 221 269 329 389
#     4   9  21  40  63  92 126 174 212 264 328 375
#     4  11  22  50  67  94 137 178 221 268 328 392
#     4  11  25  42  67  98 135 173 215 275 333 388
#     4  12  23  39  63  99 138 169 214 277 330 395
#
# _framework density 21.324601999999999
#
# number of rings (size 3 to 8) (size 9 to 14) (size 15 to 20)
#    0.750    0.500    2.500    3.750    3.500    0.000 
#    2.250    1.250    0.000    0.000    0.000    0.000 
#    0.000    0.000    0.000    0.000    0.000    0.000 
#
# Total GULP energy -198216.388791 kJ/mol
# GULP energy per Si atom -12388.524299 kJ/mol
# Density = 2.127607 g / cm^3
# Si number density = 21.324602 Si / 1000 Ang^3
#
#
#
# Elastic Constant Matrix: (Units=GPa)
#
#
# Indices 1 2 3 4 5 6 
#
# 1 97.0099 25.9522 30.0248 0.0000 6.3477 0.0000
# 2 25.9522 87.6584 20.4527 0.0000 4.8583 0.0000
# 3 30.0248 20.4527 119.3908 0.0000 -3.1770 0.0000
# 4 0.0000 0.0000 0.0000 28.9082 0.0000 1.1932
# 5 6.3477 4.8583 -3.1770 0.0000 24.5075 0.0000
# 6 0.0000 0.0000 0.0000 1.1932 0.0000 19.6071
#
#
#
# Elastic Compliance Matrix: (Units=1/GPa)
#
#
# Indices 1 2 3 4 5 6 
#
# 1 0.012061 -0.002795 -0.002632 0.000000 -0.002911 0.000000
# 2 -0.002795 0.012702 -0.001526 0.000000 -0.001992 0.000000
# 3 -0.002632 -0.001526 0.009358 0.000000 0.002197 0.000000
# 4 0.000000 0.000000 0.000000 0.034679 0.000000 -0.002110
# 5 -0.002911 -0.001992 0.002197 0.000000 0.042237 0.000000
# 6 0.000000 0.000000 0.000000 -0.002110 0.000000 0.051130
#
#
# Mechanical properties :
#
#
# Convention : Reuss Voigt Hill
#
# Bulk Modulus (GPa) = 49.46977 50.76871 50.11924
# Shear Modulus (GPa) = 27.35048 29.77985 28.56517
#
# Velocity S-wave (km/s) = 3.58520 3.74103 3.66394
# Velocity P-wave (km/s) = 6.35508 6.52071 6.43843
#
# Compressibility (1/GPa) = 0.02021436
#
# Stress axis : x y z
#
# Youngs Moduli (GPa) = 82.91143 78.72793 106.86534
#
# Poissons Ratio (x) = 0.22008 0.28124
# Poissons Ratio (y) = 0.23177 0.16307
# Poissons Ratio (z) = 0.21820 0.12014
#
# Static dielectric constant tensor:
#      x y z
#    x 3.684010 0.000000 0.119080 
#    y 0.000000 3.448930 0.000000 
#    z 0.119080 0.000000 3.861400 
# 
# 
# High freq. dielectric constant tensor:
#      x y z
#    x 1.826230 0.000000 0.009470 
#    y 0.000000 1.813480 0.000000 
#    z 0.009470 0.000000 1.846870 
# 
# From -- ./inp_files/15574.got.cif
#   From: 2010.06.25/outbox.cif.g09.slc.cpg/sg9_8_cif.got.tgz:15574.got - 2010.06.27 21:40:51.
