data_PCOD8055244
_publ_section_title
;
Structure prediction by ZEFSAII (Michael W. Deem and Ramdas Pophale) SiO2 
 PCOD8055244
Probable space group: C C
;
_chemical_formula_sum "Si O2"
_cell_formula_units_Z 28
_cell_length_a 21.144124
_cell_length_b 8.100478
_cell_length_c 9.934361
_cell_angle_alpha 90.000000
_cell_angle_beta 130.909278
_cell_angle_gamma 90.000000
_cell_volume 1285.928921
_symmetry_space_group_name_H-M "C C"
_symmetry_group_IT_number 9
_symmetry_cell_setting 'monoclinic'
loop_
_space_group_symop_operation_xyz
x,y,z
x,-y,1/2+z
1/2+x,1/2+y,z
1/2+x,1/2-y,1/2+z
loop_
_atom_site_type_symbol
_atom_site_label
_atom_site_fract_x
_atom_site_fract_y
_atom_site_fract_z
Si Si1 0.481830 0.896478 0.847190
Si Si2 0.526774 0.366119 0.606396
Si Si3 0.119698 0.807765 0.205980
Si Si4 0.614633 0.859372 0.431415
Si Si5 0.250924 0.572378 0.493337
Si Si6 0.355727 0.478197 0.877696
Si Si7 0.940882 0.348695 0.500277
O O1 0.422824 0.886656 0.632713
O O2 0.569081 0.988121 0.939708
O O3 0.428667 0.992424 0.888049
O O4 0.506736 0.712988 0.932451
O O5 0.602993 0.497250 0.701869
O O6 0.549247 0.219969 0.738070
O O7 0.443358 0.447845 0.551173
O O8 0.196701 0.741194 0.404896
O O9 0.142754 0.773757 0.082229
O O10 0.037030 0.707685 0.129313
O O11 0.694764 0.918390 0.461082
O O12 0.322401 0.589872 0.706819
O O13 0.288510 0.520284 0.402688
O O14 0.376092 0.290717 0.859071
#
# Coordination Sequence:
#
# PCOD8055244 Si02
#       7
#     4   4   4   4   4   4   4
#     4  11  20  41  71  99 135 175 242 285 333 409
#     4  11  25  42  73 102 133 184 241 290 341 425
#     4  10  23  40  68  98 136 181 238 282 338 428
#     4  11  22  42  71 103 130 186 237 279 348 422
#     4  12  23  47  67  97 145 186 226 290 361 413
#     4  11  27  42  70 103 144 182 224 292 361 407
#     4  10  22  40  68 102 133 184 234 276 342 424
#
# _framework density 21.774142999999999
#
# number of rings (size 3 to 8) (size 9 to 14) (size 15 to 20)
#    0.000    1.143    4.286    1.714   10.000    0.000 
#    0.000    4.286    3.143    0.000    0.000    0.000 
#    0.000    0.000    0.000    0.000    0.000    0.000 
#
# Total GULP energy -173618.170064 kJ/mol
# GULP energy per Si atom -12401.297862 kJ/mol
# Density = 2.172458 g / cm^3
# Si number density = 21.774143 Si / 1000 Ang^3
#
#
#
# Elastic Constant Matrix: (Units=GPa)
#
#
# Indices 1 2 3 4 5 6 
#
# 1 96.7503 44.7432 36.5018 0.0000 -6.6541 0.0000
# 2 44.7432 101.4477 32.9369 0.0000 -2.5799 0.0000
# 3 36.5018 32.9369 104.1744 0.0000 -8.2309 0.0000
# 4 0.0000 0.0000 0.0000 41.3619 0.0000 3.5253
# 5 -6.6541 -2.5799 -8.2309 0.0000 35.2611 0.0000
# 6 0.0000 0.0000 0.0000 3.5253 0.0000 30.6612
#
#
#
# Elastic Compliance Matrix: (Units=1/GPa)
#
#
# Indices 1 2 3 4 5 6 
#
# 1 0.013998 -0.005106 -0.003170 0.000000 0.001528 0.000000
# 2 -0.005106 0.012847 -0.002317 0.000000 -0.000565 0.000000
# 3 -0.003170 -0.002317 0.011596 0.000000 0.001939 0.000000
# 4 0.000000 0.000000 0.000000 0.024416 0.000000 -0.002807
# 5 0.001528 -0.000565 0.001939 0.000000 0.029060 0.000000
# 6 0.000000 0.000000 0.000000 -0.002807 0.000000 0.032937
#
#
# Mechanical properties :
#
#
# Convention : Reuss Voigt Hill
#
# Bulk Modulus (GPa) = 57.95398 58.97069 58.46234
# Shear Modulus (GPa) = 32.93980 34.00288 33.47134
#
# Velocity S-wave (km/s) = 3.89369 3.95602 3.92498
# Velocity P-wave (km/s) = 6.84749 6.92881 6.88827
#
# Compressibility (1/GPa) = 0.01725507
#
# Stress axis : x y z
#
# Youngs Moduli (GPa) = 71.43823 77.83754 86.23752
#
# Poissons Ratio (x) = 0.39743 0.27335
# Poissons Ratio (y) = 0.36475 0.19986
# Poissons Ratio (z) = 0.22644 0.18039
#
# Static dielectric constant tensor:
#      x y z
#    x 3.900800 0.000000 -0.174710 
#    y 0.000000 3.919270 0.000000 
#    z -0.174710 0.000000 3.960270 
# 
# 
# High freq. dielectric constant tensor:
#      x y z
#    x 1.850950 0.000000 -0.013980 
#    y 0.000000 1.847080 0.000000 
#    z -0.013980 0.000000 1.852560 
# 
# From -- ./inp_files/11261.got.cif
#   From: 2010.06.25/outbox.cif.g09.slc.cpg/sg9_6_cif.got.tgz:11261.got - 2010.06.27 21:40:51.
