data_PCOD8055668
_publ_section_title
;
Structure prediction by ZEFSAII (Michael W. Deem and Ramdas Pophale) SiO2 
 PCOD8055668
Probable space group: C C
;
_chemical_formula_sum "Si O2"
_cell_formula_units_Z 32
_cell_length_a 15.720152
_cell_length_b 10.461101
_cell_length_c 9.917232
_cell_angle_alpha 90.000000
_cell_angle_beta 58.720135
_cell_angle_gamma 90.000000
_cell_volume 1393.825833
_symmetry_space_group_name_H-M "C C"
_symmetry_group_IT_number 9
_symmetry_cell_setting 'monoclinic'
loop_
_space_group_symop_operation_xyz
x,y,z
x,-y,1/2+z
1/2+x,1/2+y,z
1/2+x,1/2-y,1/2+z
loop_
_atom_site_type_symbol
_atom_site_label
_atom_site_fract_x
_atom_site_fract_y
_atom_site_fract_z
Si Si1 0.096950 0.928356 0.799020
Si Si2 0.411450 0.135173 0.626154
Si Si3 0.172700 0.535601 0.791141
Si Si4 0.244729 0.281446 0.855081
Si Si5 0.002991 0.299410 0.539905
Si Si6 0.500130 0.051072 0.276015
Si Si7 0.789958 0.726155 0.104236
Si Si8 0.551161 0.359761 0.546809
O O1 0.212372 0.891491 0.682775
O O2 0.045641 0.937398 0.693222
O O3 0.043837 0.827596 0.941286
O O4 0.080851 0.059127 0.891035
O O5 0.292954 0.169612 0.721127
O O6 0.442020 0.064613 0.464528
O O7 0.451326 0.281592 0.603361
O O8 0.441974 0.053069 0.732762
O O9 0.239436 0.421763 0.795482
O O10 0.249132 0.651773 0.718506
O O11 0.116895 0.489829 0.699300
O O12 0.076099 0.579417 0.955548
O O13 0.310349 0.277381 0.937170
O O14 0.133709 0.249539 0.992969
O O15 0.996951 0.307414 0.708020
O O16 0.892663 0.327582 0.576647
#
# Coordination Sequence:
#
# PCOD8055668 Si02
#       8
#     4   4   4   4   4   4   4   4
#     4  10  25  42  69  98 145 183 231 295 362 419
#     4  12  27  45  73 105 142 188 248 296 362 428
#     4  11  22  45  73 103 137 189 238 298 356 434
#     4  11  24  44  70 102 142 180 242 301 355 425
#     4  11  23  45  71  99 139 186 238 287 360 427
#     4  12  24  46  74 101 142 192 243 296 362 437
#     4  10  23  44  70 104 134 190 239 296 357 422
#     4  11  24  45  66 102 143 186 229 295 362 424
#
# _framework density 22.958392
#
# number of rings (size 3 to 8) (size 9 to 14) (size 15 to 20)
#    0.000    1.000    2.500    4.500    5.250    1.000 
#    6.750    0.000    0.000    0.000    0.000    0.000 
#    0.000    0.000    0.000    0.000    0.000    0.000 
#
# Total GULP energy -198232.845427 kJ/mol
# GULP energy per Si atom -12389.552839 kJ/mol
# Density = 2.290614 g / cm^3
# Si number density = 22.958392 Si / 1000 Ang^3
#
#
#
# Elastic Constant Matrix: (Units=GPa)
#
#
# Indices 1 2 3 4 5 6 
#
# 1 79.2041 26.1019 38.4280 0.0000 6.1070 0.0000
# 2 26.1019 90.5086 49.8307 0.0000 14.1632 0.0000
# 3 38.4280 49.8307 101.7714 0.0000 11.8599 0.0000
# 4 0.0000 0.0000 0.0000 43.4140 0.0000 4.4475
# 5 6.1070 14.1632 11.8599 0.0000 36.6331 0.0000
# 6 0.0000 0.0000 0.0000 4.4475 0.0000 41.8229
#
#
#
# Elastic Compliance Matrix: (Units=1/GPa)
#
#
# Indices 1 2 3 4 5 6 
#
# 1 0.015655 -0.001684 -0.005049 0.000000 -0.000324 0.000000
# 2 -0.001684 0.015775 -0.006661 0.000000 -0.003662 0.000000
# 3 -0.005049 -0.006661 0.015168 0.000000 -0.001494 0.000000
# 4 0.000000 0.000000 0.000000 0.023288 0.000000 -0.002476
# 5 -0.000324 -0.003662 -0.001494 0.000000 0.029251 0.000000
# 6 0.000000 0.000000 0.000000 -0.002476 0.000000 0.024174
#
#
# Mechanical properties :
#
#
# Convention : Reuss Voigt Hill
#
# Bulk Modulus (GPa) = 50.48153 55.57837 53.02995
# Shear Modulus (GPa) = 31.90768 34.84890 33.37829
#
# Velocity S-wave (km/s) = 3.73205 3.90027 3.81709
# Velocity P-wave (km/s) = 6.37236 6.67410 6.52498
#
# Compressibility (1/GPa) = 0.01980923
#
# Stress axis : x y z
#
# Youngs Moduli (GPa) = 63.87632 63.39217 65.92883
#
# Poissons Ratio (x) = 0.10678 0.33286
# Poissons Ratio (y) = 0.10760 0.43916
# Poissons Ratio (z) = 0.32250 0.42226
#
# Static dielectric constant tensor:
#      x y z
#    x 4.276010 0.000000 0.004790 
#    y 0.000000 3.979670 0.000000 
#    z 0.004790 0.000000 4.332090 
# 
# 
# High freq. dielectric constant tensor:
#      x y z
#    x 1.900260 0.000000 -0.004170 
#    y 0.000000 1.903970 0.000000 
#    z -0.004170 0.000000 1.918170 
# 
# From -- ./inp_files/9225.got.cif
#   From: 2010.06.25/outbox.cif.g09.slc.cpg/sg9_5_cif.got.tgz:9225.got - 2010.06.27 21:40:51.
