data_PCOD8055236
_publ_section_title
;
Structure prediction by ZEFSAII (Michael W. Deem and Ramdas Pophale) SiO2 
 PCOD8055236
Probable space group: C C
;
_chemical_formula_sum "Si O2"
_cell_formula_units_Z 32
_cell_length_a 15.634544
_cell_length_b 10.645731
_cell_length_c 13.435325
_cell_angle_alpha 90.000000
_cell_angle_beta 146.523410
_cell_angle_gamma 90.000000
_cell_volume 1233.474490
_symmetry_space_group_name_H-M "C C"
_symmetry_group_IT_number 9
_symmetry_cell_setting 'monoclinic'
loop_
_space_group_symop_operation_xyz
x,y,z
x,-y,1/2+z
1/2+x,1/2+y,z
1/2+x,1/2-y,1/2+z
loop_
_atom_site_type_symbol
_atom_site_label
_atom_site_fract_x
_atom_site_fract_y
_atom_site_fract_z
Si Si1 0.815110 0.313505 0.307130
Si Si2 0.077741 0.344871 0.235541
Si Si3 0.005588 0.693456 0.261398
Si Si4 0.767492 0.647355 0.533206
Si Si5 0.592853 0.441410 0.244889
Si Si6 0.630276 0.089244 0.187469
Si Si7 0.247787 0.757755 0.641463
Si Si8 0.492049 0.637890 0.011619
O O1 0.747548 0.341872 0.132778
O O2 0.735110 0.388605 0.318901
O O3 0.785636 0.164991 0.306428
O O4 0.996094 0.352174 0.486120
O O5 0.216988 0.280711 0.433144
O O6 0.149662 0.437767 0.217460
O O7 0.973749 0.249284 0.071674
O O8 0.944429 0.395737 0.181364
O O9 0.999546 0.834996 0.212274
O O10 0.072820 0.602263 0.245319
O O11 0.110616 0.675950 0.461114
O O12 0.831036 0.664174 0.131552
O O13 0.648944 0.543132 0.379270
O O14 0.472914 0.505857 0.050180
O O15 0.171103 0.856421 0.643565
O O16 0.366671 0.656890 0.803217
#
# Coordination Sequence:
#
# PCOD8055236 Si02
#       8
#     4   4   4   4   4   4   4   4
#     4  11  24  45  73 105 139 191 242 290 360 432
#     4  11  24  47  69 100 146 189 231 299 359 418
#     4  10  22  42  64 100 134 178 235 287 351 413
#     4  11  24  45  73 105 139 191 242 290 360 432
#     4  10  22  40  70 100 142 180 226 296 352 412
#     4  11  24  47  69 100 146 189 231 299 359 418
#     4  10  22  40  66  94 132 176 240 280 332 426
#     4  10  22  42  64 100 134 178 235 287 351 413
#
# _framework density 25.942978
#
# number of rings (size 3 to 8) (size 9 to 14) (size 15 to 20)
#    0.000    1.500    1.250    3.750    3.500    0.000 
#   27.000    0.000    0.000    0.000    0.000    0.000 
#    0.000    0.000    0.000    0.000    0.000    0.000 
#
# Total GULP energy -198276.022443 kJ/mol
# GULP energy per Si atom -12392.251403 kJ/mol
# Density = 2.588393 g / cm^3
# Si number density = 25.942978 Si / 1000 Ang^3
#
#
#
# Elastic Constant Matrix: (Units=GPa)
#
#
# Indices 1 2 3 4 5 6 
#
# 1 108.0354 -4.8165 15.9517 0.0000 -8.5312 0.0000
# 2 -4.8165 74.1557 16.8314 0.0000 -6.8003 0.0000
# 3 15.9517 16.8314 86.2503 0.0000 -18.6620 0.0000
# 4 0.0000 0.0000 0.0000 30.6805 0.0000 2.2075
# 5 -8.5312 -6.8003 -18.6620 0.0000 39.7426 0.0000
# 6 0.0000 0.0000 0.0000 2.2075 0.0000 18.6767
#
#
#
# Elastic Compliance Matrix: (Units=1/GPa)
#
#
# Indices 1 2 3 4 5 6 
#
# 1 0.009674 0.001148 -0.001694 0.000000 0.001478 0.000000
# 2 0.001148 0.014302 -0.002694 0.000000 0.001429 0.000000
# 3 -0.001694 -0.002694 0.013641 0.000000 0.005581 0.000000
# 4 0.000000 0.000000 0.000000 0.032874 0.000000 -0.003885
# 5 0.001478 0.001429 0.005581 0.000000 0.028344 0.000000
# 6 0.000000 0.000000 0.000000 -0.003885 0.000000 0.054002
#
#
# Mechanical properties :
#
#
# Convention : Reuss Voigt Hill
#
# Bulk Modulus (GPa) = 32.11510 36.04162 34.07836
# Shear Modulus (GPa) = 29.46460 33.85162 31.65811
#
# Velocity S-wave (km/s) = 3.37374 3.61619 3.49706
# Velocity P-wave (km/s) = 5.25187 5.59987 5.42866
#
# Compressibility (1/GPa) = 0.03113801
#
# Stress axis : x y z
#
# Youngs Moduli (GPa) = 103.36802 69.91907 73.31027
#
# Poissons Ratio (x) = -0.08029 0.12415
# Poissons Ratio (y) = -0.11869 0.19752
# Poissons Ratio (z) = 0.17505 0.18838
#
# Static dielectric constant tensor:
#      x y z
#    x 4.785580 0.000000 -0.095410 
#    y 0.000000 4.640460 0.000000 
#    z -0.095410 0.000000 4.612640 
# 
# 
# High freq. dielectric constant tensor:
#      x y z
#    x 2.047140 0.000000 -0.004140 
#    y 0.000000 2.025600 0.000000 
#    z -0.004140 0.000000 2.040900 
# 
# From -- ./inp_files/26853.got.cif
#   From: 2010.06.25/outbox.cif.g09.slc.cpg/sg9_14_cif.got.tgz:26853.got - 2010.06.27 21:40:51.
