data_PCOD8055750
_publ_section_title
;
Structure prediction by ZEFSAII (Michael W. Deem and Ramdas Pophale) SiO2 
 PCOD8055750
Probable space group: C C
;
_chemical_formula_sum "Si O2"
_cell_formula_units_Z 32
_cell_length_a 14.329645
_cell_length_b 8.226853
_cell_length_c 11.783850
_cell_angle_alpha 90.000000
_cell_angle_beta 116.851824
_cell_angle_gamma 90.000000
_cell_volume 1239.389197
_symmetry_space_group_name_H-M "C C"
_symmetry_group_IT_number 9
_symmetry_cell_setting 'monoclinic'
loop_
_space_group_symop_operation_xyz
x,y,z
x,-y,1/2+z
1/2+x,1/2+y,z
1/2+x,1/2-y,1/2+z
loop_
_atom_site_type_symbol
_atom_site_label
_atom_site_fract_x
_atom_site_fract_y
_atom_site_fract_z
Si Si1 0.177380 0.226840 0.394740
Si Si2 0.039405 0.774555 0.453233
Si Si3 0.658729 0.076203 0.342814
Si Si4 0.842069 0.648735 0.673857
Si Si5 0.461146 0.458634 0.768577
Si Si6 0.492761 0.008596 0.088273
Si Si7 0.241226 0.152988 0.189871
Si Si8 0.363620 0.313093 0.049359
O O1 0.145378 0.410704 0.409301
O O2 0.253587 0.156244 0.529784
O O3 0.241221 0.239572 0.311448
O O4 0.078127 0.110380 0.327986
O O5 0.091856 0.717698 0.364673
O O6 0.121334 0.857614 0.582806
O O7 0.984615 0.618199 0.480660
O O8 0.954610 0.909994 0.367983
O O9 0.780319 0.127857 0.409717
O O10 0.613585 0.051046 0.189575
O O11 0.874315 0.820333 0.746782
O O12 0.946211 0.573375 0.675735
O O13 0.792385 0.525536 0.738292
O O14 0.436055 0.537431 0.631287
O O15 0.431805 0.174312 0.024292
O O16 0.307294 0.251103 0.133067
#
# Coordination Sequence:
#
# PCOD8055750 Si02
#       8
#     4   4   4   4   4   4   4   4
#     4  12  24  45  72 103 149 193 239 303 362 437
#     4  11  23  43  74 105 147 196 235 302 373 431
#     4  11  22  44  72 103 150 189 240 302 356 440
#     4  11  24  43  72 110 144 186 249 302 363 442
#     4  12  23  43  72 106 149 187 242 303 365 437
#     4  11  23  45  76 105 148 194 241 298 375 435
#     4  10  23  46  72 101 141 197 239 297 372 426
#     4  10  24  43  72 109 144 190 245 303 368 434
#
# _framework density 25.819171999999998
#
# number of rings (size 3 to 8) (size 9 to 14) (size 15 to 20)
#    0.000    1.000    6.250    0.000    1.750    0.000 
#    2.250    2.500    8.250    0.000    0.000    0.000 
#    0.000    0.000    0.000    0.000    0.000    0.000 
#
# Total GULP energy -198408.726885 kJ/mol
# GULP energy per Si atom -12400.545430 kJ/mol
# Density = 2.576041 g / cm^3
# Si number density = 25.819172 Si / 1000 Ang^3
#
#
#
# Elastic Constant Matrix: (Units=GPa)
#
#
# Indices 1 2 3 4 5 6 
#
# 1 67.7847 40.3169 42.4521 0.0000 24.8190 0.0000
# 2 40.3169 159.8494 49.2900 0.0000 28.3209 0.0000
# 3 42.4521 49.2900 97.7027 0.0000 37.6769 0.0000
# 4 0.0000 0.0000 0.0000 55.4700 0.0000 13.1196
# 5 24.8190 28.3209 37.6769 0.0000 43.3816 0.0000
# 6 0.0000 0.0000 0.0000 13.1196 0.0000 38.9733
#
#
#
# Elastic Compliance Matrix: (Units=1/GPa)
#
#
# Indices 1 2 3 4 5 6 
#
# 1 0.022280 -0.002730 -0.006127 0.000000 -0.005642 0.000000
# 2 -0.002730 0.007912 -0.002128 0.000000 -0.001754 0.000000
# 3 -0.006127 -0.002128 0.018169 0.000000 -0.010884 0.000000
# 4 0.000000 0.000000 0.000000 0.019587 0.000000 -0.006594
# 5 -0.005642 -0.001754 -0.010884 0.000000 0.036878 0.000000
# 6 0.000000 0.000000 0.000000 -0.006594 0.000000 0.027878
#
#
# Mechanical properties :
#
#
# Convention : Reuss Voigt Hill
#
# Bulk Modulus (GPa) = 37.89626 65.49499 51.69562
# Shear Modulus (GPa) = 30.58632 40.45017 35.51825
#
# Velocity S-wave (km/s) = 3.44559 3.96241 3.71300
# Velocity P-wave (km/s) = 5.52620 6.80854 6.20061
#
# Compressibility (1/GPa) = 0.02638783
#
# Stress axis : x y z
#
# Youngs Moduli (GPa) = 44.88346 126.39551 55.03994
#
# Poissons Ratio (x) = 0.34510 0.33725
# Poissons Ratio (y) = 0.12255 0.11715
# Poissons Ratio (z) = 0.27502 0.26903
#
# Static dielectric constant tensor:
#      x y z
#    x 4.353090 0.000000 0.405390 
#    y 0.000000 4.901060 0.000000 
#    z 0.405390 0.000000 4.569150 
# 
# 
# High freq. dielectric constant tensor:
#      x y z
#    x 2.009210 0.000000 0.030210 
#    y 0.000000 2.045380 0.000000 
#    z 0.030210 0.000000 2.036240 
# 
# From -- ./inp_files/17987.got.cif
#   From: 2010.06.25/outbox.cif.g09.slc.cpg/sg9_9_cif.got.tgz:17987.got - 2010.06.27 21:40:51.
