data_PCOD8055573
_publ_section_title
;
Structure prediction by ZEFSAII (Michael W. Deem and Ramdas Pophale) SiO2 
 PCOD8055573
Probable space group: C C
;
_chemical_formula_sum "Si O2"
_cell_formula_units_Z 28
_cell_length_a 8.547377
_cell_length_b 27.740894
_cell_length_c 8.455420
_cell_angle_alpha 90.000000
_cell_angle_beta 35.466862
_cell_angle_gamma 90.000000
_cell_volume 1163.295840
_symmetry_space_group_name_H-M "C C"
_symmetry_group_IT_number 9
_symmetry_cell_setting 'monoclinic'
loop_
_space_group_symop_operation_xyz
x,y,z
x,-y,1/2+z
1/2+x,1/2+y,z
1/2+x,1/2-y,1/2+z
loop_
_atom_site_type_symbol
_atom_site_label
_atom_site_fract_x
_atom_site_fract_y
_atom_site_fract_z
Si Si1 0.194910 0.626506 0.785540
Si Si2 0.840287 0.066131 0.200449
Si Si3 0.877109 0.625913 0.731030
Si Si4 0.215504 0.269697 0.381292
Si Si5 0.733306 0.566581 0.315742
Si Si6 0.336295 0.228119 0.630964
Si Si7 0.037608 0.013198 0.757099
O O1 0.037119 0.641715 0.756609
O O2 0.271832 0.673381 0.825757
O O3 0.465082 0.598952 0.510572
O O4 0.007300 0.594539 0.053361
O O5 0.108824 0.098257 0.007716
O O6 0.840771 0.047874 0.019615
O O7 0.565416 0.093714 0.463661
O O8 0.844695 0.019110 0.307603
O O9 0.794785 0.671444 0.691526
O O10 0.255907 0.245560 0.521142
O O11 0.903561 0.257960 0.598835
O O12 0.735828 0.547680 0.493457
O O13 0.727905 0.519927 0.207723
O O14 0.643564 0.243397 0.412458
#
# Coordination Sequence:
#
# PCOD8055573 Si02
#       7
#     4   4   4   4   4   4   4
#     4  12  24  43  67  97 135 174 220 271 332 393
#     4  11  25  43  68  99 136 176 223 268 328 383
#     4  12  24  43  67  97 135 174 220 271 332 393
#     4  10  23  42  65  92 128 166 215 272 327 393
#     4  11  25  43  68  99 136 176 223 268 328 383
#     4  10  23  42  65  92 128 166 215 272 327 393
#     4  10  24  44  68  98 136 178 222 274 320 388
#
# _framework density 24.069545999999999
#
# number of rings (size 3 to 8) (size 9 to 14) (size 15 to 20)
#    0.000    1.143    2.857    1.714    0.000   16.000 
#    0.000    0.000    0.000    0.000    0.000    0.000 
#    0.000    0.000    0.000    0.000    0.000    0.000 
#
# Total GULP energy -173580.233115 kJ/mol
# GULP energy per Si atom -12398.588080 kJ/mol
# Density = 2.401476 g / cm^3
# Si number density = 24.069546 Si / 1000 Ang^3
#
#
#
# Elastic Constant Matrix: (Units=GPa)
#
#
# Indices 1 2 3 4 5 6 
#
# 1 54.5337 26.7613 16.1383 0.0000 19.4306 0.0000
# 2 26.7613 120.9923 33.9185 0.0000 12.6556 0.0000
# 3 16.1383 33.9185 138.5802 0.0000 -11.8872 0.0000
# 4 0.0000 0.0000 0.0000 31.6039 0.0000 11.9093
# 5 19.4306 12.6556 -11.8872 0.0000 42.2860 0.0000
# 6 0.0000 0.0000 0.0000 11.9093 0.0000 33.5355
#
#
#
# Elastic Compliance Matrix: (Units=1/GPa)
#
#
# Indices 1 2 3 4 5 6 
#
# 1 0.024963 -0.003496 -0.003018 0.000000 -0.011273 0.000000
# 2 -0.003496 0.009851 -0.002171 0.000000 -0.001952 0.000000
# 3 -0.003018 -0.002171 0.008478 0.000000 0.004420 0.000000
# 4 0.000000 0.000000 0.000000 0.036530 0.000000 -0.012973
# 5 -0.011273 -0.001952 0.004420 0.000000 0.030655 0.000000
# 6 0.000000 0.000000 0.000000 -0.012973 0.000000 0.034426
#
#
# Mechanical properties :
#
#
# Convention : Reuss Voigt Hill
#
# Bulk Modulus (GPa) = 38.57974 51.97138 45.27556
# Shear Modulus (GPa) = 29.25428 37.30427 33.27928
#
# Velocity S-wave (km/s) = 3.49005 3.94109 3.72241
# Velocity P-wave (km/s) = 5.68365 6.50758 6.10952
#
# Compressibility (1/GPa) = 0.02592034
#
# Stress axis : x y z
#
# Youngs Moduli (GPa) = 40.05999 101.51043 117.94993
#
# Poissons Ratio (x) = 0.35488 0.35600
# Poissons Ratio (y) = 0.14005 0.25613
# Poissons Ratio (z) = 0.12091 0.22043
#
# Static dielectric constant tensor:
#      x y z
#    x 4.476120 0.000000 -0.825700 
#    y 0.000000 4.360960 0.000000 
#    z -0.825700 0.000000 6.410230 
# 
# 
# High freq. dielectric constant tensor:
#      x y z
#    x 1.934990 0.000000 -0.002520 
#    y 0.000000 1.958590 0.000000 
#    z -0.002520 0.000000 1.982100 
# 
# From -- ./inp_files/2027.got.cif
#   From: 2010.06.25/outbox.cif.g09.slc.cpg/sg9_2_cif.got.tgz:2027.got - 2010.06.27 21:40:51.
