data_PCOD8055766
_publ_section_title
;
Structure prediction by ZEFSAII (Michael W. Deem and Ramdas Pophale) SiO2 
 PCOD8055766
Probable space group: C C
;
_chemical_formula_sum "Si O2"
_cell_formula_units_Z 32
_cell_length_a 27.244137
_cell_length_b 10.877627
_cell_length_c 15.062680
_cell_angle_alpha 90.000000
_cell_angle_beta 163.062582
_cell_angle_gamma 90.000000
_cell_volume 1300.439634
_symmetry_space_group_name_H-M "C C"
_symmetry_group_IT_number 9
_symmetry_cell_setting 'monoclinic'
loop_
_space_group_symop_operation_xyz
x,y,z
x,-y,1/2+z
1/2+x,1/2+y,z
1/2+x,1/2-y,1/2+z
loop_
_atom_site_type_symbol
_atom_site_label
_atom_site_fract_x
_atom_site_fract_y
_atom_site_fract_z
Si Si1 0.476780 0.401843 0.825260
Si Si2 0.182235 0.537115 0.234874
Si Si3 0.417749 0.907531 0.050294
Si Si4 0.560886 0.873611 0.875457
Si Si5 0.588943 0.672164 0.054986
Si Si6 0.538871 0.762276 0.599482
Si Si7 0.215796 0.725234 0.149037
Si Si8 0.824665 0.262655 0.724875
O O1 0.297775 0.424402 0.468309
O O2 0.532603 0.534178 0.951700
O O3 0.466931 0.316059 0.893936
O O4 0.605938 0.346023 0.978332
O O5 0.083203 0.598502 0.145816
O O6 0.266413 0.649908 0.325782
O O7 0.061506 0.470059 0.957371
O O8 0.607990 0.858279 0.394073
O O9 0.422475 0.057396 0.072757
O O10 0.293964 0.833579 0.905786
O O11 0.352874 0.879040 0.838460
O O12 0.509926 0.744467 0.832851
O O13 0.736095 0.851547 0.124593
O O14 0.510275 0.724816 0.010139
O O15 0.393220 0.770136 0.419579
O O16 0.702583 0.701659 0.930938
#
# Coordination Sequence:
#
# PCOD8055766 Si02
#       8
#     4   4   4   4   4   4   4   4
#     4  11  24  44  74 103 148 191 236 311 369 434
#     4  10  23  47  75 103 145 195 238 315 362 435
#     4  10  25  46  74 104 145 193 241 306 365 441
#     4  10  25  47  71 105 144 187 245 299 373 436
#     4  11  25  43  72 104 147 191 239 298 377 437
#     4  11  26  45  77 111 145 196 256 300 371 447
#     4  10  25  47  74 108 145 190 252 298 373 443
#     4  11  25  45  71 108 147 191 247 305 364 445
#
# _framework density 24.607064999999999
#
# number of rings (size 3 to 8) (size 9 to 14) (size 15 to 20)
#    0.000    1.500    1.250    1.500   10.500    5.000 
#    2.250    0.000    2.750    0.000    0.000    0.000 
#    0.000    0.000    0.000    0.000    0.000    0.000 
#
# Total GULP energy -198244.049049 kJ/mol
# GULP energy per Si atom -12390.253066 kJ/mol
# Density = 2.455106 g / cm^3
# Si number density = 24.607065 Si / 1000 Ang^3
#
#
#
# Elastic Constant Matrix: (Units=GPa)
#
#
# Indices 1 2 3 4 5 6 
#
# 1 81.3877 20.9538 22.5240 0.0000 13.1451 0.0000
# 2 20.9538 72.6497 16.2931 0.0000 10.1296 0.0000
# 3 22.5240 16.2931 79.2035 0.0000 7.5563 0.0000
# 4 0.0000 0.0000 0.0000 48.0948 0.0000 -16.0747
# 5 13.1451 10.1296 7.5563 0.0000 42.2294 0.0000
# 6 0.0000 0.0000 0.0000 -16.0747 0.0000 35.3977
#
#
#
# Elastic Compliance Matrix: (Units=1/GPa)
#
#
# Indices 1 2 3 4 5 6 
#
# 1 0.014462 -0.003009 -0.003188 0.000000 -0.003210 0.000000
# 2 -0.003009 0.015435 -0.002091 0.000000 -0.002392 0.000000
# 3 -0.003188 -0.002091 0.014060 0.000000 -0.001022 0.000000
# 4 0.000000 0.000000 0.000000 0.024513 0.000000 0.011132
# 5 -0.003210 -0.002392 -0.001022 0.000000 0.025436 0.000000
# 6 0.000000 0.000000 0.000000 0.011132 0.000000 0.033305
#
#
# Mechanical properties :
#
#
# Convention : Reuss Voigt Hill
#
# Bulk Modulus (GPa) = 36.52101 39.19807 37.85954
# Shear Modulus (GPa) = 32.69819 36.70904 34.70362
#
# Velocity S-wave (km/s) = 3.64924 3.86658 3.75948
# Velocity P-wave (km/s) = 5.71226 5.99151 5.85355
#
# Compressibility (1/GPa) = 0.02738150
#
# Stress axis : x y z
#
# Youngs Moduli (GPa) = 69.14641 64.78795 71.12418
#
# Poissons Ratio (x) = 0.19493 0.22672
# Poissons Ratio (y) = 0.20805 0.14875
# Poissons Ratio (z) = 0.22041 0.13549
#
# Static dielectric constant tensor:
#      x y z
#    x 4.591250 0.000000 -0.064890 
#    y 0.000000 4.881830 0.000000 
#    z -0.064890 0.000000 5.475370 
# 
# 
# High freq. dielectric constant tensor:
#      x y z
#    x 1.982060 0.000000 -0.003350 
#    y 0.000000 1.986490 0.000000 
#    z -0.003350 0.000000 1.971930 
# 
# From -- ./inp_files/28107.got.cif
#   From: 2010.06.25/outbox.cif.g09.slc.cpg/sg9_15_cif.got.tgz:28107.got - 2010.06.27 21:40:51.
