data_PCOD8055586
_publ_section_title
;
Structure prediction by ZEFSAII (Michael W. Deem and Ramdas Pophale) SiO2 
 PCOD8055586
Probable space group: C C
;
_chemical_formula_sum "Si O2"
_cell_formula_units_Z 32
_cell_length_a 11.008148
_cell_length_b 8.487624
_cell_length_c 14.760363
_cell_angle_alpha 90.000000
_cell_angle_beta 86.262446
_cell_angle_gamma 90.000000
_cell_volume 1376.172099
_symmetry_space_group_name_H-M "C C"
_symmetry_group_IT_number 9
_symmetry_cell_setting 'monoclinic'
loop_
_space_group_symop_operation_xyz
x,y,z
x,-y,1/2+z
1/2+x,1/2+y,z
1/2+x,1/2-y,1/2+z
loop_
_atom_site_type_symbol
_atom_site_label
_atom_site_fract_x
_atom_site_fract_y
_atom_site_fract_z
Si Si1 0.555240 0.723863 0.957210
Si Si2 0.499782 0.624203 0.490156
Si Si3 0.318375 0.478314 0.233370
Si Si4 0.665357 0.846891 0.384889
Si Si5 0.462622 0.930921 0.822378
Si Si6 0.051408 0.808747 0.180319
Si Si7 0.235798 0.560280 0.536443
Si Si8 0.756829 0.684794 0.798629
O O1 0.508253 0.563249 0.003416
O O2 0.442628 0.806004 0.906853
O O3 0.659906 0.680180 0.882137
O O4 0.614372 0.832564 0.032576
O O5 0.578903 0.692091 0.401646
O O6 0.557558 0.715124 0.572710
O O7 0.354503 0.659617 0.494223
O O8 0.268666 0.333263 0.300622
O O9 0.459806 0.450876 0.207781
O O10 0.245752 0.485776 0.141720
O O11 0.316724 0.642759 0.287841
O O12 0.585321 0.986674 0.348655
O O13 0.723605 0.902223 0.477142
O O14 0.497167 0.850996 0.725837
O O15 0.352597 0.049031 0.814992
O O16 0.185796 0.853414 0.208761
#
# Coordination Sequence:
#
# PCOD8055586 Si02
#       8
#     4   4   4   4   4   4   4   4
#     4  10  23  43  64  97 133 174 230 276 335 411
#     4  11  25  43  67  99 133 182 226 282 340 408
#     4  11  23  44  69 101 135 181 223 283 344 407
#     4  11  23  42  73  97 133 183 218 279 348 398
#     4  10  23  42  67  96 133 178 217 284 337 404
#     4  10  24  44  65 100 139 171 230 277 338 418
#     4  10  23  46  65  95 145 167 227 286 333 408
#     4  11  22  44  68  97 137 174 227 281 331 412
#
# _framework density 23.252904000000001
#
# number of rings (size 3 to 8) (size 9 to 14) (size 15 to 20)
#    0.000    1.500    3.750    1.500    5.250    2.000 
#    6.750    0.000    0.000    0.000    0.000    0.000 
#    0.000    0.000    0.000    0.000    0.000    0.000 
#
# Total GULP energy -198319.651449 kJ/mol
# GULP energy per Si atom -12394.978216 kJ/mol
# Density = 2.319998 g / cm^3
# Si number density = 23.252904 Si / 1000 Ang^3
#
#
#
# Elastic Constant Matrix: (Units=GPa)
#
#
# Indices 1 2 3 4 5 6 
#
# 1 77.2209 29.2625 27.0545 0.0000 10.1128 0.0000
# 2 29.2625 92.2616 34.2852 0.0000 3.8065 0.0000
# 3 27.0545 34.2852 85.0321 0.0000 1.3385 0.0000
# 4 0.0000 0.0000 0.0000 33.2350 0.0000 0.6872
# 5 10.1128 3.8065 1.3385 0.0000 32.1498 0.0000
# 6 0.0000 0.0000 0.0000 0.6872 0.0000 38.7904
#
#
#
# Elastic Compliance Matrix: (Units=1/GPa)
#
#
# Indices 1 2 3 4 5 6 
#
# 1 0.016173 -0.003597 -0.003625 0.000000 -0.004511 0.000000
# 2 -0.003597 0.013603 -0.004336 0.000000 -0.000299 0.000000
# 3 -0.003625 -0.004336 0.014645 0.000000 0.001044 0.000000
# 4 0.000000 0.000000 0.000000 0.030100 0.000000 -0.000533
# 5 -0.004511 -0.000299 0.001044 0.000000 0.032515 0.000000
# 6 0.000000 0.000000 0.000000 -0.000533 0.000000 0.025789
#
#
# Mechanical properties :
#
#
# Convention : Reuss Voigt Hill
#
# Bulk Modulus (GPa) = 46.93164 48.41320 47.67242
# Shear Modulus (GPa) = 30.66691 31.76255 31.21473
#
# Velocity S-wave (km/s) = 3.63553 3.69990 3.66785
# Velocity P-wave (km/s) = 6.15221 6.25442 6.20353
#
# Compressibility (1/GPa) = 0.02130758
#
# Stress axis : x y z
#
# Youngs Moduli (GPa) = 61.82988 73.51314 68.28146
#
# Poissons Ratio (x) = 0.26440 0.24750
# Poissons Ratio (y) = 0.22238 0.29605
# Poissons Ratio (z) = 0.22411 0.31873
#
# Static dielectric constant tensor:
#      x y z
#    x 4.384700 0.000000 0.284010 
#    y 0.000000 4.070190 0.000000 
#    z 0.284010 0.000000 4.270780 
# 
# 
# High freq. dielectric constant tensor:
#      x y z
#    x 1.926470 0.000000 0.014140 
#    y 0.000000 1.906520 0.000000 
#    z 0.014140 0.000000 1.918740 
# 
# From -- ./inp_files/24378.got.cif
#   From: 2010.06.25/outbox.cif.g09.slc.cpg/sg9_13_cif.got.tgz:24378.got - 2010.06.27 21:40:51.
