data_PCOD8055657
_publ_section_title
;
Structure prediction by ZEFSAII (Michael W. Deem and Ramdas Pophale) SiO2 
 PCOD8055657
Probable space group: C C
;
_chemical_formula_sum "Si O2"
_cell_formula_units_Z 24
_cell_length_a 5.229806
_cell_length_b 17.853911
_cell_length_c 11.262042
_cell_angle_alpha 90.000000
_cell_angle_beta 103.523289
_cell_angle_gamma 90.000000
_cell_volume 1022.410226
_symmetry_space_group_name_H-M "C C"
_symmetry_group_IT_number 9
_symmetry_cell_setting 'monoclinic'
loop_
_space_group_symop_operation_xyz
x,y,z
x,-y,1/2+z
1/2+x,1/2+y,z
1/2+x,1/2-y,1/2+z
loop_
_atom_site_type_symbol
_atom_site_label
_atom_site_fract_x
_atom_site_fract_y
_atom_site_fract_z
Si Si1 0.362730 0.983138 0.247690
Si Si2 0.398567 0.463842 0.853164
Si Si3 0.056657 0.718102 0.940221
Si Si4 0.961153 0.777567 0.282729
Si Si5 0.083306 0.866163 0.079153
Si Si6 0.535382 0.872187 0.669241
O O1 0.652013 0.979091 0.338394
O O2 0.343067 0.055631 0.158012
O O3 0.148216 0.991233 0.329595
O O4 0.329836 0.907188 0.168677
O O5 0.319190 0.395287 0.756110
O O6 0.437144 0.430240 0.988660
O O7 0.164428 0.797020 0.004264
O O8 0.077575 0.652623 0.039136
O O9 0.256974 0.696761 0.859012
O O10 0.760474 0.720321 0.861014
O O11 0.906164 0.833255 0.166299
O O12 0.902947 0.693562 0.232526
#
# Coordination Sequence:
#
# PCOD8055657 Si02
#       6
#     4   4   4   4   4   4
#     4  10  24  42  67 101 136 187 235 271 368 414
#     4  10  23  44  68  97 139 183 226 291 352 418
#     4  11  24  42  71 101 144 174 244 294 347 422
#     4  11  25  42  71 106 133 189 235 290 360 419
#     4  11  25  47  74 105 144 190 234 302 352 429
#     4   9  23  43  67  94 140 181 228 288 353 408
#
# _framework density 23.473941
#
# number of rings (size 3 to 8) (size 9 to 14) (size 15 to 20)
#    1.000    0.667    1.667    1.000    2.333   10.667 
#    3.000    0.000    0.000    0.000    0.000    0.000 
#    0.000    0.000    0.000    0.000    0.000    0.000 
#
# Total GULP energy -148719.529371 kJ/mol
# GULP energy per Si atom -12393.294114 kJ/mol
# Density = 2.342051 g / cm^3
# Si number density = 23.473941 Si / 1000 Ang^3
#
#
#
# Elastic Constant Matrix: (Units=GPa)
#
#
# Indices 1 2 3 4 5 6 
#
# 1 138.3342 23.5061 42.0893 0.0000 -24.5708 0.0000
# 2 23.5061 70.4810 35.1477 0.0000 2.2879 0.0000
# 3 42.0893 35.1477 110.9394 0.0000 -22.9959 0.0000
# 4 0.0000 0.0000 0.0000 11.4934 0.0000 4.3801
# 5 -24.5708 2.2879 -22.9959 0.0000 22.6916 0.0000
# 6 0.0000 0.0000 0.0000 4.3801 0.0000 17.2856
#
#
#
# Elastic Compliance Matrix: (Units=1/GPa)
#
#
# Indices 1 2 3 4 5 6 
#
# 1 0.009808 -0.003370 -0.000483 0.000000 0.010471 0.000000
# 2 -0.003370 0.019597 -0.007717 0.000000 -0.013446 0.000000
# 3 -0.000483 -0.007717 0.014805 0.000000 0.015259 0.000000
# 4 0.000000 0.000000 0.000000 0.096307 0.000000 -0.024404
# 5 0.010471 -0.013446 0.015259 0.000000 0.072226 0.000000
# 6 0.000000 0.000000 0.000000 -0.024404 0.000000 0.064035
#
#
# Mechanical properties :
#
#
# Convention : Reuss Voigt Hill
#
# Bulk Modulus (GPa) = 47.46175 57.91566 52.68870
# Shear Modulus (GPa) = 16.28970 24.89489 20.59229
#
# Velocity S-wave (km/s) = 2.63715 3.26012 2.96504
# Velocity P-wave (km/s) = 5.43466 6.23675 5.84947
#
# Compressibility (1/GPa) = 0.02106960
#
# Stress axis : x y z
#
# Youngs Moduli (GPa) = 101.95413 51.02786 67.54476
#
# Poissons Ratio (x) = 0.17197 0.03262
# Poissons Ratio (y) = 0.34361 0.52126
# Poissons Ratio (z) = 0.04924 0.39379
#
# Static dielectric constant tensor:
#      x y z
#    x 3.938490 0.000000 0.073190 
#    y 0.000000 4.296070 0.000000 
#    z 0.073190 0.000000 4.274110 
# 
# 
# High freq. dielectric constant tensor:
#      x y z
#    x 1.905340 0.000000 -0.000690 
#    y 0.000000 1.939130 0.000000 
#    z -0.000690 0.000000 1.934090 
# 
# From -- ./inp_files/13028.got.cif
#   From: 2010.06.25/outbox.cif.g09.slc.cpg/sg9_7_cif.got.tgz:13028.got - 2010.06.27 21:40:51.
