data_PCOD8055664
_publ_section_title
;
Structure prediction by ZEFSAII (Michael W. Deem and Ramdas Pophale) SiO2 
 PCOD8055664
Probable space group: C C
;
_chemical_formula_sum "Si O2"
_cell_formula_units_Z 28
_cell_length_a 12.420893
_cell_length_b 14.312827
_cell_length_c 8.877092
_cell_angle_alpha 90.000000
_cell_angle_beta 53.093323
_cell_angle_gamma 90.000000
_cell_volume 1261.913898
_symmetry_space_group_name_H-M "C C"
_symmetry_group_IT_number 9
_symmetry_cell_setting 'monoclinic'
loop_
_space_group_symop_operation_xyz
x,y,z
x,-y,1/2+z
1/2+x,1/2+y,z
1/2+x,1/2-y,1/2+z
loop_
_atom_site_type_symbol
_atom_site_label
_atom_site_fract_x
_atom_site_fract_y
_atom_site_fract_z
Si Si1 0.301980 0.443713 0.966470
Si Si2 0.337653 0.925416 0.332879
Si Si3 0.886369 0.729968 0.563621
Si Si4 0.062200 0.164481 0.147176
Si Si5 0.574555 0.158277 0.825281
Si Si6 0.470071 0.118361 0.233907
Si Si7 0.219630 0.596268 0.216924
O O1 0.441591 0.395156 0.817252
O O2 0.213616 0.448176 0.888595
O O3 0.211592 0.395523 0.171297
O O4 0.329833 0.546067 0.014820
O O5 0.360050 0.871192 0.158247
O O6 0.184752 0.906062 0.513992
O O7 0.439627 0.884109 0.368598
O O8 0.362613 0.036280 0.285957
O O9 0.904139 0.709054 0.370783
O O10 0.755534 0.794520 0.697349
O O11 0.014465 0.780906 0.535682
O O12 0.102068 0.237297 0.242999
O O13 0.551666 0.157083 0.023082
O O14 0.573828 0.077183 0.269997
#
# Coordination Sequence:
#
# PCOD8055664 Si02
#       7
#     4   4   4   4   4   4   4
#     4  11  23  43  70  97 131 185 231 281 343 413
#     4  11  22  43  68  99 134 183 223 281 347 414
#     4  10  23  44  69  97 138 181 228 280 351 410
#     4  10  23  45  68  95 139 184 227 281 355 409
#     4  11  22  39  69  99 134 176 232 279 345 412
#     4  12  24  40  69 104 134 176 232 291 336 414
#     4  11  23  42  69  97 134 181 235 275 341 416
#
# _framework density 22.18852
#
# number of rings (size 3 to 8) (size 9 to 14) (size 15 to 20)
#    0.000    1.143    1.429    6.857    0.000    3.429 
#   12.857    0.000    0.000    0.000    0.000    0.000 
#    0.000    0.000    0.000    0.000    0.000    0.000 
#
# Total GULP energy -173568.543882 kJ/mol
# GULP energy per Si atom -12397.753134 kJ/mol
# Density = 2.213802 g / cm^3
# Si number density = 22.188520 Si / 1000 Ang^3
#
#
#
# Elastic Constant Matrix: (Units=GPa)
#
#
# Indices 1 2 3 4 5 6 
#
# 1 63.0010 25.8881 42.0215 0.0000 -14.2354 0.0000
# 2 25.8881 97.6508 39.6037 0.0000 2.3798 0.0000
# 3 42.0215 39.6037 146.6887 0.0000 2.9795 0.0000
# 4 0.0000 0.0000 0.0000 35.0823 0.0000 0.3556
# 5 -14.2354 2.3798 2.9795 0.0000 41.9923 0.0000
# 6 0.0000 0.0000 0.0000 0.3556 0.0000 29.0736
#
#
#
# Elastic Compliance Matrix: (Units=1/GPa)
#
#
# Indices 1 2 3 4 5 6 
#
# 1 0.023307 -0.004052 -0.005756 0.000000 0.008539 0.000000
# 2 -0.004052 0.012212 -0.002097 0.000000 -0.001917 0.000000
# 3 -0.005756 -0.002097 0.009083 0.000000 -0.002477 0.000000
# 4 0.000000 0.000000 0.000000 0.028508 0.000000 -0.000349
# 5 0.008539 -0.001917 -0.002477 0.000000 0.026993 0.000000
# 6 0.000000 0.000000 0.000000 -0.000349 0.000000 0.034400
#
#
# Mechanical properties :
#
#
# Convention : Reuss Voigt Hill
#
# Bulk Modulus (GPa) = 48.09991 58.04078 53.07035
# Shear Modulus (GPa) = 30.25839 34.55144 32.40491
#
# Velocity S-wave (km/s) = 3.69683 3.95039 3.82571
# Velocity P-wave (km/s) = 6.32036 6.85728 6.59429
#
# Compressibility (1/GPa) = 0.02079006
#
# Stress axis : x y z
#
# Youngs Moduli (GPa) = 42.90637 81.88515 110.10098
#
# Poissons Ratio (x) = 0.33184 0.63373
# Poissons Ratio (y) = 0.17388 0.23091
# Poissons Ratio (z) = 0.24696 0.17174
#
# Static dielectric constant tensor:
#      x y z
#    x 3.872820 0.000000 0.163520 
#    y 0.000000 4.235400 0.000000 
#    z 0.163520 0.000000 4.148360 
# 
# 
# High freq. dielectric constant tensor:
#      x y z
#    x 1.856280 0.000000 0.002410 
#    y 0.000000 1.873610 0.000000 
#    z 0.002410 0.000000 1.884340 
# 
# From -- ./inp_files/7323.got.cif
#   From: 2010.06.25/outbox.cif.g09.slc.cpg/sg9_4_cif.got.tgz:7323.got - 2010.06.27 21:40:51.
