data_PCOD8055259
_publ_section_title
;
Structure prediction by ZEFSAII (Michael W. Deem and Ramdas Pophale) SiO2 
 PCOD8055259
Probable space group: C C
;
_chemical_formula_sum "Si O2"
_cell_formula_units_Z 28
_cell_length_a 5.085103
_cell_length_b 14.289019
_cell_length_c 19.428091
_cell_angle_alpha 90.000000
_cell_angle_beta 74.759658
_cell_angle_gamma 90.000000
_cell_volume 1362.021105
_symmetry_space_group_name_H-M "C C"
_symmetry_group_IT_number 9
_symmetry_cell_setting 'monoclinic'
loop_
_space_group_symop_operation_xyz
x,y,z
x,-y,1/2+z
1/2+x,1/2+y,z
1/2+x,1/2-y,1/2+z
loop_
_atom_site_type_symbol
_atom_site_label
_atom_site_fract_x
_atom_site_fract_y
_atom_site_fract_z
Si Si1 0.563740 0.065832 0.130180
Si Si2 0.792515 0.988723 0.477638
Si Si3 0.505957 0.537180 0.686680
Si Si4 0.144336 0.228004 0.607254
Si Si5 0.235641 0.410069 0.342495
Si Si6 0.673313 0.343015 0.402277
Si Si7 0.747244 0.199589 0.514771
O O1 0.589874 0.174468 0.150994
O O2 0.823271 0.012520 0.142562
O O3 0.287717 0.018586 0.175889
O O4 0.581614 0.057562 0.046158
O O5 0.843349 0.094922 0.493824
O O6 0.669821 0.983366 0.408867
O O7 0.076056 0.928742 0.459081
O O8 0.534872 0.644782 0.662193
O O9 0.360438 0.533942 0.770348
O O10 0.462148 0.207403 0.574063
O O11 0.987209 0.239972 0.545677
O O12 0.443564 0.330520 0.358443
O O13 0.950011 0.364142 0.341415
O O14 0.723171 0.251471 0.443851
#
# Coordination Sequence:
#
# PCOD8055259 Si02
#       7
#     4   4   4   4   4   4   4
#     4  12  24  42  71  94 132 170 221 274 324 382
#     4  10  23  39  68  92 125 169 217 272 317 380
#     4  12  25  46  63  98 135 179 210 274 334 393
#     4  12  24  40  66  99 128 167 219 269 334 386
#     4  10  24  44  64  88 140 170 216 266 331 389
#     4  10  22  41  62  91 128 165 213 273 314 387
#     4  12  22  38  68  98 124 162 222 272 326 381
#
# _framework density 20.557683000000001
#
# number of rings (size 3 to 8) (size 9 to 14) (size 15 to 20)
#    0.857    0.000    4.286    3.429    4.000    0.000 
#    5.143    0.000    0.000    0.000    0.000    0.000 
#    0.000    0.000    0.000    0.000    0.000    0.000 
#
# Total GULP energy -173545.588124 kJ/mol
# GULP energy per Si atom -12396.113437 kJ/mol
# Density = 2.051089 g / cm^3
# Si number density = 20.557683 Si / 1000 Ang^3
#
#
#
# Elastic Constant Matrix: (Units=GPa)
#
#
# Indices 1 2 3 4 5 6 
#
# 1 85.0184 21.6448 -0.5923 0.0000 -14.3235 0.0000
# 2 21.6448 135.2788 20.2874 0.0000 -8.4361 0.0000
# 3 -0.5923 20.2874 74.5659 0.0000 -5.0282 0.0000
# 4 0.0000 0.0000 0.0000 19.3739 0.0000 2.7143
# 5 -14.3235 -8.4361 -5.0282 0.0000 26.3423 0.0000
# 6 0.0000 0.0000 0.0000 2.7143 0.0000 24.1775
#
#
#
# Elastic Compliance Matrix: (Units=1/GPa)
#
#
# Indices 1 2 3 4 5 6 
#
# 1 0.013410 -0.001878 0.001083 0.000000 0.006897 0.000000
# 2 -0.001878 0.008085 -0.002136 0.000000 0.001160 0.000000
# 3 0.001083 -0.002136 0.014177 0.000000 0.002610 0.000000
# 4 0.000000 0.000000 0.000000 0.052441 0.000000 -0.005887
# 5 0.006897 0.001160 0.002610 0.000000 0.042582 0.000000
# 6 0.000000 0.000000 0.000000 -0.005887 0.000000 0.042022
#
#
# Mechanical properties :
#
#
# Convention : Reuss Voigt Hill
#
# Bulk Modulus (GPa) = 33.54769 41.94922 37.74846
# Shear Modulus (GPa) = 26.52299 30.88029 28.70164
#
# Velocity S-wave (km/s) = 3.59580 3.87994 3.74056
# Velocity P-wave (km/s) = 5.79602 6.36567 6.08752
#
# Compressibility (1/GPa) = 0.02980831
#
# Stress axis : x y z
#
# Youngs Moduli (GPa) = 74.57295 123.68015 70.53743
#
# Poissons Ratio (x) = 0.23225 -0.07636
# Poissons Ratio (y) = 0.14004 0.15070
# Poissons Ratio (z) = -0.08073 0.26424
#
# Static dielectric constant tensor:
#      x y z
#    x 3.780130 0.000000 -0.040080 
#    y 0.000000 3.710020 0.000000 
#    z -0.040080 0.000000 3.538360 
# 
# 
# High freq. dielectric constant tensor:
#      x y z
#    x 1.814810 0.000000 -0.005930 
#    y 0.000000 1.797500 0.000000 
#    z -0.005930 0.000000 1.791990 
# 
# From -- ./inp_files/28516.got.cif
#   From: 2010.06.25/outbox.cif.g09.slc.cpg/sg9_15_cif.got.tgz:28516.got - 2010.06.27 21:40:51.
