data_PCOD8055482
_publ_section_title
;
Structure prediction by ZEFSAII (Michael W. Deem and Ramdas Pophale) SiO2 
 PCOD8055482
Probable space group: C C
;
_chemical_formula_sum "Si O2"
_cell_formula_units_Z 28
_cell_length_a 26.994505
_cell_length_b 5.530212
_cell_length_c 9.091736
_cell_angle_alpha 90.000000
_cell_angle_beta 57.832157
_cell_angle_gamma 90.000000
_cell_volume 1148.912298
_symmetry_space_group_name_H-M "C C"
_symmetry_group_IT_number 9
_symmetry_cell_setting 'monoclinic'
loop_
_space_group_symop_operation_xyz
x,y,z
x,-y,1/2+z
1/2+x,1/2+y,z
1/2+x,1/2-y,1/2+z
loop_
_atom_site_type_symbol
_atom_site_label
_atom_site_fract_x
_atom_site_fract_y
_atom_site_fract_z
Si Si1 0.228890 0.920442 0.675610
Si Si2 0.031996 0.847930 0.969388
Si Si3 0.641290 0.912650 0.170911
Si Si4 0.954268 0.024865 0.835622
Si Si5 0.876112 0.163651 0.217312
Si Si6 0.123669 0.796350 0.400497
Si Si7 0.304394 0.164112 0.329692
O O1 0.203090 0.719202 0.604492
O O2 0.274232 0.804210 0.718433
O O3 0.173314 0.007332 0.860236
O O4 0.258716 0.138416 0.536115
O O5 0.086745 0.673410 0.859388
O O6 0.058647 0.105369 0.979537
O O7 0.997282 0.872283 0.872192
O O8 0.988960 0.782497 0.174558
O O9 0.646492 0.190424 0.208514
O O10 0.623948 0.900814 0.028929
O O11 0.921495 0.832707 0.781465
O O12 0.909067 0.172073 0.008533
O O13 0.839158 0.408663 0.281117
O O14 0.841136 0.909424 0.291830
#
# Coordination Sequence:
#
# PCOD8055482 Si02
#       7
#     4   4   4   4   4   4   4
#     4  11  26  41  70  98 144 185 233 287 363 421
#     4  10  22  46  66  98 144 174 235 284 363 417
#     4  11  25  42  66 106 139 184 234 292 349 447
#     4  10  22  47  68  96 136 185 231 304 349 422
#     4  11  26  47  70 104 138 183 250 292 353 415
#     4  11  25  42  66 106 139 184 234 292 349 447
#     4  12  26  47  72 102 142 189 235 301 350 421
#
# _framework density 24.370878000000001
#
# number of rings (size 3 to 8) (size 9 to 14) (size 15 to 20)
#    0.000    1.143    2.857    1.714    8.000    0.000 
#   15.429    0.000    0.000    0.000    0.000    0.000 
#    0.000    0.000    0.000    0.000    0.000    0.000 
#
# Total GULP energy -173480.775746 kJ/mol
# GULP energy per Si atom -12391.483982 kJ/mol
# Density = 2.431541 g / cm^3
# Si number density = 24.370878 Si / 1000 Ang^3
#
#
#
# Elastic Constant Matrix: (Units=GPa)
#
#
# Indices 1 2 3 4 5 6 
#
# 1 146.3591 36.0076 40.9124 0.0000 11.1030 0.0000
# 2 36.0076 79.4480 7.6867 0.0000 -5.5854 0.0000
# 3 40.9124 7.6867 116.7703 0.0000 3.8509 0.0000
# 4 0.0000 0.0000 0.0000 27.0439 0.0000 2.8772
# 5 11.1030 -5.5854 3.8509 0.0000 47.5255 0.0000
# 6 0.0000 0.0000 0.0000 2.8772 0.0000 17.3147
#
#
#
# Elastic Compliance Matrix: (Units=1/GPa)
#
#
# Indices 1 2 3 4 5 6 
#
# 1 0.008712 -0.003844 -0.002725 0.000000 -0.002266 0.000000
# 2 -0.003844 0.014480 0.000309 0.000000 0.002575 0.000000
# 3 -0.002725 0.000309 0.009501 0.000000 -0.000097 0.000000
# 4 0.000000 0.000000 0.000000 0.037642 0.000000 -0.006255
# 5 -0.002266 0.002575 -0.000097 0.000000 0.021881 0.000000
# 6 0.000000 0.000000 0.000000 -0.006255 0.000000 0.058794
#
#
# Mechanical properties :
#
#
# Convention : Reuss Voigt Hill
#
# Bulk Modulus (GPa) = 49.56999 56.86564 53.21781
# Shear Modulus (GPa) = 29.36775 35.57489 32.47132
#
# Velocity S-wave (km/s) = 3.47513 3.82479 3.65414
# Velocity P-wave (km/s) = 6.04036 6.54900 6.29982
#
# Compressibility (1/GPa) = 0.02017350
#
# Stress axis : x y z
#
# Youngs Moduli (GPa) = 114.78740 69.05975 105.24898
#
# Poissons Ratio (x) = 0.26547 0.28675
# Poissons Ratio (y) = 0.44125 -0.03249
# Poissons Ratio (z) = 0.31274 -0.02132
#
# Static dielectric constant tensor:
#      x y z
#    x 4.565310 0.000000 -0.097030 
#    y 0.000000 3.952590 0.000000 
#    z -0.097030 0.000000 4.553610 
# 
# 
# High freq. dielectric constant tensor:
#      x y z
#    x 1.990660 0.000000 0.000550 
#    y 0.000000 1.935620 0.000000 
#    z 0.000550 0.000000 1.984840 
# 
# From -- ./inp_files/11917.got.cif
#   From: 2010.06.25/outbox.cif.g09.slc.cpg/sg9_6_cif.got.tgz:11917.got - 2010.06.27 21:40:51.
