data_PCOD8055659
_publ_section_title
;
Structure prediction by ZEFSAII (Michael W. Deem and Ramdas Pophale) SiO2 
 PCOD8055659
Probable space group: C C
;
_chemical_formula_sum "Si O2"
_cell_formula_units_Z 32
_cell_length_a 7.604804
_cell_length_b 15.143424
_cell_length_c 19.104482
_cell_angle_alpha 90.000000
_cell_angle_beta 137.836290
_cell_angle_gamma 90.000000
_cell_volume 1476.836706
_symmetry_space_group_name_H-M "C C"
_symmetry_group_IT_number 9
_symmetry_cell_setting 'monoclinic'
loop_
_space_group_symop_operation_xyz
x,y,z
x,-y,1/2+z
1/2+x,1/2+y,z
1/2+x,1/2-y,1/2+z
loop_
_atom_site_type_symbol
_atom_site_label
_atom_site_fract_x
_atom_site_fract_y
_atom_site_fract_z
Si Si1 0.654220 0.671187 0.134340
Si Si2 0.605273 0.261357 0.969519
Si Si3 0.051813 0.276886 0.864590
Si Si4 0.600137 0.937571 0.971791
Si Si5 0.684667 0.467991 0.138386
Si Si6 0.320984 0.946811 0.025119
Si Si7 0.006239 0.596864 0.856089
Si Si8 0.039800 0.119845 0.952667
O O1 0.654762 0.568364 0.155383
O O2 0.906298 0.714211 0.246622
O O3 0.382701 0.719697 0.079484
O O4 0.685194 0.674799 0.058635
O O5 0.367393 0.264717 0.954687
O O6 0.640366 0.361996 0.954271
O O7 0.502405 0.199079 0.876979
O O8 0.966527 0.356245 0.890993
O O9 0.944172 0.186316 0.865190
O O10 0.572395 0.932041 0.048582
O O11 0.457000 0.027980 0.904638
O O12 0.900398 0.930594 0.038111
O O13 0.796180 0.410146 0.233480
O O14 0.868338 0.454261 0.123166
O O15 0.203219 0.040599 0.966447
O O16 0.292326 0.569977 0.912777
#
# Coordination Sequence:
#
# PCOD8055659 Si02
#       8
#     4   4   4   4   4   4   4   4
#     4  10  23  44  68  99 138 181 230 284 348 411
#     4  11  23  44  67 103 142 177 230 290 335 416
#     4  12  24  42  72 102 142 184 228 286 353 409
#     4  12  22  44  70 101 137 181 226 291 344 416
#     4  11  23  46  71  99 140 183 228 293 347 413
#     4  11  24  45  69  98 139 178 227 287 344 404
#     4  11  22  43  69 100 139 181 226 284 355 406
#     4  10  23  44  68  98 141 177 225 293 334 413
#
# _framework density 21.667935
#
# number of rings (size 3 to 8) (size 9 to 14) (size 15 to 20)
#    0.000    1.000    6.250    2.250    1.750    2.000 
#    2.250    0.000    0.000    0.000    0.000    0.000 
#    0.000    0.000    0.000    0.000    0.000    0.000 
#
# Total GULP energy -198233.338746 kJ/mol
# GULP energy per Si atom -12389.583672 kJ/mol
# Density = 2.161862 g / cm^3
# Si number density = 21.667935 Si / 1000 Ang^3
#
#
#
# Elastic Constant Matrix: (Units=GPa)
#
#
# Indices 1 2 3 4 5 6 
#
# 1 98.5152 29.2266 23.0545 0.0001 -6.5417 0.0000
# 2 29.2266 135.3984 60.2920 -0.0001 -6.3219 -0.0001
# 3 23.0545 60.2920 98.3475 0.0001 -15.9214 -0.0001
# 4 0.0001 -0.0001 0.0001 34.0516 0.0000 -4.8401
# 5 -6.5417 -6.3219 -15.9214 0.0000 20.1071 -0.0001
# 6 0.0000 -0.0001 -0.0001 -4.8401 -0.0001 31.1628
#
#
#
# Elastic Compliance Matrix: (Units=1/GPa)
#
#
# Indices 1 2 3 4 5 6 
#
# 1 0.011092 -0.001775 -0.001168 0.000000 0.002126 0.000000
# 2 -0.001775 0.010513 -0.006409 0.000000 -0.002347 0.000000
# 3 -0.001168 -0.006409 0.016039 0.000000 0.010305 0.000000
# 4 0.000000 0.000000 0.000000 0.030030 0.000000 0.004664
# 5 0.002126 -0.002347 0.010305 0.000000 0.057847 0.000000
# 6 0.000000 0.000000 0.000000 0.004664 0.000000 0.032814
#
#
# Mechanical properties :
#
#
# Convention : Reuss Voigt Hill
#
# Bulk Modulus (GPa) = 52.79678 61.93412 57.36545
# Shear Modulus (GPa) = 27.26998 31.71018 29.49008
#
# Velocity S-wave (km/s) = 3.55144 3.82967 3.69318
# Velocity P-wave (km/s) = 6.42154 6.94266 6.68718
#
# Compressibility (1/GPa) = 0.01894055
#
# Stress axis : x y z
#
# Youngs Moduli (GPa) = 90.15713 95.12058 62.34801
#
# Poissons Ratio (x) = 0.16883 0.07281
# Poissons Ratio (y) = 0.16002 0.39958
# Poissons Ratio (z) = 0.10529 0.60961
#
# Static dielectric constant tensor:
#      x y z
#    x 3.875650 0.000000 -0.075730 
#    y 0.000000 4.084560 0.000000 
#    z -0.075730 0.000000 3.732970 
# 
# 
# High freq. dielectric constant tensor:
#      x y z
#    x 1.842100 0.000000 -0.008400 
#    y 0.000000 1.872270 0.000000 
#    z -0.008400 0.000000 1.823460 
# 
# From -- ./inp_files/32748.got.cif
#   From: 2010.06.25/outbox.cif.g09.slc.cpg/sg9_17_cif.got.tgz:32748.got - 2010.06.27 21:40:51.
