data_PCOD8055728
_publ_section_title
;
Structure prediction by ZEFSAII (Michael W. Deem and Ramdas Pophale) SiO2 
 PCOD8055728
Probable space group: C C
;
_chemical_formula_sum "Si O2"
_cell_formula_units_Z 32
_cell_length_a 13.809903
_cell_length_b 8.622154
_cell_length_c 11.846797
_cell_angle_alpha 90.000000
_cell_angle_beta 111.254266
_cell_angle_gamma 90.000000
_cell_volume 1314.662737
_symmetry_space_group_name_H-M "C C"
_symmetry_group_IT_number 9
_symmetry_cell_setting 'monoclinic'
loop_
_space_group_symop_operation_xyz
x,y,z
x,-y,1/2+z
1/2+x,1/2+y,z
1/2+x,1/2-y,1/2+z
loop_
_atom_site_type_symbol
_atom_site_label
_atom_site_fract_x
_atom_site_fract_y
_atom_site_fract_z
Si Si1 0.721960 0.082731 0.189100
Si Si2 0.911992 0.558783 0.333894
Si Si3 0.378946 0.665150 0.675789
Si Si4 0.568656 0.890673 0.251062
Si Si5 0.208544 0.217903 0.478052
Si Si6 0.949347 0.771640 0.528922
Si Si7 0.022562 0.015747 0.390621
Si Si8 0.869061 0.242041 0.410650
O O1 0.772776 0.137384 0.328927
O O2 0.796397 0.972787 0.146173
O O3 0.618016 0.991194 0.171749
O O4 0.696191 0.232388 0.102735
O O5 0.842015 0.694032 0.243626
O O6 0.987639 0.640092 0.457309
O O7 0.847126 0.421044 0.366335
O O8 0.981477 0.500210 0.262473
O O9 0.487713 0.588985 0.768457
O O10 0.388364 0.725838 0.552256
O O11 0.655580 0.843164 0.375421
O O12 0.513238 0.739431 0.172164
O O13 0.328708 0.220575 0.493633
O O14 0.147535 0.050187 0.440649
O O15 0.975509 0.938215 0.486067
O O16 0.969463 0.187259 0.377919
#
# Coordination Sequence:
#
# PCOD8055728 Si02
#       8
#     4   4   4   4   4   4   4   4
#     4  11  25  46  74 109 147 200 254 316 394 466
#     4  11  23  43  70 107 149 194 242 316 381 454
#     4  10  23  45  75 108 154 198 254 315 393 459
#     4  12  24  45  73 104 151 196 243 329 383 456
#     4  12  25  47  75 112 148 204 262 309 398 466
#     4  11  26  49  70 106 157 193 257 325 376 467
#     4  10  24  45  73 108 147 197 253 311 382 465
#     4  11  22  44  76 104 145 198 249 319 383 465
#
# _framework density 24.340843
#
# number of rings (size 3 to 8) (size 9 to 14) (size 15 to 20)
#    0.000    1.000    1.250    6.000    5.250    0.000 
#   15.750    0.000    0.000    0.000    0.000    0.000 
#    0.000    0.000    0.000    0.000    0.000    0.000 
#
# Total GULP energy -198287.332385 kJ/mol
# GULP energy per Si atom -12392.958274 kJ/mol
# Density = 2.428544 g / cm^3
# Si number density = 24.340843 Si / 1000 Ang^3
#
#
#
# Elastic Constant Matrix: (Units=GPa)
#
#
# Indices 1 2 3 4 5 6 
#
# 1 68.7786 29.6582 21.2225 0.0000 -3.3712 0.0000
# 2 29.6582 116.4976 43.3819 0.0000 -0.2160 0.0000
# 3 21.2225 43.3819 146.3224 0.0000 -4.6963 0.0000
# 4 0.0000 0.0000 0.0000 44.5521 0.0000 -1.5392
# 5 -3.3712 -0.2160 -4.6963 0.0000 26.2176 0.0000
# 6 0.0000 0.0000 0.0000 -1.5392 0.0000 25.6274
#
#
#
# Elastic Compliance Matrix: (Units=1/GPa)
#
#
# Indices 1 2 3 4 5 6 
#
# 1 0.016640 -0.003773 -0.001234 0.000000 0.001887 0.000000
# 2 -0.003773 0.010510 -0.002596 0.000000 -0.000864 0.000000
# 3 -0.001234 -0.002596 0.007822 0.000000 0.001221 0.000000
# 4 0.000000 0.000000 0.000000 0.022492 0.000000 0.001351
# 5 0.001887 -0.000864 0.001221 0.000000 0.038597 0.000000
# 6 0.000000 0.000000 0.000000 0.001351 0.000000 0.039102
#
#
# Mechanical properties :
#
#
# Convention : Reuss Voigt Hill
#
# Bulk Modulus (GPa) = 50.59631 57.79152 54.19391
# Shear Modulus (GPa) = 31.85565 35.10180 33.47872
#
# Velocity S-wave (km/s) = 3.62157 3.80161 3.71268
# Velocity P-wave (km/s) = 6.19026 6.56230 6.37900
#
# Compressibility (1/GPa) = 0.01976429
#
# Stress axis : x y z
#
# Youngs Moduli (GPa) = 60.09708 95.15026 127.84111
#
# Poissons Ratio (x) = 0.35901 0.15778
# Poissons Ratio (y) = 0.22675 0.33193
# Poissons Ratio (z) = 0.07417 0.24705
#
# Static dielectric constant tensor:
#      x y z
#    x 4.214300 0.000000 -0.001470 
#    y 0.000000 4.510410 0.000000 
#    z -0.001470 0.000000 4.435030 
# 
# 
# High freq. dielectric constant tensor:
#      x y z
#    x 1.941290 0.000000 -0.011530 
#    y 0.000000 1.976340 0.000000 
#    z -0.011530 0.000000 1.983750 
# 
# From -- ./inp_files/17957.got.cif
#   From: 2010.06.25/outbox.cif.g09.slc.cpg/sg9_9_cif.got.tgz:17957.got - 2010.06.27 21:40:51.
