data_PCOD8055224
_publ_section_title
;
Structure prediction by ZEFSAII (Michael W. Deem and Ramdas Pophale) SiO2 
 PCOD8055224
Probable space group: C C
;
_chemical_formula_sum "Si O2"
_cell_formula_units_Z 32
_cell_length_a 17.365250
_cell_length_b 11.027529
_cell_length_c 14.972209
_cell_angle_alpha 90.000000
_cell_angle_beta 30.395013
_cell_angle_gamma 90.000000
_cell_volume 1450.641803
_symmetry_space_group_name_H-M "C C"
_symmetry_group_IT_number 9
_symmetry_cell_setting 'monoclinic'
loop_
_space_group_symop_operation_xyz
x,y,z
x,-y,1/2+z
1/2+x,1/2+y,z
1/2+x,1/2-y,1/2+z
loop_
_atom_site_type_symbol
_atom_site_label
_atom_site_fract_x
_atom_site_fract_y
_atom_site_fract_z
Si Si1 0.682880 0.843876 0.031210
Si Si2 0.738366 0.892888 0.782628
Si Si3 0.036409 0.218503 0.458889
Si Si4 0.288373 0.920895 0.077278
Si Si5 0.015338 0.223925 0.915688
Si Si6 0.755493 0.887895 0.149626
Si Si7 0.340319 0.091864 0.863139
Si Si8 0.310263 0.077577 0.229619
O O1 0.761439 0.910663 0.037475
O O2 0.502990 0.852340 0.223441
O O3 0.741020 0.918242 0.886019
O O4 0.721569 0.701760 0.985707
O O5 0.621106 0.784201 0.884910
O O6 0.906247 0.862589 0.581063
O O7 0.677383 0.004713 0.784576
O O8 0.150228 0.271135 0.270124
O O9 0.145535 0.139930 0.415563
O O10 0.924357 0.129843 0.518220
O O11 0.943537 0.321347 0.605936
O O12 0.123020 0.857036 0.244906
O O13 0.309061 0.023175 0.131528
O O14 0.421221 0.819715 0.950595
O O15 0.298138 0.985022 0.972558
O O16 0.342035 0.034239 0.762980
#
# Coordination Sequence:
#
# PCOD8055224 Si02
#       8
#     4   4   4   4   4   4   4   4
#     4  12  24  40  66 100 130 168 220 270 328 398
#     4  11  22  40  64  92 127 168 210 264 323 383
#     4  10  22  40  63  89 128 173 217 263 322 391
#     4  11  23  42  64  93 131 173 219 275 331 385
#     4  10  22  40  63  89 128 173 217 263 322 391
#     4  11  22  40  64  92 127 168 210 264 323 383
#     4  12  26  42  68  98 132 172 218 278 334 394
#     4  11  23  42  64  93 131 173 219 275 331 385
#
# _framework density 22.059201999999999
#
# number of rings (size 3 to 8) (size 9 to 14) (size 15 to 20)
#    0.000    1.000    0.000    9.000    0.000    3.000 
#    0.000    5.000    0.000    0.000    0.000    0.000 
#    0.000    0.000    0.000    0.000    0.000    0.000 
#
# Total GULP energy -198453.581467 kJ/mol
# GULP energy per Si atom -12403.348842 kJ/mol
# Density = 2.200899 g / cm^3
# Si number density = 22.059202 Si / 1000 Ang^3
#
#
#
# Elastic Constant Matrix: (Units=GPa)
#
#
# Indices 1 2 3 4 5 6 
#
# 1 89.8144 35.2540 37.4072 0.0000 8.4446 0.0000
# 2 35.2540 91.5093 34.6502 0.0000 -0.9926 0.0000
# 3 37.4072 34.6502 97.9076 0.0000 -16.1767 0.0000
# 4 0.0000 0.0000 0.0000 47.0543 0.0000 0.2589
# 5 8.4446 -0.9926 -16.1767 0.0000 48.8692 0.0000
# 6 0.0000 0.0000 0.0000 0.2589 0.0000 38.5582
#
#
#
# Elastic Compliance Matrix: (Units=1/GPa)
#
#
# Indices 1 2 3 4 5 6 
#
# 1 0.015256 -0.003974 -0.005153 0.000000 -0.004423 0.000000
# 2 -0.003974 0.013732 -0.003366 0.000000 -0.000149 0.000000
# 3 -0.005153 -0.003366 0.014291 0.000000 0.005553 0.000000
# 4 0.000000 0.000000 0.000000 0.021253 0.000000 -0.000143
# 5 -0.004423 -0.000149 0.005553 0.000000 0.023062 0.000000
# 6 0.000000 0.000000 0.000000 -0.000143 0.000000 0.025936
#
#
# Mechanical properties :
#
#
# Convention : Reuss Voigt Hill
#
# Bulk Modulus (GPa) = 54.66652 54.87266 54.76959
# Shear Modulus (GPa) = 34.57485 38.35767 36.46626
#
# Velocity S-wave (km/s) = 3.96329 4.17448 4.07025
# Velocity P-wave (km/s) = 6.76603 6.94004 6.85359
#
# Compressibility (1/GPa) = 0.01829273
#
# Stress axis : x y z
#
# Youngs Moduli (GPa) = 65.54761 72.82362 69.97307
#
# Poissons Ratio (x) = 0.28941 0.36058
# Poissons Ratio (y) = 0.26050 0.23552
# Poissons Ratio (z) = 0.33777 0.24512
#
# Static dielectric constant tensor:
#      x y z
#    x 3.903110 0.000000 -0.207800 
#    y 0.000000 4.046780 0.000000 
#    z -0.207800 0.000000 4.057440 
# 
# 
# High freq. dielectric constant tensor:
#      x y z
#    x 1.858460 0.000000 -0.018280 
#    y 0.000000 1.873870 0.000000 
#    z -0.018280 0.000000 1.876410 
# 
# From -- ./inp_files/9102.got.cif
#   From: 2010.06.25/outbox.cif.g09.slc.cpg/sg9_5_cif.got.tgz:9102.got - 2010.06.27 21:40:51.
