data_PCOD8055729
_publ_section_title
;
Structure prediction by ZEFSAII (Michael W. Deem and Ramdas Pophale) SiO2 
 PCOD8055729
Probable space group: C C
;
_chemical_formula_sum "Si O2"
_cell_formula_units_Z 20
_cell_length_a 9.237718
_cell_length_b 10.233594
_cell_length_c 9.229234
_cell_angle_alpha 90.000000
_cell_angle_beta 49.457493
_cell_angle_gamma 90.000000
_cell_volume 663.023111
_symmetry_space_group_name_H-M "C C"
_symmetry_group_IT_number 9
_symmetry_cell_setting 'monoclinic'
loop_
_space_group_symop_operation_xyz
x,y,z
x,-y,1/2+z
1/2+x,1/2+y,z
1/2+x,1/2-y,1/2+z
loop_
_atom_site_type_symbol
_atom_site_label
_atom_site_fract_x
_atom_site_fract_y
_atom_site_fract_z
Si Si1 0.652280 0.790701 0.407650
Si Si2 0.403405 0.533401 0.296523
Si Si3 0.619266 0.625064 0.880563
Si Si4 0.459129 0.140338 0.311639
Si Si5 0.544447 0.130032 0.690790
O O1 0.495817 0.848372 0.614706
O O2 0.730434 0.663259 0.449648
O O3 0.570648 0.757756 0.298977
O O4 0.827963 0.895917 0.278652
O O5 0.541913 0.497563 0.340437
O O6 0.227035 0.624297 0.466449
O O7 0.524656 0.621303 0.103067
O O8 0.561254 0.763591 0.853844
O O9 0.848049 0.629439 0.729353
O O10 0.532330 0.997242 0.306425
#
# Coordination Sequence:
#
# PCOD8055729 Si02
#       5
#     4   4   4   4   4
#     4  10  23  48  76 111 153 200 258 314 387 457
#     4  10  23  45  77 114 154 196 257 322 374 465
#     4  11  25  47  80 115 153 205 257 317 393 454
#     4  10  26  47  76 112 153 201 256 319 379 466
#     4  11  25  49  83 108 157 206 250 324 389 454
#
# _framework density 30.164861999999999
#
# number of rings (size 3 to 8) (size 9 to 14) (size 15 to 20)
#    0.000    1.600    2.000    0.000   11.200    0.000 
#    0.000   14.000    0.000    0.000    0.000    0.000 
#    0.000    0.000    0.000    0.000    0.000    0.000 
#
# Total GULP energy -123967.568791 kJ/mol
# GULP energy per Si atom -12396.756879 kJ/mol
# Density = 3.009621 g / cm^3
# Si number density = 30.164862 Si / 1000 Ang^3
#
#
#
# Elastic Constant Matrix: (Units=GPa)
#
#
# Indices 1 2 3 4 5 6 
#
# 1 221.8313 15.3341 64.3522 0.0000 -2.6424 0.0000
# 2 15.3341 49.9180 27.0808 0.0000 2.9609 0.0000
# 3 64.3522 27.0808 122.3119 0.0000 3.3838 0.0000
# 4 0.0000 0.0000 0.0000 56.0375 0.0000 11.1247
# 5 -2.6424 2.9609 3.3838 0.0000 53.6875 0.0000
# 6 0.0000 0.0000 0.0000 11.1247 0.0000 29.2088
#
#
#
# Elastic Compliance Matrix: (Units=1/GPa)
#
#
# Indices 1 2 3 4 5 6 
#
# 1 0.005331 -0.000154 -0.002783 0.000000 0.000446 0.000000
# 2 -0.000154 0.022819 -0.004945 0.000000 -0.000954 0.000000
# 3 -0.002783 -0.004945 0.010750 0.000000 -0.000542 0.000000
# 4 0.000000 0.000000 0.000000 0.019305 0.000000 -0.007353
# 5 0.000446 -0.000954 -0.000542 0.000000 0.018735 0.000000
# 6 0.000000 0.000000 0.000000 -0.007353 0.000000 0.037037
#
#
# Mechanical properties :
#
#
# Convention : Reuss Voigt Hill
#
# Bulk Modulus (GPa) = 43.22238 67.51060 55.36649
# Shear Modulus (GPa) = 36.37587 46.93970 41.65779
#
# Velocity S-wave (km/s) = 3.47638 3.94903 3.72022
# Velocity P-wave (km/s) = 5.52027 6.57436 6.07024
#
# Compressibility (1/GPa) = 0.02313616
#
# Stress axis : x y z
#
# Youngs Moduli (GPa) = 187.57190 43.82223 93.02382
#
# Poissons Ratio (x) = 0.00676 0.25890
# Poissons Ratio (y) = 0.02894 0.45999
# Poissons Ratio (z) = 0.52204 0.21669
#
# Static dielectric constant tensor:
#      x y z
#    x 5.573270 0.000000 -0.147800 
#    y 0.000000 6.443440 0.000000 
#    z -0.147800 0.000000 5.521630 
# 
# 
# High freq. dielectric constant tensor:
#      x y z
#    x 2.250630 0.000000 0.007780 
#    y 0.000000 2.249370 0.000000 
#    z 0.007780 0.000000 2.236360 
# 
# From -- ./inp_files/4735.got.cif
#   From: 2010.06.25/outbox.cif.g09.slc.cpg/sg9_3_cif.got.tgz:4735.got - 2010.06.27 21:40:51.
