data_PCOD8055432
_publ_section_title
;
Structure prediction by ZEFSAII (Michael W. Deem and Ramdas Pophale) SiO2 
 PCOD8055432
Probable space group: C C
;
_chemical_formula_sum "Si O2"
_cell_formula_units_Z 28
_cell_length_a 10.568481
_cell_length_b 14.909619
_cell_length_c 8.502707
_cell_angle_alpha 90.000000
_cell_angle_beta 121.328832
_cell_angle_gamma 90.000000
_cell_volume 1144.443933
_symmetry_space_group_name_H-M "C C"
_symmetry_group_IT_number 9
_symmetry_cell_setting 'monoclinic'
loop_
_space_group_symop_operation_xyz
x,y,z
x,-y,1/2+z
1/2+x,1/2+y,z
1/2+x,1/2-y,1/2+z
loop_
_atom_site_type_symbol
_atom_site_label
_atom_site_fract_x
_atom_site_fract_y
_atom_site_fract_z
Si Si1 0.340290 0.818942 0.524300
Si Si2 0.107961 0.092080 0.670071
Si Si3 0.721210 0.310395 0.971884
Si Si4 0.829503 0.443019 0.800586
Si Si5 0.108378 0.514400 0.675384
Si Si6 0.515766 0.162582 0.831185
Si Si7 0.282326 0.606677 0.511708
O O1 0.185137 0.863070 0.371627
O O2 0.397915 0.876035 0.713140
O O3 0.473792 0.832974 0.487305
O O4 0.306868 0.714115 0.535027
O O5 0.099052 0.164271 0.524779
O O6 0.944004 0.059162 0.606732
O O7 0.217196 0.017709 0.662306
O O8 0.883723 0.295817 0.145302
O O9 0.722343 0.382703 0.836550
O O10 0.663497 0.215094 0.875541
O O11 0.953966 0.497365 0.980433
O O12 0.057583 0.561857 0.806122
O O13 0.213711 0.574231 0.632392
O O14 0.190482 0.424715 0.795160
#
# Coordination Sequence:
#
# PCOD8055432 Si02
#       7
#     4   4   4   4   4   4   4
#     4  11  26  48  83 107 153 201 268 313 390 463
#     4  11  26  45  75 106 149 199 246 317 387 457
#     4  10  22  44  70 100 142 192 249 304 379 452
#     4  11  26  46  78 107 150 202 259 310 388 471
#     4  11  30  47  76 112 157 200 258 322 391 455
#     4  10  23  48  72 107 145 201 247 316 380 457
#     4  12  29  50  76 117 156 203 261 328 381 461
#
# _framework density 24.46603
#
# number of rings (size 3 to 8) (size 9 to 14) (size 15 to 20)
#    0.000    1.143    1.429    1.714   14.000    3.429 
#    0.000    0.000    0.000    0.000    0.000    0.000 
#    0.000    0.000    0.000    0.000    0.000    0.000 
#
# Total GULP energy -173505.738620 kJ/mol
# GULP energy per Si atom -12393.267044 kJ/mol
# Density = 2.441034 g / cm^3
# Si number density = 24.466030 Si / 1000 Ang^3
#
#
#
# Elastic Constant Matrix: (Units=GPa)
#
#
# Indices 1 2 3 4 5 6 
#
# 1 118.6979 37.0616 34.6702 0.0000 12.8446 0.0000
# 2 37.0616 125.8315 52.8170 0.0000 5.3874 0.0000
# 3 34.6702 52.8170 80.2315 0.0000 -4.6197 0.0000
# 4 0.0000 0.0000 0.0000 24.8362 0.0000 -3.1302
# 5 12.8446 5.3874 -4.6197 0.0000 39.5523 0.0000
# 6 0.0000 0.0000 0.0000 -3.1302 0.0000 37.8461
#
#
#
# Elastic Compliance Matrix: (Units=1/GPa)
#
#
# Indices 1 2 3 4 5 6 
#
# 1 0.010337 -0.001280 -0.003833 0.000000 -0.003630 0.000000
# 2 -0.001280 0.011363 -0.007039 0.000000 -0.001954 0.000000
# 3 -0.003833 -0.007039 0.019009 0.000000 0.004424 0.000000
# 4 0.000000 0.000000 0.000000 0.040688 0.000000 0.003365
# 5 -0.003630 -0.001954 0.004424 0.000000 0.027245 0.000000
# 6 0.000000 0.000000 0.000000 0.003365 0.000000 0.026701
#
#
# Mechanical properties :
#
#
# Convention : Reuss Voigt Hill
#
# Bulk Modulus (GPa) = 60.96364 63.76204 62.36284
# Shear Modulus (GPa) = 30.28179 33.79439 32.03809
#
# Velocity S-wave (km/s) = 3.52192 3.72059 3.62262
# Velocity P-wave (km/s) = 6.44285 6.67646 6.56069
#
# Compressibility (1/GPa) = 0.01640322
#
# Stress axis : x y z
#
# Youngs Moduli (GPa) = 96.74056 88.00787 52.60626
#
# Poissons Ratio (x) = 0.11267 0.20165
# Poissons Ratio (y) = 0.12385 0.37032
# Poissons Ratio (z) = 0.37082 0.61952
#
# Static dielectric constant tensor:
#      x y z
#    x 4.483030 0.000000 -0.110500 
#    y 0.000000 4.525800 0.000000 
#    z -0.110500 0.000000 4.386330 
# 
# 
# High freq. dielectric constant tensor:
#      x y z
#    x 1.984380 0.000000 -0.007880 
#    y 0.000000 1.983120 0.000000 
#    z -0.007880 0.000000 1.967710 
# 
# From -- ./inp_files/7526.got.cif
#   From: 2010.06.25/outbox.cif.g09.slc.cpg/sg9_4_cif.got.tgz:7526.got - 2010.06.27 21:40:51.
