data_PCOD8055986
_publ_section_title
;
Structure prediction by ZEFSAII (Michael W. Deem and Ramdas Pophale) SiO2 
 PCOD8055986
Probable space group: C C
;
_chemical_formula_sum "Si O2"
_cell_formula_units_Z 28
_cell_length_a 30.939517
_cell_length_b 4.961789
_cell_length_c 8.796735
_cell_angle_alpha 90.000000
_cell_angle_beta 127.853710
_cell_angle_gamma 90.000000
_cell_volume 1066.275754
_symmetry_space_group_name_H-M "C C"
_symmetry_group_IT_number 9
_symmetry_cell_setting 'monoclinic'
loop_
_space_group_symop_operation_xyz
x,y,z
x,-y,1/2+z
1/2+x,1/2+y,z
1/2+x,1/2-y,1/2+z
loop_
_atom_site_type_symbol
_atom_site_label
_atom_site_fract_x
_atom_site_fract_y
_atom_site_fract_z
Si Si1 0.222800 0.358942 0.657460
Si Si2 0.084831 0.846422 0.670693
Si Si3 0.933793 0.304000 0.013051
Si Si4 0.311593 0.737135 0.853841
Si Si5 0.472762 0.337200 0.922102
Si Si6 0.246584 0.984819 0.956632
Si Si7 0.120272 0.682773 0.420380
O O1 0.288571 0.428838 0.821321
O O2 0.212240 0.257769 0.461633
O O3 0.182007 0.605975 0.599528
O O4 0.207753 0.139267 0.753837
O O5 0.087702 0.776556 0.499817
O O6 0.087412 0.568345 0.772609
O O7 0.129579 0.062124 0.827289
O O8 0.030188 0.021929 0.587919
O O9 0.872324 0.314582 0.940954
O O10 0.958636 0.574341 0.993027
O O11 0.930022 0.069663 0.877798
O O12 0.970788 0.229569 0.239294
O O13 0.301415 0.875223 0.993651
O O14 0.267067 0.830760 0.636177
#
# Coordination Sequence:
#
# PCOD8055986 Si02
#       7
#     4   4   4   4   4   4   4
#     4  11  27  45  75 112 166 214 275 326 405 485
#     4  12  29  55  84 119 163 211 278 345 411 478
#     4  12  28  48  84 117 161 211 268 333 417 484
#     4  11  25  43  76 109 159 206 265 323 404 485
#     4  12  28  53  80 118 159 206 272 342 411 479
#     4  10  25  46  69 107 166 208 263 328 392 473
#     4  12  30  52  86 120 164 218 275 333 416 488
#
# _framework density 26.259623999999999
#
# number of rings (size 3 to 8) (size 9 to 14) (size 15 to 20)
#    0.000    0.571    0.000    5.143   16.000    2.286 
#    0.000    1.429    0.000    0.000    0.000    0.000 
#    0.000    0.000    0.000    0.000    0.000    0.000 
#
# Total GULP energy -173492.887582 kJ/mol
# GULP energy per Si atom -12392.349113 kJ/mol
# Density = 2.619986 g / cm^3
# Si number density = 26.259624 Si / 1000 Ang^3
#
#
#
# Elastic Constant Matrix: (Units=GPa)
#
#
# Indices 1 2 3 4 5 6 
#
# 1 120.4861 65.1304 39.9403 0.0000 -16.4812 0.0000
# 2 65.1304 186.7000 48.7152 0.0000 -26.0065 0.0000
# 3 39.9403 48.7152 94.3145 0.0000 -19.2683 0.0000
# 4 0.0000 0.0000 0.0000 28.8339 0.0000 -6.9559
# 5 -16.4812 -26.0065 -19.2683 0.0000 35.6946 0.0000
# 6 0.0000 0.0000 0.0000 -6.9559 0.0000 57.5000
#
#
#
# Elastic Compliance Matrix: (Units=1/GPa)
#
#
# Indices 1 2 3 4 5 6 
#
# 1 0.011012 -0.002892 -0.002879 0.000000 0.001423 0.000000
# 2 -0.002892 0.007278 -0.001937 0.000000 0.002921 0.000000
# 3 -0.002879 -0.001937 0.013783 0.000000 0.004699 0.000000
# 4 0.000000 0.000000 0.000000 0.035724 0.000000 0.004322
# 5 0.001423 0.002921 0.004699 0.000000 0.033338 0.000000
# 6 0.000000 0.000000 0.000000 0.004322 0.000000 0.017914
#
#
# Mechanical properties :
#
#
# Convention : Reuss Voigt Hill
#
# Bulk Modulus (GPa) = 60.03973 78.78584 69.41278
# Shear Modulus (GPa) = 35.71007 40.92002 38.31505
#
# Velocity S-wave (km/s) = 3.69166 3.95180 3.82394
# Velocity P-wave (km/s) = 6.40973 7.13373 6.78140
#
# Compressibility (1/GPa) = 0.01665564
#
# Stress axis : x y z
#
# Youngs Moduli (GPa) = 90.80917 137.40912 72.55479
#
# Poissons Ratio (x) = 0.39741 0.20887
# Poissons Ratio (y) = 0.26263 0.14057
# Poissons Ratio (z) = 0.26142 0.26622
#
# Static dielectric constant tensor:
#      x y z
#    x 4.813540 0.000000 -0.295410 
#    y 0.000000 5.294650 0.000000 
#    z -0.295410 0.000000 4.635190 
# 
# 
# High freq. dielectric constant tensor:
#      x y z
#    x 2.066720 0.000000 -0.019130 
#    y 0.000000 2.075140 0.000000 
#    z -0.019130 0.000000 2.051610 
# 
# From -- ./inp_files/12646.got.cif
#   From: 2010.06.25/outbox.cif.g09.slc.cpg/sg9_7_cif.got.tgz:12646.got - 2010.06.27 21:40:51.
