data_PCOD8055086
_publ_section_title
;
Structure prediction by ZEFSAII (Michael W. Deem and Ramdas Pophale) SiO2 
 PCOD8055086
Probable space group: C C
;
_chemical_formula_sum "Si O2"
_cell_formula_units_Z 32
_cell_length_a 8.978059
_cell_length_b 11.004800
_cell_length_c 14.213412
_cell_angle_alpha 90.000000
_cell_angle_beta 103.330397
_cell_angle_gamma 90.000000
_cell_volume 1366.473130
_symmetry_space_group_name_H-M "C C"
_symmetry_group_IT_number 9
_symmetry_cell_setting 'monoclinic'
loop_
_space_group_symop_operation_xyz
x,y,z
x,-y,1/2+z
1/2+x,1/2+y,z
1/2+x,1/2-y,1/2+z
loop_
_atom_site_type_symbol
_atom_site_label
_atom_site_fract_x
_atom_site_fract_y
_atom_site_fract_z
Si Si1 0.351680 0.903978 0.855830
Si Si2 0.090950 0.264489 0.990168
Si Si3 0.507882 0.158537 0.874585
Si Si4 0.085854 0.008878 0.439434
Si Si5 0.004016 0.391328 0.692965
Si Si6 0.284733 0.626890 0.367365
Si Si7 0.987556 0.338485 0.162777
Si Si8 0.654306 0.728857 0.566719
O O1 0.417218 0.798570 0.933530
O O2 0.367607 0.861786 0.748439
O O3 0.459135 0.021359 0.884345
O O4 0.180325 0.936504 0.863905
O O5 0.134368 0.127913 0.967501
O O6 0.204474 0.359530 0.957197
O O7 0.102412 0.279067 0.104064
O O8 0.360486 0.243284 0.860906
O O9 0.567570 0.175913 0.776005
O O10 0.641071 0.194386 0.967430
O O11 0.112162 0.089323 0.537127
O O12 0.907385 0.017646 0.386294
O O13 0.163932 0.406295 0.770417
O O14 0.026892 0.283486 0.620442
O O15 0.963659 0.518145 0.635099
O O16 0.824289 0.267574 0.134770
#
# Coordination Sequence:
#
# PCOD8055086 Si02
#       8
#     4   4   4   4   4   4   4   4
#     4  10  21  43  74 104 139 187 237 294 354 430
#     4  11  23  42  71 103 140 184 240 286 360 426
#     4  10  21  43  72 101 141 185 234 294 353 412
#     4  11  24  43  72 104 142 186 233 299 353 416
#     4  10  23  42  75 102 139 189 236 290 362 423
#     4  10  22  45  71 100 145 181 228 303 348 424
#     4  11  23  42  74 105 136 194 238 284 362 431
#     4  11  23  42  73 101 144 188 230 298 356 416
#
# _framework density 23.417950000000001
#
# number of rings (size 3 to 8) (size 9 to 14) (size 15 to 20)
#    0.000    1.500    3.750    0.750    0.000    4.000 
#    0.000   15.000   11.000    0.000    0.000    0.000 
#    0.000    0.000    0.000    0.000    0.000    0.000 
#
# Total GULP energy -198322.534538 kJ/mol
# GULP energy per Si atom -12395.158409 kJ/mol
# Density = 2.336465 g / cm^3
# Si number density = 23.417950 Si / 1000 Ang^3
#
#
#
# Elastic Constant Matrix: (Units=GPa)
#
#
# Indices 1 2 3 4 5 6 
#
# 1 95.5519 27.8735 49.7398 0.0000 -20.6232 0.0000
# 2 27.8735 86.6923 40.4233 0.0000 -15.5659 0.0000
# 3 49.7398 40.4233 134.8083 0.0000 -21.4183 0.0000
# 4 0.0000 0.0000 0.0000 33.5693 0.0000 -4.1201
# 5 -20.6232 -15.5659 -21.4183 0.0000 38.5787 0.0000
# 6 0.0000 0.0000 0.0000 -4.1201 0.0000 36.1202
#
#
#
# Elastic Compliance Matrix: (Units=1/GPa)
#
#
# Indices 1 2 3 4 5 6 
#
# 1 0.014023 -0.001875 -0.003884 0.000000 0.004584 0.000000
# 2 -0.001875 0.014102 -0.003062 0.000000 0.002988 0.000000
# 3 -0.003884 -0.003062 0.010137 0.000000 0.002316 0.000000
# 4 0.000000 0.000000 0.000000 0.030212 0.000000 0.003446
# 5 0.004584 0.002988 0.002316 0.000000 0.030863 0.000000
# 6 0.000000 0.000000 0.000000 0.003446 0.000000 0.028078
#
#
# Mechanical properties :
#
#
# Convention : Reuss Voigt Hill
#
# Bulk Modulus (GPa) = 48.49374 61.45840 54.97607
# Shear Modulus (GPa) = 32.90955 34.92136 33.91545
#
# Velocity S-wave (km/s) = 3.75282 3.86582 3.80974
# Velocity P-wave (km/s) = 6.28737 6.79906 6.54822
#
# Compressibility (1/GPa) = 0.02062122
#
# Stress axis : x y z
#
# Youngs Moduli (GPa) = 71.30897 70.91108 98.64713
#
# Poissons Ratio (x) = 0.13295 0.38312
# Poissons Ratio (y) = 0.13370 0.30208
# Poissons Ratio (z) = 0.27694 0.21714
#
# Static dielectric constant tensor:
#      x y z
#    x 4.147040 0.000000 -0.306170 
#    y 0.000000 4.229200 0.000000 
#    z -0.306170 0.000000 4.352840 
# 
# 
# High freq. dielectric constant tensor:
#      x y z
#    x 1.918310 0.000000 -0.015040 
#    y 0.000000 1.924760 0.000000 
#    z -0.015040 0.000000 1.925070 
# 
# From -- ./inp_files/22898.got.cif
#   From: 2010.06.25/outbox.cif.g09.slc.cpg/sg9_12_cif.got.tgz:22898.got - 2010.06.27 21:40:51.
