data_PCOD8055643
_publ_section_title
;
Structure prediction by ZEFSAII (Michael W. Deem and Ramdas Pophale) SiO2 
 PCOD8055643
Probable space group: C C
;
_chemical_formula_sum "Si O2"
_cell_formula_units_Z 32
_cell_length_a 8.834775
_cell_length_b 14.851356
_cell_length_c 11.253946
_cell_angle_alpha 90.000000
_cell_angle_beta 79.331757
_cell_angle_gamma 90.000000
_cell_volume 1451.089699
_symmetry_space_group_name_H-M "C C"
_symmetry_group_IT_number 9
_symmetry_cell_setting 'monoclinic'
loop_
_space_group_symop_operation_xyz
x,y,z
x,-y,1/2+z
1/2+x,1/2+y,z
1/2+x,1/2-y,1/2+z
loop_
_atom_site_type_symbol
_atom_site_label
_atom_site_fract_x
_atom_site_fract_y
_atom_site_fract_z
Si Si1 0.500000 0.545674 0.489630
Si Si2 0.337755 0.842212 0.630619
Si Si3 0.009932 0.145987 0.054977
Si Si4 0.873640 0.822455 0.813808
Si Si5 0.769854 0.858189 0.174926
Si Si6 0.501222 0.134262 0.874945
Si Si7 0.341647 0.046418 0.369713
Si Si8 0.568733 0.167680 0.473557
O O1 0.474644 0.438531 0.474919
O O2 0.425561 0.599699 0.394549
O O3 0.415899 0.577059 0.624773
O O4 0.682497 0.563465 0.462190
O O5 0.339681 0.741392 0.680897
O O6 0.484176 0.857082 0.520885
O O7 0.342565 0.910226 0.739291
O O8 0.186664 0.857972 0.573065
O O9 0.896025 0.137415 0.181634
O O10 0.970130 0.240449 0.998030
O O11 0.966051 0.730017 0.818625
O O12 0.694582 0.805170 0.857455
O O13 0.677485 0.888536 0.308120
O O14 0.644840 0.861588 0.086623
O O15 0.382589 0.058428 0.845257
O O16 0.467909 0.086532 0.439951
#
# Coordination Sequence:
#
# PCOD8055643 Si02
#       8
#     4   4   4   4   4   4   4   4
#     4  11  22  43  68  99 125 176 223 272 329 399
#     4  11  22  44  65  96 136 180 220 272 338 395
#     4  11  21  42  70  94 131 181 219 266 339 397
#     4  11  21  45  68  89 136 175 219 267 332 408
#     4  10  23  44  71  90 133 183 219 271 337 394
#     4  12  22  42  71  94 133 182 223 265 341 396
#     4  12  26  40  67 106 134 168 229 283 328 396
#     4  10  23  44  64  98 132 169 220 276 330 389
#
# _framework density 22.052394
#
# number of rings (size 3 to 8) (size 9 to 14) (size 15 to 20)
#    0.000    1.000    8.750    0.000    3.500    0.000 
#    4.500    2.500    0.000    0.000    0.000    0.000 
#    0.000    0.000    0.000    0.000    0.000    0.000 
#
# Total GULP energy -198348.642076 kJ/mol
# GULP energy per Si atom -12396.790130 kJ/mol
# Density = 2.200220 g / cm^3
# Si number density = 22.052394 Si / 1000 Ang^3
#
#
#
# Elastic Constant Matrix: (Units=GPa)
#
#
# Indices 1 2 3 4 5 6 
#
# 1 61.6632 9.6195 46.4812 0.0000 -40.2127 0.0000
# 2 9.6195 110.6575 30.7760 0.0000 2.6285 0.0000
# 3 46.4812 30.7760 93.5636 0.0000 -39.0852 0.0000
# 4 0.0000 0.0000 0.0000 30.8438 0.0000 -5.9567
# 5 -40.2127 2.6285 -39.0852 0.0000 50.0148 0.0000
# 6 0.0000 0.0000 0.0000 -5.9567 0.0000 28.0029
#
#
#
# Elastic Compliance Matrix: (Units=1/GPa)
#
#
# Indices 1 2 3 4 5 6 
#
# 1 0.039104 -0.001628 -0.008494 0.000000 0.024888 0.000000
# 2 -0.001628 0.010773 -0.005223 0.000000 -0.005957 0.000000
# 3 -0.008494 -0.005223 0.020618 0.000000 0.009558 0.000000
# 4 0.000000 0.000000 0.000000 0.033810 0.000000 0.007192
# 5 0.024888 -0.005957 0.009558 0.000000 0.047787 0.000000
# 6 0.000000 0.000000 0.000000 0.007192 0.000000 0.037240
#
#
# Mechanical properties :
#
#
# Convention : Reuss Voigt Hill
#
# Bulk Modulus (GPa) = 25.12274 48.84863 36.98568
# Shear Modulus (GPa) = 21.43239 33.70614 27.56927
#
# Velocity S-wave (km/s) = 3.12089 3.91379 3.53961
# Velocity P-wave (km/s) = 4.94000 6.52862 5.78907
#
# Compressibility (1/GPa) = 0.03980458
#
# Stress axis : x y z
#
# Youngs Moduli (GPa) = 25.57259 92.82865 48.50042
#
# Poissons Ratio (x) = 0.15114 0.41197
# Poissons Ratio (y) = 0.04163 0.25332
# Poissons Ratio (z) = 0.21722 0.48484
#
# Static dielectric constant tensor:
#      x y z
#    x 4.000500 0.000000 -0.648820 
#    y 0.000000 4.142020 0.000000 
#    z -0.648820 0.000000 4.044370 
# 
# 
# High freq. dielectric constant tensor:
#      x y z
#    x 1.848120 0.000000 -0.043070 
#    y 0.000000 1.882260 0.000000 
#    z -0.043070 0.000000 1.860070 
# 
# From -- ./inp_files/14611.got.cif
#   From: 2010.06.25/outbox.cif.g09.slc.cpg/sg9_8_cif.got.tgz:14611.got - 2010.06.27 21:40:51.
