data_PCOD8055324
_publ_section_title
;
Structure prediction by ZEFSAII (Michael W. Deem and Ramdas Pophale) SiO2 
 PCOD8055324
Probable space group: C C
;
_chemical_formula_sum "Si O2"
_cell_formula_units_Z 32
_cell_length_a 11.447018
_cell_length_b 8.805561
_cell_length_c 28.466168
_cell_angle_alpha 90.000000
_cell_angle_beta 148.340114
_cell_angle_gamma 90.000000
_cell_volume 1506.034761
_symmetry_space_group_name_H-M "C C"
_symmetry_group_IT_number 9
_symmetry_cell_setting 'monoclinic'
loop_
_space_group_symop_operation_xyz
x,y,z
x,-y,1/2+z
1/2+x,1/2+y,z
1/2+x,1/2-y,1/2+z
loop_
_atom_site_type_symbol
_atom_site_label
_atom_site_fract_x
_atom_site_fract_y
_atom_site_fract_z
Si Si1 0.260890 0.622979 0.752800
Si Si2 0.029503 0.055926 0.184803
Si Si3 0.548439 0.966266 0.028549
Si Si4 0.059357 0.120440 0.019504
Si Si5 0.157445 0.644973 0.820913
Si Si6 0.456151 0.911226 0.589309
Si Si7 0.655225 0.503596 0.327542
Si Si8 0.662512 0.597386 0.640342
O O1 0.145469 0.787665 0.708627
O O2 0.295377 0.605628 0.820582
O O3 0.490954 0.604557 0.802054
O O4 0.098953 0.493354 0.678373
O O5 0.148312 0.966123 0.269212
O O6 0.023929 0.951774 0.137757
O O7 0.767364 0.072998 0.106385
O O8 0.605026 0.789158 0.053132
O O9 0.405533 0.986641 0.026709
O O10 0.404931 0.011695 0.933379
O O11 0.215182 0.115181 0.027593
O O12 0.098995 0.992766 0.071732
O O13 0.805827 0.092479 0.915524
O O14 0.087158 0.819960 0.804360
O O15 0.921775 0.560702 0.738493
O O16 0.590825 0.771192 0.612438
#
# Coordination Sequence:
#
# PCOD8055324 Si02
#       8
#     4   4   4   4   4   4   4   4
#     4  11  20  42  70  92 128 177 215 270 334 389
#     4  11  24  40  66  99 134 172 219 270 330 397
#     4  11  23  44  67  98 133 174 221 271 330 393
#     4  11  25  44  66  96 136 173 221 278 325 386
#     4  10  22  42  65  96 129 172 223 267 326 396
#     4  12  22  42  70  92 131 174 219 271 337 384
#     4  10  22  42  69  92 128 175 219 270 325 391
#     4  12  24  42  65  97 135 175 219 275 327 394
#
# _framework density 21.24785
#
# number of rings (size 3 to 8) (size 9 to 14) (size 15 to 20)
#    0.000    1.000    5.000    2.250    0.000    1.000 
#    4.500    0.000    0.000    0.000    0.000    0.000 
#    0.000    0.000    0.000    0.000    0.000    0.000 
#
# Total GULP energy -198246.993956 kJ/mol
# GULP energy per Si atom -12390.437122 kJ/mol
# Density = 2.119949 g / cm^3
# Si number density = 21.247850 Si / 1000 Ang^3
#
#
#
# Elastic Constant Matrix: (Units=GPa)
#
#
# Indices 1 2 3 4 5 6 
#
# 1 130.3550 52.4720 36.3922 0.0000 -10.1338 0.0000
# 2 52.4720 109.1815 48.1762 0.0000 6.4543 0.0000
# 3 36.3922 48.1762 123.9360 -0.0001 -5.3463 0.0000
# 4 0.0000 0.0000 -0.0001 23.4336 0.0000 -0.3341
# 5 -10.1338 6.4543 -5.3463 0.0000 30.2640 0.0000
# 6 0.0000 0.0000 0.0000 -0.3341 0.0000 41.5314
#
#
#
# Elastic Compliance Matrix: (Units=1/GPa)
#
#
# Indices 1 2 3 4 5 6 
#
# 1 0.010167 -0.004707 -0.000973 0.000000 0.004237 0.000000
# 2 -0.004707 0.013539 -0.004105 0.000000 -0.005189 0.000000
# 3 -0.000973 -0.004105 0.010050 0.000000 0.002325 0.000000
# 4 0.000000 0.000000 0.000000 0.042679 0.000000 0.000343
# 5 0.004237 -0.005189 0.002325 0.000000 0.035979 0.000000
# 6 0.000000 0.000000 0.000000 0.000343 0.000000 0.024081
#
#
# Mechanical properties :
#
#
# Convention : Reuss Voigt Hill
#
# Bulk Modulus (GPa) = 70.48713 70.83924 70.66319
# Shear Modulus (GPa) = 31.09580 34.14128 32.61854
#
# Velocity S-wave (km/s) = 3.82970 4.01285 3.92234
# Velocity P-wave (km/s) = 7.26644 7.40827 7.33770
#
# Compressibility (1/GPa) = 0.01418699
#
# Stress axis : x y z
#
# Youngs Moduli (GPa) = 98.35534 73.85900 99.50113
#
# Poissons Ratio (x) = 0.34769 0.09680
# Poissons Ratio (y) = 0.46301 0.40840
# Poissons Ratio (z) = 0.09568 0.30316
#
# Static dielectric constant tensor:
#      x y z
#    x 3.921570 0.000000 -0.103510 
#    y 0.000000 3.715070 0.000000 
#    z -0.103510 0.000000 3.927730 
# 
# 
# High freq. dielectric constant tensor:
#      x y z
#    x 1.845450 0.000000 -0.007330 
#    y 0.000000 1.821550 0.000000 
#    z -0.007330 0.000000 1.839300 
# 
# From -- ./inp_files/24205.got.cif
#   From: 2010.06.25/outbox.cif.g09.slc.cpg/sg9_13_cif.got.tgz:24205.got - 2010.06.27 21:40:51.
