data_PCOD8055145
_publ_section_title
;
Structure prediction by ZEFSAII (Michael W. Deem and Ramdas Pophale) SiO2 
 PCOD8055145
Probable space group: C C
;
_chemical_formula_sum "Si O2"
_cell_formula_units_Z 24
_cell_length_a 11.373965
_cell_length_b 8.722520
_cell_length_c 10.316964
_cell_angle_alpha 90.000000
_cell_angle_beta 104.663544
_cell_angle_gamma 90.000000
_cell_volume 990.204478
_symmetry_space_group_name_H-M "C C"
_symmetry_group_IT_number 9
_symmetry_cell_setting 'monoclinic'
loop_
_space_group_symop_operation_xyz
x,y,z
x,-y,1/2+z
1/2+x,1/2+y,z
1/2+x,1/2-y,1/2+z
loop_
_atom_site_type_symbol
_atom_site_label
_atom_site_fract_x
_atom_site_fract_y
_atom_site_fract_z
Si Si1 0.807580 0.146530 0.761770
Si Si2 0.122254 0.200796 0.622162
Si Si3 0.882838 0.954259 0.005192
Si Si4 0.165171 0.248519 0.912090
Si Si5 0.810609 0.461371 0.625737
Si Si6 0.075936 0.466466 0.096278
O O1 0.854515 0.042104 0.651847
O O2 0.823248 0.327425 0.736849
O O3 0.663552 0.104108 0.733048
O O4 0.873726 0.111729 0.917944
O O5 0.083876 0.217004 0.763143
O O6 0.130259 0.369828 0.561847
O O7 0.019343 0.104002 0.520593
O O8 0.252635 0.117682 0.662953
O O9 0.787027 0.842209 0.908915
O O10 0.215142 0.092764 0.989678
O O11 0.076405 0.346785 0.978849
O O12 0.941100 0.506252 0.608489
#
# Coordination Sequence:
#
# PCOD8055145 Si02
#       6
#     4   4   4   4   4   4
#     4  10  22  48  71 105 150 195 242 309 379 428
#     4  12  23  45  74 108 142 194 249 309 361 453
#     4  10  22  44  75 102 151 193 243 311 370 437
#     4  10  24  47  65 103 151 185 248 304 375 436
#     4  10  24  45  71 109 138 192 245 306 367 443
#     4  10  21  47  72  95 144 193 237 309 360 443
#
# _framework density 24.237417000000001
#
# number of rings (size 3 to 8) (size 9 to 14) (size 15 to 20)
#    0.000    2.000    5.000    0.000    2.333    1.333 
#   18.000    0.000    0.000    0.000    0.000    0.000 
#    0.000    0.000    0.000    0.000    0.000    0.000 
#
# Total GULP energy -148691.960653 kJ/mol
# GULP energy per Si atom -12390.996721 kJ/mol
# Density = 2.418225 g / cm^3
# Si number density = 24.237417 Si / 1000 Ang^3
#
#
#
# Elastic Constant Matrix: (Units=GPa)
#
#
# Indices 1 2 3 4 5 6 
#
# 1 140.8441 97.8810 28.3818 0.0000 8.0456 0.0000
# 2 97.8810 98.6150 24.9210 0.0000 2.0320 0.0000
# 3 28.3818 24.9210 89.7614 0.0000 5.8181 0.0000
# 4 0.0000 0.0000 0.0000 29.4659 0.0000 -0.3204
# 5 8.0456 2.0320 5.8181 0.0000 26.5147 0.0000
# 6 0.0000 0.0000 0.0000 -0.3204 0.0000 39.0680
#
#
#
# Elastic Compliance Matrix: (Units=1/GPa)
#
#
# Indices 1 2 3 4 5 6 
#
# 1 0.023671 -0.023209 -0.000700 0.000000 -0.005250 0.000000
# 2 -0.023209 0.033663 -0.002330 0.000000 0.004974 0.000000
# 3 -0.000700 -0.002330 0.012157 0.000000 -0.002276 0.000000
# 4 0.000000 0.000000 0.000000 0.033941 0.000000 0.000278
# 5 -0.005250 0.004974 -0.002276 0.000000 0.039426 0.000000
# 6 0.000000 0.000000 0.000000 0.000278 0.000000 0.025599
#
#
# Mechanical properties :
#
#
# Convention : Reuss Voigt Hill
#
# Bulk Modulus (GPa) = 58.78497 70.17645 64.48071
# Shear Modulus (GPa) = 22.06479 30.87884 26.47182
#
# Velocity S-wave (km/s) = 3.02049 3.57321 3.30841
# Velocity P-wave (km/s) = 6.03912 6.78531 6.42306
#
# Compressibility (1/GPa) = 0.01701115
#
# Stress axis : x y z
#
# Youngs Moduli (GPa) = 42.24660 29.70606 82.26019
#
# Poissons Ratio (x) = 0.68945 0.05762
# Poissons Ratio (y) = 0.98051 0.19166
# Poissons Ratio (z) = 0.02959 0.06921
#
# Static dielectric constant tensor:
#      x y z
#    x 4.218040 0.000000 0.176930 
#    y 0.000000 4.406730 0.000000 
#    z 0.176930 0.000000 4.193810 
# 
# 
# High freq. dielectric constant tensor:
#      x y z
#    x 1.966530 0.000000 0.021580 
#    y 0.000000 1.957600 0.000000 
#    z 0.021580 0.000000 1.946670 
# 
# From -- ./inp_files/15872.got.cif
#   From: 2010.06.25/outbox.cif.g09.slc.cpg/sg9_8_cif.got.tgz:15872.got - 2010.06.27 21:40:51.
