data_PCOD8055475
_publ_section_title
;
Structure prediction by ZEFSAII (Michael W. Deem and Ramdas Pophale) SiO2 
 PCOD8055475
Probable space group: C C
;
_chemical_formula_sum "Si O2"
_cell_formula_units_Z 28
_cell_length_a 5.171074
_cell_length_b 25.863811
_cell_length_c 8.250316
_cell_angle_alpha 90.000000
_cell_angle_beta 85.797492
_cell_angle_gamma 90.000000
_cell_volume 1100.460809
_symmetry_space_group_name_H-M "C C"
_symmetry_group_IT_number 9
_symmetry_cell_setting 'monoclinic'
loop_
_space_group_symop_operation_xyz
x,y,z
x,-y,1/2+z
1/2+x,1/2+y,z
1/2+x,1/2-y,1/2+z
loop_
_atom_site_type_symbol
_atom_site_label
_atom_site_fract_x
_atom_site_fract_y
_atom_site_fract_z
Si Si1 0.619040 0.985146 0.381470
Si Si2 0.766078 0.091366 0.296909
Si Si3 0.671256 0.265567 0.558029
Si Si4 0.670691 0.646338 0.800443
Si Si5 0.687913 0.884611 0.158379
Si Si6 0.109069 0.949630 0.521950
Si Si7 0.145217 0.704077 0.250807
O O1 0.646082 0.937664 0.257687
O O2 0.376671 0.981334 0.517572
O O3 0.875499 0.987864 0.482180
O O4 0.588300 0.039988 0.288978
O O5 0.815781 0.102740 0.481239
O O6 0.632595 0.141936 0.220184
O O7 0.039009 0.079472 0.193527
O O8 0.727581 0.311707 0.432337
O O9 0.400282 0.271521 0.660656
O O10 0.659808 0.214122 0.445222
O O11 0.901074 0.266717 0.680911
O O12 0.393097 0.655494 0.728456
O O13 0.653034 0.590325 0.877537
O O14 0.913207 0.645698 0.663520
#
# Coordination Sequence:
#
# PCOD8055475 Si02
#       7
#     4   4   4   4   4   4   4
#     4  10  24  44  67 102 148 195 237 302 365 432
#     4  12  26  45  73 113 144 191 264 297 368 446
#     4  12  27  53  74 113 146 198 249 319 388 434
#     4  10  22  45  71  94 145 187 240 286 381 432
#     4  10  24  41  70 106 139 194 232 307 355 442
#     4  10  23  43  69  99 143 194 234 294 367 436
#     4  12  30  47  82 109 149 199 250 321 372 456
#
# _framework density 25.443888000000001
#
# number of rings (size 3 to 8) (size 9 to 14) (size 15 to 20)
#    0.000    1.143    1.429    2.571    8.000    9.143 
#    0.000    0.000    0.000    0.000    0.000    0.000 
#    0.000    0.000    0.000    0.000    0.000    0.000 
#
# Total GULP energy -173527.733722 kJ/mol
# GULP energy per Si atom -12394.838123 kJ/mol
# Density = 2.538598 g / cm^3
# Si number density = 25.443888 Si / 1000 Ang^3
#
#
#
# Elastic Constant Matrix: (Units=GPa)
#
#
# Indices 1 2 3 4 5 6 
#
# 1 179.3050 35.3314 56.7209 0.0000 -20.2262 0.0000
# 2 35.3314 99.5426 5.5201 0.0000 -1.6964 0.0000
# 3 56.7209 5.5201 119.0096 0.0000 -22.1918 0.0000
# 4 0.0000 0.0000 0.0000 29.7262 0.0000 -0.8479
# 5 -20.2262 -1.6964 -22.1918 0.0000 36.2228 0.0000
# 6 0.0000 0.0000 0.0000 -0.8479 0.0000 6.7667
#
#
#
# Elastic Compliance Matrix: (Units=1/GPa)
#
#
# Indices 1 2 3 4 5 6 
#
# 1 0.007208 -0.002360 -0.002931 0.000000 0.002119 0.000000
# 2 -0.002360 0.010846 0.000531 0.000000 -0.000484 0.000000
# 3 -0.002931 0.000531 0.010696 0.000000 0.004941 0.000000
# 4 0.000000 0.000000 0.000000 0.033761 0.000000 0.004231
# 5 0.002119 -0.000484 0.004941 0.000000 0.031795 0.000000
# 6 0.000000 0.000000 0.000000 0.004231 0.000000 0.148312
#
#
# Mechanical properties :
#
#
# Convention : Reuss Voigt Hill
#
# Bulk Modulus (GPa) = 51.99780 65.88913 58.94347
# Shear Modulus (GPa) = 19.33878 34.56213 26.95045
#
# Velocity S-wave (km/s) = 2.75990 3.68960 3.25808
# Velocity P-wave (km/s) = 5.53504 6.64101 6.11309
#
# Compressibility (1/GPa) = 0.01923158
#
# Stress axis : x y z
#
# Youngs Moduli (GPa) = 138.72952 92.20132 93.48953
#
# Poissons Ratio (x) = 0.21758 0.27401
# Poissons Ratio (y) = 0.32738 -0.04968
# Poissons Ratio (z) = 0.40661 -0.04899
#
# Static dielectric constant tensor:
#      x y z
#    x 4.956610 0.000000 -0.246930 
#    y 0.000000 4.817770 0.000000 
#    z -0.246930 0.000000 4.617000 
# 
# 
# High freq. dielectric constant tensor:
#      x y z
#    x 2.013290 0.000000 -0.020110 
#    y 0.000000 2.025480 0.000000 
#    z -0.020110 0.000000 2.018910 
# 
# From -- ./inp_files/4167.got.cif
#   From: 2010.06.25/outbox.cif.g09.slc.cpg/sg9_3_cif.got.tgz:4167.got - 2010.06.27 21:40:51.
