data_PCOD8055369
_publ_section_title
;
Structure prediction by ZEFSAII (Michael W. Deem and Ramdas Pophale) SiO2 
 PCOD8055369
Probable space group: C C
;
_chemical_formula_sum "Si O2"
_cell_formula_units_Z 28
_cell_length_a 7.528749
_cell_length_b 29.296904
_cell_length_c 7.979555
_cell_angle_alpha 90.000000
_cell_angle_beta 123.970180
_cell_angle_gamma 90.000000
_cell_volume 1459.653615
_symmetry_space_group_name_H-M "C C"
_symmetry_group_IT_number 9
_symmetry_cell_setting 'monoclinic'
loop_
_space_group_symop_operation_xyz
x,y,z
x,-y,1/2+z
1/2+x,1/2+y,z
1/2+x,1/2-y,1/2+z
loop_
_atom_site_type_symbol
_atom_site_label
_atom_site_fract_x
_atom_site_fract_y
_atom_site_fract_z
Si Si1 0.449040 0.445186 0.545020
Si Si2 0.930928 0.551490 0.190491
Si Si3 0.691399 0.986996 0.117989
Si Si4 0.038538 0.653044 0.190477
Si Si5 0.807298 0.844478 0.505198
Si Si6 0.219132 0.211730 0.185455
Si Si7 0.110362 0.687525 0.574131
O O1 0.692935 0.456789 0.631311
O O2 0.292767 0.453643 0.307210
O O3 0.375412 0.477620 0.657874
O O4 0.427593 0.392642 0.587803
O O5 0.984399 0.514593 0.075665
O O6 0.108295 0.545529 0.427936
O O7 0.957008 0.601510 0.128446
O O8 0.171580 0.666460 0.097986
O O9 0.176588 0.661297 0.435503
O O10 0.827349 0.685236 0.084835
O O11 0.656548 0.843907 0.260283
O O12 0.977212 0.803878 0.581903
O O13 0.240091 0.265300 0.159073
O O14 0.355818 0.199041 0.425599
#
# Coordination Sequence:
#
# PCOD8055369 Si02
#       7
#     4   4   4   4   4   4   4
#     4  11  21  37  62  83 117 160 189 243 302 336
#     4  11  20  41  56  87 122 147 201 245 285 352
#     4  10  23  36  60  86 115 156 196 243 292 352
#     4  10  23  39  62  91 119 157 200 242 293 360
#     4  12  21  41  64  87 124 159 197 245 299 351
#     4  10  22  43  61  88 124 154 196 252 294 353
#     4  10  22  43  61  90 121 155 199 246 297 354
#
# _framework density 19.182631000000001
#
# number of rings (size 3 to 8) (size 9 to 14) (size 15 to 20)
#    0.857    0.571    4.286    1.714    0.000    1.143 
#    2.571    0.000    0.000    0.000    0.000    0.000 
#    0.000    0.000    0.000    0.000    0.000    0.000 
#
# Total GULP energy -173558.928753 kJ/mol
# GULP energy per Si atom -12397.066340 kJ/mol
# Density = 1.913897 g / cm^3
# Si number density = 19.182631 Si / 1000 Ang^3
#
#
#
# Elastic Constant Matrix: (Units=GPa)
#
#
# Indices 1 2 3 4 5 6 
#
# 1 135.9667 24.5423 27.6133 0.0000 -4.3313 0.0000
# 2 24.5423 70.0056 2.8929 0.0000 0.9766 0.0000
# 3 27.6133 2.8929 71.2166 0.0000 -7.9572 0.0000
# 4 0.0000 0.0000 0.0000 18.8527 0.0000 5.7511
# 5 -4.3313 0.9766 -7.9572 0.0000 32.4798 0.0000
# 6 0.0000 0.0000 0.0000 5.7511 0.0000 7.0808
#
#
#
# Elastic Compliance Matrix: (Units=1/GPa)
#
#
# Indices 1 2 3 4 5 6 
#
# 1 0.008524 -0.002865 -0.003138 0.000000 0.000454 0.000000
# 2 -0.002865 0.015282 0.000407 0.000000 -0.000742 0.000000
# 3 -0.003138 0.000407 0.015621 0.000000 0.003396 0.000000
# 4 0.000000 0.000000 0.000000 0.070514 0.000000 -0.057272
# 5 0.000454 -0.000742 0.003396 0.000000 0.031703 0.000000
# 6 0.000000 0.000000 0.000000 -0.057272 0.000000 0.187745
#
#
# Mechanical properties :
#
#
# Convention : Reuss Voigt Hill
#
# Bulk Modulus (GPa) = 35.41545 43.03178 39.22362
# Shear Modulus (GPa) = 14.28604 26.49200 20.38902
#
# Velocity S-wave (km/s) = 2.73195 3.72027 3.26374
# Velocity P-wave (km/s) = 5.33420 6.39806 5.89020
#
# Compressibility (1/GPa) = 0.02823626
#
# Stress axis : x y z
#
# Youngs Moduli (GPa) = 117.32175 65.43455 64.01530
#
# Poissons Ratio (x) = 0.18746 0.20087
# Poissons Ratio (y) = 0.33611 -0.02606
# Poissons Ratio (z) = 0.36813 -0.02664
#
# Static dielectric constant tensor:
#      x y z
#    x 3.413540 0.000000 -0.047820 
#    y 0.000000 3.450910 0.000000 
#    z -0.047820 0.000000 3.365470 
# 
# 
# High freq. dielectric constant tensor:
#      x y z
#    x 1.736280 0.000000 0.000830 
#    y 0.000000 1.757290 0.000000 
#    z 0.000830 0.000000 1.737880 
# 
# From -- ./inp_files/4264.got.cif
#   From: 2010.06.25/outbox.cif.g09.slc.cpg/sg9_3_cif.got.tgz:4264.got - 2010.06.27 21:40:51.
