data_PCOD8055155
_publ_section_title
;
Structure prediction by ZEFSAII (Michael W. Deem and Ramdas Pophale) SiO2 
 PCOD8055155
Probable space group: C C
;
_chemical_formula_sum "Si O2"
_cell_formula_units_Z 32
_cell_length_a 15.851563
_cell_length_b 17.657082
_cell_length_c 5.615140
_cell_angle_alpha 90.000000
_cell_angle_beta 110.347327
_cell_angle_gamma 90.000000
_cell_volume 1473.567920
_symmetry_space_group_name_H-M "C C"
_symmetry_group_IT_number 9
_symmetry_cell_setting 'monoclinic'
loop_
_space_group_symop_operation_xyz
x,y,z
x,-y,1/2+z
1/2+x,1/2+y,z
1/2+x,1/2-y,1/2+z
loop_
_atom_site_type_symbol
_atom_site_label
_atom_site_fract_x
_atom_site_fract_y
_atom_site_fract_z
Si Si1 0.315100 0.526503 0.412440
Si Si2 0.715178 0.728220 0.302568
Si Si3 0.874271 0.303222 0.594903
Si Si4 0.473936 0.419408 0.599050
Si Si5 0.825335 0.175590 0.215911
Si Si6 0.542954 0.710166 0.850214
Si Si7 0.295620 0.043594 0.919424
Si Si8 0.630988 0.382397 0.062012
O O1 0.268609 0.495933 0.609678
O O2 0.419325 0.496451 0.476251
O O3 0.306812 0.617585 0.417442
O O4 0.796738 0.711913 0.207455
O O5 0.736894 0.804072 0.475861
O O6 0.702286 0.652099 0.445191
O O7 0.623479 0.746226 0.078038
O O8 0.860450 0.254946 0.344155
O O9 0.870493 0.390393 0.510844
O O10 0.970146 0.277157 0.791280
O O11 0.400525 0.363002 0.632168
O O12 0.509918 0.372532 0.408368
O O13 0.557866 0.437008 0.859448
O O14 0.577899 0.689659 0.620446
O O15 0.191449 0.073573 0.817314
O O16 0.309677 0.003733 0.676213
#
# Coordination Sequence:
#
# PCOD8055155 Si02
#       8
#     4   4   4   4   4   4   4   4
#     4  10  23  38  57  96 141 180 221 268 341 425
#     4  11  22  41  66 102 137 177 234 291 352 412
#     4  12  23  43  72  95 138 182 243 293 344 422
#     4  10  22  36  63 101 145 177 221 276 358 429
#     4  11  21  38  67  92 134 186 228 281 342 412
#     4  11  22  40  70 103 134 183 237 290 348 412
#     4  12  28  46  68 100 142 191 231 291 363 426
#     4  11  23  42  63 103 141 180 225 288 362 424
#
# _framework density 21.715997999999999
#
# number of rings (size 3 to 8) (size 9 to 14) (size 15 to 20)
#    0.000    1.000    5.000    1.500    5.250    2.000 
#    0.000    0.000    0.000    3.000    0.000    0.000 
#    0.000    0.000    0.000    0.000    0.000    0.000 
#
# Total GULP energy -198243.909921 kJ/mol
# GULP energy per Si atom -12390.244370 kJ/mol
# Density = 2.166657 g / cm^3
# Si number density = 21.715998 Si / 1000 Ang^3
#
#
#
# Elastic Constant Matrix: (Units=GPa)
#
#
# Indices 1 2 3 4 5 6 
#
# 1 51.8657 28.9615 34.5542 0.0000 13.4434 0.0000
# 2 28.9615 114.5996 55.1119 0.0000 20.0994 0.0000
# 3 34.5542 55.1119 129.3983 0.0000 9.9517 0.0000
# 4 0.0000 0.0000 0.0000 42.5711 0.0000 5.2825
# 5 13.4434 20.0994 9.9517 0.0000 25.7129 0.0000
# 6 0.0000 0.0000 0.0000 5.2825 0.0000 31.5899
#
#
#
# Elastic Compliance Matrix: (Units=1/GPa)
#
#
# Indices 1 2 3 4 5 6 
#
# 1 0.026808 -0.002444 -0.005346 0.000000 -0.010037 0.000000
# 2 -0.002444 0.012562 -0.004165 0.000000 -0.006930 0.000000
# 3 -0.005346 -0.004165 0.010785 0.000000 0.001876 0.000000
# 4 0.000000 0.000000 0.000000 0.023988 0.000000 -0.004011
# 5 -0.010037 -0.006930 0.001876 0.000000 0.048829 0.000000
# 6 0.000000 0.000000 0.000000 -0.004011 0.000000 0.032326
#
#
# Mechanical properties :
#
#
# Convention : Reuss Voigt Hill
#
# Bulk Modulus (GPa) = 38.10046 59.23542 48.66794
# Shear Modulus (GPa) = 26.60184 31.79051 29.19617
#
# Velocity S-wave (km/s) = 3.50378 3.83027 3.67066
# Velocity P-wave (km/s) = 5.82680 6.84820 6.35804
#
# Compressibility (1/GPa) = 0.02624640
#
# Stress axis : x y z
#
# Youngs Moduli (GPa) = 37.30185 79.60605 92.71985
#
# Poissons Ratio (x) = 0.19453 0.49570
# Poissons Ratio (y) = 0.09115 0.38615
# Poissons Ratio (z) = 0.19942 0.33154
#
# Static dielectric constant tensor:
#      x y z
#    x 3.882290 0.000000 0.003710 
#    y 0.000000 4.458920 0.000000 
#    z 0.003710 0.000000 4.322720 
# 
# 
# High freq. dielectric constant tensor:
#      x y z
#    x 1.820950 0.000000 -0.013570 
#    y 0.000000 1.843170 0.000000 
#    z -0.013570 0.000000 1.876720 
# 
# From -- ./inp_files/2585.got.cif
#   From: 2010.06.25/outbox.cif.g09.slc.cpg/sg9_2_cif.got.tgz:2585.got - 2010.06.27 21:40:51.
