data_PCOD8055541
_publ_section_title
;
Structure prediction by ZEFSAII (Michael W. Deem and Ramdas Pophale) SiO2 
 PCOD8055541
Probable space group: C C
;
_chemical_formula_sum "Si O2"
_cell_formula_units_Z 32
_cell_length_a 8.303059
_cell_length_b 20.776132
_cell_length_c 10.858895
_cell_angle_alpha 90.000000
_cell_angle_beta 128.072626
_cell_angle_gamma 90.000000
_cell_volume 1474.653348
_symmetry_space_group_name_H-M "C C"
_symmetry_group_IT_number 9
_symmetry_cell_setting 'monoclinic'
loop_
_space_group_symop_operation_xyz
x,y,z
x,-y,1/2+z
1/2+x,1/2+y,z
1/2+x,1/2-y,1/2+z
loop_
_atom_site_type_symbol
_atom_site_label
_atom_site_fract_x
_atom_site_fract_y
_atom_site_fract_z
Si Si1 0.838350 0.063565 0.761510
Si Si2 0.022065 0.061119 0.424980
Si Si3 0.876230 0.690705 0.269165
Si Si4 0.960906 0.447728 0.254156
Si Si5 0.375245 0.813410 0.281971
Si Si6 0.650640 0.690680 0.415214
Si Si7 0.649661 0.073501 0.421865
Si Si8 0.114468 0.184531 0.900369
O O1 0.681436 0.063728 0.798758
O O2 0.689475 0.082648 0.582643
O O3 0.020059 0.114062 0.861848
O O4 0.949122 0.994261 0.796003
O O5 0.259336 0.049443 0.573069
O O6 0.989323 0.131883 0.350867
O O7 0.870857 0.057509 0.469666
O O8 0.758949 0.671525 0.338501
O O9 0.060075 0.640792 0.330265
O O10 0.939256 0.763093 0.327336
O O11 0.752235 0.691670 0.084881
O O12 0.946487 0.387099 0.340787
O O13 0.979610 0.517150 0.327992
O O14 0.554392 0.761270 0.368194
O O15 0.221981 0.799008 0.321027
O O16 0.288875 0.810831 0.102740
#
# Coordination Sequence:
#
# PCOD8055541 Si02
#       8
#     4   4   4   4   4   4   4   4
#     4  11  23  40  64  93 128 168 214 265 321 380
#     4  10  23  41  62  91 126 167 214 264 318 381
#     4  12  25  42  66  96 132 169 213 264 319 382
#     4  10  23  41  62  91 126 167 214 264 318 381
#     4  11  23  41  65  91 126 166 210 259 313 376
#     4  11  23  41  65  91 126 166 210 259 313 376
#     4  11  23  40  64  93 128 168 214 265 321 380
#     4  12  25  42  66  96 132 169 213 264 319 382
#
# _framework density 21.700015
#
# number of rings (size 3 to 8) (size 9 to 14) (size 15 to 20)
#    0.000    1.000    0.000    7.500    0.000    9.000 
#    0.000    0.000    0.000    0.000    0.000    0.000 
#    0.000    0.000    0.000    0.000    0.000    0.000 
#
# Total GULP energy -198279.627890 kJ/mol
# GULP energy per Si atom -12392.476743 kJ/mol
# Density = 2.165062 g / cm^3
# Si number density = 21.700015 Si / 1000 Ang^3
#
#
#
# Elastic Constant Matrix: (Units=GPa)
#
#
# Indices 1 2 3 4 5 6 
#
# 1 116.5340 -23.7431 27.8141 0.0000 -35.1908 0.0000
# 2 -23.7431 177.3491 30.8294 0.0000 48.9308 0.0000
# 3 27.8141 30.8294 109.7872 0.0000 -10.3403 0.0000
# 4 0.0000 0.0000 0.0000 31.2635 0.0000 8.3996
# 5 -35.1908 48.9308 -10.3403 0.0000 66.4323 0.0000
# 6 0.0000 0.0000 0.0000 8.3996 0.0000 38.2825
#
#
#
# Elastic Compliance Matrix: (Units=1/GPa)
#
#
# Indices 1 2 3 4 5 6 
#
# 1 0.010750 0.000485 -0.002392 0.000000 0.004965 0.000000
# 2 0.000485 0.007856 -0.002892 0.000000 -0.005980 0.000000
# 3 -0.002392 -0.002892 0.010766 0.000000 0.002539 0.000000
# 4 0.000000 0.000000 0.000000 0.033990 0.000000 -0.007458
# 5 0.004965 -0.005980 0.002539 0.000000 0.022482 0.000000
# 6 0.000000 0.000000 0.000000 -0.007458 0.000000 0.027758
#
#
# Mechanical properties :
#
#
# Convention : Reuss Voigt Hill
#
# Bulk Modulus (GPa) = 50.57146 52.60789 51.58967
# Shear Modulus (GPa) = 38.52318 51.78033 45.15176
#
# Velocity S-wave (km/s) = 4.21796 4.89016 4.56644
# Velocity P-wave (km/s) = 6.86126 7.49539 7.18532
#
# Compressibility (1/GPa) = 0.01977400
#
# Stress axis : x y z
#
# Youngs Moduli (GPa) = 93.02049 127.28991 92.88631
#
# Poissons Ratio (x) = -0.06177 0.22220
# Poissons Ratio (y) = -0.04514 0.26864
# Poissons Ratio (z) = 0.22252 0.36815
#
# Static dielectric constant tensor:
#      x y z
#    x 3.871410 0.000000 0.016260 
#    y 0.000000 5.179300 0.000000 
#    z 0.016260 0.000000 3.741850 
# 
# 
# High freq. dielectric constant tensor:
#      x y z
#    x 1.856880 0.000000 0.000480 
#    y 0.000000 1.880730 0.000000 
#    z 0.000480 0.000000 1.844740 
# 
# From -- ./inp_files/15494.got.cif
#   From: 2010.06.25/outbox.cif.g09.slc.cpg/sg9_8_cif.got.tgz:15494.got - 2010.06.27 21:40:51.
