data_PCOD8055881
_publ_section_title
;
Structure prediction by ZEFSAII (Michael W. Deem and Ramdas Pophale) SiO2 
 PCOD8055881
Probable space group: C C
;
_chemical_formula_sum "Si O2"
_cell_formula_units_Z 32
_cell_length_a 21.543120
_cell_length_b 15.527719
_cell_length_c 8.804348
_cell_angle_alpha 90.000000
_cell_angle_beta 29.372145
_cell_angle_gamma 90.000000
_cell_volume 1444.557706
_symmetry_space_group_name_H-M "C C"
_symmetry_group_IT_number 9
_symmetry_cell_setting 'monoclinic'
loop_
_space_group_symop_operation_xyz
x,y,z
x,-y,1/2+z
1/2+x,1/2+y,z
1/2+x,1/2-y,1/2+z
loop_
_atom_site_type_symbol
_atom_site_label
_atom_site_fract_x
_atom_site_fract_y
_atom_site_fract_z
Si Si1 0.982920 0.417481 0.228190
Si Si2 0.052839 0.036986 0.395022
Si Si3 0.216344 0.044436 0.333684
Si Si4 0.451073 0.700134 0.708951
Si Si5 0.325765 0.210104 0.213619
Si Si6 0.177960 0.678028 0.815601
Si Si7 0.126439 0.470757 0.629648
Si Si8 0.350535 0.408813 0.705997
O O1 0.852892 0.469704 0.461861
O O2 0.946754 0.318702 0.349227
O O3 0.034701 0.451288 0.279678
O O4 0.084288 0.425111 0.876772
O O5 0.979576 0.126325 0.521292
O O6 0.096506 0.046308 0.476585
O O7 0.181130 0.033437 0.022165
O O8 0.970054 0.950483 0.540349
O O9 0.224437 0.131516 0.420182
O O10 0.360877 0.768433 0.813947
O O11 0.579715 0.747749 0.482105
O O12 0.385497 0.652892 0.990924
O O13 0.265196 0.294087 0.269611
O O14 0.267140 0.654344 0.485900
O O15 0.107685 0.593459 0.027276
O O16 0.268614 0.507575 0.331893
#
# Coordination Sequence:
#
# PCOD8055881 Si02
#       8
#     4   4   4   4   4   4   4   4
#     4  10  24  45  71 103 140 194 242 300 366 446
#     4  12  22  48  71 103 142 192 251 301 361 457
#     4  10  24  44  72 101 143 189 251 294 369 447
#     4  12  26  48  69 105 152 189 243 314 376 438
#     4  10  25  46  66 103 145 182 238 302 371 432
#     4  12  26  46  68 110 141 188 245 307 380 436
#     4  12  24  45  73 101 144 186 252 299 367 455
#     4  12  27  46  72 108 141 200 246 303 374 451
#
# _framework density 22.152107999999998
#
# number of rings (size 3 to 8) (size 9 to 14) (size 15 to 20)
#    0.750    0.000    3.750    3.000    5.250    0.000 
#    2.250    0.000    0.000    0.000    0.000    0.000 
#    0.000    0.000    0.000    0.000    0.000    0.000 
#
# Total GULP energy -198233.361893 kJ/mol
# GULP energy per Si atom -12389.585118 kJ/mol
# Density = 2.210169 g / cm^3
# Si number density = 22.152108 Si / 1000 Ang^3
#
#
#
# Elastic Constant Matrix: (Units=GPa)
#
#
# Indices 1 2 3 4 5 6 
#
# 1 126.4847 47.6767 44.4677 0.0000 -7.7966 0.0000
# 2 47.6767 81.5557 53.9724 0.0000 2.4820 0.0000
# 3 44.4677 53.9724 117.8860 0.0000 10.3082 0.0000
# 4 0.0000 0.0000 0.0000 39.3017 0.0000 2.3377
# 5 -7.7966 2.4820 10.3082 0.0000 31.3310 0.0000
# 6 0.0000 0.0000 0.0000 2.3377 0.0000 51.3886
#
#
#
# Elastic Compliance Matrix: (Units=1/GPa)
#
#
# Indices 1 2 3 4 5 6 
#
# 1 0.010767 -0.005026 -0.002090 0.000000 0.003765 0.000000
# 2 -0.005026 0.019989 -0.007215 0.000000 -0.000460 0.000000
# 3 -0.002090 -0.007215 0.012942 0.000000 -0.004207 0.000000
# 4 0.000000 0.000000 0.000000 0.025513 0.000000 -0.001161
# 5 0.003765 -0.000460 -0.004207 0.000000 0.034275 0.000000
# 6 0.000000 0.000000 0.000000 -0.001161 0.000000 0.019512
#
#
# Mechanical properties :
#
#
# Convention : Reuss Voigt Hill
#
# Bulk Modulus (GPa) = 66.50679 68.68446 67.59562
# Shear Modulus (GPa) = 31.91347 36.39154 34.15251
#
# Velocity S-wave (km/s) = 3.79971 4.05755 3.93074
# Velocity P-wave (km/s) = 7.02413 7.28181 7.15413
#
# Compressibility (1/GPa) = 0.01503606
#
# Stress axis : x y z
#
# Youngs Moduli (GPa) = 92.87313 50.02758 77.26587
#
# Poissons Ratio (x) = 0.25145 0.16145
# Poissons Ratio (y) = 0.46680 0.55751
# Poissons Ratio (z) = 0.19407 0.36097
#
# Static dielectric constant tensor:
#      x y z
#    x 3.898140 0.000000 -0.126590 
#    y 0.000000 3.935840 0.000000 
#    z -0.126590 0.000000 3.875180 
# 
# 
# High freq. dielectric constant tensor:
#      x y z
#    x 1.878590 0.000000 -0.011090 
#    y 0.000000 1.867810 0.000000 
#    z -0.011090 0.000000 1.867350 
# 
# From -- ./inp_files/11783.got.cif
#   From: 2010.06.25/outbox.cif.g09.slc.cpg/sg9_6_cif.got.tgz:11783.got - 2010.06.27 21:40:51.
