data_PCOD8055357
_publ_section_title
;
Structure prediction by ZEFSAII (Michael W. Deem and Ramdas Pophale) SiO2 
 PCOD8055357
Probable space group: C C
;
_chemical_formula_sum "Si O2"
_cell_formula_units_Z 32
_cell_length_a 28.413534
_cell_length_b 10.835120
_cell_length_c 9.228955
_cell_angle_alpha 90.000000
_cell_angle_beta 30.024067
_cell_angle_gamma 90.000000
_cell_volume 1421.665183
_symmetry_space_group_name_H-M "C C"
_symmetry_group_IT_number 9
_symmetry_cell_setting 'monoclinic'
loop_
_space_group_symop_operation_xyz
x,y,z
x,-y,1/2+z
1/2+x,1/2+y,z
1/2+x,1/2-y,1/2+z
loop_
_atom_site_type_symbol
_atom_site_label
_atom_site_fract_x
_atom_site_fract_y
_atom_site_fract_z
Si Si1 0.392060 0.607314 0.190660
Si Si2 0.502065 0.532064 0.166541
Si Si3 0.678055 0.607448 0.169913
Si Si4 0.590553 0.983481 0.126157
Si Si5 0.114083 0.265113 0.843427
Si Si6 0.188859 0.385136 0.135506
Si Si7 0.942065 0.636263 0.629602
Si Si8 0.253681 0.892044 0.792295
O O1 0.415854 0.575238 0.294274
O O2 0.289450 0.563751 0.418255
O O3 0.401564 0.755041 0.133783
O O4 0.465450 0.527533 0.908822
O O5 0.571980 0.431194 0.909314
O O6 0.567905 0.645058 0.039136
O O7 0.693255 0.745015 0.069896
O O8 0.697438 0.599585 0.290752
O O9 0.749371 0.518779 0.893980
O O10 0.648233 0.975936 0.121728
O O11 0.476841 0.007620 0.457844
O O12 0.623004 0.863895 0.948234
O O13 0.622313 0.104969 0.953366
O O14 0.211442 0.221881 0.502282
O O15 0.042580 0.316944 0.916492
O O16 0.865100 0.620161 0.961542
#
# Coordination Sequence:
#
# PCOD8055357 Si02
#       8
#     4   4   4   4   4   4   4   4
#     4  11  23  43  70 102 138 187 239 296 361 425
#     4  10  22  42  70  96 136 184 241 290 356 428
#     4  11  24  44  73 104 141 191 242 305 356 439
#     4  12  26  44  70 102 150 188 242 293 381 427
#     4  10  24  44  70 100 142 193 236 305 366 427
#     4  12  26  44  70 104 147 189 239 300 371 435
#     4  11  24  46  71 102 147 197 234 305 363 442
#     4  11  25  45  74 104 149 187 253 298 372 429
#
# _framework density 22.508815999999999
#
# number of rings (size 3 to 8) (size 9 to 14) (size 15 to 20)
#    0.000    1.000    2.500    4.500    7.000    2.000 
#    2.250    1.250    0.000    0.000    0.000    0.000 
#    0.000    0.000    0.000    0.000    0.000    0.000 
#
# Total GULP energy -198239.924669 kJ/mol
# GULP energy per Si atom -12389.995292 kJ/mol
# Density = 2.245758 g / cm^3
# Si number density = 22.508816 Si / 1000 Ang^3
#
#
#
# Elastic Constant Matrix: (Units=GPa)
#
#
# Indices 1 2 3 4 5 6 
#
# 1 78.1016 21.6407 33.1003 0.0000 3.0078 0.0000
# 2 21.6407 97.5894 65.3160 0.0000 9.1683 0.0000
# 3 33.1003 65.3160 169.6309 0.0000 -1.1255 0.0000
# 4 0.0000 0.0000 0.0000 44.9496 0.0000 10.6246
# 5 3.0078 9.1683 -1.1255 0.0000 32.0525 0.0000
# 6 0.0000 0.0000 0.0000 10.6246 0.0000 34.6760
#
#
#
# Elastic Compliance Matrix: (Units=1/GPa)
#
#
# Indices 1 2 3 4 5 6 
#
# 1 0.014202 -0.001619 -0.002154 0.000000 -0.000945 0.000000
# 2 -0.001619 0.014560 -0.005318 0.000000 -0.004200 0.000000
# 3 -0.002154 -0.005318 0.008377 0.000000 0.002018 0.000000
# 4 0.000000 0.000000 0.000000 0.023984 0.000000 -0.007349
# 5 -0.000945 -0.004200 0.002018 0.000000 0.032560 0.000000
# 6 0.000000 0.000000 0.000000 -0.007349 0.000000 0.031090
#
#
# Mechanical properties :
#
#
# Convention : Reuss Voigt Hill
#
# Bulk Modulus (GPa) = 52.75358 65.04845 58.90101
# Shear Modulus (GPa) = 33.49562 37.35328 35.42445
#
# Velocity S-wave (km/s) = 3.86179 4.07811 3.97142
# Velocity P-wave (km/s) = 6.58576 7.15098 6.87418
#
# Compressibility (1/GPa) = 0.01895606
#
# Stress axis : x y z
#
# Youngs Moduli (GPa) = 70.41401 68.68126 119.37878
#
# Poissons Ratio (x) = 0.11117 0.25717
# Poissons Ratio (y) = 0.11398 0.63489
# Poissons Ratio (z) = 0.15169 0.36527
#
# Static dielectric constant tensor:
#      x y z
#    x 3.870930 0.000000 -0.024070 
#    y 0.000000 4.407690 0.000000 
#    z -0.024070 0.000000 4.186770 
# 
# 
# High freq. dielectric constant tensor:
#      x y z
#    x 1.872650 0.000000 -0.001310 
#    y 0.000000 1.897130 0.000000 
#    z -0.001310 0.000000 1.893540 
# 
# From -- ./inp_files/10749.got.cif
#   From: 2010.06.25/outbox.cif.g09.slc.cpg/sg9_6_cif.got.tgz:10749.got - 2010.06.27 21:40:51.
