data_PCOD8055260
_publ_section_title
;
Structure prediction by ZEFSAII (Michael W. Deem and Ramdas Pophale) SiO2 
 PCOD8055260
Probable space group: C C
;
_chemical_formula_sum "Si O2"
_cell_formula_units_Z 32
_cell_length_a 18.908941
_cell_length_b 6.702707
_cell_length_c 13.170780
_cell_angle_alpha 90.000000
_cell_angle_beta 67.689450
_cell_angle_gamma 90.000000
_cell_volume 1544.316522
_symmetry_space_group_name_H-M "C C"
_symmetry_group_IT_number 9
_symmetry_cell_setting 'monoclinic'
loop_
_space_group_symop_operation_xyz
x,y,z
x,-y,1/2+z
1/2+x,1/2+y,z
1/2+x,1/2-y,1/2+z
loop_
_atom_site_type_symbol
_atom_site_label
_atom_site_fract_x
_atom_site_fract_y
_atom_site_fract_z
Si Si1 0.563640 0.987109 0.355590
Si Si2 0.147575 0.492242 0.613013
Si Si3 0.318552 0.512388 0.551560
Si Si4 0.340268 0.771145 0.850783
Si Si5 0.918352 0.042680 0.184462
Si Si6 0.407078 0.180624 0.884743
Si Si7 0.168468 0.795958 0.920361
Si Si8 0.075497 0.820701 0.510899
O O1 0.587659 0.069375 0.232468
O O2 0.546732 0.176799 0.436257
O O3 0.490686 0.844755 0.386468
O O4 0.631416 0.847393 0.357720
O O5 0.228850 0.544470 0.619629
O O6 0.153959 0.298802 0.538724
O O7 0.117747 0.689119 0.572226
O O8 0.331002 0.375746 0.448559
O O9 0.357594 0.411921 0.628395
O O10 0.357380 0.722896 0.501847
O O11 0.399822 0.679497 0.736474
O O12 0.258010 0.808682 0.843929
O O13 0.373301 0.969724 0.877274
O O14 0.906677 0.198597 0.280557
O O15 0.004136 0.057767 0.095597
O O16 0.134860 0.018795 0.934435
#
# Coordination Sequence:
#
# PCOD8055260 Si02
#       8
#     4   4   4   4   4   4   4   4
#     4  11  23  40  63  94 129 166 211 267 317 380
#     4  10  22  41  62  91 131 165 213 264 318 376
#     4  10  22  41  62  92 128 167 210 269 314 378
#     4  10  23  40  64  93 125 168 219 260 317 380
#     4  11  23  40  65  93 128 165 211 263 318 379
#     4  11  23  41  65  91 127 167 213 264 321 377
#     4  10  23  41  63  91 127 169 214 265 315 380
#     4  11  23  40  64  91 127 171 213 260 324 380
#
# _framework density 20.721140999999999
#
# number of rings (size 3 to 8) (size 9 to 14) (size 15 to 20)
#    0.000    1.500    1.250    3.000    1.750    7.000 
#    0.000    2.500    0.000    0.000    0.000    0.000 
#    0.000    0.000    0.000    0.000    0.000    0.000 
#
# Total GULP energy -198445.094127 kJ/mol
# GULP energy per Si atom -12402.818383 kJ/mol
# Density = 2.067398 g / cm^3
# Si number density = 20.721141 Si / 1000 Ang^3
#
#
#
# Elastic Constant Matrix: (Units=GPa)
#
#
# Indices 1 2 3 4 5 6 
#
# 1 135.6418 83.0919 23.4602 0.0000 10.0774 0.0000
# 2 83.0919 201.1589 35.1370 0.0000 7.4125 0.0000
# 3 23.4602 35.1370 68.5975 0.0000 -3.8857 0.0000
# 4 0.0000 0.0000 0.0000 44.3761 0.0000 -13.8804
# 5 10.0774 7.4125 -3.8857 0.0000 31.5487 0.0000
# 6 0.0000 0.0000 0.0000 -13.8804 0.0000 44.9383
#
#
#
# Elastic Compliance Matrix: (Units=1/GPa)
#
#
# Indices 1 2 3 4 5 6 
#
# 1 0.010195 -0.003825 -0.001673 0.000000 -0.002564 0.000000
# 2 -0.003825 0.006980 -0.002307 0.000000 -0.000702 0.000000
# 3 -0.001673 -0.002307 0.016508 0.000000 0.003110 0.000000
# 4 0.000000 0.000000 0.000000 0.024945 0.000000 0.007705
# 5 -0.002564 -0.000702 0.003110 0.000000 0.033064 0.000000
# 6 0.000000 0.000000 0.000000 0.007705 0.000000 0.024633
#
#
# Mechanical properties :
#
#
# Convention : Reuss Voigt Hill
#
# Bulk Modulus (GPa) = 55.32900 76.53071 65.92986
# Shear Modulus (GPa) = 36.24305 41.75322 38.99814
#
# Velocity S-wave (km/s) = 4.18674 4.49375 4.34296
# Velocity P-wave (km/s) = 7.08036 7.99618 7.55216
#
# Compressibility (1/GPa) = 0.01807370
#
# Stress axis : x y z
#
# Youngs Moduli (GPa) = 98.08701 143.26990 60.57754
#
# Poissons Ratio (x) = 0.54794 0.10134
# Poissons Ratio (y) = 0.37514 0.13975
# Poissons Ratio (z) = 0.16409 0.33053
#
# Static dielectric constant tensor:
#      x y z
#    x 3.931550 0.000000 -0.018810 
#    y 0.000000 3.434940 0.000000 
#    z -0.018810 0.000000 3.811970 
# 
# 
# High freq. dielectric constant tensor:
#      x y z
#    x 1.827720 0.000000 0.000800 
#    y 0.000000 1.808140 0.000000 
#    z 0.000800 0.000000 1.814020 
# 
# From -- ./inp_files/19789.got.cif
#   From: 2010.06.25/outbox.cif.g09.slc.cpg/sg9_10_cif.got.tgz:19789.got - 2010.06.27 21:40:51.
