data_PCOD8055483
_publ_section_title
;
Structure prediction by ZEFSAII (Michael W. Deem and Ramdas Pophale) SiO2 
 PCOD8055483
Probable space group: C C
;
_chemical_formula_sum "Si O2"
_cell_formula_units_Z 28
_cell_length_a 10.594757
_cell_length_b 9.201601
_cell_length_c 19.898579
_cell_angle_alpha 90.000000
_cell_angle_beta 35.212817
_cell_angle_gamma 90.000000
_cell_volume 1118.568203
_symmetry_space_group_name_H-M "C C"
_symmetry_group_IT_number 9
_symmetry_cell_setting 'monoclinic'
loop_
_space_group_symop_operation_xyz
x,y,z
x,-y,1/2+z
1/2+x,1/2+y,z
1/2+x,1/2-y,1/2+z
loop_
_atom_site_type_symbol
_atom_site_label
_atom_site_fract_x
_atom_site_fract_y
_atom_site_fract_z
Si Si1 0.858590 0.148781 0.497990
Si Si2 0.073086 0.327055 0.513086
Si Si3 0.615748 0.084103 0.394228
Si Si4 0.390821 0.753443 0.185159
Si Si5 0.425573 0.632515 0.037609
Si Si6 0.815045 0.432639 0.750389
Si Si7 0.347861 0.057196 0.384314
O O1 0.644008 0.212813 0.555685
O O2 0.886447 0.246579 0.551695
O O3 0.081246 0.152240 0.357092
O O4 0.800635 0.981338 0.543274
O O5 0.151169 0.473294 0.440250
O O6 0.277795 0.221361 0.434140
O O7 0.968577 0.354440 0.630704
O O8 0.850877 0.149515 0.267433
O O9 0.463383 0.216350 0.483423
O O10 0.506946 0.005539 0.375678
O O11 0.288425 0.671222 0.164961
O O12 0.259292 0.902555 0.253508
O O13 0.646446 0.553691 0.967097
O O14 0.943895 0.435152 0.766189
#
# Coordination Sequence:
#
# PCOD8055483 Si02
#       7
#     4   4   4   4   4   4   4
#     4  10  25  46  66 102 147 183 229 299 355 417
#     4  10  23  46  72 102 135 184 237 290 353 423
#     4  12  24  42  72 106 135 183 241 281 354 421
#     4  12  24  41  72 105 138 187 234 295 347 426
#     4  10  23  43  67 101 139 181 234 280 358 411
#     4  10  22  46  67  98 140 186 229 291 358 403
#     4  10  25  46  66 102 146 176 230 296 353 417
#
# _framework density 25.032
#
# number of rings (size 3 to 8) (size 9 to 14) (size 15 to 20)
#    0.000    1.714    4.286    0.857    4.000    5.714 
#    2.571    0.000    0.000    0.000    0.000    0.000 
#    0.000    0.000    0.000    0.000    0.000    0.000 
#
# Total GULP energy -173492.346279 kJ/mol
# GULP energy per Si atom -12392.310449 kJ/mol
# Density = 2.497503 g / cm^3
# Si number density = 25.032000 Si / 1000 Ang^3
#
#
#
# Elastic Constant Matrix: (Units=GPa)
#
#
# Indices 1 2 3 4 5 6 
#
# 1 47.7663 11.7066 27.2698 0.0000 10.4791 0.0000
# 2 11.7066 97.5408 29.7718 -0.0001 16.2396 0.0000
# 3 27.2698 29.7718 135.0485 -0.0003 44.1100 0.0001
# 4 0.0000 -0.0001 -0.0003 43.6363 0.0001 9.5126
# 5 10.4791 16.2396 44.1100 0.0001 42.1975 0.0000
# 6 0.0000 0.0000 0.0001 9.5126 0.0000 40.1431
#
#
#
# Elastic Compliance Matrix: (Units=1/GPa)
#
#
# Indices 1 2 3 4 5 6 
#
# 1 0.023893 -0.001423 -0.004178 0.000000 -0.001018 0.000000
# 2 -0.001423 0.011264 -0.001360 0.000000 -0.002560 0.000000
# 3 -0.004178 -0.001360 0.012206 0.000000 -0.011198 0.000000
# 4 0.000000 0.000000 0.000000 0.024165 0.000000 -0.005726
# 5 -0.001018 -0.002560 -0.011198 0.000000 0.036642 0.000000
# 6 0.000000 0.000000 0.000000 -0.005726 0.000000 0.026268
#
#
# Mechanical properties :
#
#
# Convention : Reuss Voigt Hill
#
# Bulk Modulus (GPa) = 29.90323 46.42800 38.16561
# Shear Modulus (GPa) = 31.34679 39.30252 35.32466
#
# Velocity S-wave (km/s) = 3.54258 3.96674 3.76064
# Velocity P-wave (km/s) = 5.35771 6.29029 5.84264
#
# Compressibility (1/GPa) = 0.03344120
#
# Stress axis : x y z
#
# Youngs Moduli (GPa) = 41.85370 88.77719 81.92857
#
# Poissons Ratio (x) = 0.12630 0.34233
# Poissons Ratio (y) = 0.05955 0.11139
# Poissons Ratio (z) = 0.17488 0.12071
#
# Static dielectric constant tensor:
#      x y z
#    x 4.383730 0.000000 0.293560 
#    y 0.000000 4.754450 0.000000 
#    z 0.293560 0.000000 4.481820 
# 
# 
# High freq. dielectric constant tensor:
#      x y z
#    x 1.986940 0.000000 0.016820 
#    y 0.000000 2.005810 0.000000 
#    z 0.016820 0.000000 2.004040 
# 
# From -- ./inp_files/33107.got.cif
#   From: 2010.06.25/outbox.cif.g09.slc.cpg/sg9_17_cif.got.tgz:33107.got - 2010.06.27 21:40:51.
