data_PCOD8055848
_publ_section_title
;
Structure prediction by ZEFSAII (Michael W. Deem and Ramdas Pophale) SiO2 
 PCOD8055848
Probable space group: C C
;
_chemical_formula_sum "Si O2"
_cell_formula_units_Z 32
_cell_length_a 12.935112
_cell_length_b 11.609630
_cell_length_c 8.851998
_cell_angle_alpha 90.000000
_cell_angle_beta 108.403089
_cell_angle_gamma 90.000000
_cell_volume 1261.338225
_symmetry_space_group_name_H-M "C C"
_symmetry_group_IT_number 9
_symmetry_cell_setting 'monoclinic'
loop_
_space_group_symop_operation_xyz
x,y,z
x,-y,1/2+z
1/2+x,1/2+y,z
1/2+x,1/2-y,1/2+z
loop_
_atom_site_type_symbol
_atom_site_label
_atom_site_fract_x
_atom_site_fract_y
_atom_site_fract_z
Si Si1 0.360280 0.908279 0.651120
Si Si2 0.001506 0.786071 0.103000
Si Si3 0.095966 0.276648 0.049132
Si Si4 0.364217 0.135633 0.486234
Si Si5 0.280123 0.404907 0.945198
Si Si6 0.647870 0.413003 0.384382
Si Si7 0.566659 0.337803 0.819507
Si Si8 0.824564 0.867918 0.621077
O O1 0.470795 0.832915 0.675414
O O2 0.269118 0.868062 0.485906
O O3 0.377769 0.041519 0.623415
O O4 0.310710 0.901163 0.799325
O O5 0.107102 0.857114 0.209814
O O6 0.895992 0.866087 0.063582
O O7 0.035762 0.759024 0.948033
O O8 0.129310 0.251060 0.238270
O O9 0.986247 0.346003 0.987896
O O10 0.186822 0.341151 0.995345
O O11 0.069216 0.148133 0.970692
O O12 0.301755 0.242924 0.534582
O O13 0.267071 0.381058 0.759497
O O14 0.273602 0.540411 0.980862
O O15 0.643365 0.552000 0.393268
O O16 0.454417 0.385734 0.696344
#
# Coordination Sequence:
#
# PCOD8055848 Si02
#       8
#     4   4   4   4   4   4   4   4
#     4  12  29  47  78 108 158 205 255 325 392 458
#     4  11  24  47  75 106 153 200 257 324 377 454
#     4  11  25  47  73 111 159 201 262 315 393 463
#     4  11  29  52  75 115 159 206 256 321 391 463
#     4  11  24  46  78 114 152 198 258 315 391 456
#     4  12  24  46  76 113 148 204 262 323 383 461
#     4  10  24  43  74 111 152 201 261 319 376 453
#     4  10  25  48  81 112 153 201 259 318 383 460
#
# _framework density 25.369879999999998
#
# number of rings (size 3 to 8) (size 9 to 14) (size 15 to 20)
#    0.000    1.000    3.750    0.750   15.750    1.000 
#    0.000    0.000    0.000    0.000    0.000    0.000 
#    0.000    0.000    0.000    0.000    0.000    0.000 
#
# Total GULP energy -198277.856852 kJ/mol
# GULP energy per Si atom -12392.366053 kJ/mol
# Density = 2.531214 g / cm^3
# Si number density = 25.369880 Si / 1000 Ang^3
#
#
#
# Elastic Constant Matrix: (Units=GPa)
#
#
# Indices 1 2 3 4 5 6 
#
# 1 91.8366 32.3292 50.0450 0.0000 -30.4843 0.0000
# 2 32.3292 146.7254 65.3313 0.0000 -40.2404 0.0000
# 3 50.0450 65.3313 149.2629 0.0000 -38.2073 0.0000
# 4 0.0000 0.0000 0.0000 49.4492 0.0000 -11.4184
# 5 -30.4843 -40.2404 -38.2073 0.0000 42.6861 0.0000
# 6 0.0000 0.0000 0.0000 -11.4184 0.0000 27.0810
#
#
#
# Elastic Compliance Matrix: (Units=1/GPa)
#
#
# Indices 1 2 3 4 5 6 
#
# 1 0.015263 0.000332 -0.003104 0.000000 0.008436 0.000000
# 2 0.000332 0.009877 -0.002582 0.000000 0.007237 0.000000
# 3 -0.003104 -0.002582 0.009962 0.000000 0.004267 0.000000
# 4 0.000000 0.000000 0.000000 0.022404 0.000000 0.009446
# 5 0.008436 0.007237 0.004267 0.000000 0.040093 0.000000
# 6 0.000000 0.000000 0.000000 0.009446 0.000000 0.040909
#
#
# Mechanical properties :
#
#
# Convention : Reuss Voigt Hill
#
# Bulk Modulus (GPa) = 40.99022 75.91508 58.45265
# Shear Modulus (GPa) = 31.77694 39.85121 35.81408
#
# Velocity S-wave (km/s) = 3.54297 3.96764 3.76131
# Velocity P-wave (km/s) = 5.73838 7.13988 6.47715
#
# Compressibility (1/GPa) = 0.02439607
#
# Stress axis : x y z
#
# Youngs Moduli (GPa) = 65.51651 101.24877 100.37728
#
# Poissons Ratio (x) = -0.03365 0.31154
# Poissons Ratio (y) = -0.02178 0.25916
# Poissons Ratio (z) = 0.20334 0.26141
#
# Static dielectric constant tensor:
#      x y z
#    x 4.573070 0.000000 -0.107790 
#    y 0.000000 4.675790 0.000000 
#    z -0.107790 0.000000 4.861600 
# 
# 
# High freq. dielectric constant tensor:
#      x y z
#    x 2.014930 0.000000 -0.008460 
#    y 0.000000 2.007480 0.000000 
#    z -0.008460 0.000000 2.024610 
# 
# From -- ./inp_files/9182.got.cif
#   From: 2010.06.25/outbox.cif.g09.slc.cpg/sg9_5_cif.got.tgz:9182.got - 2010.06.27 21:40:51.
