data_PCOD8055753
_publ_section_title
;
Structure prediction by ZEFSAII (Michael W. Deem and Ramdas Pophale) SiO2 
 PCOD8055753
Probable space group: C C
;
_chemical_formula_sum "Si O2"
_cell_formula_units_Z 16
_cell_length_a 6.393064
_cell_length_b 21.240492
_cell_length_c 4.817122
_cell_angle_alpha 90.000000
_cell_angle_beta 119.076725
_cell_angle_gamma 90.000000
_cell_volume 571.686126
_symmetry_space_group_name_H-M "C C"
_symmetry_group_IT_number 9
_symmetry_cell_setting 'monoclinic'
loop_
_space_group_symop_operation_xyz
x,y,z
x,-y,1/2+z
1/2+x,1/2+y,z
1/2+x,1/2-y,1/2+z
loop_
_atom_site_type_symbol
_atom_site_label
_atom_site_fract_x
_atom_site_fract_y
_atom_site_fract_z
Si Si1 0.672110 0.667204 0.585740
Si Si2 0.971964 0.957281 0.770545
Si Si3 0.796355 0.237221 0.691644
Si Si4 0.662024 0.848556 0.587152
O O1 0.671478 0.595787 0.469164
O O2 0.762154 0.709965 0.400811
O O3 0.371751 0.680300 0.448392
O O4 0.879840 0.667297 0.966047
O O5 0.710139 0.923540 0.634104
O O6 0.000301 0.980949 0.475744
O O7 0.592468 0.254923 0.312851
O O8 0.739559 0.172909 0.829929
#
# Coordination Sequence:
#
# PCOD8055753 Si02
#       4
#     4   4   4   4
#     4  10  24  43  66 101 141 175 243 285 350 429
#     4  10  23  46  74 104 142 190 235 300 366 420
#     4  12  25  42  70  98 140 190 231 288 358 416
#     4  10  24  43  66 101 141 175 243 285 350 429
#
# _framework density 27.987386000000001
#
# number of rings (size 3 to 8) (size 9 to 14) (size 15 to 20)
#    1.500    0.000    0.000    4.500    0.000    8.000 
#    0.000    0.000    0.000    0.000    0.000    0.000 
#    0.000    0.000    0.000    0.000    0.000    0.000 
#
# Total GULP energy -99114.647284 kJ/mol
# GULP energy per Si atom -12389.330910 kJ/mol
# Density = 2.792368 g / cm^3
# Si number density = 27.987386 Si / 1000 Ang^3
#
#
#
# Elastic Constant Matrix: (Units=GPa)
#
#
# Indices 1 2 3 4 5 6 
#
# 1 108.2007 27.2532 26.0571 0.0000 2.8590 0.0000
# 2 27.2532 150.6447 41.0795 0.0000 1.6837 0.0000
# 3 26.0571 41.0795 150.8714 0.0000 2.0344 0.0000
# 4 0.0000 0.0000 0.0000 62.0623 0.0000 6.4902
# 5 2.8590 1.6837 2.0344 0.0000 45.9900 0.0000
# 6 0.0000 0.0000 0.0000 6.4902 0.0000 26.8179
#
#
#
# Elastic Compliance Matrix: (Units=1/GPa)
#
#
# Indices 1 2 3 4 5 6 
#
# 1 0.009934 -0.001432 -0.001319 0.000000 -0.000507 0.000000
# 2 -0.001432 0.007378 -0.001760 0.000000 -0.000103 0.000000
# 3 -0.001319 -0.001760 0.007338 0.000000 -0.000178 0.000000
# 4 0.000000 0.000000 0.000000 0.016531 0.000000 -0.004001
# 5 -0.000507 -0.000103 -0.000178 0.000000 0.021787 0.000000
# 6 0.000000 0.000000 0.000000 -0.004001 0.000000 0.038257
#
#
# Mechanical properties :
#
#
# Convention : Reuss Voigt Hill
#
# Bulk Modulus (GPa) = 63.98935 66.49962 65.24449
# Shear Modulus (GPa) = 43.30649 47.99582 45.65115
#
# Velocity S-wave (km/s) = 3.93791 4.14564 4.04311
# Velocity P-wave (km/s) = 6.60223 6.83573 6.72000
#
# Compressibility (1/GPa) = 0.01562760
#
# Stress axis : x y z
#
# Youngs Moduli (GPa) = 100.66696 135.53195 136.28311
#
# Poissons Ratio (x) = 0.19405 0.17976
# Poissons Ratio (y) = 0.14413 0.23990
# Poissons Ratio (z) = 0.13278 0.23858
#
# Static dielectric constant tensor:
#      x y z
#    x 5.350760 0.000000 0.835010 
#    y 0.000000 5.266420 0.000000 
#    z 0.835010 0.000000 6.372040 
# 
# 
# High freq. dielectric constant tensor:
#      x y z
#    x 2.132430 0.000000 0.014540 
#    y 0.000000 2.158870 0.000000 
#    z 0.014540 0.000000 2.189170 
# 
# From -- ./inp_files/130.got.cif
#   From: 2010.06.25/outbox.cif.g09.slc.cpg/sg9_1_cif.got.tgz:130.got - 2010.06.27 21:40:51.
