data_PCOD8055034
_publ_section_title
;
Structure prediction by ZEFSAII (Michael W. Deem and Ramdas Pophale) SiO2 
 PCOD8055034
Probable space group: C C
;
_chemical_formula_sum "Si O2"
_cell_formula_units_Z 20
_cell_length_a 11.322702
_cell_length_b 9.081665
_cell_length_c 8.107201
_cell_angle_alpha 90.000000
_cell_angle_beta 89.820309
_cell_angle_gamma 90.000000
_cell_volume 833.651162
_symmetry_space_group_name_H-M "C C"
_symmetry_group_IT_number 9
_symmetry_cell_setting 'monoclinic'
loop_
_space_group_symop_operation_xyz
x,y,z
x,-y,1/2+z
1/2+x,1/2+y,z
1/2+x,1/2-y,1/2+z
loop_
_atom_site_type_symbol
_atom_site_label
_atom_site_fract_x
_atom_site_fract_y
_atom_site_fract_z
Si Si1 0.006110 0.808591 0.483350
Si Si2 0.245903 0.801529 0.294318
Si Si3 0.936331 0.084533 0.336417
Si Si4 0.073959 0.705923 0.037443
Si Si5 0.962364 0.480181 0.828271
O O1 0.140082 0.829565 0.420499
O O2 0.999274 0.864506 0.668901
O O3 0.956433 0.641194 0.477286
O O4 0.927211 0.908988 0.359447
O O5 0.307145 0.652483 0.355282
O O6 0.200621 0.243340 0.609390
O O7 0.336432 0.939603 0.298133
O O8 0.013133 0.140652 0.491297
O O9 0.065705 0.599054 0.875560
O O10 0.998100 0.616153 0.171780
#
# Coordination Sequence:
#
# PCOD8055034 Si02
#       5
#     4   4   4   4   4
#     4  11  24  44  69 100 135 174 227 274 327 403
#     4  10  24  46  70  96 135 179 212 280 343 377
#     4  11  25  44  67 101 136 174 227 275 327 403
#     4  10  22  42  67  99 133 172 225 268 326 400
#     4  10  21  42  69  98 131 173 223 269 325 401
#
# _framework density 23.990849999999998
#
# number of rings (size 3 to 8) (size 9 to 14) (size 15 to 20)
#    0.000    1.600    0.000    4.800    0.000   12.800 
#    0.000   14.000    0.000    0.000    0.000    0.000 
#    0.000    0.000    0.000    0.000    0.000    0.000 
#
# Total GULP energy -123884.490258 kJ/mol
# GULP energy per Si atom -12388.449026 kJ/mol
# Density = 2.393625 g / cm^3
# Si number density = 23.990850 Si / 1000 Ang^3
#
#
#
# Elastic Constant Matrix: (Units=GPa)
#
#
# Indices 1 2 3 4 5 6 
#
# 1 98.4731 64.9886 22.4633 0.0000 32.0007 0.0000
# 2 64.9886 122.5938 27.4436 0.0000 20.5172 0.0000
# 3 22.4633 27.4436 84.9574 0.0000 8.7693 0.0000
# 4 0.0000 0.0000 0.0000 44.4953 0.0000 11.9148
# 5 32.0007 20.5172 8.7693 0.0000 41.3571 0.0000
# 6 0.0000 0.0000 0.0000 11.9148 0.0000 45.2421
#
#
#
# Elastic Compliance Matrix: (Units=1/GPa)
#
#
# Indices 1 2 3 4 5 6 
#
# 1 0.019284 -0.008142 -0.001375 0.000000 -0.010590 0.000000
# 2 -0.008142 0.012872 -0.002041 0.000000 0.000347 0.000000
# 3 -0.001375 -0.002041 0.012861 0.000000 -0.000650 0.000000
# 4 0.000000 0.000000 0.000000 0.024179 0.000000 -0.006368
# 5 -0.010590 0.000347 -0.000650 0.000000 0.032340 0.000000
# 6 0.000000 0.000000 0.000000 -0.006368 0.000000 0.023780
#
#
# Mechanical properties :
#
#
# Convention : Reuss Voigt Hill
#
# Bulk Modulus (GPa) = 45.66394 59.53503 52.59948
# Shear Modulus (GPa) = 32.10609 38.96083 35.53346
#
# Velocity S-wave (km/s) = 3.66220 4.03424 3.85271
# Velocity P-wave (km/s) = 6.07927 6.82420 6.46248
#
# Compressibility (1/GPa) = 0.02189912
#
# Stress axis : x y z
#
# Youngs Moduli (GPa) = 51.85647 77.68673 77.75631
#
# Poissons Ratio (x) = 0.63256 0.10695
# Poissons Ratio (y) = 0.42224 0.15870
# Poissons Ratio (z) = 0.07133 0.15856
#
# Static dielectric constant tensor:
#      x y z
#    x 4.129240 0.000000 0.380330 
#    y 0.000000 5.089720 0.000000 
#    z 0.380330 0.000000 4.482660 
# 
# 
# High freq. dielectric constant tensor:
#      x y z
#    x 1.926120 0.000000 0.019600 
#    y 0.000000 1.980410 0.000000 
#    z 0.019600 0.000000 1.959820 
# 
# From -- ./inp_files/6644.got.cif
#   From: 2010.06.25/outbox.cif.g09.slc.cpg/sg9_4_cif.got.tgz:6644.got - 2010.06.27 21:40:51.
