data_PCOD8055271
_publ_section_title
;
Structure prediction by ZEFSAII (Michael W. Deem and Ramdas Pophale) SiO2 
 PCOD8055271
Probable space group: C C
;
_chemical_formula_sum "Si O2"
_cell_formula_units_Z 32
_cell_length_a 17.566997
_cell_length_b 11.532313
_cell_length_c 13.494026
_cell_angle_alpha 90.000000
_cell_angle_beta 32.510347
_cell_angle_gamma 90.000000
_cell_volume 1469.247969
_symmetry_space_group_name_H-M "C C"
_symmetry_group_IT_number 9
_symmetry_cell_setting 'monoclinic'
loop_
_space_group_symop_operation_xyz
x,y,z
x,-y,1/2+z
1/2+x,1/2+y,z
1/2+x,1/2-y,1/2+z
loop_
_atom_site_type_symbol
_atom_site_label
_atom_site_fract_x
_atom_site_fract_y
_atom_site_fract_z
Si Si1 0.209740 0.656595 0.811800
Si Si2 0.937985 0.228602 0.694405
Si Si3 0.972282 0.388388 0.824213
Si Si4 0.281741 0.601488 0.207917
Si Si5 0.790922 0.049966 0.974709
Si Si6 0.185276 0.692765 0.610706
Si Si7 0.410628 0.866526 0.316129
Si Si8 0.480666 0.200291 0.530454
O O1 0.350657 0.728748 0.686987
O O2 0.230579 0.519222 0.818489
O O3 0.164696 0.664705 0.748331
O O4 0.093399 0.725179 0.002760
O O5 0.884029 0.310366 0.843464
O O6 0.915486 0.100301 0.767168
O O7 0.915498 0.515819 0.870502
O O8 0.141971 0.382811 0.620157
O O9 0.930019 0.352851 0.981873
O O10 0.415531 0.668613 0.111690
O O11 0.151829 0.693937 0.349001
O O12 0.334724 0.563730 0.041119
O O13 0.770984 0.914636 0.967963
O O14 0.263233 0.812265 0.509320
O O15 0.037560 0.713460 0.717522
O O16 0.419796 0.878413 0.187013
#
# Coordination Sequence:
#
# PCOD8055271 Si02
#       8
#     4   4   4   4   4   4   4   4
#     4  11  25  41  70  95 136 176 222 275 344 391
#     4  12  21  40  68  99 126 176 218 272 333 398
#     4  10  22  41  64 100 131 168 221 279 328 401
#     4  10  22  43  64  97 133 175 218 279 325 396
#     4   9  20  40  67  89 134 171 216 274 329 381
#     4  10  23  45  61  94 132 176 219 274 328 403
#     4  11  23  41  67  90 132 176 220 268 340 395
#     4  11  22  39  69  94 130 178 222 269 339 397
#
# _framework density 21.77985
#
# number of rings (size 3 to 8) (size 9 to 14) (size 15 to 20)
#    0.000    1.500    2.500    3.000    3.500    1.000 
#    2.250    5.000    0.000    0.000    0.000    0.000 
#    0.000    0.000    0.000    0.000    0.000    0.000 
#
# Total GULP energy -198256.345315 kJ/mol
# GULP energy per Si atom -12391.021582 kJ/mol
# Density = 2.173028 g / cm^3
# Si number density = 21.779850 Si / 1000 Ang^3
#
#
#
# Elastic Constant Matrix: (Units=GPa)
#
#
# Indices 1 2 3 4 5 6 
#
# 1 86.8186 28.4554 11.8444 0.0000 -2.4634 0.0000
# 2 28.4554 59.6024 37.8106 0.0000 -5.7844 0.0000
# 3 11.8444 37.8106 57.1812 0.0000 5.2230 0.0000
# 4 0.0000 0.0000 0.0000 43.6192 0.0000 -1.4841
# 5 -2.4634 -5.7844 5.2230 0.0000 28.8160 0.0000
# 6 0.0000 0.0000 0.0000 -1.4841 0.0000 33.4490
#
#
#
# Elastic Compliance Matrix: (Units=1/GPa)
#
#
# Indices 1 2 3 4 5 6 
#
# 1 0.013904 -0.008568 0.002882 0.000000 -0.001054 0.000000
# 2 -0.008568 0.036937 -0.023651 0.000000 0.010969 0.000000
# 3 0.002882 -0.023651 0.033496 0.000000 -0.010573 0.000000
# 4 0.000000 0.000000 0.000000 0.022960 0.000000 0.001019
# 5 -0.001054 0.010969 -0.010573 0.000000 0.038731 0.000000
# 6 0.000000 0.000000 0.000000 0.001019 0.000000 0.029941
#
#
# Mechanical properties :
#
#
# Convention : Reuss Voigt Hill
#
# Bulk Modulus (GPa) = 38.96898 39.98031 39.47465
# Shear Modulus (GPa) = 20.55926 29.54296 25.05111
#
# Velocity S-wave (km/s) = 3.07572 3.68698 3.39513
# Velocity P-wave (km/s) = 5.52671 6.04330 5.79077
#
# Compressibility (1/GPa) = 0.02566143
#
# Stress axis : x y z
#
# Youngs Moduli (GPa) = 71.92413 27.07298 29.85403
#
# Poissons Ratio (x) = 0.23197 -0.08604
# Poissons Ratio (y) = 0.61628 0.70609
# Poissons Ratio (z) = -0.20729 0.64032
#
# Static dielectric constant tensor:
#      x y z
#    x 4.325910 0.000000 0.039510 
#    y 0.000000 3.934020 0.000000 
#    z 0.039510 0.000000 3.726830 
# 
# 
# High freq. dielectric constant tensor:
#      x y z
#    x 1.878510 0.000000 0.019080 
#    y 0.000000 1.843390 0.000000 
#    z 0.019080 0.000000 1.832180 
# 
# From -- ./inp_files/9262.got.cif
#   From: 2010.06.25/outbox.cif.g09.slc.cpg/sg9_5_cif.got.tgz:9262.got - 2010.06.27 21:40:51.
