data_PCOD8055032
_publ_section_title
;
Structure prediction by ZEFSAII (Michael W. Deem and Ramdas Pophale) SiO2 
 PCOD8055032
Probable space group: C C
;
_chemical_formula_sum "Si O2"
_cell_formula_units_Z 32
_cell_length_a 10.097348
_cell_length_b 15.602824
_cell_length_c 10.959145
_cell_angle_alpha 90.000000
_cell_angle_beta 56.038417
_cell_angle_gamma 90.000000
_cell_volume 1432.048388
_symmetry_space_group_name_H-M "C C"
_symmetry_group_IT_number 9
_symmetry_cell_setting 'monoclinic'
loop_
_space_group_symop_operation_xyz
x,y,z
x,-y,1/2+z
1/2+x,1/2+y,z
1/2+x,1/2-y,1/2+z
loop_
_atom_site_type_symbol
_atom_site_label
_atom_site_fract_x
_atom_site_fract_y
_atom_site_fract_z
Si Si1 0.187940 0.087170 0.420050
Si Si2 0.199829 0.650114 0.724814
Si Si3 0.703784 0.991011 0.029824
Si Si4 0.037963 0.349437 0.712387
Si Si5 0.490923 0.657272 0.726637
Si Si6 0.290672 0.373507 0.780067
Si Si7 0.010303 0.932150 0.456349
Si Si8 0.453806 0.713961 0.413367
O O1 0.369766 0.113281 0.339405
O O2 0.114595 0.097419 0.592375
O O3 0.092498 0.145701 0.372634
O O4 0.173767 0.986148 0.390912
O O5 0.142682 0.569238 0.672960
O O6 0.310345 0.625513 0.785533
O O7 0.313516 0.713914 0.586593
O O8 0.038260 0.694056 0.856400
O O9 0.891983 0.999268 0.955919
O O10 0.693652 0.948093 0.902258
O O11 0.614406 0.082677 0.078076
O O12 0.154815 0.333073 0.765731
O O13 0.015946 0.255121 0.666797
O O14 0.525141 0.647434 0.854146
O O15 0.439268 0.404487 0.622331
O O16 0.365689 0.304233 0.831350
#
# Coordination Sequence:
#
# PCOD8055032 Si02
#       8
#     4   4   4   4   4   4   4   4
#     4  11  23  43  65 104 129 178 233 279 345 410
#     4  10  21  43  71 100 132 188 229 283 345 420
#     4  10  22  43  66  97 136 181 226 278 348 418
#     4  11  26  42  67 107 133 181 228 295 349 396
#     4  11  24  43  71  99 141 174 235 286 343 421
#     4  10  23  44  66  97 136 183 223 276 356 414
#     4  11  22  40  71  92 129 190 220 278 346 412
#     4  10  21  42  69  94 140 177 234 277 344 421
#
# _framework density 22.345614000000001
#
# number of rings (size 3 to 8) (size 9 to 14) (size 15 to 20)
#    0.000    1.500    5.000    0.750    5.250    3.000 
#    4.500    0.000    0.000    0.000    0.000    0.000 
#    0.000    0.000    0.000    0.000    0.000    0.000 
#
# Total GULP energy -198302.476784 kJ/mol
# GULP energy per Si atom -12393.904799 kJ/mol
# Density = 2.229475 g / cm^3
# Si number density = 22.345614 Si / 1000 Ang^3
#
#
#
# Elastic Constant Matrix: (Units=GPa)
#
#
# Indices 1 2 3 4 5 6 
#
# 1 65.0453 -0.7007 15.6014 0.0000 -4.5524 0.0000
# 2 -0.7007 87.7954 26.9067 0.0000 -0.7129 0.0000
# 3 15.6014 26.9067 69.1752 0.0000 6.7892 0.0000
# 4 0.0000 0.0000 0.0000 40.8396 0.0000 -4.4036
# 5 -4.5524 -0.7129 6.7892 0.0000 35.3128 0.0000
# 6 0.0000 0.0000 0.0000 -4.4036 0.0000 29.9436
#
#
#
# Elastic Compliance Matrix: (Units=1/GPa)
#
#
# Indices 1 2 3 4 5 6 
#
# 1 0.016735 0.001599 -0.004700 0.000000 0.003093 0.000000
# 2 0.001599 0.013139 -0.005624 0.000000 0.001553 0.000000
# 3 -0.004700 -0.005624 0.018116 0.000000 -0.004202 0.000000
# 4 0.000000 0.000000 0.000000 0.024881 0.000000 0.003659
# 5 0.003093 0.001553 -0.004202 0.000000 0.029556 0.000000
# 6 0.000000 0.000000 0.000000 0.003659 0.000000 0.033934
#
#
# Mechanical properties :
#
#
# Convention : Reuss Voigt Hill
#
# Bulk Modulus (GPa) = 32.74300 33.95896 33.35098
# Shear Modulus (GPa) = 30.48967 33.23311 31.86139
#
# Velocity S-wave (km/s) = 3.69787 3.86065 3.78013
# Velocity P-wave (km/s) = 5.73734 5.92477 5.83181
#
# Compressibility (1/GPa) = 0.03054088
#
# Stress axis : x y z
#
# Youngs Moduli (GPa) = 59.75534 76.10958 55.20026
#
# Poissons Ratio (x) = -0.12170 0.25943
# Poissons Ratio (y) = -0.09555 0.31042
# Poissons Ratio (z) = 0.28084 0.42801
#
# Static dielectric constant tensor:
#      x y z
#    x 4.055390 0.000000 0.161970 
#    y 0.000000 3.920150 0.000000 
#    z 0.161970 0.000000 3.971780 
# 
# 
# High freq. dielectric constant tensor:
#      x y z
#    x 1.869910 0.000000 0.012960 
#    y 0.000000 1.871210 0.000000 
#    z 0.012960 0.000000 1.879510 
# 
# From -- ./inp_files/14726.got.cif
#   From: 2010.06.25/outbox.cif.g09.slc.cpg/sg9_8_cif.got.tgz:14726.got - 2010.06.27 21:40:51.
