data_PCOD8055489
_publ_section_title
;
Structure prediction by ZEFSAII (Michael W. Deem and Ramdas Pophale) SiO2 
 PCOD8055489
Probable space group: C C
;
_chemical_formula_sum "Si O2"
_cell_formula_units_Z 28
_cell_length_a 4.982476
_cell_length_b 24.661658
_cell_length_c 10.894960
_cell_angle_alpha 90.000000
_cell_angle_beta 62.991776
_cell_angle_gamma 90.000000
_cell_volume 1192.730274
_symmetry_space_group_name_H-M "C C"
_symmetry_group_IT_number 9
_symmetry_cell_setting 'monoclinic'
loop_
_space_group_symop_operation_xyz
x,y,z
x,-y,1/2+z
1/2+x,1/2+y,z
1/2+x,1/2-y,1/2+z
loop_
_atom_site_type_symbol
_atom_site_label
_atom_site_fract_x
_atom_site_fract_y
_atom_site_fract_z
Si Si1 0.704430 0.529626 0.561400
Si Si2 0.463988 0.902425 0.830237
Si Si3 0.876155 0.781230 0.314289
Si Si4 0.087100 0.813564 0.012543
Si Si5 0.636116 0.905774 0.137931
Si Si6 0.800449 0.343882 0.392059
Si Si7 0.640590 0.591848 0.153587
O O1 0.780023 0.542091 0.401683
O O2 0.385630 0.558269 0.660165
O O3 0.715859 0.466429 0.583013
O O4 0.996248 0.556706 0.563222
O O5 0.359989 0.856658 0.950754
O O6 0.383128 0.889655 0.705366
O O7 0.814789 0.908765 0.781161
O O8 0.674869 0.727920 0.384459
O O9 0.641303 0.829937 0.358324
O O10 0.115986 0.793368 0.372693
O O11 0.056954 0.779577 0.146502
O O12 0.782907 0.849266 0.054611
O O13 0.348215 0.891654 0.283332
O O14 0.630469 0.364211 0.547663
#
# Coordination Sequence:
#
# PCOD8055489 Si02
#       7
#     4   4   4   4   4   4   4
#     4  11  24  43  70  99 134 189 229 285 359 418
#     4  11  25  46  65 103 141 181 233 298 351 411
#     4  11  26  45  76  99 139 186 236 289 359 416
#     4  10  25  48  74 107 139 188 234 296 354 426
#     4  10  22  46  70  97 143 177 233 290 345 427
#     4  11  25  44  65 103 136 182 232 293 346 415
#     4  12  27  40  72 100 142 183 235 295 346 431
#
# _framework density 23.475548
#
# number of rings (size 3 to 8) (size 9 to 14) (size 15 to 20)
#    0.000    1.143    0.000    6.000    8.000    6.857 
#    0.000    0.000    0.000    0.000    0.000    0.000 
#    0.000    0.000    0.000    0.000    0.000    0.000 
#
# Total GULP energy -173504.161665 kJ/mol
# GULP energy per Si atom -12393.154405 kJ/mol
# Density = 2.342212 g / cm^3
# Si number density = 23.475548 Si / 1000 Ang^3
#
#
#
# Elastic Constant Matrix: (Units=GPa)
#
#
# Indices 1 2 3 4 5 6 
#
# 1 101.8466 17.4634 14.1639 0.0000 -1.1038 0.0000
# 2 17.4634 79.2135 41.6751 0.0000 5.0037 0.0000
# 3 14.1639 41.6751 112.7338 0.0000 -0.3754 0.0000
# 4 0.0000 0.0000 0.0000 42.9441 0.0000 1.9312
# 5 -1.1038 5.0037 -0.3754 0.0000 29.5303 0.0000
# 6 0.0000 0.0000 0.0000 1.9312 0.0000 28.7728
#
#
#
# Elastic Compliance Matrix: (Units=1/GPa)
#
#
# Indices 1 2 3 4 5 6 
#
# 1 0.010248 -0.002022 -0.000538 0.000000 0.000719 0.000000
# 2 -0.002022 0.016294 -0.005779 0.000000 -0.002910 0.000000
# 3 -0.000538 -0.005779 0.011078 0.000000 0.001100 0.000000
# 4 0.000000 0.000000 0.000000 0.023357 0.000000 -0.001568
# 5 0.000719 -0.002910 0.001100 0.000000 0.034397 0.000000
# 6 0.000000 0.000000 0.000000 -0.001568 0.000000 0.034860
#
#
# Mechanical properties :
#
#
# Convention : Reuss Voigt Hill
#
# Bulk Modulus (GPa) = 47.74930 48.93318 48.34124
# Shear Modulus (GPa) = 32.49011 34.94888 33.71949
#
# Velocity S-wave (km/s) = 3.72425 3.86260 3.79405
# Velocity P-wave (km/s) = 6.23519 6.38612 6.31110
#
# Compressibility (1/GPa) = 0.02094272
#
# Stress axis : x y z
#
# Youngs Moduli (GPa) = 97.58069 61.37158 90.26778
#
# Poissons Ratio (x) = 0.12408 0.04854
# Poissons Ratio (y) = 0.19728 0.52168
# Poissons Ratio (z) = 0.05248 0.35468
#
# Static dielectric constant tensor:
#      x y z
#    x 4.069690 0.000000 0.029560 
#    y 0.000000 4.113540 0.000000 
#    z 0.029560 0.000000 4.444230 
# 
# 
# High freq. dielectric constant tensor:
#      x y z
#    x 1.928990 0.000000 -0.008150 
#    y 0.000000 1.915290 0.000000 
#    z -0.008150 0.000000 1.937510 
# 
# From -- ./inp_files/13845.got.cif
#   From: 2010.06.25/outbox.cif.g09.slc.cpg/sg9_7_cif.got.tgz:13845.got - 2010.06.27 21:40:51.
