data_PCOD8055530
_publ_section_title
;
Structure prediction by ZEFSAII (Michael W. Deem and Ramdas Pophale) SiO2 
 PCOD8055530
Probable space group: C C
;
_chemical_formula_sum "Si O2"
_cell_formula_units_Z 32
_cell_length_a 6.730456
_cell_length_b 17.292805
_cell_length_c 14.552007
_cell_angle_alpha 90.000000
_cell_angle_beta 58.179478
_cell_angle_gamma 90.000000
_cell_volume 1439.131363
_symmetry_space_group_name_H-M "C C"
_symmetry_group_IT_number 9
_symmetry_cell_setting 'monoclinic'
loop_
_space_group_symop_operation_xyz
x,y,z
x,-y,1/2+z
1/2+x,1/2+y,z
1/2+x,1/2-y,1/2+z
loop_
_atom_site_type_symbol
_atom_site_label
_atom_site_fract_x
_atom_site_fract_y
_atom_site_fract_z
Si Si1 0.074730 0.780208 0.856950
Si Si2 0.558653 0.273230 0.498808
Si Si3 0.591576 0.369500 0.672914
Si Si4 0.856594 0.994865 0.313142
Si Si5 0.221157 0.090549 0.845395
Si Si6 0.863837 0.490855 0.497184
Si Si7 0.675830 0.340490 0.023421
Si Si8 0.711007 0.861643 0.227070
O O1 0.169583 0.816649 0.738853
O O2 0.164176 0.691589 0.828986
O O3 0.200353 0.826170 0.908477
O O4 0.793897 0.778607 0.938019
O O5 0.521318 0.314665 0.605963
O O6 0.563159 0.337126 0.416360
O O7 0.334556 0.219617 0.539885
O O8 0.376701 0.419333 0.765820
O O9 0.788707 0.431630 0.595494
O O10 0.643490 0.997448 0.437051
O O11 0.814629 0.941731 0.236069
O O12 0.087961 0.965715 0.308767
O O13 0.295236 0.041290 0.915078
O O14 0.459612 0.123208 0.738596
O O15 0.745520 0.573936 0.537504
O O16 0.402532 0.324502 0.112662
#
# Coordination Sequence:
#
# PCOD8055530 Si02
#       8
#     4   4   4   4   4   4   4   4
#     4  11  24  43  67  97 139 183 233 286 343 421
#     4  10  24  43  68  99 139 182 231 286 351 418
#     4  11  23  45  67  99 141 181 228 294 345 411
#     4  11  21  42  67  94 135 180 223 280 348 411
#     4   9  21  43  65  92 133 183 222 280 340 408
#     4  10  23  42  63  99 136 170 234 281 335 424
#     4  12  23  42  69 100 135 183 230 288 346 415
#     4  10  23  40  64  96 134 170 229 283 338 410
#
# _framework density 22.235636
#
# number of rings (size 3 to 8) (size 9 to 14) (size 15 to 20)
#    0.000    1.500    1.250    3.750    0.000    6.000 
#    4.500    5.000    0.000    0.000    0.000    0.000 
#    0.000    0.000    0.000    0.000    0.000    0.000 
#
# Total GULP energy -198367.306337 kJ/mol
# GULP energy per Si atom -12397.956646 kJ/mol
# Density = 2.218503 g / cm^3
# Si number density = 22.235636 Si / 1000 Ang^3
#
#
#
# Elastic Constant Matrix: (Units=GPa)
#
#
# Indices 1 2 3 4 5 6 
#
# 1 96.1473 45.1017 57.0083 0.0000 -10.6749 0.0000
# 2 45.1017 111.9470 45.5164 0.0000 -6.1384 0.0000
# 3 57.0083 45.5164 112.2355 0.0000 -10.5357 0.0000
# 4 0.0000 0.0000 0.0000 47.8209 0.0000 -1.1682
# 5 -10.6749 -6.1384 -10.5357 0.0000 37.5549 0.0000
# 6 0.0000 0.0000 0.0000 -1.1682 0.0000 30.8320
#
#
#
# Elastic Compliance Matrix: (Units=1/GPa)
#
#
# Indices 1 2 3 4 5 6 
#
# 1 0.016295 -0.003788 -0.006536 0.000000 0.002179 0.000000
# 2 -0.003788 0.011588 -0.002772 0.000000 0.000040 0.000000
# 3 -0.006536 -0.002772 0.013492 0.000000 0.001474 0.000000
# 4 0.000000 0.000000 0.000000 0.020931 0.000000 0.000793
# 5 0.002179 0.000040 0.001474 0.000000 0.027667 0.000000
# 6 0.000000 0.000000 0.000000 0.000793 0.000000 0.032464
#
#
# Mechanical properties :
#
#
# Convention : Reuss Voigt Hill
#
# Bulk Modulus (GPa) = 65.86002 68.39809 67.12905
# Shear Modulus (GPa) = 32.53313 34.75513 33.64413
#
# Velocity S-wave (km/s) = 3.82921 3.95782 3.89404
# Velocity P-wave (km/s) = 7.01669 7.19118 7.10447
#
# Compressibility (1/GPa) = 0.01518372
#
# Stress axis : x y z
#
# Youngs Moduli (GPa) = 61.36876 86.29589 74.11734
#
# Poissons Ratio (x) = 0.32689 0.48443
# Poissons Ratio (y) = 0.23247 0.20543
# Poissons Ratio (z) = 0.40111 0.23918
#
# Static dielectric constant tensor:
#      x y z
#    x 3.760460 0.000000 -0.252110 
#    y 0.000000 4.213380 0.000000 
#    z -0.252110 0.000000 4.116890 
# 
# 
# High freq. dielectric constant tensor:
#      x y z
#    x 1.851780 0.000000 -0.011520 
#    y 0.000000 1.893900 0.000000 
#    z -0.011520 0.000000 1.882010 
# 
# From -- ./inp_files/22051.got.cif
#   From: 2010.06.25/outbox.cif.g09.slc.cpg/sg9_12_cif.got.tgz:22051.got - 2010.06.27 21:40:51.
