data_PCOD8055354
_publ_section_title
;
Structure prediction by ZEFSAII (Michael W. Deem and Ramdas Pophale) SiO2 
 PCOD8055354
Probable space group: C C
;
_chemical_formula_sum "Si O2"
_cell_formula_units_Z 32
_cell_length_a 7.780111
_cell_length_b 25.863895
_cell_length_c 11.052810
_cell_angle_alpha 90.000000
_cell_angle_beta 43.195026
_cell_angle_gamma 90.000000
_cell_volume 1522.353859
_symmetry_space_group_name_H-M "C C"
_symmetry_group_IT_number 9
_symmetry_cell_setting 'monoclinic'
loop_
_space_group_symop_operation_xyz
x,y,z
x,-y,1/2+z
1/2+x,1/2+y,z
1/2+x,1/2-y,1/2+z
loop_
_atom_site_type_symbol
_atom_site_label
_atom_site_fract_x
_atom_site_fract_y
_atom_site_fract_z
Si Si1 0.177990 0.638516 0.046400
Si Si2 0.925402 0.046591 0.300799
Si Si3 0.442198 0.196555 0.961808
Si Si4 0.168700 0.104935 0.376915
Si Si5 0.999949 0.927566 0.213894
Si Si6 0.592252 0.619429 0.018207
Si Si7 0.456186 0.102347 0.629096
Si Si8 0.778017 0.811078 0.062461
O O1 0.966375 0.612651 0.240978
O O2 0.259741 0.600337 0.895574
O O3 0.411213 0.650616 0.016258
O O4 0.056672 0.688173 0.038610
O O5 0.658275 0.057163 0.502332
O O6 0.144891 0.069578 0.270769
O O7 0.980597 0.986692 0.260858
O O8 0.934261 0.074728 0.165686
O O9 0.207846 0.158321 0.057498
O O10 0.666775 0.186718 0.753771
O O11 0.325855 0.252745 0.998377
O O12 0.015158 0.076477 0.562029
O O13 0.046200 0.161141 0.421951
O O14 0.253179 0.898986 0.127237
O O15 0.815579 0.591700 0.828597
O O16 0.590189 0.158962 0.565774
#
# Coordination Sequence:
#
# PCOD8055354 Si02
#       8
#     4   4   4   4   4   4   4   4
#     4  11  23  43  67  95 135 172 220 280 326 391
#     4  11  24  39  68  91 131 188 218 271 340 390
#     4  11  21  43  68  98 131 172 223 270 340 400
#     4  11  23  43  64  96 131 174 220 277 328 395
#     4  11  25  41  63  98 134 175 231 277 329 400
#     4  10  23  43  66  98 136 171 221 278 326 398
#     4   9  23  44  60  93 134 169 224 279 325 401
#     4  10  22  42  70  93 132 175 213 280 340 397
#
# _framework density 21.020078999999999
#
# number of rings (size 3 to 8) (size 9 to 14) (size 15 to 20)
#    0.000    1.500    2.500    1.500    7.000    0.000 
#    2.250    1.250    0.000    0.000    0.000    0.000 
#    0.000    0.000    0.000    0.000    0.000    0.000 
#
# Total GULP energy -198355.619375 kJ/mol
# GULP energy per Si atom -12397.226211 kJ/mol
# Density = 2.097224 g / cm^3
# Si number density = 21.020079 Si / 1000 Ang^3
#
#
#
# Elastic Constant Matrix: (Units=GPa)
#
#
# Indices 1 2 3 4 5 6 
#
# 1 93.8844 35.4923 33.3079 0.0000 -4.7003 0.0000
# 2 35.4923 116.3607 41.3800 0.0000 -1.6649 0.0000
# 3 33.3079 41.3800 113.1618 0.0000 -11.8835 0.0000
# 4 0.0000 0.0000 0.0000 30.7493 0.0000 4.7714
# 5 -4.7003 -1.6649 -11.8835 0.0000 33.7692 0.0000
# 6 0.0000 0.0000 0.0000 4.7714 0.0000 20.8164
#
#
#
# Elastic Compliance Matrix: (Units=1/GPa)
#
#
# Indices 1 2 3 4 5 6 
#
# 1 0.012721 -0.002948 -0.002591 0.000000 0.000713 0.000000
# 2 -0.002948 0.010584 -0.003105 0.000000 -0.000981 0.000000
# 3 -0.002591 -0.003105 0.011091 0.000000 0.003389 0.000000
# 4 0.000000 0.000000 0.000000 0.033720 0.000000 -0.007729
# 5 0.000713 -0.000981 0.003389 0.000000 0.030856 0.000000
# 6 0.000000 0.000000 0.000000 -0.007729 0.000000 0.049811
#
#
# Mechanical properties :
#
#
# Convention : Reuss Voigt Hill
#
# Bulk Modulus (GPa) = 58.46018 60.41859 59.43938
# Shear Modulus (GPa) = 29.10788 31.28212 30.19500
#
# Velocity S-wave (km/s) = 3.72528 3.86191 3.79421
# Velocity P-wave (km/s) = 6.80996 6.97792 6.89446
#
# Compressibility (1/GPa) = 0.01710566
#
# Stress axis : x y z
#
# Youngs Moduli (GPa) = 78.60980 94.48601 90.16296
#
# Poissons Ratio (x) = 0.27859 0.23363
# Poissons Ratio (y) = 0.23178 0.27998
# Poissons Ratio (z) = 0.20369 0.29341
#
# Static dielectric constant tensor:
#      x y z
#    x 3.755590 0.000000 -0.060070 
#    y 0.000000 3.581610 0.000000 
#    z -0.060070 0.000000 4.013670 
# 
# 
# High freq. dielectric constant tensor:
#      x y z
#    x 1.817350 0.000000 -0.003830 
#    y 0.000000 1.799540 0.000000 
#    z -0.003830 0.000000 1.849090 
# 
# From -- ./inp_files/15617.got.cif
#   From: 2010.06.25/outbox.cif.g09.slc.cpg/sg9_8_cif.got.tgz:15617.got - 2010.06.27 21:40:51.
