data_PCOD8055884
_publ_section_title
;
Structure prediction by ZEFSAII (Michael W. Deem and Ramdas Pophale) SiO2 
 PCOD8055884
Probable space group: C C
;
_chemical_formula_sum "Si O2"
_cell_formula_units_Z 32
_cell_length_a 28.821735
_cell_length_b 5.265986
_cell_length_c 9.782399
_cell_angle_alpha 90.000000
_cell_angle_beta 120.545679
_cell_angle_gamma 90.000000
_cell_volume 1278.678741
_symmetry_space_group_name_H-M "C C"
_symmetry_group_IT_number 9
_symmetry_cell_setting 'monoclinic'
loop_
_space_group_symop_operation_xyz
x,y,z
x,-y,1/2+z
1/2+x,1/2+y,z
1/2+x,1/2-y,1/2+z
loop_
_atom_site_type_symbol
_atom_site_label
_atom_site_fract_x
_atom_site_fract_y
_atom_site_fract_z
Si Si1 0.850030 0.615538 0.630770
Si Si2 0.940975 0.908896 0.897303
Si Si3 0.714625 0.895606 0.667047
Si Si4 0.619071 0.788342 0.111773
Si Si5 0.124837 0.085374 0.398996
Si Si6 0.435949 0.798372 0.666143
Si Si7 0.782604 0.128689 0.528311
Si Si8 0.032084 0.616364 0.898310
O O1 0.897298 0.685872 0.808446
O O2 0.884821 0.485369 0.558954
O O3 0.811339 0.387523 0.624860
O O4 0.819534 0.879544 0.550639
O O5 0.000435 0.833518 0.933155
O O6 0.925245 0.170040 0.799176
O O7 0.941434 0.929770 0.063125
O O8 0.683215 0.669825 0.543920
O O9 0.673418 0.051522 0.699520
O O10 0.742131 0.064482 0.590432
O O11 0.756797 0.793612 0.843116
O O12 0.625542 0.566307 0.235152
O O13 0.612658 0.684365 0.947603
O O14 0.564601 0.947065 0.058354
O O15 0.077568 0.278405 0.365828
O O16 0.491180 0.953338 0.745899
#
# Coordination Sequence:
#
# PCOD8055884 Si02
#       8
#     4   4   4   4   4   4   4   4
#     4  11  28  47  74 110 147 197 250 306 368 435
#     4  11  25  47  74 110 148 196 246 313 371 454
#     4  11  28  45  72 106 145 193 250 303 371 440
#     4  11  25  45  70 105 145 190 247 307 372 449
#     4  11  25  45  70 105 143 193 244 310 369 451
#     4  11  25  47  74 110 150 193 249 310 374 452
#     4  12  28  48  76 108 152 200 250 307 371 439
#     4  10  24  44  72 104 146 192 246 304 378 444
#
# _framework density 25.025832000000001
#
# number of rings (size 3 to 8) (size 9 to 14) (size 15 to 20)
#    0.000    1.000    2.500    1.500    8.750    9.000 
#    0.000    0.000    0.000    0.000    0.000    0.000 
#    0.000    0.000    0.000    0.000    0.000    0.000 
#
# Total GULP energy -198257.217581 kJ/mol
# GULP energy per Si atom -12391.076099 kJ/mol
# Density = 2.496887 g / cm^3
# Si number density = 25.025832 Si / 1000 Ang^3
#
#
#
# Elastic Constant Matrix: (Units=GPa)
#
#
# Indices 1 2 3 4 5 6 
#
# 1 89.2289 11.5234 27.3303 0.0000 32.9775 0.0000
# 2 11.5234 85.0789 -8.3888 0.0000 22.6372 0.0000
# 3 27.3303 -8.3888 42.9459 0.0000 2.1577 0.0000
# 4 0.0000 0.0000 0.0000 32.4385 0.0000 -1.2541
# 5 32.9775 22.6372 2.1577 0.0000 30.5571 0.0000
# 6 0.0000 0.0000 0.0000 -1.2541 0.0000 22.1710
#
#
#
# Elastic Compliance Matrix: (Units=1/GPa)
#
#
# Indices 1 2 3 4 5 6 
#
# 1 0.026127 0.002800 -0.014611 0.000000 -0.029240 0.000000
# 2 0.002800 0.015457 0.001971 0.000000 -0.014612 0.000000
# 3 -0.014611 0.001971 0.032364 0.000000 0.012023 0.000000
# 4 0.000000 0.000000 0.000000 0.030895 0.000000 0.001748
# 5 -0.029240 -0.014612 0.012023 0.000000 0.074257 0.000000
# 6 0.000000 0.000000 0.000000 0.001748 0.000000 0.045203
#
#
# Mechanical properties :
#
#
# Convention : Reuss Voigt Hill
#
# Bulk Modulus (GPa) = 18.42649 30.90927 24.66788
# Shear Modulus (GPa) = 19.07874 29.48591 24.28232
#
# Velocity S-wave (km/s) = 2.76409 3.43624 3.11833
# Velocity P-wave (km/s) = 4.19116 5.30297 4.77950
#
# Compressibility (1/GPa) = 0.05426969
#
# Stress axis : x y z
#
# Youngs Moduli (GPa) = 38.27429 64.69666 30.89813
#
# Poissons Ratio (x) = -0.18118 0.45145
# Poissons Ratio (y) = -0.10719 -0.06091
# Poissons Ratio (z) = 0.55923 -0.12753
#
# Static dielectric constant tensor:
#      x y z
#    x 4.684710 0.000000 0.293600 
#    y 0.000000 4.333560 0.000000 
#    z 0.293600 0.000000 4.329600 
# 
# 
# High freq. dielectric constant tensor:
#      x y z
#    x 2.011770 0.000000 0.016590 
#    y 0.000000 1.991290 0.000000 
#    z 0.016590 0.000000 1.987640 
# 
# From -- ./inp_files/12649.got.cif
#   From: 2010.06.25/outbox.cif.g09.slc.cpg/sg9_7_cif.got.tgz:12649.got - 2010.06.27 21:40:51.
