data_PCOD8055955
_publ_section_title
;
Structure prediction by ZEFSAII (Michael W. Deem and Ramdas Pophale) SiO2 
 PCOD8055955
Probable space group: C C
;
_chemical_formula_sum "Si O2"
_cell_formula_units_Z 28
_cell_length_a 7.392517
_cell_length_b 6.844646
_cell_length_c 25.501375
_cell_angle_alpha 90.000000
_cell_angle_beta 62.163832
_cell_angle_gamma 90.000000
_cell_volume 1141.037357
_symmetry_space_group_name_H-M "C C"
_symmetry_group_IT_number 9
_symmetry_cell_setting 'monoclinic'
loop_
_space_group_symop_operation_xyz
x,y,z
x,-y,1/2+z
1/2+x,1/2+y,z
1/2+x,1/2-y,1/2+z
loop_
_atom_site_type_symbol
_atom_site_label
_atom_site_fract_x
_atom_site_fract_y
_atom_site_fract_z
Si Si1 0.564840 0.925208 0.679470
Si Si2 0.704611 0.166954 0.758286
Si Si3 0.426209 0.161786 0.601099
Si Si4 0.159827 0.163015 0.446994
Si Si5 0.415417 0.345985 0.329281
Si Si6 0.290875 0.080066 0.023091
Si Si7 0.795998 0.430013 0.338189
O O1 0.336170 0.854338 0.723810
O O2 0.702327 0.738004 0.646783
O O3 0.679795 0.036198 0.710495
O O4 0.548652 0.070921 0.632912
O O5 0.811942 0.047955 0.792756
O O6 0.475776 0.236606 0.812459
O O7 0.561809 0.341925 0.561955
O O8 0.398262 0.997123 0.560843
O O9 0.276510 0.342442 0.401199
O O10 0.928419 0.237213 0.484641
O O11 0.173234 0.962937 0.409382
O O12 0.273048 0.102923 0.485334
O O13 0.434091 0.120992 0.307245
O O14 0.642422 0.415770 0.310441
#
# Coordination Sequence:
#
# PCOD8055955 Si02
#       7
#     4   4   4   4   4   4   4
#     4  12  27  46  74  96 146 180 246 297 362 398
#     4  12  25  49  72 108 143 196 228 293 358 430
#     4  12  28  48  68 108 128 190 244 310 336 428
#     4  10  25  45  70 108 137 194 216 297 346 436
#     4  10  25  43  69 108 145 180 232 278 342 447
#     4  12  25  44  76  92 146 176 246 283 372 396
#     4  10  25  43  69 108 145 180 232 278 342 447
#
# _framework density 24.539073999999999
#
# number of rings (size 3 to 8) (size 9 to 14) (size 15 to 20)
#    0.857    0.000    1.429    4.286    6.000    3.429 
#    0.000    0.000    0.000    0.000    0.000    0.000 
#    0.000    0.000    0.000    0.000    0.000    0.000 
#
# Total GULP energy -173460.757504 kJ/mol
# GULP energy per Si atom -12390.054107 kJ/mol
# Density = 2.448322 g / cm^3
# Si number density = 24.539074 Si / 1000 Ang^3
#
#
#
# Elastic Constant Matrix: (Units=GPa)
#
#
# Indices 1 2 3 4 5 6 
#
# 1 168.0793 39.6715 58.1419 0.0000 14.8870 0.0000
# 2 39.6715 51.5241 31.2550 0.0000 7.8966 0.0000
# 3 58.1419 31.2550 115.0449 0.0000 14.3719 0.0000
# 4 0.0000 0.0000 0.0000 21.2612 0.0000 -3.2446
# 5 14.8870 7.8966 14.3719 0.0000 34.8297 0.0000
# 6 0.0000 0.0000 0.0000 -3.2446 0.0000 51.9698
#
#
#
# Elastic Compliance Matrix: (Units=1/GPa)
#
#
# Indices 1 2 3 4 5 6 
#
# 1 0.008029 -0.004331 -0.002715 0.000000 -0.001329 0.000000
# 2 -0.004331 0.025838 -0.004565 0.000000 -0.002123 0.000000
# 3 -0.002715 -0.004565 0.011630 0.000000 -0.002603 0.000000
# 4 0.000000 0.000000 0.000000 0.047487 0.000000 0.002965
# 5 -0.001329 -0.002123 -0.002603 0.000000 0.030835 0.000000
# 6 0.000000 0.000000 0.000000 0.002965 0.000000 0.019427
#
#
# Mechanical properties :
#
#
# Convention : Reuss Voigt Hill
#
# Bulk Modulus (GPa) = 44.89611 65.86500 55.38055
# Shear Modulus (GPa) = 28.75338 35.31747 32.03543
#
# Velocity S-wave (km/s) = 3.42678 3.79784 3.61707
# Velocity P-wave (km/s) = 5.83032 6.79195 6.32942
#
# Compressibility (1/GPa) = 0.02227364
#
# Stress axis : x y z
#
# Youngs Moduli (GPa) = 124.55284 38.70260 85.98572
#
# Poissons Ratio (x) = 0.16763 0.23344
# Poissons Ratio (y) = 0.53946 0.39256
# Poissons Ratio (z) = 0.33814 0.17670
#
# Static dielectric constant tensor:
#      x y z
#    x 4.475890 0.000000 0.077700 
#    y 0.000000 4.102840 0.000000 
#    z 0.077700 0.000000 4.703010 
# 
# 
# High freq. dielectric constant tensor:
#      x y z
#    x 1.991080 0.000000 0.006440 
#    y 0.000000 1.956030 0.000000 
#    z 0.006440 0.000000 1.988090 
# 
# From -- ./inp_files/37077.got.cif
#   From: 2010.06.25/outbox.cif.g09.slc.cpg/sg9_19_cif.got.tgz:37077.got - 2010.06.27 21:40:51.
