data_PCOD8055415
_publ_section_title
;
Structure prediction by ZEFSAII (Michael W. Deem and Ramdas Pophale) SiO2 
 PCOD8055415
Probable space group: C C
;
_chemical_formula_sum "Si O2"
_cell_formula_units_Z 32
_cell_length_a 24.611276
_cell_length_b 5.495216
_cell_length_c 9.840873
_cell_angle_alpha 90.000000
_cell_angle_beta 119.461320
_cell_angle_gamma 90.000000
_cell_volume 1158.817512
_symmetry_space_group_name_H-M "C C"
_symmetry_group_IT_number 9
_symmetry_cell_setting 'monoclinic'
loop_
_space_group_symop_operation_xyz
x,y,z
x,-y,1/2+z
1/2+x,1/2+y,z
1/2+x,1/2-y,1/2+z
loop_
_atom_site_type_symbol
_atom_site_label
_atom_site_fract_x
_atom_site_fract_y
_atom_site_fract_z
Si Si1 0.284350 0.444595 0.119240
Si Si2 0.666551 0.227576 0.054975
Si Si3 0.950830 0.973201 0.837440
Si Si4 0.201294 0.946512 0.366919
Si Si5 0.534794 0.485097 0.686298
Si Si6 0.818537 0.727889 0.431249
Si Si7 0.422093 0.974813 0.699582
Si Si8 0.563978 0.986725 0.779630
O O1 0.328298 0.339301 0.293312
O O2 0.237460 0.636825 0.130404
O O3 0.244300 0.242170 0.996690
O O4 0.328615 0.570988 0.061753
O O5 0.655999 0.431612 0.924263
O O6 0.614092 0.019197 0.964273
O O7 0.658179 0.329463 0.196431
O O8 0.908391 0.213593 0.752733
O O9 0.011837 0.961067 0.814619
O O10 0.914941 0.713243 0.787650
O O11 0.973090 0.996966 0.019346
O O12 0.246732 0.140931 0.350624
O O13 0.569646 0.228976 0.690853
O O14 0.578349 0.728284 0.722793
O O15 0.869960 0.514564 0.517089
O O16 0.492373 0.962838 0.734197
#
# Coordination Sequence:
#
# PCOD8055415 Si02
#       8
#     4   4   4   4   4   4   4   4
#     4  11  24  47  71 105 146 195 259 312 384 445
#     4  11  25  45  76 107 146 197 251 323 376 460
#     4  10  22  44  66  97 144 190 238 289 357 446
#     4  11  24  47  71 105 146 195 259 312 384 445
#     4  10  22  44  66  97 144 190 238 289 357 446
#     4  11  25  45  76 107 146 197 251 323 376 460
#     4  10  24  45  73 109 148 191 244 306 376 455
#     4  10  24  45  73 109 148 191 244 306 376 455
#
# _framework density 27.614355
#
# number of rings (size 3 to 8) (size 9 to 14) (size 15 to 20)
#    0.000    1.500    2.500    0.750    3.500    4.000 
#    9.000    0.000    0.000    0.000    0.000    0.000 
#    0.000    0.000    0.000    0.000    0.000    0.000 
#
# Total GULP energy -198290.624596 kJ/mol
# GULP energy per Si atom -12393.164037 kJ/mol
# Density = 2.755150 g / cm^3
# Si number density = 27.614355 Si / 1000 Ang^3
#
#
#
# Elastic Constant Matrix: (Units=GPa)
#
#
# Indices 1 2 3 4 5 6 
#
# 1 85.0117 2.3411 26.8967 0.0000 -0.5071 0.0000
# 2 2.3411 217.4280 54.9013 0.0000 1.0729 0.0000
# 3 26.8967 54.9013 168.6809 0.0000 5.2151 0.0000
# 4 0.0000 0.0000 0.0000 58.5043 0.0000 17.8336
# 5 -0.5071 1.0729 5.2151 0.0000 36.9980 0.0000
# 6 0.0000 0.0000 0.0000 17.8336 0.0000 30.5512
#
#
#
# Elastic Compliance Matrix: (Units=1/GPa)
#
#
# Indices 1 2 3 4 5 6 
#
# 1 0.012428 0.000401 -0.002126 0.000000 0.000458 0.000000
# 2 0.000401 0.005024 -0.001702 0.000000 0.000100 0.000000
# 3 -0.002126 -0.001702 0.006851 0.000000 -0.000945 0.000000
# 4 0.000000 0.000000 0.000000 0.020792 0.000000 -0.012137
# 5 0.000458 0.000100 -0.000945 0.000000 0.027165 0.000000
# 6 0.000000 0.000000 0.000000 -0.012137 0.000000 0.039817
#
#
# Mechanical properties :
#
#
# Convention : Reuss Voigt Hill
#
# Bulk Modulus (GPa) = 57.31629 71.04430 64.18030
# Shear Modulus (GPa) = 40.08086 51.00945 45.54516
#
# Velocity S-wave (km/s) = 3.81392 4.30258 4.06560
# Velocity P-wave (km/s) = 6.34001 7.10395 6.73282
#
# Compressibility (1/GPa) = 0.01744705
#
# Stress axis : x y z
#
# Youngs Moduli (GPa) = 80.46670 199.03495 145.97131
#
# Poissons Ratio (x) = -0.07978 0.31037
# Poissons Ratio (y) = -0.03225 0.24848
# Poissons Ratio (z) = 0.17109 0.33881
#
# Static dielectric constant tensor:
#      x y z
#    x 4.977320 0.000000 0.255730 
#    y 0.000000 6.380050 0.000000 
#    z 0.255730 0.000000 4.835250 
# 
# 
# High freq. dielectric constant tensor:
#      x y z
#    x 2.116340 0.000000 0.022950 
#    y 0.000000 2.132240 0.000000 
#    z 0.022950 0.000000 2.106480 
# 
# From -- ./inp_files/12650.got.cif
#   From: 2010.06.25/outbox.cif.g09.slc.cpg/sg9_7_cif.got.tgz:12650.got - 2010.06.27 21:40:51.
