data_PCOD8055114
_publ_section_title
;
Structure prediction by ZEFSAII (Michael W. Deem and Ramdas Pophale) SiO2 
 PCOD8055114
Probable space group: C C
;
_chemical_formula_sum "Si O2"
_cell_formula_units_Z 32
_cell_length_a 11.267823
_cell_length_b 18.367019
_cell_length_c 8.681836
_cell_angle_alpha 90.000000
_cell_angle_beta 53.956924
_cell_angle_gamma 90.000000
_cell_volume 1452.815627
_symmetry_space_group_name_H-M "C C"
_symmetry_group_IT_number 9
_symmetry_cell_setting 'monoclinic'
loop_
_space_group_symop_operation_xyz
x,y,z
x,-y,1/2+z
1/2+x,1/2+y,z
1/2+x,1/2-y,1/2+z
loop_
_atom_site_type_symbol
_atom_site_label
_atom_site_fract_x
_atom_site_fract_y
_atom_site_fract_z
Si Si1 0.226200 0.341837 0.418000
Si Si2 0.846199 0.437127 0.375252
Si Si3 0.936007 0.417958 0.632293
Si Si4 0.927580 0.172539 0.056265
Si Si5 0.191510 0.196174 0.279661
Si Si6 0.246911 0.211706 0.881205
Si Si7 0.938590 0.091013 0.534390
Si Si8 0.515644 0.536373 0.171631
O O1 0.352601 0.332106 0.447538
O O2 0.170339 0.263016 0.410967
O O3 0.286197 0.380818 0.218143
O O4 0.089630 0.389442 0.585515
O O5 0.957930 0.429769 0.432251
O O6 0.889935 0.505090 0.238906
O O7 0.841164 0.362730 0.277756
O O8 0.684428 0.442563 0.577479
O O9 0.813598 0.357189 0.758251
O O10 0.831676 0.219858 0.247780
O O11 0.940957 0.090696 0.107664
O O12 0.089329 0.207513 0.916841
O O13 0.229534 0.222206 0.078206
O O14 0.033541 0.158448 0.401175
O O15 0.918948 0.038425 0.401533
O O16 0.018551 0.045437 0.607223
#
# Coordination Sequence:
#
# PCOD8055114 Si02
#       8
#     4   4   4   4   4   4   4   4
#     4  12  29  41  65 105 143 178 227 291 350 405
#     4  10  21  44  70  98 130 177 229 279 331 415
#     4  11  24  44  66  99 134 178 230 274 347 400
#     4  11  25  46  68 104 139 176 234 284 347 410
#     4  11  23  45  72  95 137 186 230 279 339 425
#     4  10  24  45  71 103 131 184 230 282 351 406
#     4  12  23  44  72 100 134 184 228 288 343 415
#     4  11  21  45  72  98 132 181 236 279 342 412
#
# _framework density 22.026195000000001
#
# number of rings (size 3 to 8) (size 9 to 14) (size 15 to 20)
#    0.000    1.000    5.000    2.250    7.000    4.000 
#    2.250    0.000    0.000    0.000    0.000    0.000 
#    0.000    0.000    0.000    0.000    0.000    0.000 
#
# Total GULP energy -198417.318995 kJ/mol
# GULP energy per Si atom -12401.082437 kJ/mol
# Density = 2.197606 g / cm^3
# Si number density = 22.026195 Si / 1000 Ang^3
#
#
#
# Elastic Constant Matrix: (Units=GPa)
#
#
# Indices 1 2 3 4 5 6 
#
# 1 97.5472 36.2215 19.7171 0.0000 2.5131 0.0000
# 2 36.2215 93.8879 43.0967 0.0000 -0.3961 0.0000
# 3 19.7171 43.0967 82.3598 0.0000 -1.2146 0.0000
# 4 0.0000 0.0000 0.0000 40.5141 0.0000 0.9255
# 5 2.5131 -0.3961 -1.2146 0.0000 30.4125 0.0000
# 6 0.0000 0.0000 0.0000 0.9255 0.0000 25.7934
#
#
#
# Elastic Compliance Matrix: (Units=1/GPa)
#
#
# Indices 1 2 3 4 5 6 
#
# 1 0.012022 -0.004362 -0.000612 0.000000 -0.001075 0.000000
# 2 -0.004362 0.015601 -0.007115 0.000000 0.000279 0.000000
# 3 -0.000612 -0.007115 0.016020 0.000000 0.000598 0.000000
# 4 0.000000 0.000000 0.000000 0.024703 0.000000 -0.000886
# 5 -0.001075 0.000279 0.000598 0.000000 0.032998 0.000000
# 6 0.000000 0.000000 0.000000 -0.000886 0.000000 0.038801
#
#
# Mechanical properties :
#
#
# Convention : Reuss Voigt Hill
#
# Bulk Modulus (GPa) = 51.37096 52.42949 51.90023
# Shear Modulus (GPa) = 29.27194 30.99464 30.13329
#
# Velocity S-wave (km/s) = 3.64945 3.75530 3.70275
# Velocity P-wave (km/s) = 6.41336 6.53130 6.47260
#
# Compressibility (1/GPa) = 0.01946625
#
# Stress axis : x y z
#
# Youngs Moduli (GPa) = 83.17760 64.09818 62.42095
#
# Poissons Ratio (x) = 0.27960 0.03817
# Poissons Ratio (y) = 0.36282 0.44414
# Poissons Ratio (z) = 0.05086 0.45607
#
# Static dielectric constant tensor:
#      x y z
#    x 3.845790 0.000000 0.012470 
#    y 0.000000 4.156980 0.000000 
#    z 0.012470 0.000000 3.856570 
# 
# 
# High freq. dielectric constant tensor:
#      x y z
#    x 1.860300 0.000000 0.003980 
#    y 0.000000 1.881520 0.000000 
#    z 0.003980 0.000000 1.854350 
# 
# From -- ./inp_files/8037.got.cif
#   From: 2010.06.25/outbox.cif.g09.slc.cpg/sg9_5_cif.got.tgz:8037.got - 2010.06.27 21:40:51.
