data_PCOD8055159
_publ_section_title
;
Structure prediction by ZEFSAII (Michael W. Deem and Ramdas Pophale) SiO2 
 PCOD8055159
Probable space group: C C
;
_chemical_formula_sum "Si O2"
_cell_formula_units_Z 20
_cell_length_a 10.107795
_cell_length_b 9.027000
_cell_length_c 15.435610
_cell_angle_alpha 90.000000
_cell_angle_beta 141.767430
_cell_angle_gamma 90.000000
_cell_volume 871.590689
_symmetry_space_group_name_H-M "C C"
_symmetry_group_IT_number 9
_symmetry_cell_setting 'monoclinic'
loop_
_space_group_symop_operation_xyz
x,y,z
x,-y,1/2+z
1/2+x,1/2+y,z
1/2+x,1/2-y,1/2+z
loop_
_atom_site_type_symbol
_atom_site_label
_atom_site_fract_x
_atom_site_fract_y
_atom_site_fract_z
Si Si1 0.484750 0.128668 0.412700
Si Si2 0.375986 0.626705 0.723759
Si Si3 0.580943 0.103582 0.159080
Si Si4 0.926502 0.295714 0.400847
Si Si5 0.719747 0.412781 0.936908
O O1 0.420761 0.220170 0.295994
O O2 0.738051 0.153365 0.565196
O O3 0.360104 0.175101 0.437389
O O4 0.429927 0.959018 0.361534
O O5 0.254019 0.521188 0.728095
O O6 0.591984 0.535792 0.813955
O O7 0.686069 0.220139 0.281296
O O8 0.528013 0.202279 0.047526
O O9 0.369654 0.011634 0.079606
O O10 0.076336 0.198708 0.415985
#
# Coordination Sequence:
#
# PCOD8055159 Si02
#       5
#     4   4   4   4   4
#     4  10  22  37  55  83 111 141 185 223 264 326
#     4   9  20  36  55  82 110 140 184 226 265 323
#     4   9  20  36  56  83 110 141 184 223 265 326
#     4   9  19  37  58  81 109 143 183 221 267 327
#     4   9  19  38  58  77 112 143 174 231 275 308
#
# _framework density 22.946550999999999
#
# number of rings (size 3 to 8) (size 9 to 14) (size 15 to 20)
#    0.000    3.200    0.000    0.000    0.000   16.000 
#    0.000    8.000    0.000    0.000    0.000    0.000 
#    0.000    0.000    0.000    0.000    0.000    0.000 
#
# Total GULP energy -123894.299233 kJ/mol
# GULP energy per Si atom -12389.429923 kJ/mol
# Density = 2.289432 g / cm^3
# Si number density = 22.946551 Si / 1000 Ang^3
#
#
#
# Elastic Constant Matrix: (Units=GPa)
#
#
# Indices 1 2 3 4 5 6 
#
# 1 26.0937 10.1196 6.1488 0.0001 -6.0170 0.0000
# 2 10.1196 114.2490 65.6644 0.0002 -19.1313 0.0000
# 3 6.1488 65.6644 117.1673 0.0010 17.7235 0.0002
# 4 0.0001 0.0002 0.0010 46.8007 0.0003 -3.9925
# 5 -6.0170 -19.1313 17.7235 0.0003 20.6907 0.0000
# 6 0.0000 0.0000 0.0002 -3.9925 0.0000 10.7401
#
#
#
# Elastic Compliance Matrix: (Units=1/GPa)
#
#
# Indices 1 2 3 4 5 6 
#
# 1 0.044609 0.006627 -0.010276 0.000000 0.027902 0.000000
# 2 0.006627 0.033723 -0.027867 0.000000 0.056979 0.000000
# 3 -0.010276 -0.027867 0.033364 0.000000 -0.057334 -0.000001
# 4 0.000000 0.000000 0.000000 0.022067 0.000000 0.008203
# 5 0.027902 0.056979 -0.057334 0.000000 0.158242 0.000001
# 6 0.000000 0.000000 -0.000001 0.008203 0.000001 0.096159
#
#
# Mechanical properties :
#
#
# Convention : Reuss Voigt Hill
#
# Bulk Modulus (GPa) = 20.54833 46.81951 33.68392
# Shear Modulus (GPa) = 10.69711 27.35144 19.02428
#
# Velocity S-wave (km/s) = 2.16145 3.45623 2.88248
# Velocity P-wave (km/s) = 3.89916 6.03120 5.07833
#
# Compressibility (1/GPa) = 0.04866576
#
# Stress axis : x y z
#
# Youngs Moduli (GPa) = 22.41716 29.65303 29.97232
#
# Poissons Ratio (x) = -0.19651 0.30798
# Poissons Ratio (y) = -0.14856 0.83522
# Poissons Ratio (z) = 0.23035 0.82633
#
# Static dielectric constant tensor:
#      x y z
#    x 3.791930 0.000000 0.558840 
#    y 0.000000 4.180050 0.000000 
#    z 0.558840 0.000000 4.609170 
# 
# 
# High freq. dielectric constant tensor:
#      x y z
#    x 1.885190 0.000000 0.031140 
#    y 0.000000 1.915230 0.000000 
#    z 0.031140 0.000000 1.917910 
# 
# From -- ./inp_files/6647.got.cif
#   From: 2010.06.25/outbox.cif.g09.slc.cpg/sg9_4_cif.got.tgz:6647.got - 2010.06.27 21:40:51.
