data_PCOD8055060
_publ_section_title
;
Structure prediction by ZEFSAII (Michael W. Deem and Ramdas Pophale) SiO2 
 PCOD8055060
Probable space group: C C
;
_chemical_formula_sum "Si O2"
_cell_formula_units_Z 28
_cell_length_a 16.666107
_cell_length_b 7.290832
_cell_length_c 27.620823
_cell_angle_alpha 90.000000
_cell_angle_beta 159.176717
_cell_angle_gamma 90.000000
_cell_volume 1193.084950
_symmetry_space_group_name_H-M "C C"
_symmetry_group_IT_number 9
_symmetry_cell_setting 'monoclinic'
loop_
_space_group_symop_operation_xyz
x,y,z
x,-y,1/2+z
1/2+x,1/2+y,z
1/2+x,1/2-y,1/2+z
loop_
_atom_site_type_symbol
_atom_site_label
_atom_site_fract_x
_atom_site_fract_y
_atom_site_fract_z
Si Si1 0.773580 0.784660 0.199630
Si Si2 0.052900 0.766627 0.209951
Si Si3 0.775473 0.913952 0.304264
Si Si4 0.639815 0.196782 0.831634
Si Si5 0.746354 0.533014 0.103873
Si Si6 0.890664 0.543872 0.965999
Si Si7 0.265864 0.344046 0.962945
O O1 0.716449 0.787773 0.224705
O O2 0.674406 0.601024 0.117479
O O3 0.041933 0.779580 0.344470
O O4 0.640956 0.956157 0.099215
O O5 0.126682 0.596294 0.218142
O O6 0.929716 0.684502 0.188223
O O7 0.268569 0.888277 0.347535
O O8 0.883215 0.884245 0.080996
O O9 0.737797 0.804983 0.332399
O O10 0.037138 0.978251 0.449728
O O11 0.723000 0.393978 0.897587
O O12 0.367572 0.166929 0.675220
O O13 0.730075 0.039850 0.918178
O O14 0.926058 0.721610 0.019265
#
# Coordination Sequence:
#
# PCOD8055060 Si02
#       7
#     4   4   4   4   4   4   4
#     4  11  22  38  72  93 131 186 221 276 347 408
#     4  11  23  42  68  98 139 177 226 294 342 404
#     4  11  20  39  68  94 128 178 226 274 343 404
#     4  10  24  42  65  96 135 177 221 287 336 407
#     4  10  21  43  65  95 142 176 222 289 344 405
#     4  12  23  42  70  97 135 177 233 281 340 409
#     4  11  23  46  66  97 140 181 221 285 352 405
#
# _framework density 23.46857
#
# number of rings (size 3 to 8) (size 9 to 14) (size 15 to 20)
#    0.000    1.143    8.571    0.000    0.000    2.286 
#    0.000    0.000    3.143    0.000    0.000    0.000 
#    0.000    0.000    0.000    0.000    0.000    0.000 
#
# Total GULP energy -173458.002722 kJ/mol
# GULP energy per Si atom -12389.857337 kJ/mol
# Density = 2.341515 g / cm^3
# Si number density = 23.468570 Si / 1000 Ang^3
#
#
#
# Elastic Constant Matrix: (Units=GPa)
#
#
# Indices 1 2 3 4 5 6 
#
# 1 90.0886 20.5745 27.4521 -0.0007 -20.7368 -0.0037
# 2 20.5745 63.4160 -8.7915 -0.0043 -6.9957 -0.0091
# 3 27.4521 -8.7915 99.6312 0.0015 -22.4411 -0.0134
# 4 -0.0007 -0.0043 0.0015 36.0559 0.0048 2.6167
# 5 -20.7368 -6.9957 -22.4411 0.0048 34.9586 0.0010
# 6 -0.0037 -0.0091 -0.0134 2.6167 0.0010 28.7931
#
#
#
# Elastic Compliance Matrix: (Units=1/GPa)
#
#
# Indices 1 2 3 4 5 6 
#
# 1 0.014357 -0.004461 -0.003077 -0.000001 0.005648 -0.000001
# 2 -0.004461 0.018068 0.003556 0.000001 0.003252 0.000007
# 3 -0.003077 0.003556 0.012798 -0.000002 0.007102 0.000007
# 4 -0.000001 0.000001 -0.000002 0.027919 -0.000005 -0.002537
# 5 0.005648 0.003252 0.007102 -0.000005 0.037165 0.000004
# 6 -0.000001 0.000007 0.000007 -0.002537 0.000004 0.034961
#
#
# Mechanical properties :
#
#
# Convention : Reuss Voigt Hill
#
# Bulk Modulus (GPa) = 26.83992 36.84510 31.84251
# Shear Modulus (GPa) = 30.18347 34.22154 32.20251
#
# Velocity S-wave (km/s) = 3.59015 3.82276 3.70828
# Velocity P-wave (km/s) = 5.35228 5.93452 5.65090
#
# Compressibility (1/GPa) = 0.03725793
#
# Stress axis : x y z
#
# Youngs Moduli (GPa) = 69.65282 55.34616 78.13472
#
# Poissons Ratio (x) = 0.24693 0.24045
# Poissons Ratio (y) = 0.31076 -0.27786
# Poissons Ratio (z) = 0.21435 -0.19682
#
# Static dielectric constant tensor:
#      x y z
#    x 4.027660 0.000000 -0.046580 
#    y 0.000000 3.949810 0.000010 
#    z -0.046580 0.000010 4.508870 
# 
# 
# High freq. dielectric constant tensor:
#      x y z
#    x 1.907140 0.000000 -0.014400 
#    y 0.000000 1.904190 0.000000 
#    z -0.014400 0.000000 1.950540 
# 
# From -- ./inp_files/37537.got.cif
#   From: 2010.06.25/outbox.cif.g09.slc.cpg/sg9_19_cif.got.tgz:37537.got - 2010.06.27 21:40:51.
