data_PCOD8055397
_publ_section_title
;
Structure prediction by ZEFSAII (Michael W. Deem and Ramdas Pophale) SiO2 
 PCOD8055397
Probable space group: C C
;
_chemical_formula_sum "Si O2"
_cell_formula_units_Z 32
_cell_length_a 8.793867
_cell_length_b 14.618745
_cell_length_c 12.413334
_cell_angle_alpha 90.000000
_cell_angle_beta 67.047174
_cell_angle_gamma 90.000000
_cell_volume 1469.454402
_symmetry_space_group_name_H-M "C C"
_symmetry_group_IT_number 9
_symmetry_cell_setting 'monoclinic'
loop_
_space_group_symop_operation_xyz
x,y,z
x,-y,1/2+z
1/2+x,1/2+y,z
1/2+x,1/2-y,1/2+z
loop_
_atom_site_type_symbol
_atom_site_label
_atom_site_fract_x
_atom_site_fract_y
_atom_site_fract_z
Si Si1 0.682510 0.886034 0.814430
Si Si2 0.228910 0.482050 0.112860
Si Si3 0.006207 0.916345 0.417418
Si Si4 0.948235 0.803396 0.040483
Si Si5 0.970858 0.368906 0.068315
Si Si6 0.530188 0.604476 0.320205
Si Si7 0.629446 0.704646 0.706884
Si Si8 0.653364 0.313793 0.570658
O O1 0.685347 0.976488 0.741079
O O2 0.705642 0.797242 0.733796
O O3 0.830742 0.891863 0.860277
O O4 0.513361 0.879044 0.929521
O O5 0.344256 0.394069 0.099446
O O6 0.055790 0.453777 0.106598
O O7 0.325553 0.558819 0.015048
O O8 0.997746 0.838327 0.327519
O O9 0.128510 0.881779 0.477547
O O10 0.088594 0.004142 0.338879
O O11 0.840610 0.719744 0.024892
O O12 0.042493 0.769034 0.119515
O O13 0.072855 0.827501 0.907771
O O14 0.774594 0.368926 0.141929
O O15 0.032805 0.272076 0.096307
O O16 0.622404 0.630040 0.187160
#
# Coordination Sequence:
#
# PCOD8055397 Si02
#       8
#     4   4   4   4   4   4   4   4
#     4  12  21  43  71  96 136 180 232 283 343 406
#     4  10  22  43  70  95 128 179 235 279 344 406
#     4  11  21  39  74  99 128 182 231 286 341 406
#     4  10  24  43  66 101 132 179 227 279 345 412
#     4  11  23  44  68 100 135 182 230 282 344 411
#     4  11  21  40  71  95 131 177 232 283 338 412
#     4  12  25  41  68 101 142 177 231 283 345 412
#     4  11  21  43  70  97 130 182 232 273 346 411
#
# _framework density 21.776789000000001
#
# number of rings (size 3 to 8) (size 9 to 14) (size 15 to 20)
#    0.000    1.000    7.500    0.750    1.750    1.000 
#    6.750    0.000    0.000    0.000    0.000    0.000 
#    0.000    0.000    0.000    0.000    0.000    0.000 
#
# Total GULP energy -198399.738058 kJ/mol
# GULP energy per Si atom -12399.983629 kJ/mol
# Density = 2.172722 g / cm^3
# Si number density = 21.776789 Si / 1000 Ang^3
#
#
#
# Elastic Constant Matrix: (Units=GPa)
#
#
# Indices 1 2 3 4 5 6 
#
# 1 81.6605 37.7004 25.2719 0.0000 15.2274 0.0000
# 2 37.7004 99.7568 51.0043 0.0000 15.8606 0.0000
# 3 25.2719 51.0043 123.1904 0.0000 29.8684 0.0000
# 4 0.0000 0.0000 0.0000 35.1691 0.0000 15.8930
# 5 15.2274 15.8606 29.8684 0.0000 32.3240 0.0000
# 6 0.0000 0.0000 0.0000 15.8930 0.0000 32.0711
#
#
#
# Elastic Compliance Matrix: (Units=1/GPa)
#
#
# Indices 1 2 3 4 5 6 
#
# 1 0.015493 -0.005148 0.000142 0.000000 -0.004904 0.000000
# 2 -0.005148 0.014506 -0.004913 0.000000 -0.000153 0.000000
# 3 0.000142 -0.004913 0.012313 0.000000 -0.009034 0.000000
# 4 0.000000 0.000000 0.000000 0.036639 0.000000 -0.018157
# 5 -0.004904 -0.000153 -0.009034 0.000000 0.041669 0.000000
# 6 0.000000 0.000000 0.000000 -0.018157 0.000000 0.040178
#
#
# Mechanical properties :
#
#
# Convention : Reuss Voigt Hill
#
# Bulk Modulus (GPa) = 44.49529 59.17342 51.83436
# Shear Modulus (GPa) = 26.57770 32.62157 29.59964
#
# Velocity S-wave (km/s) = 3.49730 3.87460 3.69077
# Velocity P-wave (km/s) = 6.06506 6.87374 6.48202
#
# Compressibility (1/GPa) = 0.02247429
#
# Stress axis : x y z
#
# Youngs Moduli (GPa) = 64.54517 68.93638 81.21739
#
# Poissons Ratio (x) = 0.35490 -0.01154
# Poissons Ratio (y) = 0.33229 0.39900
# Poissons Ratio (z) = -0.00917 0.33866
#
# Static dielectric constant tensor:
#      x y z
#    x 3.648900 0.000000 0.129400 
#    y 0.000000 3.969900 0.000000 
#    z 0.129400 0.000000 4.048900 
# 
# 
# High freq. dielectric constant tensor:
#      x y z
#    x 1.823190 0.000000 0.013350 
#    y 0.000000 1.855630 0.000000 
#    z 0.013350 0.000000 1.874190 
# 
# From -- ./inp_files/14573.got.cif
#   From: 2010.06.25/outbox.cif.g09.slc.cpg/sg9_8_cif.got.tgz:14573.got - 2010.06.27 21:40:51.
