data_PCOD8055342
_publ_section_title
;
Structure prediction by ZEFSAII (Michael W. Deem and Ramdas Pophale) SiO2 
 PCOD8055342
Probable space group: C C
;
_chemical_formula_sum "Si O2"
_cell_formula_units_Z 24
_cell_length_a 11.063696
_cell_length_b 11.383687
_cell_length_c 9.504490
_cell_angle_alpha 90.000000
_cell_angle_beta 67.999846
_cell_angle_gamma 90.000000
_cell_volume 1109.883480
_symmetry_space_group_name_H-M "C C"
_symmetry_group_IT_number 9
_symmetry_cell_setting 'monoclinic'
loop_
_space_group_symop_operation_xyz
x,y,z
x,-y,1/2+z
1/2+x,1/2+y,z
1/2+x,1/2-y,1/2+z
loop_
_atom_site_type_symbol
_atom_site_label
_atom_site_fract_x
_atom_site_fract_y
_atom_site_fract_z
Si Si1 0.625000 0.927218 0.005670
Si Si2 0.399262 0.333522 0.809271
Si Si3 0.997553 0.592864 0.856964
Si Si4 0.759120 0.576981 0.476335
Si Si5 0.092305 0.017090 0.803909
Si Si6 0.934643 0.766999 0.487658
O O1 0.587615 0.932228 0.183997
O O2 0.552928 0.823280 0.955085
O O3 0.778027 0.900119 0.932407
O O4 0.583726 0.052200 0.953814
O O5 0.451723 0.228181 0.886314
O O6 0.515838 0.425521 0.740515
O O7 0.365299 0.290152 0.667680
O O8 0.864291 0.522571 0.903506
O O9 0.707863 0.568684 0.658977
O O10 0.645679 0.556579 0.413462
O O11 0.825651 0.706228 0.434453
O O12 0.990636 0.116497 0.894303
#
# Coordination Sequence:
#
# PCOD8055342 Si02
#       6
#     4   4   4   4   4   4
#     4  10  22  42  68  90 130 171 221 274 325 397
#     4  11  24  41  67  96 139 172 220 281 327 399
#     4  10  23  43  66  96 123 179 221 269 335 383
#     4  11  23  45  72  93 137 173 226 280 328 406
#     4  12  24  43  67 103 133 178 224 272 342 399
#     4  10  22  44  66  96 128 179 222 276 335 388
#
# _framework density 21.623891
#
# number of rings (size 3 to 8) (size 9 to 14) (size 15 to 20)
#    0.000    1.333    1.667    5.000    4.667    1.333 
#    9.000    0.000    0.000    0.000    0.000    0.000 
#    0.000    0.000    0.000    0.000    0.000    0.000 
#
# Total GULP energy -148806.466068 kJ/mol
# GULP energy per Si atom -12400.538839 kJ/mol
# Density = 2.157467 g / cm^3
# Si number density = 21.623891 Si / 1000 Ang^3
#
#
#
# Elastic Constant Matrix: (Units=GPa)
#
#
# Indices 1 2 3 4 5 6 
#
# 1 89.3273 52.3504 36.4567 0.0000 -11.8341 0.0000
# 2 52.3504 100.3066 13.2015 0.0000 -2.7417 0.0000
# 3 36.4567 13.2015 75.0773 0.0000 -14.4277 0.0000
# 4 0.0000 0.0000 0.0000 27.1971 0.0000 -5.4978
# 5 -11.8341 -2.7417 -14.4277 0.0000 34.0830 0.0000
# 6 0.0000 0.0000 0.0000 -5.4978 0.0000 43.7912
#
#
#
# Elastic Compliance Matrix: (Units=1/GPa)
#
#
# Indices 1 2 3 4 5 6 
#
# 1 0.020255 -0.009490 -0.007579 0.000000 0.003061 0.000000
# 2 -0.009490 0.014652 0.001769 0.000000 -0.001368 0.000000
# 3 -0.007579 0.001769 0.017646 0.000000 0.004981 0.000000
# 4 0.000000 0.000000 0.000000 0.037726 0.000000 0.004736
# 5 0.003061 -0.001368 0.004981 0.000000 0.032401 0.000000
# 6 0.000000 0.000000 0.000000 0.004736 0.000000 0.023430
#
#
# Mechanical properties :
#
#
# Convention : Reuss Voigt Hill
#
# Bulk Modulus (GPa) = 45.55048 52.08093 48.81571
# Shear Modulus (GPa) = 27.16981 31.86110 29.51546
#
# Velocity S-wave (km/s) = 3.54852 3.84268 3.69853
# Velocity P-wave (km/s) = 6.15629 6.62008 6.39239
#
# Compressibility (1/GPa) = 0.02195367
#
# Stress axis : x y z
#
# Youngs Moduli (GPa) = 49.37040 68.24947 56.67087
#
# Poissons Ratio (x) = 0.64769 0.42949
# Poissons Ratio (y) = 0.46853 -0.10025
# Poissons Ratio (z) = 0.37416 -0.12074
#
# Static dielectric constant tensor:
#      x y z
#    x 3.814420 0.000000 -0.039740 
#    y 0.000000 4.038310 0.000000 
#    z -0.039740 0.000000 3.824240 
# 
# 
# High freq. dielectric constant tensor:
#      x y z
#    x 1.848660 0.000000 -0.013230 
#    y 0.000000 1.855520 0.000000 
#    z -0.013230 0.000000 1.846970 
# 
# From -- ./inp_files/4778.got.cif
#   From: 2010.06.25/outbox.cif.g09.slc.cpg/sg9_3_cif.got.tgz:4778.got - 2010.06.27 21:40:51.
