data_PCOD8055412
_publ_section_title
;
Structure prediction by ZEFSAII (Michael W. Deem and Ramdas Pophale) SiO2 
 PCOD8055412
Probable space group: C C
;
_chemical_formula_sum "Si O2"
_cell_formula_units_Z 32
_cell_length_a 10.847582
_cell_length_b 12.437495
_cell_length_c 10.747770
_cell_angle_alpha 90.000000
_cell_angle_beta 81.468204
_cell_angle_gamma 90.000000
_cell_volume 1434.007409
_symmetry_space_group_name_H-M "C C"
_symmetry_group_IT_number 9
_symmetry_cell_setting 'monoclinic'
loop_
_space_group_symop_operation_xyz
x,y,z
x,-y,1/2+z
1/2+x,1/2+y,z
1/2+x,1/2-y,1/2+z
loop_
_atom_site_type_symbol
_atom_site_label
_atom_site_fract_x
_atom_site_fract_y
_atom_site_fract_z
Si Si1 0.215150 0.754445 0.182500
Si Si2 0.102873 0.710553 0.943291
Si Si3 0.880220 0.057040 0.155250
Si Si4 0.949741 0.612265 0.599247
Si Si5 0.974173 0.725513 0.351602
Si Si6 0.608317 0.294699 0.678105
Si Si7 0.881456 0.633076 0.112487
Si Si8 0.326091 0.570280 0.903018
O O1 0.260487 0.632189 0.191549
O O2 0.327736 0.836511 0.181542
O O3 0.114549 0.768847 0.308146
O O4 0.152069 0.772988 0.057531
O O5 0.114683 0.792758 0.826808
O O6 0.180121 0.599035 0.909655
O O7 0.958417 0.679288 0.983799
O O8 0.007656 0.122792 0.140905
O O9 0.882661 0.972281 0.266567
O O10 0.859190 0.999105 0.022117
O O11 0.931416 0.487295 0.630393
O O12 0.964088 0.626289 0.448521
O O13 0.072240 0.672382 0.639816
O O14 0.911657 0.697489 0.231676
O O15 0.893931 0.818193 0.428737
O O16 0.736884 0.343837 0.604196
#
# Coordination Sequence:
#
# PCOD8055412 Si02
#       8
#     4   4   4   4   4   4   4   4
#     4   9  21  43  67  94 131 179 220 290 353 416
#     4  10  22  44  66  96 137 172 231 288 356 423
#     4  10  24  43  67 102 134 183 234 286 358 438
#     4  11  24  44  68  98 139 174 235 291 350 433
#     4  11  22  46  66  91 137 179 221 295 359 422
#     4  11  23  46  64 104 140 175 236 292 349 439
#     4  11  26  42  71 101 132 190 232 289 370 429
#     4  11  22  46  69  96 140 182 235 291 357 428
#
# _framework density 22.315087999999999
#
# number of rings (size 3 to 8) (size 9 to 14) (size 15 to 20)
#    0.000    1.500    5.000    0.000    5.250    6.000 
#    2.250    0.000    0.000    0.000    0.000    0.000 
#    0.000    0.000    0.000    0.000    0.000    0.000 
#
# Total GULP energy -198301.558598 kJ/mol
# GULP energy per Si atom -12393.847412 kJ/mol
# Density = 2.226430 g / cm^3
# Si number density = 22.315088 Si / 1000 Ang^3
#
#
#
# Elastic Constant Matrix: (Units=GPa)
#
#
# Indices 1 2 3 4 5 6 
#
# 1 131.1663 18.8709 45.8005 0.0000 -18.2227 0.0000
# 2 18.8709 49.3462 19.3303 0.0000 -3.5434 0.0000
# 3 45.8005 19.3303 100.8640 0.0000 -3.1749 0.0000
# 4 0.0000 0.0000 0.0000 30.9115 0.0000 2.3608
# 5 -18.2227 -3.5434 -3.1749 0.0000 35.6398 0.0000
# 6 0.0000 0.0000 0.0000 2.3608 0.0000 21.3906
#
#
#
# Elastic Compliance Matrix: (Units=1/GPa)
#
#
# Indices 1 2 3 4 5 6 
#
# 1 0.009923 -0.001903 -0.003999 0.000000 0.004528 0.000000
# 2 -0.001903 0.022392 -0.003397 0.000000 0.000950 0.000000
# 3 -0.003999 -0.003397 0.012341 0.000000 -0.001283 0.000000
# 4 0.000000 0.000000 0.000000 0.032625 0.000000 -0.003601
# 5 0.004528 0.000950 -0.001283 0.000000 0.030354 0.000000
# 6 0.000000 0.000000 0.000000 -0.003601 0.000000 0.047147
#
#
# Mechanical properties :
#
#
# Convention : Reuss Voigt Hill
#
# Bulk Modulus (GPa) = 38.37658 49.93110 44.15384
# Shear Modulus (GPa) = 27.46258 30.74668 29.10463
#
# Velocity S-wave (km/s) = 3.51190 3.71596 3.61537
# Velocity P-wave (km/s) = 5.80341 6.39024 6.10388
#
# Compressibility (1/GPa) = 0.02605756
#
# Stress axis : x y z
#
# Youngs Moduli (GPa) = 100.77544 44.65914 81.03264
#
# Poissons Ratio (x) = 0.08500 0.32402
# Poissons Ratio (y) = 0.19180 0.27528
# Poissons Ratio (z) = 0.40296 0.15172
#
# Static dielectric constant tensor:
#      x y z
#    x 4.310620 0.000000 -0.121950 
#    y 0.000000 3.680870 0.000000 
#    z -0.121950 0.000000 4.059680 
# 
# 
# High freq. dielectric constant tensor:
#      x y z
#    x 1.891990 0.000000 -0.006870 
#    y 0.000000 1.844130 0.000000 
#    z -0.006870 0.000000 1.890950 
# 
# From -- ./inp_files/16447.got.cif
#   From: 2010.06.25/outbox.cif.g09.slc.cpg/sg9_9_cif.got.tgz:16447.got - 2010.06.27 21:40:51.
