data_PCOD8055292
_publ_section_title
;
Structure prediction by ZEFSAII (Michael W. Deem and Ramdas Pophale) SiO2 
 PCOD8055292
Probable space group: C C
;
_chemical_formula_sum "Si O2"
_cell_formula_units_Z 32
_cell_length_a 23.975461
_cell_length_b 8.620962
_cell_length_c 9.639494
_cell_angle_alpha 90.000000
_cell_angle_beta 128.138562
_cell_angle_gamma 90.000000
_cell_volume 1567.063016
_symmetry_space_group_name_H-M "C C"
_symmetry_group_IT_number 9
_symmetry_cell_setting 'monoclinic'
loop_
_space_group_symop_operation_xyz
x,y,z
x,-y,1/2+z
1/2+x,1/2+y,z
1/2+x,1/2-y,1/2+z
loop_
_atom_site_type_symbol
_atom_site_label
_atom_site_fract_x
_atom_site_fract_y
_atom_site_fract_z
Si Si1 0.135260 0.360898 0.128230
Si Si2 0.770826 0.315986 0.925929
Si Si3 0.966783 0.352533 0.563682
Si Si4 0.346108 0.322943 0.296807
Si Si5 0.474682 0.155812 0.397704
Si Si6 0.627267 0.839529 0.796683
Si Si7 0.829247 0.178970 0.285090
Si Si8 0.259907 0.828610 0.432159
O O1 0.191416 0.235128 0.265634
O O2 0.147281 0.520430 0.226488
O O3 0.144654 0.394144 0.979529
O O4 0.056625 0.295664 0.039062
O O5 0.830771 0.223432 0.932093
O O6 0.776267 0.498884 0.905843
O O7 0.786697 0.282145 0.110044
O O8 0.954659 0.510369 0.462061
O O9 0.954958 0.385213 0.708692
O O10 0.911669 0.225895 0.423686
O O11 0.045671 0.287520 0.656162
O O12 0.428415 0.299829 0.382638
O O13 0.324693 0.499635 0.236177
O O14 0.297870 0.205262 0.135503
O O15 0.675625 0.694295 0.825512
O O16 0.790313 0.204577 0.370600
#
# Coordination Sequence:
#
# PCOD8055292 Si02
#       8
#     4   4   4   4   4   4   4   4
#     4  10  22  42  65  96 127 169 209 257 320 377
#     4  12  26  41  66  95 127 166 211 262 318 376
#     4  10  22  42  65  96 127 169 209 257 320 377
#     4  12  24  43  64  94 127 165 212 264 316 373
#     4  10  22  41  67  93 131 166 209 260 315 381
#     4  10  22  41  67  93 131 166 209 260 315 381
#     4  12  26  41  66  95 127 166 211 262 318 376
#     4  12  24  43  64  94 127 165 212 264 316 373
#
# _framework density 20.420366000000001
#
# number of rings (size 3 to 8) (size 9 to 14) (size 15 to 20)
#    0.000    1.000    2.500    4.500    3.500    1.000 
#    0.000    0.000    0.000    0.000    0.000    0.000 
#    0.000    0.000    0.000    0.000    0.000    0.000 
#
# Total GULP energy -198479.049820 kJ/mol
# GULP energy per Si atom -12404.940614 kJ/mol
# Density = 2.037389 g / cm^3
# Si number density = 20.420366 Si / 1000 Ang^3
#
#
#
# Elastic Constant Matrix: (Units=GPa)
#
#
# Indices 1 2 3 4 5 6 
#
# 1 116.8966 48.8132 30.6051 0.0000 8.5195 0.0000
# 2 48.8132 96.7493 36.1853 0.0000 3.8865 0.0000
# 3 30.6051 36.1853 97.9057 0.0000 8.9727 0.0000
# 4 0.0000 0.0000 0.0000 29.2463 0.0000 2.2263
# 5 8.5195 3.8865 8.9727 0.0000 32.2980 0.0000
# 6 0.0000 0.0000 0.0000 2.2263 0.0000 37.2231
#
#
#
# Elastic Compliance Matrix: (Units=1/GPa)
#
#
# Indices 1 2 3 4 5 6 
#
# 1 0.011171 -0.005012 -0.001462 0.000000 -0.001937 0.000000
# 2 -0.005012 0.014244 -0.003757 0.000000 0.000652 0.000000
# 3 -0.001462 -0.003757 0.012296 0.000000 -0.002578 0.000000
# 4 0.000000 0.000000 0.000000 0.034349 0.000000 -0.002054
# 5 -0.001937 0.000652 -0.002578 0.000000 0.032110 0.000000
# 6 0.000000 0.000000 0.000000 -0.002054 0.000000 0.026988
#
#
# Mechanical properties :
#
#
# Convention : Reuss Voigt Hill
#
# Bulk Modulus (GPa) = 57.97683 60.30652 59.14167
# Shear Modulus (GPa) = 31.77220 32.81669 32.29445
#
# Velocity S-wave (km/s) = 3.94878 4.01316 3.98110
# Velocity P-wave (km/s) = 7.01739 7.14637 7.08217
#
# Compressibility (1/GPa) = 0.01724827
#
# Stress axis : x y z
#
# Youngs Moduli (GPa) = 89.51488 70.20675 81.32697
#
# Poissons Ratio (x) = 0.35184 0.11893
# Poissons Ratio (y) = 0.44861 0.30559
# Poissons Ratio (z) = 0.13090 0.26380
#
# Static dielectric constant tensor:
#      x y z
#    x 3.952860 0.000000 0.051770 
#    y 0.000000 3.369830 0.000000 
#    z 0.051770 0.000000 3.856440 
# 
# 
# High freq. dielectric constant tensor:
#      x y z
#    x 1.818850 0.000000 -0.001170 
#    y 0.000000 1.777080 0.000000 
#    z -0.001170 0.000000 1.810200 
# 
# From -- ./inp_files/12059.got.cif
#   From: 2010.06.25/outbox.cif.g09.slc.cpg/sg9_7_cif.got.tgz:12059.got - 2010.06.27 21:40:51.
