data_PCOD8055019
_publ_section_title
;
Structure prediction by ZEFSAII (Michael W. Deem and Ramdas Pophale) SiO2 
 PCOD8055019
Probable space group: C C
;
_chemical_formula_sum "Si O2"
_cell_formula_units_Z 32
_cell_length_a 14.098715
_cell_length_b 8.865077
_cell_length_c 23.484427
_cell_angle_alpha 90.000000
_cell_angle_beta 30.175494
_cell_angle_gamma 90.000000
_cell_volume 1475.393641
_symmetry_space_group_name_H-M "C C"
_symmetry_group_IT_number 9
_symmetry_cell_setting 'monoclinic'
loop_
_space_group_symop_operation_xyz
x,y,z
x,-y,1/2+z
1/2+x,1/2+y,z
1/2+x,1/2-y,1/2+z
loop_
_atom_site_type_symbol
_atom_site_label
_atom_site_fract_x
_atom_site_fract_y
_atom_site_fract_z
Si Si1 0.432590 0.867194 0.739670
Si Si2 0.608177 0.835520 0.960935
Si Si3 0.107527 0.982784 0.988784
Si Si4 0.296543 0.039759 0.702935
Si Si5 0.673945 0.959863 0.195566
Si Si6 0.035461 0.872251 0.756631
Si Si7 0.173249 0.363045 0.803751
Si Si8 0.539507 0.539088 0.647338
O O1 0.253104 0.892604 0.873827
O O2 0.484216 0.692853 0.707534
O O3 0.386513 0.927636 0.701421
O O4 0.618943 0.950872 0.666732
O O5 0.611455 0.660797 0.975682
O O6 0.547669 0.864275 0.926200
O O7 0.812857 0.906168 0.867277
O O8 0.455509 0.927761 0.074450
O O9 0.896514 0.927125 0.082700
O O10 0.165691 0.942724 0.024479
O O11 0.225729 0.189807 0.769030
O O12 0.116495 0.961166 0.768146
O O13 0.564306 0.803641 0.251127
O O14 0.583880 0.060775 0.293916
O O15 0.132502 0.930602 0.647208
O O16 0.358475 0.459434 0.715816
#
# Coordination Sequence:
#
# PCOD8055019 Si02
#       8
#     4   4   4   4   4   4   4   4
#     4  12  25  45  69 103 141 177 230 292 337 416
#     4  11  23  46  72  97 141 188 224 281 354 403
#     4  11  23  46  72  98 136 189 224 286 354 402
#     4  12  23  43  70 100 141 177 231 287 338 409
#     4  11  23  43  69 101 138 175 235 282 341 408
#     4  11  25  45  68 107 135 182 231 284 340 408
#     4  10  21  42  66 100 136 176 227 285 332 409
#     4  10  23  42  68  98 140 174 232 283 336 411
#
# _framework density 21.689126000000002
#
# number of rings (size 3 to 8) (size 9 to 14) (size 15 to 20)
#    0.000    1.000    5.000    3.000    0.000    6.000 
#    0.000    0.000    0.000    0.000    0.000    0.000 
#    0.000    0.000    0.000    0.000    0.000    0.000 
#
# Total GULP energy -198364.791817 kJ/mol
# GULP energy per Si atom -12397.799489 kJ/mol
# Density = 2.163976 g / cm^3
# Si number density = 21.689126 Si / 1000 Ang^3
#
#
#
# Elastic Constant Matrix: (Units=GPa)
#
#
# Indices 1 2 3 4 5 6 
#
# 1 129.8686 33.2806 3.0585 0.0006 24.6963 0.0000
# 2 33.2806 103.2160 -5.8289 0.0004 7.7866 -0.0002
# 3 3.0585 -5.8289 86.7350 -0.0005 16.1422 0.0000
# 4 0.0006 0.0004 -0.0005 26.4011 -0.0002 1.9491
# 5 24.6963 7.7866 16.1422 -0.0002 35.6100 0.0001
# 6 0.0000 -0.0002 0.0000 1.9491 0.0001 46.5049
#
#
#
# Elastic Compliance Matrix: (Units=1/GPa)
#
#
# Indices 1 2 3 4 5 6 
#
# 1 0.009552 -0.002561 0.000677 0.000000 -0.006371 0.000000
# 2 -0.002561 0.010646 0.000992 0.000000 -0.001001 0.000000
# 3 0.000677 0.000992 0.012778 0.000000 -0.006479 0.000000
# 4 0.000000 0.000000 0.000000 0.037995 0.000000 -0.001592
# 5 -0.006371 -0.001001 -0.006479 0.000000 0.035656 0.000000
# 6 0.000000 0.000000 0.000000 -0.001592 0.000000 0.021570
#
#
# Mechanical properties :
#
#
# Convention : Reuss Voigt Hill
#
# Bulk Modulus (GPa) = 32.05996 42.31554 37.18775
# Shear Modulus (GPa) = 35.61808 40.99051 38.30429
#
# Velocity S-wave (km/s) = 4.05681 4.35203 4.20701
# Velocity P-wave (km/s) = 6.06278 6.69372 6.38605
#
# Compressibility (1/GPa) = 0.03119155
#
# Stress axis : x y z
#
# Youngs Moduli (GPa) = 104.68945 93.93400 78.26003
#
# Poissons Ratio (x) = 0.24057 -0.05297
# Poissons Ratio (y) = 0.26812 -0.07764
# Poissons Ratio (z) = -0.07086 -0.09319
#
# Static dielectric constant tensor:
#      x y z
#    x 4.385440 0.000000 0.284170 
#    y 0.000000 3.917390 0.000000 
#    z 0.284170 0.000000 4.091110 
# 
# 
# High freq. dielectric constant tensor:
#      x y z
#    x 1.871890 0.000000 0.013140 
#    y 0.000000 1.859110 0.000000 
#    z 0.013140 0.000000 1.841360 
# 
# From -- ./inp_files/17742.got.cif
#   From: 2010.06.25/outbox.cif.g09.slc.cpg/sg9_9_cif.got.tgz:17742.got - 2010.06.27 21:40:51.
