data_PCOD8055596
_publ_section_title
;
Structure prediction by ZEFSAII (Michael W. Deem and Ramdas Pophale) SiO2 
 PCOD8055596
Probable space group: C C
;
_chemical_formula_sum "Si O2"
_cell_formula_units_Z 32
_cell_length_a 29.348088
_cell_length_b 7.952152
_cell_length_c 9.495101
_cell_angle_alpha 90.000000
_cell_angle_beta 35.596677
_cell_angle_gamma 90.000000
_cell_volume 1289.863123
_symmetry_space_group_name_H-M "C C"
_symmetry_group_IT_number 9
_symmetry_cell_setting 'monoclinic'
loop_
_space_group_symop_operation_xyz
x,y,z
x,-y,1/2+z
1/2+x,1/2+y,z
1/2+x,1/2-y,1/2+z
loop_
_atom_site_type_symbol
_atom_site_label
_atom_site_fract_x
_atom_site_fract_y
_atom_site_fract_z
Si Si1 0.869910 0.933754 0.507980
Si Si2 0.546485 0.104754 0.631762
Si Si3 0.247195 0.032238 0.535444
Si Si4 0.642206 0.990698 0.638612
Si Si5 0.655871 0.390595 0.011611
Si Si6 0.408435 0.874220 0.086565
Si Si7 0.281365 0.415656 0.460272
Si Si8 0.001839 0.122145 0.046988
O O1 0.875642 0.740101 0.541392
O O2 0.799221 0.971614 0.575107
O O3 0.859021 0.062546 0.667301
O O4 0.951018 0.965192 0.224175
O O5 0.572530 0.003276 0.427157
O O6 0.535047 0.295611 0.608045
O O7 0.615811 0.111072 0.575993
O O8 0.467368 0.017913 0.885668
O O9 0.220529 0.010143 0.441346
O O10 0.246847 0.231087 0.562352
O O11 0.179132 0.939158 0.795098
O O12 0.333223 0.959726 0.348168
O O13 0.656654 0.809186 0.532089
O O14 0.720087 0.040818 0.532830
O O15 0.568507 0.449384 0.275242
O O16 0.449273 0.760599 0.100671
#
# Coordination Sequence:
#
# PCOD8055596 Si02
#       8
#     4   4   4   4   4   4   4   4
#     4  12  26  45  72 105 151 197 234 314 376 441
#     4  11  22  45  73 103 142 193 246 304 366 437
#     4  11  26  44  78 102 142 194 249 302 363 449
#     4  10  23  42  70 104 144 184 240 313 357 438
#     4  10  24  46  68 104 141 183 241 307 362 427
#     4  12  26  45  74 111 145 195 251 306 371 447
#     4  11  25  46  71 112 147 194 250 300 384 438
#     4  11  26  47  72 105 152 190 249 310 369 449
#
# _framework density 24.808833
#
# number of rings (size 3 to 8) (size 9 to 14) (size 15 to 20)
#    0.000    1.000    3.750    2.250    8.750    2.000 
#    0.000    5.000    0.000    0.000    0.000    0.000 
#    0.000    0.000    0.000    0.000    0.000    0.000 
#
# Total GULP energy -198328.444087 kJ/mol
# GULP energy per Si atom -12395.527755 kJ/mol
# Density = 2.475237 g / cm^3
# Si number density = 24.808833 Si / 1000 Ang^3
#
#
#
# Elastic Constant Matrix: (Units=GPa)
#
#
# Indices 1 2 3 4 5 6 
#
# 1 148.1289 29.2837 24.7742 0.0000 8.7722 0.0000
# 2 29.2837 36.8684 40.2513 0.0000 -2.9374 0.0000
# 3 24.7742 40.2513 111.7969 0.0000 -4.6317 0.0000
# 4 0.0000 0.0000 0.0000 35.4382 0.0000 0.1535
# 5 8.7722 -2.9374 -4.6317 0.0000 40.4798 0.0000
# 6 0.0000 0.0000 0.0000 0.1535 0.0000 29.5507
#
#
#
# Elastic Compliance Matrix: (Units=1/GPa)
#
#
# Indices 1 2 3 4 5 6 
#
# 1 0.008256 -0.007641 0.000828 0.000000 -0.002249 0.000000
# 2 -0.007641 0.051842 -0.016827 0.000000 0.003492 0.000000
# 3 0.000828 -0.016827 0.014832 0.000000 0.000297 0.000000
# 4 0.000000 0.000000 0.000000 0.028219 0.000000 -0.000147
# 5 -0.002249 0.003492 0.000297 0.000000 0.025478 0.000000
# 6 0.000000 0.000000 0.000000 -0.000147 0.000000 0.033841
#
#
# Mechanical properties :
#
#
# Convention : Reuss Voigt Hill
#
# Bulk Modulus (GPa) = 36.16616 53.93476 45.05046
# Shear Modulus (GPa) = 22.83467 34.59274 28.71370
#
# Velocity S-wave (km/s) = 3.03714 3.73818 3.40575
# Velocity P-wave (km/s) = 5.18735 6.35762 5.80206
#
# Compressibility (1/GPa) = 0.02765016
#
# Stress axis : x y z
#
# Youngs Moduli (GPa) = 121.12254 19.28928 67.42182
#
# Poissons Ratio (x) = 0.14739 -0.05585
# Poissons Ratio (y) = 0.92553 1.13453
# Poissons Ratio (z) = -0.10034 0.32459
#
# Static dielectric constant tensor:
#      x y z
#    x 4.984610 0.000000 -0.104760 
#    y 0.000000 4.027510 0.000000 
#    z -0.104760 0.000000 4.561800 
# 
# 
# High freq. dielectric constant tensor:
#      x y z
#    x 2.003600 0.000000 -0.000340 
#    y 0.000000 1.953610 0.000000 
#    z -0.000340 0.000000 2.002200 
# 
# From -- ./inp_files/12698.got.cif
#   From: 2010.06.25/outbox.cif.g09.slc.cpg/sg9_7_cif.got.tgz:12698.got - 2010.06.27 21:40:51.
