data_PCOD8055650
_publ_section_title
;
Structure prediction by ZEFSAII (Michael W. Deem and Ramdas Pophale) SiO2 
 PCOD8055650
Probable space group: C C
;
_chemical_formula_sum "Si O2"
_cell_formula_units_Z 32
_cell_length_a 17.184243
_cell_length_b 15.392836
_cell_length_c 10.814195
_cell_angle_alpha 90.000000
_cell_angle_beta 150.817588
_cell_angle_gamma 90.000000
_cell_volume 1394.760140
_symmetry_space_group_name_H-M "C C"
_symmetry_group_IT_number 9
_symmetry_cell_setting 'monoclinic'
loop_
_space_group_symop_operation_xyz
x,y,z
x,-y,1/2+z
1/2+x,1/2+y,z
1/2+x,1/2-y,1/2+z
loop_
_atom_site_type_symbol
_atom_site_label
_atom_site_fract_x
_atom_site_fract_y
_atom_site_fract_z
Si Si1 0.190150 0.483652 0.586870
Si Si2 0.280806 0.661466 0.048884
Si Si3 0.638968 0.126024 0.231722
Si Si4 0.319817 0.058839 0.549715
Si Si5 0.303479 0.065350 0.811894
Si Si6 0.811819 0.171159 0.708052
Si Si7 0.173201 0.218058 0.216946
Si Si8 0.115854 0.772858 0.025708
O O1 0.269850 0.439182 0.575741
O O2 0.244593 0.436037 0.788943
O O3 0.244525 0.582679 0.675378
O O4 0.002876 0.466566 0.314752
O O5 0.226918 0.723678 0.084152
O O6 0.461191 0.680220 0.253176
O O7 0.166476 0.687255 0.775379
O O8 0.757610 0.171238 0.491763
O O9 0.553028 0.203287 0.037827
O O10 0.496005 0.071025 0.095926
O O11 0.251608 0.043922 0.595700
O O12 0.293084 0.157954 0.465712
O O13 0.240165 0.002793 0.327409
O O14 0.224568 0.155367 0.743165
O O15 0.742024 0.258162 0.676819
O O16 0.002743 0.172320 0.974991
#
# Coordination Sequence:
#
# PCOD8055650 Si02
#       8
#     4   4   4   4   4   4   4   4
#     4  10  24  44  74 101 139 189 241 305 366 440
#     4  11  22  43  71  98 135 186 241 293 358 442
#     4  10  23  44  67 101 137 186 239 296 378 429
#     4  11  24  47  72 106 145 195 248 304 375 439
#     4  11  23  43  73 104 141 188 251 304 370 443
#     4  12  28  44  70 107 146 190 239 306 364 442
#     4  12  27  46  70 106 149 193 242 296 375 440
#     4  11  21  41  73  97 132 181 241 300 360 441
#
# _framework density 22.943012
#
# number of rings (size 3 to 8) (size 9 to 14) (size 15 to 20)
#    0.000    1.000    3.750    3.000    5.250    3.000 
#    2.250    0.000    0.000    0.000    0.000    0.000 
#    0.000    0.000    0.000    0.000    0.000    0.000 
#
# Total GULP energy -198269.848936 kJ/mol
# GULP energy per Si atom -12391.865559 kJ/mol
# Density = 2.289079 g / cm^3
# Si number density = 22.943012 Si / 1000 Ang^3
#
#
#
# Elastic Constant Matrix: (Units=GPa)
#
#
# Indices 1 2 3 4 5 6 
#
# 1 78.3706 31.0614 26.5170 0.0000 -16.4447 0.0000
# 2 31.0614 81.5468 19.5222 0.0000 -1.3263 0.0000
# 3 26.5170 19.5222 83.4291 0.0000 -3.8928 0.0000
# 4 0.0000 0.0000 0.0000 35.7524 0.0000 -4.3840
# 5 -16.4447 -1.3263 -3.8928 0.0000 41.8841 0.0000
# 6 0.0000 0.0000 0.0000 -4.3840 0.0000 35.3499
#
#
#
# Elastic Compliance Matrix: (Units=1/GPa)
#
#
# Indices 1 2 3 4 5 6 
#
# 1 0.017709 -0.005684 -0.004000 0.000000 0.006401 0.000000
# 2 -0.005684 0.014816 -0.001750 0.000000 -0.001925 0.000000
# 3 -0.004000 -0.001750 0.013650 0.000000 -0.000357 0.000000
# 4 0.000000 0.000000 0.000000 0.028402 0.000000 0.003522
# 5 0.006401 -0.001925 -0.000357 0.000000 0.026295 0.000000
# 6 0.000000 0.000000 0.000000 0.003522 0.000000 0.028725
#
#
# Mechanical properties :
#
#
# Convention : Reuss Voigt Hill
#
# Bulk Modulus (GPa) = 42.90479 44.17196 43.53837
# Shear Modulus (GPa) = 31.20433 33.68034 32.44234
#
# Velocity S-wave (km/s) = 3.69193 3.83561 3.76445
# Velocity P-wave (km/s) = 6.07577 6.23783 6.15733
#
# Compressibility (1/GPa) = 0.02330742
#
# Stress axis : x y z
#
# Youngs Moduli (GPa) = 56.46775 67.49669 73.25776
#
# Poissons Ratio (x) = 0.38364 0.29303
# Poissons Ratio (y) = 0.32095 0.12821
# Poissons Ratio (z) = 0.22587 0.11813
#
# Static dielectric constant tensor:
#      x y z
#    x 4.434130 0.000000 -0.255060 
#    y 0.000000 4.299160 0.000000 
#    z -0.255060 0.000000 3.867620 
# 
# 
# High freq. dielectric constant tensor:
#      x y z
#    x 1.907730 0.000000 -0.009990 
#    y 0.000000 1.907690 0.000000 
#    z -0.009990 0.000000 1.892670 
# 
# From -- ./inp_files/19393.got.cif
#   From: 2010.06.25/outbox.cif.g09.slc.cpg/sg9_10_cif.got.tgz:19393.got - 2010.06.27 21:40:51.
