data_PCOD8055061
_publ_section_title
;
Structure prediction by ZEFSAII (Michael W. Deem and Ramdas Pophale) SiO2 
 PCOD8055061
Probable space group: C C
;
_chemical_formula_sum "Si O2"
_cell_formula_units_Z 24
_cell_length_a 7.411215
_cell_length_b 29.425950
_cell_length_c 5.141692
_cell_angle_alpha 90.000000
_cell_angle_beta 96.405330
_cell_angle_gamma 90.000000
_cell_volume 1114.310960
_symmetry_space_group_name_H-M "C C"
_symmetry_group_IT_number 9
_symmetry_cell_setting 'monoclinic'
loop_
_space_group_symop_operation_xyz
x,y,z
x,-y,1/2+z
1/2+x,1/2+y,z
1/2+x,1/2-y,1/2+z
loop_
_atom_site_type_symbol
_atom_site_label
_atom_site_fract_x
_atom_site_fract_y
_atom_site_fract_z
Si Si1 0.870460 0.909047 0.211740
Si Si2 0.697463 0.529506 0.842789
Si Si3 0.996381 0.604894 0.828276
Si Si4 0.303235 0.361563 0.693376
Si Si5 0.423151 0.203034 0.661552
Si Si6 0.634353 0.228529 0.196341
O O1 0.654886 0.921410 0.190968
O O2 0.913203 0.871134 0.442491
O O3 0.990082 0.953692 0.280054
O O4 0.909716 0.888782 0.934297
O O5 0.735287 0.493516 0.623907
O O6 0.828462 0.572499 0.850428
O O7 0.922491 0.648284 0.653405
O O8 0.092376 0.621536 0.114244
O O9 0.295100 0.308695 0.772764
O O10 0.480443 0.223998 0.391668
O O11 0.224611 0.221577 0.710031
O O12 0.564493 0.219768 0.897169
#
# Coordination Sequence:
#
# PCOD8055061 Si02
#       6
#     4   4   4   4   4   4
#     4  10  21  43  66  87 126 166 206 258 317 380
#     4  12  28  42  64 100 124 155 218 271 323 385
#     4   9  24  43  68  88 127 170 210 253 324 380
#     4   9  19  40  66  85 125 172 204 244 314 372
#     4  11  23  39  63  95 133 170 217 256 316 371
#     4  11  21  39  61  97 131 165 217 260 296 380
#
# _framework density 21.537973000000001
#
# number of rings (size 3 to 8) (size 9 to 14) (size 15 to 20)
#    1.000    0.667    1.667    2.000    2.333    4.000 
#    0.000    0.000    0.000    0.000    0.000    0.000 
#    0.000    0.000    0.000    0.000    0.000    0.000 
#
# Total GULP energy -148718.865831 kJ/mol
# GULP energy per Si atom -12393.238819 kJ/mol
# Density = 2.148895 g / cm^3
# Si number density = 21.537973 Si / 1000 Ang^3
#
#
#
# Elastic Constant Matrix: (Units=GPa)
#
#
# Indices 1 2 3 4 5 6 
#
# 1 80.1385 58.0744 5.6182 0.0000 -9.2502 0.0000
# 2 58.0744 87.3933 5.1259 0.0000 0.9579 0.0000
# 3 5.6182 5.1259 79.6981 0.0000 -16.1292 0.0000
# 4 0.0000 0.0000 0.0000 27.1236 0.0000 3.1388
# 5 -9.2502 0.9579 -16.1292 0.0000 26.4671 0.0000
# 6 0.0000 0.0000 0.0000 3.1388 0.0000 51.3053
#
#
#
# Elastic Compliance Matrix: (Units=1/GPa)
#
#
# Indices 1 2 3 4 5 6 
#
# 1 0.026567 -0.017859 0.001467 0.000000 0.010825 0.000000
# 2 -0.017859 0.023514 -0.001926 0.000000 -0.008267 0.000000
# 3 0.001467 -0.001926 0.014470 0.000000 0.009401 0.000000
# 4 0.000000 0.000000 0.000000 0.037131 0.000000 -0.002272
# 5 0.010825 -0.008267 0.009401 0.000000 0.047594 0.000000
# 6 0.000000 0.000000 0.000000 -0.002272 0.000000 0.019630
#
#
# Mechanical properties :
#
#
# Convention : Reuss Voigt Hill
#
# Bulk Modulus (GPa) = 35.82474 42.76301 39.29388
# Shear Modulus (GPa) = 23.27221 32.87330 28.07276
#
# Velocity S-wave (km/s) = 3.29069 3.91102 3.61419
# Velocity P-wave (km/s) = 5.57742 6.34764 5.97496
#
# Compressibility (1/GPa) = 0.02791367
#
# Stress axis : x y z
#
# Youngs Moduli (GPa) = 37.64057 42.52833 69.10695
#
# Poissons Ratio (x) = 0.75951 -0.10135
# Poissons Ratio (y) = 0.67222 0.13313
# Poissons Ratio (z) = -0.05520 0.08193
#
# Static dielectric constant tensor:
#      x y z
#    x 3.583320 0.000000 -0.029020 
#    y 0.000000 3.791270 0.000000 
#    z -0.029020 0.000000 3.845260 
# 
# 
# High freq. dielectric constant tensor:
#      x y z
#    x 1.822670 0.000000 -0.003550 
#    y 0.000000 1.833190 0.000000 
#    z -0.003550 0.000000 1.854180 
# 
# From -- ./inp_files/787.got.cif
#   From: 2010.06.25/outbox.cif.g09.slc.cpg/sg9_1_cif.got.tgz:787.got - 2010.06.27 21:40:51.
