data_PCOD8055476
_publ_section_title
;
Structure prediction by ZEFSAII (Michael W. Deem and Ramdas Pophale) SiO2 
 PCOD8055476
Probable space group: C C
;
_chemical_formula_sum "Si O2"
_cell_formula_units_Z 32
_cell_length_a 14.618390
_cell_length_b 9.123556
_cell_length_c 14.134367
_cell_angle_alpha 90.000000
_cell_angle_beta 47.277637
_cell_angle_gamma 90.000000
_cell_volume 1384.906466
_symmetry_space_group_name_H-M "C C"
_symmetry_group_IT_number 9
_symmetry_cell_setting 'monoclinic'
loop_
_space_group_symop_operation_xyz
x,y,z
x,-y,1/2+z
1/2+x,1/2+y,z
1/2+x,1/2-y,1/2+z
loop_
_atom_site_type_symbol
_atom_site_label
_atom_site_fract_x
_atom_site_fract_y
_atom_site_fract_z
Si Si1 0.896510 0.986446 0.132960
Si Si2 0.541554 0.818989 0.183027
Si Si3 0.109123 0.490219 0.809132
Si Si4 0.426585 0.172003 0.036628
Si Si5 0.816756 0.544113 0.754754
Si Si6 0.996632 0.988575 0.761042
Si Si7 0.555932 0.666712 0.891358
Si Si8 0.736063 0.595334 0.013823
O O1 0.936497 0.844239 0.045200
O O2 0.909598 0.958420 0.235867
O O3 0.756090 0.031323 0.210871
O O4 0.992190 0.116942 0.035350
O O5 0.443672 0.860199 0.169234
O O6 0.479405 0.687381 0.290393
O O7 0.665475 0.752743 0.045164
O O8 0.576348 0.954885 0.226190
O O9 0.039712 0.337887 0.880872
O O10 0.064561 0.605222 0.921907
O O11 0.356723 0.125489 0.990530
O O12 0.350107 0.106660 0.179055
O O13 0.702286 0.625840 0.783773
O O14 0.778707 0.513943 0.889304
O O15 0.972195 0.081032 0.872074
O O16 0.141647 0.016663 0.631077
#
# Coordination Sequence:
#
# PCOD8055476 Si02
#       8
#     4   4   4   4   4   4   4   4
#     4  12  27  51  72 108 152 196 253 308 381 440
#     4  10  22  45  72 105 138 197 239 303 375 447
#     4  12  28  47  73 112 149 193 257 309 377 447
#     4  12  27  46  77 107 150 201 251 315 370 452
#     4  12  24  44  77 104 149 191 256 304 380 441
#     4  10  23  45  72 103 143 195 244 299 378 438
#     4  12  27  45  74 109 151 192 249 322 364 447
#     4  10  22  45  73 102 142 199 247 302 371 448
#
# _framework density 23.106254
#
# number of rings (size 3 to 8) (size 9 to 14) (size 15 to 20)
#    0.750    0.000    5.000    1.500    8.750    0.000 
#    2.250    0.000    0.000    0.000    0.000    0.000 
#    0.000    0.000    0.000    0.000    0.000    0.000 
#
# Total GULP energy -198329.994678 kJ/mol
# GULP energy per Si atom -12395.624667 kJ/mol
# Density = 2.305366 g / cm^3
# Si number density = 23.106254 Si / 1000 Ang^3
#
#
#
# Elastic Constant Matrix: (Units=GPa)
#
#
# Indices 1 2 3 4 5 6 
#
# 1 120.9698 26.0858 20.4044 0.0000 0.2558 0.0000
# 2 26.0858 111.2446 26.7295 0.0000 -1.4205 0.0000
# 3 20.4044 26.7295 81.8162 0.0000 -7.2111 0.0000
# 4 0.0000 0.0000 0.0000 38.3810 0.0000 2.9921
# 5 0.2558 -1.4205 -7.2111 0.0000 38.7744 0.0000
# 6 0.0000 0.0000 0.0000 2.9921 0.0000 28.2319
#
#
#
# Elastic Compliance Matrix: (Units=1/GPa)
#
#
# Indices 1 2 3 4 5 6 
#
# 1 0.008920 -0.001686 -0.001713 0.000000 -0.000439 0.000000
# 2 -0.001686 0.010076 -0.002885 0.000000 -0.000156 0.000000
# 3 -0.001713 -0.002885 0.013810 0.000000 0.002474 0.000000
# 4 0.000000 0.000000 0.000000 0.026272 0.000000 -0.002784
# 5 -0.000439 -0.000156 0.002474 0.000000 0.026247 0.000000
# 6 0.000000 0.000000 0.000000 -0.002784 0.000000 0.035716
#
#
# Mechanical properties :
#
#
# Convention : Reuss Voigt Hill
#
# Bulk Modulus (GPa) = 49.40948 51.16333 50.28641
# Shear Modulus (GPa) = 35.62421 37.13152 36.37786
#
# Velocity S-wave (km/s) = 3.93078 4.01308 3.97214
# Velocity P-wave (km/s) = 6.48316 6.60786 6.54581
#
# Compressibility (1/GPa) = 0.02023903
#
# Stress axis : x y z
#
# Youngs Moduli (GPa) = 112.10986 99.24845 72.41009
#
# Poissons Ratio (x) = 0.16731 0.12400
# Poissons Ratio (y) = 0.18899 0.20891
# Poissons Ratio (z) = 0.19199 0.28634
#
# Static dielectric constant tensor:
#      x y z
#    x 4.161530 0.000000 -0.111220 
#    y 0.000000 3.913730 0.000000 
#    z -0.111220 0.000000 3.991380 
# 
# 
# High freq. dielectric constant tensor:
#      x y z
#    x 1.919180 0.000000 -0.001610 
#    y 0.000000 1.893400 0.000000 
#    z -0.001610 0.000000 1.914430 
# 
# From -- ./inp_files/25664.got.cif
#   From: 2010.06.25/outbox.cif.g09.slc.cpg/sg9_13_cif.got.tgz:25664.got - 2010.06.27 21:40:51.
