data_PCOD8055314
_publ_section_title
;
Structure prediction by ZEFSAII (Michael W. Deem and Ramdas Pophale) SiO2 
 PCOD8055314
Probable space group: C C
;
_chemical_formula_sum "Si O2"
_cell_formula_units_Z 28
_cell_length_a 7.500870
_cell_length_b 11.923862
_cell_length_c 21.292902
_cell_angle_alpha 90.000000
_cell_angle_beta 37.530482
_cell_angle_gamma 90.000000
_cell_volume 1160.142954
_symmetry_space_group_name_H-M "C C"
_symmetry_group_IT_number 9
_symmetry_cell_setting 'monoclinic'
loop_
_space_group_symop_operation_xyz
x,y,z
x,-y,1/2+z
1/2+x,1/2+y,z
1/2+x,1/2-y,1/2+z
loop_
_atom_site_type_symbol
_atom_site_label
_atom_site_fract_x
_atom_site_fract_y
_atom_site_fract_z
Si Si1 0.679920 0.890921 0.833780
Si Si2 0.275425 0.870564 0.837065
Si Si3 0.179444 0.070556 0.104800
Si Si4 0.615725 0.895811 0.043880
Si Si5 0.733907 0.027390 0.121968
Si Si6 0.082306 0.207319 0.966415
Si Si7 0.600669 0.133747 0.889180
O O1 0.402863 0.916161 0.866832
O O2 0.588461 0.790021 0.905208
O O3 0.969196 0.862233 0.711877
O O4 0.741334 0.009450 0.852186
O O5 0.438332 0.922512 0.732348
O O6 0.333067 0.734974 0.822679
O O7 0.938549 0.905978 0.921610
O O8 0.981131 0.009039 0.106165
O O9 0.372063 0.980100 0.086694
O O10 0.400217 0.154201 0.007488
O O11 0.652257 0.911131 0.109091
O O12 0.506488 0.773328 0.052985
O O13 0.838754 0.109243 0.034513
O O14 0.400473 0.149220 0.882712
#
# Coordination Sequence:
#
# PCOD8055314 Si02
#       7
#     4   4   4   4   4   4   4
#     4  11  23  43  68  95 135 176 219 273 336 387
#     4  10  24  43  65  99 130 177 223 269 331 396
#     4  10  23  42  66  97 132 174 219 272 330 392
#     4  11  23  41  69  95 133 175 215 274 332 385
#     4  10  24  46  64  99 137 169 229 271 322 406
#     4  10  23  41  67  98 130 174 220 270 332 391
#     4  10  22  42  61  95 133 163 227 273 315 405
#
# _framework density 24.134955000000001
#
# number of rings (size 3 to 8) (size 9 to 14) (size 15 to 20)
#    0.000    1.714    1.429    1.714    8.000    0.000 
#    0.000   14.286    0.000    0.000    0.000    0.000 
#    0.000    0.000    0.000    0.000    0.000    0.000 
#
# Total GULP energy -173444.535421 kJ/mol
# GULP energy per Si atom -12388.895387 kJ/mol
# Density = 2.408002 g / cm^3
# Si number density = 24.134955 Si / 1000 Ang^3
#
#
#
# Elastic Constant Matrix: (Units=GPa)
#
#
# Indices 1 2 3 4 5 6 
#
# 1 66.9945 15.2582 16.0688 0.0056 5.3992 -0.0022
# 2 15.2582 55.9921 8.6490 -0.0055 10.9104 0.0015
# 3 16.0688 8.6490 85.0864 -0.0140 11.3791 -0.0058
# 4 0.0056 -0.0055 -0.0140 32.6579 0.0017 1.1643
# 5 5.3992 10.9104 11.3791 0.0017 36.9250 0.0032
# 6 -0.0022 0.0015 -0.0058 1.1643 0.0032 30.5312
#
#
#
# Elastic Compliance Matrix: (Units=1/GPa)
#
#
# Indices 1 2 3 4 5 6 
#
# 1 0.016510 -0.004009 -0.002655 -0.000005 -0.000411 0.000001
# 2 -0.004009 0.020048 -0.000591 0.000004 -0.005155 -0.000001
# 3 -0.002655 -0.000591 0.012765 0.000006 -0.003371 0.000002
# 4 -0.000005 0.000004 0.000006 0.030662 -0.000004 -0.001169
# 5 -0.000411 -0.005155 -0.003371 -0.000004 0.029704 -0.000003
# 6 0.000001 -0.000001 0.000002 -0.001169 -0.000003 0.032798
#
#
# Mechanical properties :
#
#
# Convention : Reuss Voigt Hill
#
# Bulk Modulus (GPa) = 28.72589 32.00279 30.36434
# Shear Modulus (GPa) = 29.65568 31.22928 30.44248
#
# Velocity S-wave (km/s) = 3.50915 3.60105 3.55539
# Velocity P-wave (km/s) = 5.32418 5.52981 5.42797
#
# Compressibility (1/GPa) = 0.03481180
#
# Stress axis : x y z
#
# Youngs Moduli (GPa) = 60.57074 49.88045 78.33825
#
# Poissons Ratio (x) = 0.19995 0.20802
# Poissons Ratio (y) = 0.24281 0.04633
# Poissons Ratio (z) = 0.16084 0.02950
#
# Static dielectric constant tensor:
#      x y z
#    x 4.322880 0.000000 0.004640 
#    y 0.000000 4.401130 0.000000 
#    z 0.004640 0.000000 4.318980 
# 
# 
# High freq. dielectric constant tensor:
#      x y z
#    x 1.953820 0.000000 -0.003310 
#    y 0.000000 1.947850 0.000000 
#    z -0.003310 0.000000 1.952570 
# 
# From -- ./inp_files/29132.got.cif
#   From: 2010.06.25/outbox.cif.g09.slc.cpg/sg9_15_cif.got.tgz:29132.got - 2010.06.27 21:40:51.
