data_PCOD8055665
_publ_section_title
;
Structure prediction by ZEFSAII (Michael W. Deem and Ramdas Pophale) SiO2 
 PCOD8055665
Probable space group: C C
;
_chemical_formula_sum "Si O2"
_cell_formula_units_Z 32
_cell_length_a 14.334957
_cell_length_b 12.693165
_cell_length_c 8.528765
_cell_angle_alpha 90.000000
_cell_angle_beta 59.923038
_cell_angle_gamma 90.000000
_cell_volume 1342.906491
_symmetry_space_group_name_H-M "C C"
_symmetry_group_IT_number 9
_symmetry_cell_setting 'monoclinic'
loop_
_space_group_symop_operation_xyz
x,y,z
x,-y,1/2+z
1/2+x,1/2+y,z
1/2+x,1/2-y,1/2+z
loop_
_atom_site_type_symbol
_atom_site_label
_atom_site_fract_x
_atom_site_fract_y
_atom_site_fract_z
Si Si1 0.634420 0.140532 0.819390
Si Si2 0.012099 0.155952 0.408775
Si Si3 0.864603 0.374573 0.991304
Si Si4 0.015763 0.964282 0.587474
Si Si5 0.258579 0.051156 0.888357
Si Si6 0.597063 0.938826 0.696309
Si Si7 0.301658 0.255370 0.001877
Si Si8 0.810182 0.158378 0.154007
O O1 0.612000 0.266081 0.834034
O O2 0.756920 0.156241 0.660523
O O3 0.575599 0.064014 0.741818
O O4 0.616522 0.086004 0.999509
O O5 0.015690 0.067652 0.269193
O O6 0.925409 0.246035 0.444704
O O7 0.994802 0.090081 0.583924
O O8 0.793459 0.437080 0.923848
O O9 0.992588 0.376686 0.847043
O O10 0.844907 0.419579 0.182076
O O11 0.826158 0.253221 0.016243
O O12 0.137514 0.946386 0.418416
O O13 0.923789 0.903584 0.567261
O O14 0.262632 0.133557 0.031929
O O15 0.708619 0.912724 0.691186
O O16 0.277708 0.296802 0.848659
#
# Coordination Sequence:
#
# PCOD8055665 Si02
#       8
#     4   4   4   4   4   4   4   4
#     4  12  26  46  72 103 146 197 241 314 367 439
#     4  11  25  45  73 106 145 190 240 304 371 442
#     4  11  26  43  71 105 146 195 252 302 374 433
#     4  11  24  45  72 108 146 188 245 297 375 443
#     4  11  23  44  74 104 148 194 245 308 363 450
#     4  12  27  46  71 104 150 194 259 307 372 443
#     4  10  23  44  70 100 142 192 246 295 378 431
#     4  10  26  45  75 106 145 198 242 317 368 453
#
# _framework density 23.828911999999999
#
# number of rings (size 3 to 8) (size 9 to 14) (size 15 to 20)
#    0.000    1.000    1.250    3.750    5.250    8.000 
#    0.000    0.000    0.000    0.000    0.000    0.000 
#    0.000    0.000    0.000    0.000    0.000    0.000 
#
# Total GULP energy -198246.682786 kJ/mol
# GULP energy per Si atom -12390.417674 kJ/mol
# Density = 2.377468 g / cm^3
# Si number density = 23.828912 Si / 1000 Ang^3
#
#
#
# Elastic Constant Matrix: (Units=GPa)
#
#
# Indices 1 2 3 4 5 6 
#
# 1 119.4968 44.0473 37.2018 0.0000 -17.1376 0.0000
# 2 44.0473 138.7275 32.2056 0.0000 1.6064 0.0000
# 3 37.2018 32.2056 101.0587 0.0000 -7.8701 0.0000
# 4 0.0000 0.0000 0.0000 37.0333 0.0000 3.3543
# 5 -17.1376 1.6064 -7.8701 0.0000 30.6191 0.0000
# 6 0.0000 0.0000 0.0000 3.3543 0.0000 27.9707
#
#
#
# Elastic Compliance Matrix: (Units=1/GPa)
#
#
# Indices 1 2 3 4 5 6 
#
# 1 0.011120 -0.002969 -0.002705 0.000000 0.005684 0.000000
# 2 -0.002969 0.008611 -0.001853 0.000000 -0.002590 0.000000
# 3 -0.002705 -0.001853 0.011603 0.000000 0.001566 0.000000
# 4 0.000000 0.000000 0.000000 0.027299 0.000000 -0.003274
# 5 0.005684 -0.002590 0.001566 0.000000 0.036379 0.000000
# 6 0.000000 0.000000 0.000000 -0.003274 0.000000 0.036144
#
#
# Mechanical properties :
#
#
# Convention : Reuss Voigt Hill
#
# Bulk Modulus (GPa) = 61.41909 65.13249 63.27579
# Shear Modulus (GPa) = 32.97343 35.51318 34.24331
#
# Velocity S-wave (km/s) = 3.72392 3.86468 3.79496
# Velocity P-wave (km/s) = 6.65741 6.87801 6.76861
#
# Compressibility (1/GPa) = 0.01628158
#
# Stress axis : x y z
#
# Youngs Moduli (GPa) = 89.92853 116.12898 86.18160
#
# Poissons Ratio (x) = 0.34474 0.23310
# Poissons Ratio (y) = 0.26696 0.15970
# Poissons Ratio (z) = 0.24324 0.21520
#
# Static dielectric constant tensor:
#      x y z
#    x 4.141350 0.000000 -0.196780 
#    y 0.000000 4.492800 0.000000 
#    z -0.196780 0.000000 4.223860 
# 
# 
# High freq. dielectric constant tensor:
#      x y z
#    x 1.942000 0.000000 -0.015320 
#    y 0.000000 1.956490 0.000000 
#    z -0.015320 0.000000 1.944130 
# 
# From -- ./inp_files/9238.got.cif
#   From: 2010.06.25/outbox.cif.g09.slc.cpg/sg9_5_cif.got.tgz:9238.got - 2010.06.27 21:40:51.
