data_PCOD8055376
_publ_section_title
;
Structure prediction by ZEFSAII (Michael W. Deem and Ramdas Pophale) SiO2 
 PCOD8055376
Probable space group: C C
;
_chemical_formula_sum "Si O2"
_cell_formula_units_Z 32
_cell_length_a 5.354790
_cell_length_b 13.232445
_cell_length_c 21.540920
_cell_angle_alpha 90.000000
_cell_angle_beta 99.014690
_cell_angle_gamma 90.000000
_cell_volume 1507.471345
_symmetry_space_group_name_H-M "C C"
_symmetry_group_IT_number 9
_symmetry_cell_setting 'monoclinic'
loop_
_space_group_symop_operation_xyz
x,y,z
x,-y,1/2+z
1/2+x,1/2+y,z
1/2+x,1/2-y,1/2+z
loop_
_atom_site_type_symbol
_atom_site_label
_atom_site_fract_x
_atom_site_fract_y
_atom_site_fract_z
Si Si1 0.262930 0.291619 0.178810
Si Si2 0.080493 0.069766 0.611433
Si Si3 0.797939 0.028317 0.768843
Si Si4 0.871882 0.715791 0.552184
Si Si5 0.784758 0.562435 0.217611
Si Si6 0.960154 0.409635 0.947059
Si Si7 0.754956 0.935815 0.519349
Si Si8 0.428812 0.518859 0.406002
O O1 0.507260 0.337812 0.154250
O O2 0.211991 0.366137 0.234656
O O3 0.304298 0.181416 0.207577
O O4 0.039730 0.284670 0.120193
O O5 0.175755 0.123321 0.552365
O O6 0.289678 0.998227 0.652259
O O7 0.848266 0.998694 0.582975
O O8 0.541959 0.962617 0.763883
O O9 0.022708 0.969407 0.741325
O O10 0.893329 0.048115 0.842641
O O11 0.011862 0.687868 0.493285
O O12 0.724187 0.820763 0.538972
O O13 0.679925 0.412147 0.906987
O O14 0.183445 0.406742 0.904164
O O15 0.989340 0.514477 0.988432
O O16 0.946683 0.946146 0.467463
#
# Coordination Sequence:
#
# PCOD8055376 Si02
#       8
#     4   4   4   4   4   4   4   4
#     4  11  24  39  67  98 130 170 217 262 334 388
#     4  11  22  39  63  96 134 162 208 272 326 389
#     4  11  25  46  65  92 133 175 218 273 307 388
#     4  12  21  39  68  96 132 166 213 266 336 388
#     4  11  25  42  68  96 127 171 215 266 326 382
#     4  10  22  43  65  96 127 169 212 272 318 381
#     4  10  23  39  64  98 126 170 207 271 324 380
#     4  10  22  47  64  88 135 171 220 268 317 372
#
# _framework density 21.227599999999999
#
# number of rings (size 3 to 8) (size 9 to 14) (size 15 to 20)
#    0.750    0.500    5.000    0.750    1.750    2.000 
#    4.500    0.000    0.000    0.000    0.000    0.000 
#    0.000    0.000    0.000    0.000    0.000    0.000 
#
# Total GULP energy -198227.072472 kJ/mol
# GULP energy per Si atom -12389.192029 kJ/mol
# Density = 2.117928 g / cm^3
# Si number density = 21.227600 Si / 1000 Ang^3
#
#
#
# Elastic Constant Matrix: (Units=GPa)
#
#
# Indices 1 2 3 4 5 6 
#
# 1 104.2891 30.7560 14.6585 0.0000 14.1213 0.0000
# 2 30.7560 139.6690 32.2537 0.0000 2.0459 0.0000
# 3 14.6585 32.2537 82.4964 0.0000 9.1880 0.0000
# 4 0.0000 0.0000 0.0000 17.3687 0.0000 0.0133
# 5 14.1213 2.0459 9.1880 0.0000 26.6300 0.0000
# 6 0.0000 0.0000 0.0000 0.0133 0.0000 23.5840
#
#
#
# Elastic Compliance Matrix: (Units=1/GPa)
#
#
# Indices 1 2 3 4 5 6 
#
# 1 0.011067 -0.002247 -0.000472 0.000000 -0.005533 0.000000
# 2 -0.002247 0.008332 -0.003037 0.000000 0.001599 0.000000
# 3 -0.000472 -0.003037 0.013872 0.000000 -0.004303 0.000000
# 4 0.000000 0.000000 0.000000 0.057575 0.000000 -0.000032
# 5 -0.005533 0.001599 -0.004303 0.000000 0.041847 0.000000
# 6 0.000000 0.000000 0.000000 -0.000032 0.000000 0.042402
#
#
# Mechanical properties :
#
#
# Convention : Reuss Voigt Hill
#
# Bulk Modulus (GPa) = 45.95424 53.53232 49.74328
# Shear Modulus (GPa) = 25.79190 30.10231 27.94711
#
# Velocity S-wave (km/s) = 3.48949 3.76982 3.63236
# Velocity P-wave (km/s) = 6.15879 6.64994 6.40907
#
# Compressibility (1/GPa) = 0.02176078
#
# Stress axis : x y z
#
# Youngs Moduli (GPa) = 90.35939 120.01341 72.08786
#
# Poissons Ratio (x) = 0.26967 0.03400
# Poissons Ratio (y) = 0.20304 0.21890
# Poissons Ratio (z) = 0.04262 0.36443
#
# Static dielectric constant tensor:
#      x y z
#    x 3.726850 0.000000 -0.009780 
#    y 0.000000 3.643300 0.000000 
#    z -0.009780 0.000000 3.803140 
# 
# 
# High freq. dielectric constant tensor:
#      x y z
#    x 1.826570 0.000000 0.003410 
#    y 0.000000 1.813850 0.000000 
#    z 0.003410 0.000000 1.833460 
# 
# From -- ./inp_files/32023.got.cif
#   From: 2010.06.25/outbox.cif.g09.slc.cpg/sg9_17_cif.got.tgz:32023.got - 2010.06.27 21:40:51.
