data_PCOD8055645
_publ_section_title
;
Structure prediction by ZEFSAII (Michael W. Deem and Ramdas Pophale) SiO2 
 PCOD8055645
Probable space group: C C
;
_chemical_formula_sum "Si O2"
_cell_formula_units_Z 28
_cell_length_a 6.790724
_cell_length_b 16.689770
_cell_length_c 15.813907
_cell_angle_alpha 90.000000
_cell_angle_beta 38.054678
_cell_angle_gamma 90.000000
_cell_volume 1104.784426
_symmetry_space_group_name_H-M "C C"
_symmetry_group_IT_number 9
_symmetry_cell_setting 'monoclinic'
loop_
_space_group_symop_operation_xyz
x,y,z
x,-y,1/2+z
1/2+x,1/2+y,z
1/2+x,1/2-y,1/2+z
loop_
_atom_site_type_symbol
_atom_site_label
_atom_site_fract_x
_atom_site_fract_y
_atom_site_fract_z
Si Si1 0.321630 0.525852 0.971130
Si Si2 0.071660 0.637738 0.857863
Si Si3 0.164357 0.182390 0.569618
Si Si4 0.682763 0.274344 0.622050
Si Si5 0.605424 0.555695 0.218931
Si Si6 0.632720 0.313572 0.364721
Si Si7 0.197809 0.008063 0.516467
O O1 0.401259 0.462359 0.871354
O O2 0.391381 0.617416 0.912468
O O3 0.507246 0.507752 0.995176
O O4 0.952768 0.517154 0.118504
O O5 0.446952 0.662744 0.727061
O O6 0.852600 0.702027 0.978887
O O7 0.911089 0.639458 0.820104
O O8 0.016224 0.548737 0.916088
O O9 0.920438 0.210819 0.581514
O O10 0.435885 0.249727 0.489613
O O11 0.318568 0.099399 0.483074
O O12 0.625006 0.348571 0.704995
O O13 0.331254 0.233917 0.724471
O O14 0.477328 0.516239 0.172936
#
# Coordination Sequence:
#
# PCOD8055645 Si02
#       7
#     4   4   4   4   4   4   4
#     4  11  26  48  70 101 141 185 230 281 350 414
#     4   9  23  44  64  95 138 176 228 281 337 422
#     4  11  23  42  70  97 135 179 225 286 351 394
#     4  10  23  44  65 100 136 171 232 285 339 415
#     4  11  26  46  72 100 140 185 231 281 344 421
#     4  10  23  44  65  99 134 177 225 284 348 405
#     4  10  26  42  70 100 140 179 231 282 339 411
#
# _framework density 25.34431
#
# number of rings (size 3 to 8) (size 9 to 14) (size 15 to 20)
#    0.000    1.714    1.429    0.000   12.000    5.714 
#    2.571    0.000    0.000    0.000    0.000    0.000 
#    0.000    0.000    0.000    0.000    0.000    0.000 
#
# Total GULP energy -173490.029778 kJ/mol
# GULP energy per Si atom -12392.144984 kJ/mol
# Density = 2.528663 g / cm^3
# Si number density = 25.344310 Si / 1000 Ang^3
#
#
#
# Elastic Constant Matrix: (Units=GPa)
#
#
# Indices 1 2 3 4 5 6 
#
# 1 58.8725 9.8085 5.9390 -0.0008 6.7333 0.0000
# 2 9.8085 132.3437 21.1630 0.0001 -2.5592 -0.0009
# 3 5.9390 21.1630 86.5303 -0.0035 1.5749 -0.0032
# 4 -0.0008 0.0001 -0.0035 33.5354 0.0022 -4.5515
# 5 6.7333 -2.5592 1.5749 0.0022 34.0967 0.0005
# 6 0.0000 -0.0009 -0.0032 -4.5515 0.0005 21.1332
#
#
#
# Elastic Compliance Matrix: (Units=1/GPa)
#
#
# Indices 1 2 3 4 5 6 
#
# 1 0.017684 -0.001244 -0.000845 0.000001 -0.003547 0.000000
# 2 -0.001244 0.007967 -0.001880 0.000000 0.000930 0.000000
# 3 -0.000845 -0.001880 0.012084 0.000002 -0.000532 0.000002
# 4 0.000001 0.000000 0.000002 0.030717 -0.000002 0.006616
# 5 -0.003547 0.000930 -0.000532 -0.000002 0.030123 -0.000001
# 6 0.000000 0.000000 0.000002 0.006616 -0.000001 0.048744
#
#
# Mechanical properties :
#
#
# Convention : Reuss Voigt Hill
#
# Bulk Modulus (GPa) = 33.56052 39.06306 36.31179
# Shear Modulus (GPa) = 30.26827 33.80879 32.03853
#
# Velocity S-wave (km/s) = 3.45959 3.65633 3.55932
# Velocity P-wave (km/s) = 5.40638 5.76814 5.59018
#
# Compressibility (1/GPa) = 0.02979691
#
# Stress axis : x y z
#
# Youngs Moduli (GPa) = 56.54837 125.51913 82.75309
#
# Poissons Ratio (x) = 0.15616 0.06992
# Poissons Ratio (y) = 0.07035 0.15558
# Poissons Ratio (z) = 0.04778 0.23598
#
# Static dielectric constant tensor:
#      x y z
#    x 4.293400 0.000000 0.060980 
#    y 0.000000 4.818280 0.000010 
#    z 0.060980 0.000010 5.190720 
# 
# 
# High freq. dielectric constant tensor:
#      x y z
#    x 1.999950 0.000000 -0.007760 
#    y 0.000000 2.020210 0.000000 
#    z -0.007760 0.000000 2.020610 
# 
# From -- ./inp_files/32736.got.cif
#   From: 2010.06.25/outbox.cif.g09.slc.cpg/sg9_17_cif.got.tgz:32736.got - 2010.06.27 21:40:51.
