data_PCOD8055779
_publ_section_title
;
Structure prediction by ZEFSAII (Michael W. Deem and Ramdas Pophale) SiO2 
 PCOD8055779
Probable space group: C C
;
_chemical_formula_sum "Si O2"
_cell_formula_units_Z 28
_cell_length_a 8.983618
_cell_length_b 5.102976
_cell_length_c 30.781579
_cell_angle_alpha 90.000000
_cell_angle_beta 60.733179
_cell_angle_gamma 90.000000
_cell_volume 1230.999045
_symmetry_space_group_name_H-M "C C"
_symmetry_group_IT_number 9
_symmetry_cell_setting 'monoclinic'
loop_
_space_group_symop_operation_xyz
x,y,z
x,-y,1/2+z
1/2+x,1/2+y,z
1/2+x,1/2-y,1/2+z
loop_
_atom_site_type_symbol
_atom_site_label
_atom_site_fract_x
_atom_site_fract_y
_atom_site_fract_z
Si Si1 0.561760 0.801468 0.525230
Si Si2 0.166304 0.804497 0.562367
Si Si3 0.332626 0.180811 0.325433
Si Si4 0.611159 0.203119 0.214998
Si Si5 0.691206 0.185967 0.371372
Si Si6 0.338582 0.661438 0.915858
Si Si7 0.007018 0.797545 0.677889
O O1 0.369871 0.804049 0.535356
O O2 0.591747 0.582971 0.557676
O O3 0.682709 0.739992 0.467211
O O4 0.606173 0.085514 0.537365
O O5 0.089883 0.737687 0.619868
O O6 0.493034 0.256833 0.273351
O O7 0.189794 0.413038 0.343631
O O8 0.378563 0.142001 0.369904
O O9 0.261096 0.892277 0.325208
O O10 0.804315 0.225921 0.203232
O O11 0.566792 0.415982 0.184638
O O12 0.578350 0.914497 0.201358
O O13 0.516085 0.307623 0.416438
O O14 0.801972 0.125485 0.399613
#
# Coordination Sequence:
#
# PCOD8055779 Si02
#       7
#     4   4   4   4   4   4   4
#     4  12  26  43  74 100 135 179 223 275 341 403
#     4  12  26  47  71 100 135 174 228 282 340 392
#     4  10  26  40  66  95 135 173 218 269 324 399
#     4  12  26  43  74  98 137 177 227 270 347 392
#     4  10  24  39  64  88 140 170 215 268 318 386
#     4  10  26  40  66  95 137 169 223 263 331 391
#     4  12  26  48  69 102 133 176 226 287 331 403
#
# _framework density 22.745750999999998
#
# number of rings (size 3 to 8) (size 9 to 14) (size 15 to 20)
#    0.857    0.000    0.000    6.000   10.000    0.000 
#    0.000    0.000    0.000    0.000    0.000    0.000 
#    0.000    0.000    0.000    0.000    0.000    0.000 
#
# Total GULP energy -173480.076214 kJ/mol
# GULP energy per Si atom -12391.434015 kJ/mol
# Density = 2.269398 g / cm^3
# Si number density = 22.745751 Si / 1000 Ang^3
#
#
#
# Elastic Constant Matrix: (Units=GPa)
#
#
# Indices 1 2 3 4 5 6 
#
# 1 234.6739 78.8961 -5.8566 0.0002 -31.8832 0.0000
# 2 78.8961 133.8981 12.2088 0.0000 -10.7734 0.0000
# 3 -5.8566 12.2088 96.8549 -0.0001 -6.8902 -0.0001
# 4 0.0002 0.0000 -0.0001 32.1930 0.0000 -0.6106
# 5 -31.8832 -10.7734 -6.8902 0.0000 35.8978 0.0000
# 6 0.0000 0.0000 -0.0001 -0.6106 0.0000 30.4238
#
#
#
# Elastic Compliance Matrix: (Units=1/GPa)
#
#
# Indices 1 2 3 4 5 6 
#
# 1 0.006010 -0.003274 0.001101 0.000000 0.004566 0.000000
# 2 -0.003274 0.009500 -0.001419 0.000000 -0.000329 0.000000
# 3 0.001101 -0.001419 0.010756 0.000000 0.002617 0.000000
# 4 0.000000 0.000000 0.000000 0.031074 0.000000 0.000624
# 5 0.004566 -0.000329 0.002617 0.000000 0.032316 0.000000
# 6 0.000000 0.000000 0.000000 0.000624 0.000000 0.032882
#
#
# Mechanical properties :
#
#
# Convention : Reuss Voigt Hill
#
# Bulk Modulus (GPa) = 52.40431 70.65816 61.53123
# Shear Modulus (GPa) = 36.74209 45.04817 40.89513
#
# Velocity S-wave (km/s) = 4.02349 4.45512 4.24479
# Velocity P-wave (km/s) = 6.68385 7.58920 7.15086
#
# Compressibility (1/GPa) = 0.01908240
#
# Stress axis : x y z
#
# Youngs Moduli (GPa) = 166.39318 105.25807 92.96882
#
# Poissons Ratio (x) = 0.34463 -0.10236
# Poissons Ratio (y) = 0.54479 0.13192
# Poissons Ratio (z) = -0.18319 0.14936
#
# Static dielectric constant tensor:
#      x y z
#    x 4.138400 0.000000 -0.120500 
#    y 0.000000 4.151720 0.000000 
#    z -0.120500 0.000000 3.973550 
# 
# 
# High freq. dielectric constant tensor:
#      x y z
#    x 1.895480 0.000000 -0.009600 
#    y 0.000000 1.910610 0.000000 
#    z -0.009600 0.000000 1.903070 
# 
# From -- ./inp_files/36284.got.cif
#   From: 2010.06.25/outbox.cif.g09.slc.cpg/sg9_19_cif.got.tgz:36284.got - 2010.06.27 21:40:51.
