data_PCOD8055170
_publ_section_title
;
Structure prediction by ZEFSAII (Michael W. Deem and Ramdas Pophale) SiO2 
 PCOD8055170
Probable space group: C C
;
_chemical_formula_sum "Si O2"
_cell_formula_units_Z 28
_cell_length_a 17.398652
_cell_length_b 18.095561
_cell_length_c 10.290624
_cell_angle_alpha 90.000000
_cell_angle_beta 153.893505
_cell_angle_gamma 90.000000
_cell_volume 1425.681367
_symmetry_space_group_name_H-M "C C"
_symmetry_group_IT_number 9
_symmetry_cell_setting 'monoclinic'
loop_
_space_group_symop_operation_xyz
x,y,z
x,-y,1/2+z
1/2+x,1/2+y,z
1/2+x,1/2-y,1/2+z
loop_
_atom_site_type_symbol
_atom_site_label
_atom_site_fract_x
_atom_site_fract_y
_atom_site_fract_z
Si Si1 0.793780 0.344163 0.250000
Si Si2 0.426485 0.650861 0.623327
Si Si3 0.000040 0.488707 0.617062
Si Si4 0.156146 0.951174 0.624193
Si Si5 0.223562 0.488384 0.707300
Si Si6 0.052653 0.939759 0.745180
Si Si7 0.612241 0.253140 0.195427
O O1 0.895474 0.411459 0.477242
O O2 0.669658 0.304554 0.164963
O O3 0.936223 0.292341 0.395984
O O4 0.657920 0.363955 0.927533
O O5 0.341233 0.585977 0.404049
O O6 0.562439 0.699169 0.746119
O O7 0.273926 0.696981 0.463409
O O8 0.545961 0.621643 0.922903
O O9 0.865379 0.557392 0.425123
O O10 0.068304 0.488038 0.573974
O O11 0.152241 0.502380 0.952788
O O12 0.122313 0.977445 0.719587
O O13 0.094564 0.014997 0.436636
O O14 0.342164 0.561578 0.913530
#
# Coordination Sequence:
#
# PCOD8055170 Si02
#       7
#     4   4   4   4   4   4   4
#     4  10  22  40  63  84 121 158 213 237 303 363
#     4  10  22  40  63  84 121 158 213 237 303 363
#     4  11  22  36  63  94 121 149 194 258 311 356
#     4  10  22  38  62  92 122 154 198 255 308 356
#     4  11  22  36  63  94 121 149 194 258 311 356
#     4  10  22  38  62  92 122 154 198 255 308 356
#     4  10  22  40  64  82 118 174 202 242 298 362
#
# _framework density 19.639731999999999
#
# number of rings (size 3 to 8) (size 9 to 14) (size 15 to 20)
#    0.000    1.714    1.429    3.429   12.000    0.000 
#    0.000    1.429    0.000    0.000    0.000    0.000 
#    0.000    0.000    0.000    0.000    0.000    0.000 
#
# Total GULP energy -173436.339042 kJ/mol
# GULP energy per Si atom -12388.309932 kJ/mol
# Density = 1.959503 g / cm^3
# Si number density = 19.639732 Si / 1000 Ang^3
#
#
#
# Elastic Constant Matrix: (Units=GPa)
#
#
# Indices 1 2 3 4 5 6 
#
# 1 105.0271 32.7542 21.2795 0.0000 19.5676 0.0000
# 2 32.7542 71.8724 37.4846 0.0000 12.9587 0.0000
# 3 21.2795 37.4846 103.5150 0.0000 12.0071 0.0000
# 4 0.0000 0.0000 0.0000 38.9201 0.0000 7.9910
# 5 19.5676 12.9587 12.0071 0.0000 38.4264 0.0000
# 6 0.0000 0.0000 0.0000 7.9910 0.0000 16.6947
#
#
#
# Elastic Compliance Matrix: (Units=1/GPa)
#
#
# Indices 1 2 3 4 5 6 
#
# 1 0.011783 -0.004411 -0.000313 0.000000 -0.004415 0.000000
# 2 -0.004411 0.019414 -0.005836 0.000000 -0.002478 0.000000
# 3 -0.000313 -0.005836 0.012027 0.000000 -0.001631 0.000000
# 4 0.000000 0.000000 0.000000 0.028494 0.000000 -0.013639
# 5 -0.004415 -0.002478 -0.001631 0.000000 0.029617 0.000000
# 6 0.000000 0.000000 0.000000 -0.013639 0.000000 0.066427
#
#
# Mechanical properties :
#
#
# Convention : Reuss Voigt Hill
#
# Bulk Modulus (GPa) = 45.23877 51.49458 48.36667
# Shear Modulus (GPa) = 25.47771 31.40133 28.43952
#
# Velocity S-wave (km/s) = 3.60565 4.00292 3.80947
# Velocity P-wave (km/s) = 6.35756 6.90225 6.63550
#
# Compressibility (1/GPa) = 0.02210494
#
# Stress axis : x y z
#
# Youngs Moduli (GPa) = 84.86956 51.50917 83.14438
#
# Poissons Ratio (x) = 0.22718 0.02602
# Poissons Ratio (y) = 0.37432 0.48524
# Poissons Ratio (z) = 0.02656 0.30061
#
# Static dielectric constant tensor:
#      x y z
#    x 3.598920 0.000000 0.249090 
#    y 0.000000 3.786790 0.000000 
#    z 0.249090 0.000000 4.166180 
# 
# 
# High freq. dielectric constant tensor:
#      x y z
#    x 1.776080 0.000000 0.019620 
#    y 0.000000 1.741210 0.000000 
#    z 0.019620 0.000000 1.775280 
# 
# From -- ./inp_files/5350.got.cif
#   From: 2010.06.25/outbox.cif.g09.slc.cpg/sg9_3_cif.got.tgz:5350.got - 2010.06.27 21:40:51.
