data_PCOD8055631
_publ_section_title
;
Structure prediction by ZEFSAII (Michael W. Deem and Ramdas Pophale) SiO2 
 PCOD8055631
Probable space group: C C
;
_chemical_formula_sum "Si O2"
_cell_formula_units_Z 32
_cell_length_a 15.100251
_cell_length_b 11.175035
_cell_length_c 9.031000
_cell_angle_alpha 90.000000
_cell_angle_beta 107.424720
_cell_angle_gamma 90.000000
_cell_volume 1454.011708
_symmetry_space_group_name_H-M "C C"
_symmetry_group_IT_number 9
_symmetry_cell_setting 'monoclinic'
loop_
_space_group_symop_operation_xyz
x,y,z
x,-y,1/2+z
1/2+x,1/2+y,z
1/2+x,1/2-y,1/2+z
loop_
_atom_site_type_symbol
_atom_site_label
_atom_site_fract_x
_atom_site_fract_y
_atom_site_fract_z
Si Si1 0.573010 0.897608 0.275860
Si Si2 0.468868 0.430102 0.406081
Si Si3 0.631093 0.327328 0.641919
Si Si4 0.870371 0.120652 0.152957
Si Si5 0.256372 0.989550 0.868704
Si Si6 0.614070 0.697847 0.825690
Si Si7 0.869712 0.397897 0.190576
Si Si8 0.160557 0.591939 0.128998
O O1 0.579428 0.758667 0.232243
O O2 0.469855 0.948594 0.192995
O O3 0.590613 0.908400 0.458072
O O4 0.645854 0.976991 0.223397
O O5 0.561985 0.438590 0.558026
O O6 0.437888 0.546300 0.297856
O O7 0.389649 0.392993 0.485432
O O8 0.502478 0.330292 0.298138
O O9 0.726627 0.373581 0.758955
O O10 0.653902 0.250876 0.503237
O O11 0.879313 0.256506 0.205043
O O12 0.765005 0.081509 0.124946
O O13 0.166329 0.072282 0.828742
O O14 0.344171 0.055265 0.840510
O O15 0.287350 0.942521 0.043743
O O16 0.636555 0.787322 0.706118
#
# Coordination Sequence:
#
# PCOD8055631 Si02
#       8
#     4   4   4   4   4   4   4   4
#     4  12  26  46  71 103 150 189 239 302 367 435
#     4  10  24  43  71 105 145 183 237 310 348 439
#     4  10  23  43  70 102 144 184 236 291 372 422
#     4  12  24  47  71 107 147 183 250 297 366 430
#     4  12  23  43  70 105 138 186 234 304 349 446
#     4  10  23  43  72 106 140 183 244 286 379 420
#     4  12  25  44  70 104 145 185 244 297 368 428
#     4  12  26  47  75 104 147 197 240 299 369 442
#
# _framework density 22.008075999999999
#
# number of rings (size 3 to 8) (size 9 to 14) (size 15 to 20)
#    0.750    0.000    3.750    3.750    0.000    3.000 
#    0.000    1.250    0.000    0.000    0.000    0.000 
#    0.000    0.000    0.000    0.000    0.000    0.000 
#
# Total GULP energy -198218.223732 kJ/mol
# GULP energy per Si atom -12388.638983 kJ/mol
# Density = 2.195798 g / cm^3
# Si number density = 22.008076 Si / 1000 Ang^3
#
#
#
# Elastic Constant Matrix: (Units=GPa)
#
#
# Indices 1 2 3 4 5 6 
#
# 1 143.7802 39.2519 33.3943 0.0000 -15.9345 0.0000
# 2 39.2519 91.7943 44.6444 0.0000 -2.3123 0.0000
# 3 33.3943 44.6444 112.3582 0.0000 -2.1594 0.0000
# 4 0.0000 0.0000 0.0000 38.1063 0.0000 -5.5066
# 5 -15.9345 -2.3123 -2.1594 0.0000 35.8114 0.0000
# 6 0.0000 0.0000 0.0000 -5.5066 0.0000 34.5486
#
#
#
# Elastic Compliance Matrix: (Units=1/GPa)
#
#
# Indices 1 2 3 4 5 6 
#
# 1 0.008430 -0.002889 -0.001290 0.000000 0.003487 0.000000
# 2 -0.002889 0.014504 -0.004917 0.000000 -0.000646 0.000000
# 3 -0.001290 -0.004917 0.011233 0.000000 -0.000214 0.000000
# 4 0.000000 0.000000 0.000000 0.026861 0.000000 0.004281
# 5 0.003487 -0.000646 -0.000214 0.000000 0.029421 0.000000
# 6 0.000000 0.000000 0.000000 0.004281 0.000000 0.029627
#
#
# Mechanical properties :
#
#
# Convention : Reuss Voigt Hill
#
# Bulk Modulus (GPa) = 62.60013 64.72376 63.66195
# Shear Modulus (GPa) = 34.82024 37.06940 35.94482
#
# Velocity S-wave (km/s) = 3.98195 4.10854 4.04574
# Velocity P-wave (km/s) = 7.04607 7.20970 7.12836
#
# Compressibility (1/GPa) = 0.01597441
#
# Stress axis : x y z
#
# Youngs Moduli (GPa) = 118.62462 68.94430 89.02181
#
# Poissons Ratio (x) = 0.19920 0.11488
# Poissons Ratio (y) = 0.34274 0.43771
# Poissons Ratio (z) = 0.15308 0.33899
#
# Static dielectric constant tensor:
#      x y z
#    x 4.173180 0.000000 -0.235730 
#    y 0.000000 3.720540 0.000000 
#    z -0.235730 0.000000 4.043390 
# 
# 
# High freq. dielectric constant tensor:
#      x y z
#    x 1.878200 0.000000 -0.017560 
#    y 0.000000 1.847590 0.000000 
#    z -0.017560 0.000000 1.870990 
# 
# From -- ./inp_files/9295.got.cif
#   From: 2010.06.25/outbox.cif.g09.slc.cpg/sg9_5_cif.got.tgz:9295.got - 2010.06.27 21:40:51.
