data_PCOD8055740
_publ_section_title
;
Structure prediction by ZEFSAII (Michael W. Deem and Ramdas Pophale) SiO2 
 PCOD8055740
Probable space group: C C
;
_chemical_formula_sum "Si O2"
_cell_formula_units_Z 32
_cell_length_a 25.443669
_cell_length_b 9.066614
_cell_length_c 19.471659
_cell_angle_alpha 90.000000
_cell_angle_beta 161.255813
_cell_angle_gamma 90.000000
_cell_volume 1443.434870
_symmetry_space_group_name_H-M "C C"
_symmetry_group_IT_number 9
_symmetry_cell_setting 'monoclinic'
loop_
_space_group_symop_operation_xyz
x,y,z
x,-y,1/2+z
1/2+x,1/2+y,z
1/2+x,1/2-y,1/2+z
loop_
_atom_site_type_symbol
_atom_site_label
_atom_site_fract_x
_atom_site_fract_y
_atom_site_fract_z
Si Si1 0.697210 0.813344 0.797420
Si Si2 0.524390 0.712077 0.080656
Si Si3 0.097615 0.001707 0.897068
Si Si4 0.117764 0.235926 0.560772
Si Si5 0.040181 0.923869 0.183377
Si Si6 0.202312 0.911883 0.669101
Si Si7 0.253586 0.695519 0.095912
Si Si8 0.222901 0.420792 0.417212
O O1 0.592211 0.833223 0.597445
O O2 0.662488 0.649637 0.780871
O O3 0.643382 0.929314 0.789305
O O4 0.883842 0.822702 0.004826
O O5 0.373271 0.824435 0.884956
O O6 0.477310 0.577797 0.073290
O O7 0.578960 0.654223 0.073425
O O8 0.676170 0.791571 0.306553
O O9 0.916561 0.938941 0.659195
O O10 0.223786 0.869368 0.061780
O O11 0.145539 0.074615 0.884060
O O12 0.119807 0.109471 0.990586
O O13 0.190741 0.351453 0.594121
O O14 0.945876 0.167469 0.322551
O O15 0.228604 0.089063 0.712873
O O16 0.159495 0.614351 0.916507
#
# Coordination Sequence:
#
# PCOD8055740 Si02
#       8
#     4   4   4   4   4   4   4   4
#     4  11  25  43  68 102 137 178 231 294 349 414
#     4  12  26  46  72 104 140 189 238 295 348 417
#     4  10  23  46  68 104 143 181 234 291 351 424
#     4  11  24  42  72 102 141 181 238 289 353 420
#     4  11  24  46  67  99 145 181 231 289 360 415
#     4  11  25  44  71 101 141 183 241 290 349 415
#     4  11  21  43  71  97 138 190 231 281 346 428
#     4  11  24  44  73 101 141 183 236 285 348 423
#
# _framework density 22.169339999999998
#
# number of rings (size 3 to 8) (size 9 to 14) (size 15 to 20)
#    0.000    1.000    5.000    2.250    5.250    2.000 
#    2.250    0.000    0.000    0.000    0.000    0.000 
#    0.000    0.000    0.000    0.000    0.000    0.000 
#
# Total GULP energy -198233.003273 kJ/mol
# GULP energy per Si atom -12389.562705 kJ/mol
# Density = 2.211888 g / cm^3
# Si number density = 22.169340 Si / 1000 Ang^3
#
#
#
# Elastic Constant Matrix: (Units=GPa)
#
#
# Indices 1 2 3 4 5 6 
#
# 1 171.3196 54.2862 43.1146 0.0003 -27.4720 0.0002
# 2 54.2862 88.5333 43.8099 0.0001 -9.1068 0.0001
# 3 43.1146 43.8099 83.7562 0.0002 -9.3258 0.0002
# 4 0.0003 0.0001 0.0002 36.5333 0.0000 -3.4684
# 5 -27.4720 -9.1068 -9.3258 0.0000 37.7519 0.0000
# 6 0.0002 0.0001 0.0002 -3.4684 0.0000 39.6962
#
#
#
# Elastic Compliance Matrix: (Units=1/GPa)
#
#
# Indices 1 2 3 4 5 6 
#
# 1 0.008190 -0.003662 -0.001784 0.000000 0.004636 0.000000
# 2 -0.003662 0.016991 -0.007036 0.000000 -0.000304 0.000000
# 3 -0.001784 -0.007036 0.016663 0.000000 0.001121 0.000000
# 4 0.000000 0.000000 0.000000 0.027601 0.000000 0.002412
# 5 0.004636 -0.000304 0.001121 0.000000 0.030065 0.000000
# 6 0.000000 0.000000 0.000000 0.002412 0.000000 0.025402
#
#
# Mechanical properties :
#
#
# Convention : Reuss Voigt Hill
#
# Bulk Modulus (GPa) = 59.24513 69.55893 64.40203
# Shear Modulus (GPa) = 32.15351 36.28952 34.22152
#
# Velocity S-wave (km/s) = 3.81249 4.05028 3.93318
# Velocity P-wave (km/s) = 6.79426 7.30187 7.05264
#
# Compressibility (1/GPa) = 0.01687902
#
# Stress axis : x y z
#
# Youngs Moduli (GPa) = 122.10337 58.85409 60.01307
#
# Poissons Ratio (x) = 0.21553 0.10707
# Poissons Ratio (y) = 0.44715 0.42227
# Poissons Ratio (z) = 0.21785 0.41411
#
# Static dielectric constant tensor:
#      x y z
#    x 4.805980 0.000000 -0.497420 
#    y 0.000000 3.864720 0.000000 
#    z -0.497420 0.000000 3.921770 
# 
# 
# High freq. dielectric constant tensor:
#      x y z
#    x 1.903950 0.000000 -0.020450 
#    y 0.000000 1.849410 0.000000 
#    z -0.020450 0.000000 1.862060 
# 
# From -- ./inp_files/34607.got.cif
#   From: 2010.06.25/outbox.cif.g09.slc.cpg/sg9_18_cif.got.tgz:34607.got - 2010.06.27 21:40:51.
