data_PCOD8055646
_publ_section_title
;
Structure prediction by ZEFSAII (Michael W. Deem and Ramdas Pophale) SiO2 
 PCOD8055646
Probable space group: C C
;
_chemical_formula_sum "Si O2"
_cell_formula_units_Z 24
_cell_length_a 12.289832
_cell_length_b 6.890273
_cell_length_c 23.718749
_cell_angle_alpha 90.000000
_cell_angle_beta 148.486568
_cell_angle_gamma 90.000000
_cell_volume 1049.845416
_symmetry_space_group_name_H-M "C C"
_symmetry_group_IT_number 9
_symmetry_cell_setting 'monoclinic'
loop_
_space_group_symop_operation_xyz
x,y,z
x,-y,1/2+z
1/2+x,1/2+y,z
1/2+x,1/2-y,1/2+z
loop_
_atom_site_type_symbol
_atom_site_label
_atom_site_fract_x
_atom_site_fract_y
_atom_site_fract_z
Si Si1 0.193510 0.492850 0.307620
Si Si2 0.059795 0.773660 0.654586
Si Si3 0.014302 0.773662 0.148788
Si Si4 0.380586 0.992850 0.495754
Si Si5 0.061240 0.718103 0.475549
Si Si6 0.512854 0.781894 0.827824
O O1 0.065108 0.322631 0.219004
O O2 0.425325 0.414899 0.423312
O O3 0.083838 0.546782 0.317678
O O4 0.198788 0.680663 0.268200
O O5 0.271254 0.726624 0.712664
O O6 0.875309 0.680663 0.535173
O O7 0.037056 0.000000 0.651691
O O8 0.008986 0.677371 0.084369
O O9 0.802842 0.726633 0.090709
O O10 0.148769 0.914902 0.380063
O O11 0.490256 0.046777 0.485694
O O12 0.037045 0.633992 0.401685
#
# Coordination Sequence:
#
# PCOD8055646 Si02
#       6
#     4   4   4   4   4   4
#     4  10  23  44  66 100 136 170 223 277 331 391
#     4  10  23  46  69  98 133 180 225 269 332 400
#     4  10  23  46  69  98 133 180 225 269 332 400
#     4  10  23  44  66 100 136 170 223 277 331 391
#     4  10  23  44  65 100 137 170 226 271 325 401
#     4  10  23  44  65 100 137 170 226 271 325 401
#
# _framework density 22.860509
#
# number of rings (size 3 to 8) (size 9 to 14) (size 15 to 20)
#    0.000    2.000    0.000    1.000    9.333    1.333 
#   24.000    0.000    0.000    0.000    0.000    0.000 
#    0.000    0.000    0.000    0.000    0.000    0.000 
#
# Total GULP energy -148741.373532 kJ/mol
# GULP energy per Si atom -12395.114461 kJ/mol
# Density = 2.280848 g / cm^3
# Si number density = 22.860509 Si / 1000 Ang^3
#
#
#
# Elastic Constant Matrix: (Units=GPa)
#
#
# Indices 1 2 3 4 5 6 
#
# 1 154.0839 70.6191 47.5858 0.0000 -11.2935 0.0000
# 2 70.6191 186.2508 57.6445 0.0000 -10.1638 0.0000
# 3 47.5858 57.6445 70.2849 0.0000 14.1477 0.0000
# 4 0.0000 0.0000 0.0000 31.0139 0.0000 -6.6405
# 5 -11.2935 -10.1638 14.1477 0.0000 35.2529 0.0000
# 6 0.0000 0.0000 0.0000 -6.6405 0.0000 53.4220
#
#
#
# Elastic Compliance Matrix: (Units=1/GPa)
#
#
# Indices 1 2 3 4 5 6 
#
# 1 0.009439 -0.001334 -0.006340 0.000000 0.005184 0.000000
# 2 -0.001334 0.008230 -0.006787 0.000000 0.004669 0.000000
# 3 -0.006340 -0.006787 0.027077 0.000000 -0.014854 0.000000
# 4 0.000000 0.000000 0.000000 0.033125 0.000000 0.004118
# 5 0.005184 0.004669 -0.014854 0.000000 0.037335 0.000000
# 6 0.000000 0.000000 0.000000 0.004118 0.000000 0.019231
#
#
# Mechanical properties :
#
#
# Convention : Reuss Voigt Hill
#
# Bulk Modulus (GPa) = 63.19405 84.70205 73.94805
# Shear Modulus (GPa) = 29.65006 39.58910 34.61958
#
# Velocity S-wave (km/s) = 3.60529 4.16597 3.89573
# Velocity P-wave (km/s) = 6.71075 7.76354 7.25626
#
# Compressibility (1/GPa) = 0.01582427
#
# Stress axis : x y z
#
# Youngs Moduli (GPa) = 105.93972 121.50440 36.93196
#
# Poissons Ratio (x) = 0.16206 0.23416
# Poissons Ratio (y) = 0.14130 0.25065
# Poissons Ratio (z) = 0.67170 0.82463
#
# Static dielectric constant tensor:
#      x y z
#    x 4.174800 0.000000 0.017820 
#    y 0.000000 3.937410 0.000000 
#    z 0.017820 0.000000 4.459930 
# 
# 
# High freq. dielectric constant tensor:
#      x y z
#    x 1.895930 0.000000 -0.016330 
#    y 0.000000 1.892950 0.000000 
#    z -0.016330 0.000000 1.905470 
# 
# From -- ./inp_files/23914.got.cif
#   From: 2010.06.25/outbox.cif.g09.slc.cpg/sg9_12_cif.got.tgz:23914.got - 2010.06.27 21:40:51.
