data_PCOD8055304
_publ_section_title
;
Structure prediction by ZEFSAII (Michael W. Deem and Ramdas Pophale) SiO2 
 PCOD8055304
Probable space group: C C
;
_chemical_formula_sum "Si O2"
_cell_formula_units_Z 32
_cell_length_a 25.332809
_cell_length_b 5.249778
_cell_length_c 20.305013
_cell_angle_alpha 90.000000
_cell_angle_beta 149.111719
_cell_angle_gamma 90.000000
_cell_volume 1386.291112
_symmetry_space_group_name_H-M "C C"
_symmetry_group_IT_number 9
_symmetry_cell_setting 'monoclinic'
loop_
_space_group_symop_operation_xyz
x,y,z
x,-y,1/2+z
1/2+x,1/2+y,z
1/2+x,1/2-y,1/2+z
loop_
_atom_site_type_symbol
_atom_site_label
_atom_site_fract_x
_atom_site_fract_y
_atom_site_fract_z
Si Si1 0.758030 0.996498 0.945430
Si Si2 0.177061 0.136009 0.680779
Si Si3 0.480661 0.123328 0.344782
Si Si4 0.106806 0.865108 0.962969
Si Si5 0.993866 0.790332 0.497847
Si Si6 0.369821 0.648981 0.441639
Si Si7 0.782498 0.509170 0.552231
Si Si8 0.059325 0.433136 0.664520
O O1 0.808703 0.026335 0.927904
O O2 0.633780 0.016842 0.803721
O O3 0.775508 0.712067 0.990779
O O4 0.803979 0.219298 0.040183
O O5 0.174590 0.195765 0.600249
O O6 0.294829 0.124364 0.833546
O O7 0.121083 0.347486 0.665291
O O8 0.113262 0.876237 0.618969
O O9 0.521828 0.412173 0.379306
O O10 0.466552 0.099031 0.408703
O O11 0.553002 0.906416 0.390477
O O12 0.369787 0.080658 0.195202
O O13 0.176931 0.954513 0.978136
O O14 0.988588 0.662866 0.563844
O O15 0.907481 0.009939 0.414219
O O16 0.471943 0.731780 0.592369
#
# Coordination Sequence:
#
# PCOD8055304 Si02
#       8
#     4   4   4   4   4   4   4   4
#     4  11  28  47  66  99 146 185 239 286 334 426
#     4   9  21  40  64 102 142 163 229 282 363 411
#     4  11  25  47  73 105 142 173 240 291 355 419
#     4  11  24  45  73 102 140 189 220 301 350 409
#     4  10  22  41  70 105 134 174 225 303 353 422
#     4  10  24  40  70 104 135 191 225 293 361 419
#     4  12  28  48  70 101 141 195 243 281 342 431
#     4  10  22  42  68  98 136 174 227 291 350 413
#
# _framework density 23.083175000000001
#
# number of rings (size 3 to 8) (size 9 to 14) (size 15 to 20)
#    0.000    1.500    1.250    1.500    8.750    6.000 
#    0.000    0.000    0.000    0.000    0.000    0.000 
#    0.000    0.000    0.000    0.000    0.000    0.000 
#
# Total GULP energy -198210.062342 kJ/mol
# GULP energy per Si atom -12388.128896 kJ/mol
# Density = 2.303064 g / cm^3
# Si number density = 23.083175 Si / 1000 Ang^3
#
#
#
# Elastic Constant Matrix: (Units=GPa)
#
#
# Indices 1 2 3 4 5 6 
#
# 1 65.6524 25.0939 25.9988 -0.0017 11.3074 -0.0023
# 2 25.0939 100.8575 41.9285 -0.0007 -0.5035 -0.0020
# 3 25.9988 41.9285 143.8914 -0.0002 7.0584 -0.0007
# 4 -0.0017 -0.0007 -0.0002 37.9851 -0.0005 -8.6733
# 5 11.3074 -0.5035 7.0584 -0.0005 27.1118 -0.0007
# 6 -0.0023 -0.0020 -0.0007 -8.6733 -0.0007 26.1123
#
#
#
# Elastic Compliance Matrix: (Units=1/GPa)
#
#
# Indices 1 2 3 4 5 6 
#
# 1 0.018750 -0.003920 -0.001883 0.000001 -0.007403 0.000001
# 2 -0.003920 0.012132 -0.002956 0.000000 0.002630 0.000001
# 3 -0.001883 -0.002956 0.008220 0.000000 -0.001410 0.000000
# 4 0.000001 0.000000 0.000000 0.028487 0.000000 0.009462
# 5 -0.007403 0.002630 -0.001410 0.000000 0.040388 0.000001
# 6 0.000001 0.000001 0.000000 0.009462 0.000001 0.041439
#
#
# Mechanical properties :
#
#
# Convention : Reuss Voigt Hill
#
# Bulk Modulus (GPa) = 46.32495 55.16041 50.74268
# Shear Modulus (GPa) = 28.71448 32.73383 30.72416
#
# Velocity S-wave (km/s) = 3.53080 3.76983 3.65227
# Velocity P-wave (km/s) = 6.06089 6.54958 6.30997
#
# Compressibility (1/GPa) = 0.02158664
#
# Stress axis : x y z
#
# Youngs Moduli (GPa) = 53.33216 82.42545 121.64928
#
# Poissons Ratio (x) = 0.32307 0.22902
# Poissons Ratio (y) = 0.20904 0.35959
# Poissons Ratio (z) = 0.10041 0.24365
#
# Static dielectric constant tensor:
#      x y z
#    x 4.037830 0.000000 0.040500 
#    y 0.000000 4.074450 0.000000 
#    z 0.040500 0.000000 4.313500 
# 
# 
# High freq. dielectric constant tensor:
#      x y z
#    x 1.905480 0.000000 0.006430 
#    y 0.000000 1.908830 0.000000 
#    z 0.006430 0.000000 1.916220 
# 
# From -- ./inp_files/34452.got.cif
#   From: 2010.06.25/outbox.cif.g09.slc.cpg/sg9_18_cif.got.tgz:34452.got - 2010.06.27 21:40:51.
