data_PCOD8055858
_publ_section_title
;
Structure prediction by ZEFSAII (Michael W. Deem and Ramdas Pophale) SiO2 
 PCOD8055858
Probable space group: C C
;
_chemical_formula_sum "Si O2"
_cell_formula_units_Z 20
_cell_length_a 26.438854
_cell_length_b 4.850442
_cell_length_c 11.701031
_cell_angle_alpha 90.000000
_cell_angle_beta 149.585267
_cell_angle_gamma 90.000000
_cell_volume 759.657545
_symmetry_space_group_name_H-M "C C"
_symmetry_group_IT_number 9
_symmetry_cell_setting 'monoclinic'
loop_
_space_group_symop_operation_xyz
x,y,z
x,-y,1/2+z
1/2+x,1/2+y,z
1/2+x,1/2-y,1/2+z
loop_
_atom_site_type_symbol
_atom_site_label
_atom_site_fract_x
_atom_site_fract_y
_atom_site_fract_z
Si Si1 0.205280 0.473620 0.619250
Si Si2 0.481328 0.966961 0.649483
Si Si3 0.492437 0.526392 0.019876
Si Si4 0.848859 0.767647 0.569564
Si Si5 0.716389 0.533028 0.989640
O O1 0.215554 0.157218 0.601739
O O2 0.089460 0.541134 0.420325
O O3 0.244839 0.661680 0.590043
O O4 0.266262 0.531458 0.853251
O O5 0.482166 0.157198 0.537385
O O6 0.397850 0.064863 0.573536
O O7 0.452879 0.661662 0.549087
O O8 0.608256 0.458868 0.218800
O O9 0.431456 0.468537 0.785879
O O10 0.799867 0.564851 0.565582
#
# Coordination Sequence:
#
# PCOD8055858 Si02
#       5
#     4   4   4   4   4
#     4  10  24  44  65  97 138 174 218 277 334 394
#     4  10  24  44  65  97 138 174 218 277 334 394
#     4  10  24  44  65  97 138 174 218 277 334 394
#     4  12  24  42  76 102 128 182 232 270 332 402
#     4  10  24  44  65  97 138 174 218 277 334 394
#
# _framework density 26.327653999999999
#
# number of rings (size 3 to 8) (size 9 to 14) (size 15 to 20)
#    0.000    1.600    0.000    2.400    0.000   16.000 
#    0.000    0.000    0.000    0.000    0.000    0.000 
#    0.000    0.000    0.000    0.000    0.000    0.000 
#
# Total GULP energy -124106.659868 kJ/mol
# GULP energy per Si atom -12410.665987 kJ/mol
# Density = 2.626773 g / cm^3
# Si number density = 26.327654 Si / 1000 Ang^3
#
#
#
# Elastic Constant Matrix: (Units=GPa)
#
#
# Indices 1 2 3 4 5 6 
#
# 1 21.2152 -17.4381 13.8553 0.0000 13.9524 0.0007
# 2 -17.4381 86.2442 22.4600 0.0000 2.4853 0.0012
# 3 13.8553 22.4600 184.9219 0.0000 -7.2697 0.0000
# 4 0.0000 0.0000 0.0000 35.7826 -0.0001 9.2948
# 5 13.9524 2.4853 -7.2697 -0.0001 20.8546 0.0001
# 6 0.0007 0.0012 0.0000 9.2948 0.0001 6.3744
#
#
#
# Elastic Compliance Matrix: (Units=1/GPa)
#
#
# Indices 1 2 3 4 5 6 
#
# 1 0.227772 0.059012 -0.030924 0.000013 -0.170199 -0.000050
# 2 0.059012 0.027343 -0.009554 0.000004 -0.046070 -0.000017
# 3 -0.030924 -0.009554 0.009879 -0.000002 0.025271 0.000007
# 4 0.000013 0.000004 -0.000002 0.044986 -0.000009 -0.065596
# 5 -0.170199 -0.046070 0.025271 -0.000009 0.176120 0.000037
# 6 -0.000050 -0.000017 0.000007 -0.065596 0.000037 0.252525
#
#
# Mechanical properties :
#
#
# Convention : Reuss Voigt Hill
#
# Bulk Modulus (GPa) = 3.31058 36.68177 19.99617
# Shear Modulus (GPa) = 6.23253 30.83593 18.53423
#
# Velocity S-wave (km/s) = 1.54027 3.42605 2.65615
# Velocity P-wave (km/s) = 2.10320 5.44182 4.12534
#
# Compressibility (1/GPa) = 0.30206160
#
# Stress axis : x y z
#
# Youngs Moduli (GPa) = 4.39036 36.57307 101.22960
#
# Poissons Ratio (x) = -2.15826 3.13045
# Poissons Ratio (y) = -0.25909 0.96710
# Poissons Ratio (z) = 0.13577 0.34940
#
# Static dielectric constant tensor:
#      x y z
#    x 4.295740 0.000000 0.161600 
#    y 0.000000 4.803700 0.000000 
#    z 0.161600 0.000000 5.120740 
# 
# 
# High freq. dielectric constant tensor:
#      x y z
#    x 2.033650 0.000000 0.012850 
#    y 0.000000 2.064640 0.000000 
#    z 0.012850 0.000000 2.080770 
# 
# From -- ./inp_files/12888.got.cif
#   From: 2010.06.25/outbox.cif.g09.slc.cpg/sg9_7_cif.got.tgz:12888.got - 2010.06.27 21:40:51.
