data_PCOD8055830
_publ_section_title
;
Structure prediction by ZEFSAII (Michael W. Deem and Ramdas Pophale) SiO2 
 PCOD8055830
Probable space group: C C
;
_chemical_formula_sum "Si O2"
_cell_formula_units_Z 28
_cell_length_a 4.874749
_cell_length_b 20.668106
_cell_length_c 12.311232
_cell_angle_alpha 90.000000
_cell_angle_beta 72.488307
_cell_angle_gamma 90.000000
_cell_volume 1182.894468
_symmetry_space_group_name_H-M "C C"
_symmetry_group_IT_number 9
_symmetry_cell_setting 'monoclinic'
loop_
_space_group_symop_operation_xyz
x,y,z
x,-y,1/2+z
1/2+x,1/2+y,z
1/2+x,1/2-y,1/2+z
loop_
_atom_site_type_symbol
_atom_site_label
_atom_site_fract_x
_atom_site_fract_y
_atom_site_fract_z
Si Si1 0.879660 0.183332 0.151610
Si Si2 0.473468 0.112658 0.055188
Si Si3 0.679788 0.579139 0.488651
Si Si4 0.535440 0.122429 0.797230
Si Si5 0.240354 0.496424 0.651360
Si Si6 0.617685 0.322219 0.190437
Si Si7 0.292313 0.407162 0.837589
O O1 0.762964 0.148125 0.058516
O O2 0.799875 0.257872 0.146410
O O3 0.728508 0.160574 0.282845
O O4 0.214822 0.161731 0.118836
O O5 0.489098 0.043390 0.117465
O O6 0.491057 0.100177 0.925304
O O7 0.508823 0.513788 0.540736
O O8 0.667967 0.634309 0.579521
O O9 0.549350 0.604514 0.390908
O O10 0.014572 0.563649 0.431138
O O11 0.608534 0.061683 0.713282
O O12 0.234549 0.147465 0.787920
O O13 0.773748 0.180005 0.752863
O O14 0.387205 0.456110 0.730917
#
# Coordination Sequence:
#
# PCOD8055830 Si02
#       7
#     4   4   4   4   4   4   4
#     4  11  25  45  66  99 137 175 230 285 332 405
#     4  11  24  43  71 101 134 177 224 281 348 404
#     4  11  24  42  65  97 133 178 222 272 342 404
#     4  11  24  42  67  98 133 178 220 273 344 402
#     4  10  24  43  66 100 137 169 221 282 334 411
#     4  11  25  44  65  96 135 174 227 279 327 403
#     4  11  24  41  66  95 131 177 222 276 341 401
#
# _framework density 23.670753999999999
#
# number of rings (size 3 to 8) (size 9 to 14) (size 15 to 20)
#    0.000    1.143    0.000    6.000    0.000   17.143 
#    0.000    0.000    0.000    0.000    0.000    0.000 
#    0.000    0.000    0.000    0.000    0.000    0.000 
#
# Total GULP energy -173525.773614 kJ/mol
# GULP energy per Si atom -12394.698115 kJ/mol
# Density = 2.361688 g / cm^3
# Si number density = 23.670754 Si / 1000 Ang^3
#
#
#
# Elastic Constant Matrix: (Units=GPa)
#
#
# Indices 1 2 3 4 5 6 
#
# 1 95.7827 24.7882 23.4681 0.0000 1.1482 0.0000
# 2 24.7882 105.0930 28.4723 0.0000 -2.8539 0.0000
# 3 23.4681 28.4723 113.1438 0.0000 4.8606 0.0000
# 4 0.0000 0.0000 0.0000 15.4783 0.0000 -0.8502
# 5 1.1482 -2.8539 4.8606 0.0000 34.9061 0.0000
# 6 0.0000 0.0000 0.0000 -0.8502 0.0000 32.5561
#
#
#
# Elastic Compliance Matrix: (Units=1/GPa)
#
#
# Indices 1 2 3 4 5 6 
#
# 1 0.011461 -0.002223 -0.001805 0.000000 -0.000307 0.000000
# 2 -0.002223 0.010693 -0.002284 0.000000 0.001265 0.000000
# 3 -0.001805 -0.002284 0.009852 0.000000 -0.001499 0.000000
# 4 0.000000 0.000000 0.000000 0.064699 0.000000 0.001690
# 5 -0.000307 0.001265 -0.001499 0.000000 0.028971 0.000000
# 6 0.000000 0.000000 0.000000 0.001690 0.000000 0.030760
#
#
# Mechanical properties :
#
#
# Convention : Reuss Voigt Hill
#
# Bulk Modulus (GPa) = 51.59221 51.94188 51.76704
# Shear Modulus (GPa) = 28.48665 32.40748 30.44707
#
# Velocity S-wave (km/s) = 3.47285 3.70414 3.59036
# Velocity P-wave (km/s) = 6.15824 6.34707 6.25337
#
# Compressibility (1/GPa) = 0.01938277
#
# Stress axis : x y z
#
# Youngs Moduli (GPa) = 87.24918 93.52023 101.50377
#
# Poissons Ratio (x) = 0.20788 0.18319
# Poissons Ratio (y) = 0.19394 0.23185
# Poissons Ratio (z) = 0.15746 0.21361
#
# Static dielectric constant tensor:
#      x y z
#    x 4.520740 0.000000 0.036660 
#    y 0.000000 4.411710 0.000000 
#    z 0.036660 0.000000 4.416940 
# 
# 
# High freq. dielectric constant tensor:
#      x y z
#    x 1.953850 0.000000 0.014830 
#    y 0.000000 1.923580 0.000000 
#    z 0.014830 0.000000 1.945830 
# 
# From -- ./inp_files/13449.got.cif
#   From: 2010.06.25/outbox.cif.g09.slc.cpg/sg9_7_cif.got.tgz:13449.got - 2010.06.27 21:40:51.
