data_PCOD8055322
_publ_section_title
;
Structure prediction by ZEFSAII (Michael W. Deem and Ramdas Pophale) SiO2 
 PCOD8055322
Probable space group: C C
;
_chemical_formula_sum "Si O2"
_cell_formula_units_Z 32
_cell_length_a 8.392806
_cell_length_b 18.270698
_cell_length_c 7.537197
_cell_angle_alpha 90.000000
_cell_angle_beta 90.762201
_cell_angle_gamma 90.000000
_cell_volume 1155.669791
_symmetry_space_group_name_H-M "C C"
_symmetry_group_IT_number 9
_symmetry_cell_setting 'monoclinic'
loop_
_space_group_symop_operation_xyz
x,y,z
x,-y,1/2+z
1/2+x,1/2+y,z
1/2+x,1/2-y,1/2+z
loop_
_atom_site_type_symbol
_atom_site_label
_atom_site_fract_x
_atom_site_fract_y
_atom_site_fract_z
Si Si1 0.009340 0.635533 0.371990
Si Si2 0.517692 0.894196 0.358433
Si Si3 0.156898 0.510608 0.563062
Si Si4 0.014595 0.258511 0.563072
Si Si5 0.138786 0.762333 0.554606
Si Si6 0.656357 0.606486 0.824886
Si Si7 0.639091 0.367719 0.867218
Si Si8 0.512575 0.482404 0.630900
O O1 0.116579 0.562111 0.388887
O O2 0.039688 0.686030 0.549906
O O3 0.074697 0.690784 0.224649
O O4 0.825042 0.613501 0.355400
O O5 0.638879 0.936958 0.232215
O O6 0.561507 0.809294 0.392726
O O7 0.341248 0.900176 0.278989
O O8 0.537316 0.940095 0.547263
O O9 0.334289 0.478943 0.556152
O O10 0.826246 0.245808 0.571718
O O11 0.101722 0.178600 0.549798
O O12 0.102614 0.810524 0.372530
O O13 0.080462 0.810079 0.718578
O O14 0.565241 0.567782 0.657155
O O15 0.631517 0.559681 0.003643
O O16 0.535262 0.441729 0.826864
#
# Coordination Sequence:
#
# PCOD8055322 Si02
#       8
#     4   4   4   4   4   4   4   4
#     4  11  24  43  68 100 136 178 227 277 337 406
#     4  11  23  42  65  94 131 177 226 277 338 402
#     4  12  25  41  66  99 135 175 228 285 336 401
#     4  10  23  41  66  96 132 176 222 278 336 398
#     4   9  22  41  62  95 132 170 223 277 332 400
#     4  10  22  42  65  91 130 178 226 277 337 406
#     4  10  23  44  67  95 135 179 223 276 338 405
#     4  11  24  42  65  96 133 177 229 283 340 400
#
# _framework density 27.689568000000001
#
# number of rings (size 3 to 8) (size 9 to 14) (size 15 to 20)
#    0.000    1.500    0.000    4.500    0.000   12.000 
#    0.000    0.000    0.000    0.000    0.000    0.000 
#    0.000    0.000    0.000    0.000    0.000    0.000 
#
# Total GULP energy -198393.324002 kJ/mol
# GULP energy per Si atom -12399.582750 kJ/mol
# Density = 2.762655 g / cm^3
# Si number density = 27.689568 Si / 1000 Ang^3
#
#
#
# Elastic Constant Matrix: (Units=GPa)
#
#
# Indices 1 2 3 4 5 6 
#
# 1 98.1162 52.7353 -0.8011 0.0000 20.0524 0.0000
# 2 52.7353 181.1061 1.4664 0.0000 18.9715 0.0000
# 3 -0.8011 1.4664 28.9451 0.0000 13.1361 0.0000
# 4 0.0000 0.0000 0.0000 38.7265 0.0000 11.4264
# 5 20.0524 18.9715 13.1361 0.0000 39.9850 0.0000
# 6 0.0000 0.0000 0.0000 11.4264 0.0000 42.5348
#
#
#
# Elastic Compliance Matrix: (Units=1/GPa)
#
#
# Indices 1 2 3 4 5 6 
#
# 1 0.013220 -0.003228 0.003341 0.000000 -0.006196 0.000000
# 2 -0.003228 0.006630 0.000315 0.000000 -0.001630 0.000000
# 3 0.003341 0.000315 0.041665 0.000000 -0.015513 0.000000
# 4 0.000000 0.000000 0.000000 0.028045 0.000000 -0.007534
# 5 -0.006196 -0.001630 -0.015513 0.000000 0.033987 0.000000
# 6 0.000000 0.000000 0.000000 -0.007534 0.000000 0.025534
#
#
# Mechanical properties :
#
#
# Convention : Reuss Voigt Hill
#
# Bulk Modulus (GPa) = 16.03275 46.10762 31.07019
# Shear Modulus (GPa) = 29.58328 41.23371 35.40850
#
# Velocity S-wave (km/s) = 3.27217 3.86313 3.57986
# Velocity P-wave (km/s) = 4.48095 6.04865 5.32283
#
# Compressibility (1/GPa) = 0.06237233
#
# Stress axis : x y z
#
# Youngs Moduli (GPa) = 75.64074 150.83714 24.00099
#
# Poissons Ratio (x) = 0.48683 -0.08020
# Poissons Ratio (y) = 0.24413 -0.00755
# Poissons Ratio (z) = -0.25275 -0.04747
#
# Static dielectric constant tensor:
#      x y z
#    x 4.151460 0.000000 0.087900 
#    y 0.000000 5.602850 0.000000 
#    z 0.087900 0.000000 5.743400 
# 
# 
# High freq. dielectric constant tensor:
#      x y z
#    x 2.067850 0.000000 0.006680 
#    y 0.000000 2.161050 0.000000 
#    z 0.006680 0.000000 2.165600 
# 
# From -- ./inp_files/5801.got.cif
#   From: 2010.06.25/outbox.cif.g09.slc.cpg/sg9_3_cif.got.tgz:5801.got - 2010.06.27 21:40:51.
