data_PCOD8055695
_publ_section_title
;
Structure prediction by ZEFSAII (Michael W. Deem and Ramdas Pophale) SiO2 
 PCOD8055695
Probable space group: C C
;
_chemical_formula_sum "Si O2"
_cell_formula_units_Z 28
_cell_length_a 9.649076
_cell_length_b 11.096027
_cell_length_c 13.448335
_cell_angle_alpha 90.000000
_cell_angle_beta 113.120945
_cell_angle_gamma 90.000000
_cell_volume 1324.212109
_symmetry_space_group_name_H-M "C C"
_symmetry_group_IT_number 9
_symmetry_cell_setting 'monoclinic'
loop_
_space_group_symop_operation_xyz
x,y,z
x,-y,1/2+z
1/2+x,1/2+y,z
1/2+x,1/2-y,1/2+z
loop_
_atom_site_type_symbol
_atom_site_label
_atom_site_fract_x
_atom_site_fract_y
_atom_site_fract_z
Si Si1 0.860870 0.692200 0.591190
Si Si2 0.128830 0.119364 0.381557
Si Si3 0.124898 0.306508 0.652831
Si Si4 0.099400 0.859778 0.309546
Si Si5 0.098734 0.540764 0.771341
Si Si6 0.358054 0.711069 0.885039
Si Si7 0.951126 0.339024 0.405457
O O1 0.728175 0.602214 0.511346
O O2 0.793613 0.770449 0.663944
O O3 0.904984 0.785388 0.515107
O O4 0.006425 0.617117 0.663416
O O5 0.242606 0.177442 0.331259
O O6 0.995356 0.213084 0.366564
O O7 0.057526 0.998953 0.316372
O O8 0.056537 0.185703 0.686506
O O9 0.123632 0.405787 0.739765
O O10 0.028385 0.353627 0.533957
O O11 0.275528 0.841295 0.376814
O O12 0.007510 0.778727 0.361912
O O13 0.267618 0.589370 0.834457
O O14 0.006274 0.550442 0.849948
#
# Coordination Sequence:
#
# PCOD8055695 Si02
#       7
#     4   4   4   4   4   4   4
#     4   9  20  46  65  95 135 177 216 276 337 390
#     4   8  21  44  63  89 136 163 216 270 329 388
#     4  11  24  38  72 105 122 182 236 251 348 401
#     4  12  23  39  71  97 130 175 219 276 324 399
#     4  11  21  41  73  89 137 177 212 282 330 387
#     4   9  24  41  65 100 129 171 229 266 332 402
#     4  10  23  45  65  95 139 173 214 283 332 385
#
# _framework density 21.144649000000001
#
# number of rings (size 3 to 8) (size 9 to 14) (size 15 to 20)
#    0.857    1.143    2.857    0.857    4.000    1.143 
#    0.000    8.571    0.000    0.000    0.000    0.000 
#    0.000    0.000    0.000    0.000    0.000    0.000 
#
# Total GULP energy -173433.541389 kJ/mol
# GULP energy per Si atom -12388.110099 kJ/mol
# Density = 2.109652 g / cm^3
# Si number density = 21.144649 Si / 1000 Ang^3
#
#
#
# Elastic Constant Matrix: (Units=GPa)
#
#
# Indices 1 2 3 4 5 6 
#
# 1 115.1989 13.1270 12.5573 0.0000 -28.9316 0.0000
# 2 13.1270 86.2454 35.7249 0.0000 -21.3111 0.0000
# 3 12.5573 35.7249 77.0789 0.0000 -27.5255 0.0000
# 4 0.0000 0.0000 0.0000 25.3940 0.0000 -5.9516
# 5 -28.9316 -21.3111 -27.5255 0.0000 34.5938 0.0000
# 6 0.0000 0.0000 0.0000 -5.9516 0.0000 22.9618
#
#
#
# Elastic Compliance Matrix: (Units=1/GPa)
#
#
# Indices 1 2 3 4 5 6 
#
# 1 0.011236 0.000191 0.002065 0.000000 0.011158 0.000000
# 2 0.000191 0.014988 -0.005062 0.000000 0.005366 0.000000
# 3 0.002065 -0.005062 0.020237 0.000000 0.014711 0.000000
# 4 0.000000 0.000000 0.000000 0.041926 0.000000 0.010867
# 5 0.011158 0.005366 0.014711 0.000000 0.053250 0.000000
# 6 0.000000 0.000000 0.000000 0.010867 0.000000 0.046367
#
#
# Mechanical properties :
#
#
# Convention : Reuss Voigt Hill
#
# Bulk Modulus (GPa) = 24.47898 44.59349 34.53624
# Shear Modulus (GPa) = 24.12763 31.06420 27.59592
#
# Velocity S-wave (km/s) = 3.38164 3.83708 3.61654
# Velocity P-wave (km/s) = 5.18164 6.38486 5.81446
#
# Compressibility (1/GPa) = 0.04085137
#
# Stress axis : x y z
#
# Youngs Moduli (GPa) = 88.99941 66.71856 49.41503
#
# Poissons Ratio (x) = -0.01277 -0.10207
# Poissons Ratio (y) = -0.01704 0.25013
# Poissons Ratio (z) = -0.18383 0.33772
#
# Static dielectric constant tensor:
#      x y z
#    x 3.757730 0.000000 -0.136830 
#    y 0.000000 3.633310 0.000000 
#    z -0.136830 0.000000 3.823530 
# 
# 
# High freq. dielectric constant tensor:
#      x y z
#    x 1.831690 0.000000 -0.005220 
#    y 0.000000 1.808430 0.000000 
#    z -0.005220 0.000000 1.824210 
# 
# From -- ./inp_files/22788.got.cif
#   From: 2010.06.25/outbox.cif.g09.slc.cpg/sg9_12_cif.got.tgz:22788.got - 2010.06.27 21:40:51.
