data_PCOD8055182
_publ_section_title
;
Structure prediction by ZEFSAII (Michael W. Deem and Ramdas Pophale) SiO2 
 PCOD8055182
Probable space group: C C
;
_chemical_formula_sum "Si O2"
_cell_formula_units_Z 20
_cell_length_a 5.190154
_cell_length_b 18.991615
_cell_length_c 8.561419
_cell_angle_alpha 90.000000
_cell_angle_beta 85.465383
_cell_angle_gamma 90.000000
_cell_volume 841.252390
_symmetry_space_group_name_H-M "C C"
_symmetry_group_IT_number 9
_symmetry_cell_setting 'monoclinic'
loop_
_space_group_symop_operation_xyz
x,y,z
x,-y,1/2+z
1/2+x,1/2+y,z
1/2+x,1/2-y,1/2+z
loop_
_atom_site_type_symbol
_atom_site_label
_atom_site_fract_x
_atom_site_fract_y
_atom_site_fract_z
Si Si1 0.582090 0.051919 0.322200
Si Si2 0.469423 0.563911 0.793713
Si Si3 0.590808 0.705955 0.626917
Si Si4 0.641370 0.800093 0.927823
Si Si5 0.274938 0.027773 0.054724
O O1 0.732939 0.120855 0.374024
O O2 0.504977 0.064140 0.144271
O O3 0.694133 0.971771 0.346488
O O4 0.345063 0.043267 0.455335
O O5 0.461146 0.633053 0.690418
O O6 0.576477 0.496838 0.695273
O O7 0.633701 0.582030 0.942773
O O8 0.597508 0.757886 0.771817
O O9 0.380483 0.734233 0.511319
O O10 0.875664 0.699068 0.539861
#
# Coordination Sequence:
#
# PCOD8055182 Si02
#       5
#     4   4   4   4   4
#     4  11  23  42  69 104 141 186 242 299 369 432
#     4  11  23  42  69 104 141 186 242 299 369 432
#     4  12  28  50  76 108 152 199 251 306 372 452
#     4  12  28  50  76 108 152 199 251 306 372 452
#     4  10  22  38  68  98 140 178 234 298 366 432
#
# _framework density 23.774076999999998
#
# number of rings (size 3 to 8) (size 9 to 14) (size 15 to 20)
#    0.000    0.800    2.000    4.800    8.400    3.200 
#    0.000    0.000    0.000    0.000    0.000    0.000 
#    0.000    0.000    0.000    0.000    0.000    0.000 
#
# Total GULP energy -123882.042389 kJ/mol
# GULP energy per Si atom -12388.204239 kJ/mol
# Density = 2.371997 g / cm^3
# Si number density = 23.774077 Si / 1000 Ang^3
#
#
#
# Elastic Constant Matrix: (Units=GPa)
#
#
# Indices 1 2 3 4 5 6 
#
# 1 97.3068 18.2742 39.4299 0.0000 25.9815 0.0000
# 2 18.2742 74.6935 26.3169 0.0000 -0.9352 0.0000
# 3 39.4299 26.3169 145.6491 0.0000 33.6460 0.0000
# 4 0.0000 0.0000 0.0000 36.3718 0.0000 5.7786
# 5 25.9815 -0.9352 33.6460 0.0000 50.1758 0.0000
# 6 0.0000 0.0000 0.0000 5.7786 0.0000 26.4265
#
#
#
# Elastic Compliance Matrix: (Units=1/GPa)
#
#
# Indices 1 2 3 4 5 6 
#
# 1 0.012971 -0.002629 -0.001744 0.000000 -0.005596 0.000000
# 2 -0.002629 0.015072 -0.002829 0.000000 0.003540 0.000000
# 3 -0.001744 -0.002829 0.009055 0.000000 -0.005222 0.000000
# 4 0.000000 0.000000 0.000000 0.028483 0.000000 -0.006228
# 5 -0.005596 0.003540 -0.005222 0.000000 0.026395 0.000000
# 6 0.000000 0.000000 0.000000 -0.006228 0.000000 0.039203
#
#
# Mechanical properties :
#
#
# Convention : Reuss Voigt Hill
#
# Bulk Modulus (GPa) = 44.06290 53.96570 49.01430
# Shear Modulus (GPa) = 32.64769 38.17006 35.40888
#
# Velocity S-wave (km/s) = 3.70976 4.01126 3.86345
# Velocity P-wave (km/s) = 6.07651 6.64848 6.36892
#
# Compressibility (1/GPa) = 0.02269483
#
# Stress axis : x y z
#
# Youngs Moduli (GPa) = 77.09267 66.34614 110.43120
#
# Poissons Ratio (x) = 0.17444 0.19256
# Poissons Ratio (y) = 0.20269 0.31244
# Poissons Ratio (z) = 0.13443 0.18771
#
# Static dielectric constant tensor:
#      x y z
#    x 4.316680 0.000000 0.101520 
#    y 0.000000 3.923600 0.000000 
#    z 0.101520 0.000000 4.638970 
# 
# 
# High freq. dielectric constant tensor:
#      x y z
#    x 1.943170 0.000000 0.000540 
#    y 0.000000 1.909080 0.000000 
#    z 0.000540 0.000000 1.977010 
# 
# From -- ./inp_files/3587.got.cif
#   From: 2010.06.25/outbox.cif.g09.slc.cpg/sg9_2_cif.got.tgz:3587.got - 2010.06.27 21:40:51.
