data_PCOD8055590
_publ_section_title
;
Structure prediction by ZEFSAII (Michael W. Deem and Ramdas Pophale) SiO2 
 PCOD8055590
Probable space group: C C
;
_chemical_formula_sum "Si O2"
_cell_formula_units_Z 32
_cell_length_a 13.375650
_cell_length_b 19.939903
_cell_length_c 5.246829
_cell_angle_alpha 90.000000
_cell_angle_beta 63.116104
_cell_angle_gamma 90.000000
_cell_volume 1248.139187
_symmetry_space_group_name_H-M "C C"
_symmetry_group_IT_number 9
_symmetry_cell_setting 'monoclinic'
loop_
_space_group_symop_operation_xyz
x,y,z
x,-y,1/2+z
1/2+x,1/2+y,z
1/2+x,1/2-y,1/2+z
loop_
_atom_site_type_symbol
_atom_site_label
_atom_site_fract_x
_atom_site_fract_y
_atom_site_fract_z
Si Si1 0.744040 0.628998 0.427520
Si Si2 0.877933 0.041518 0.524995
Si Si3 0.134116 0.040613 0.192468
Si Si4 0.905189 0.275069 0.505413
Si Si5 0.012319 0.191580 0.778878
Si Si6 0.931108 0.455994 0.902075
Si Si7 0.556104 0.835257 0.959545
Si Si8 0.306553 0.662869 0.326531
O O1 0.720004 0.600650 0.167843
O O2 0.825305 0.693173 0.314787
O O3 0.623171 0.646640 0.685162
O O4 0.803860 0.572306 0.532637
O O5 0.808124 0.109335 0.556145
O O6 0.006883 0.064807 0.373228
O O7 0.847102 0.989057 0.334886
O O8 0.156684 0.983694 0.381995
O O9 0.820376 0.239418 0.405614
O O10 0.983729 0.215051 0.524222
O O11 0.981811 0.336195 0.306172
O O12 0.030182 0.260225 0.905587
O O13 0.908412 0.147997 0.010068
O O14 0.953986 0.500203 0.124952
O O15 0.015266 0.392478 0.812048
O O16 0.687593 0.845321 0.831576
#
# Coordination Sequence:
#
# PCOD8055590 Si02
#       8
#     4   4   4   4   4   4   4   4
#     4  12  24  45  80 111 153 197 259 325 390 462
#     4  10  24  45  68 102 148 194 253 315 384 465
#     4  10  23  42  69 106 149 193 245 313 391 459
#     4  11  24  47  72 114 153 199 257 323 397 465
#     4  11  25  46  73 116 151 195 253 329 401 455
#     4  12  28  53  79 114 158 214 268 323 388 475
#     4  11  26  49  74 108 152 204 261 316 383 475
#     4  11  26  45  75 107 150 200 258 314 400 466
#
# _framework density 25.638165999999998
#
# number of rings (size 3 to 8) (size 9 to 14) (size 15 to 20)
#    0.000    1.000    1.250    3.750    8.750    3.000 
#    4.500    0.000    0.000    0.000    0.000    0.000 
#    0.000    0.000    0.000    0.000    0.000    0.000 
#
# Total GULP energy -198348.684373 kJ/mol
# GULP energy per Si atom -12396.792773 kJ/mol
# Density = 2.557981 g / cm^3
# Si number density = 25.638166 Si / 1000 Ang^3
#
#
#
# Elastic Constant Matrix: (Units=GPa)
#
#
# Indices 1 2 3 4 5 6 
#
# 1 166.7771 49.1563 35.3759 0.0000 -6.9688 0.0000
# 2 49.1563 82.2956 5.7796 0.0000 2.1258 0.0000
# 3 35.3759 5.7796 68.4913 0.0000 -1.4003 0.0000
# 4 0.0000 0.0000 0.0000 24.0162 0.0000 6.7324
# 5 -6.9688 2.1258 -1.4003 0.0000 40.7179 0.0000
# 6 0.0000 0.0000 0.0000 6.7324 0.0000 57.0794
#
#
#
# Elastic Compliance Matrix: (Units=1/GPa)
#
#
# Indices 1 2 3 4 5 6 
#
# 1 0.008260 -0.004704 -0.003838 0.000000 0.001527 0.000000
# 2 -0.004704 0.014921 0.001139 0.000000 -0.001545 0.000000
# 3 -0.003838 0.001139 0.016484 0.000000 -0.000149 0.000000
# 4 0.000000 0.000000 0.000000 0.043062 0.000000 -0.005079
# 5 0.001527 -0.001545 -0.000149 0.000000 0.024896 0.000000
# 6 0.000000 0.000000 0.000000 -0.005079 0.000000 0.018119
#
#
# Mechanical properties :
#
#
# Convention : Reuss Voigt Hill
#
# Bulk Modulus (GPa) = 40.22790 55.35416 47.79103
# Shear Modulus (GPa) = 33.59418 39.51285 36.55351
#
# Velocity S-wave (km/s) = 3.62376 3.93004 3.78000
# Velocity P-wave (km/s) = 5.76485 6.49854 6.14266
#
# Compressibility (1/GPa) = 0.02485837
#
# Stress axis : x y z
#
# Youngs Moduli (GPa) = 121.05818 67.01967 60.66576
#
# Poissons Ratio (x) = 0.31526 0.23286
# Poissons Ratio (y) = 0.56946 -0.06909
# Poissons Ratio (z) = 0.46467 -0.07633
#
# Static dielectric constant tensor:
#      x y z
#    x 4.839820 0.000000 0.249880 
#    y 0.000000 4.643200 0.000000 
#    z 0.249880 0.000000 4.466630 
# 
# 
# High freq. dielectric constant tensor:
#      x y z
#    x 2.034630 0.000000 0.013080 
#    y 0.000000 2.035660 0.000000 
#    z 0.013080 0.000000 2.006070 
# 
# From -- ./inp_files/1853.got.cif
#   From: 2010.06.25/outbox.cif.g09.slc.cpg/sg9_1_cif.got.tgz:1853.got - 2010.06.27 21:40:51.
