data_PCOD8055417
_publ_section_title
;
Structure prediction by ZEFSAII (Michael W. Deem and Ramdas Pophale) SiO2 
 PCOD8055417
Probable space group: C C
;
_chemical_formula_sum "Si O2"
_cell_formula_units_Z 32
_cell_length_a 13.851534
_cell_length_b 11.561097
_cell_length_c 8.716406
_cell_angle_alpha 90.000000
_cell_angle_beta 80.146372
_cell_angle_gamma 90.000000
_cell_volume 1375.244757
_symmetry_space_group_name_H-M "C C"
_symmetry_group_IT_number 9
_symmetry_cell_setting 'monoclinic'
loop_
_space_group_symop_operation_xyz
x,y,z
x,-y,1/2+z
1/2+x,1/2+y,z
1/2+x,1/2-y,1/2+z
loop_
_atom_site_type_symbol
_atom_site_label
_atom_site_fract_x
_atom_site_fract_y
_atom_site_fract_z
Si Si1 0.450390 0.233795 0.908060
Si Si2 0.333741 0.591303 0.083246
Si Si3 0.413802 0.843352 0.984832
Si Si4 0.617714 0.555663 0.893994
Si Si5 0.274165 0.604433 0.407221
Si Si6 0.344124 0.968197 0.300989
Si Si7 0.595428 0.773161 0.088842
Si Si8 0.500870 0.406752 0.121405
O O1 0.380709 0.334907 0.863324
O O2 0.389020 0.114740 0.922007
O O3 0.545923 0.219259 0.770683
O O4 0.472414 0.274732 0.077793
O O5 0.373095 0.713578 0.013059
O O6 0.246449 0.607905 0.233930
O O7 0.415471 0.503351 0.132472
O O8 0.284788 0.529161 0.951768
O O9 0.379656 0.929828 0.126524
O O10 0.530681 0.835653 0.974091
O O11 0.379101 0.901254 0.834231
O O12 0.728329 0.542253 0.813141
O O13 0.546389 0.599567 0.777902
O O14 0.608958 0.639661 0.042972
O O15 0.582328 0.433650 0.969433
O O16 0.201699 0.666911 0.546249
#
# Coordination Sequence:
#
# PCOD8055417 Si02
#       8
#     4   4   4   4   4   4   4   4
#     4  10  22  44  67 100 142 183 232 296 354 413
#     4  11  22  44  68 101 140 180 232 297 351 418
#     4  11  24  45  66  93 141 185 230 286 357 418
#     4  12  21  39  66 104 129 181 236 286 343 419
#     4  11  22  42  71 102 137 179 231 293 355 409
#     4  11  24  44  66  95 143 184 222 296 353 417
#     4  11  22  42  71  96 142 185 226 293 349 423
#     4  11  23  38  73 105 136 179 243 297 348 415
#
# _framework density 23.268584000000001
#
# number of rings (size 3 to 8) (size 9 to 14) (size 15 to 20)
#    0.000    1.000    5.000    3.000    0.000    3.000 
#    2.250    5.000    2.750    0.000    0.000    0.000 
#    0.000    0.000    0.000    0.000    0.000    0.000 
#
# Total GULP energy -198213.327865 kJ/mol
# GULP energy per Si atom -12388.332992 kJ/mol
# Density = 2.321562 g / cm^3
# Si number density = 23.268584 Si / 1000 Ang^3
#
#
#
# Elastic Constant Matrix: (Units=GPa)
#
#
# Indices 1 2 3 4 5 6 
#
# 1 53.5180 22.6752 10.0751 0.0000 -10.9319 0.0000
# 2 22.6752 95.5699 33.1951 0.0000 0.7794 0.0000
# 3 10.0751 33.1951 47.1432 0.0000 -10.5572 0.0000
# 4 0.0000 0.0000 0.0000 39.3962 0.0000 10.4762
# 5 -10.9319 0.7794 -10.5572 0.0000 34.3363 0.0000
# 6 0.0000 0.0000 0.0000 10.4762 0.0000 30.0155
#
#
#
# Elastic Compliance Matrix: (Units=1/GPa)
#
#
# Indices 1 2 3 4 5 6 
#
# 1 0.022479 -0.005712 0.000913 0.000000 0.007567 0.000000
# 2 -0.005712 0.015720 -0.011099 0.000000 -0.005588 0.000000
# 3 0.000913 -0.011099 0.031095 0.000000 0.010103 0.000000
# 4 0.000000 0.000000 0.000000 0.027980 0.000000 -0.009766
# 5 0.007567 -0.005588 0.010103 0.000000 0.034766 0.000000
# 6 0.000000 0.000000 0.000000 -0.009766 0.000000 0.036725
#
#
# Mechanical properties :
#
#
# Convention : Reuss Voigt Hill
#
# Bulk Modulus (GPa) = 26.66952 36.45801 31.56376
# Shear Modulus (GPa) = 23.46742 29.43531 26.45136
#
# Velocity S-wave (km/s) = 3.17921 3.56058 3.37528
# Velocity P-wave (km/s) = 4.99629 5.71016 5.36511
#
# Compressibility (1/GPa) = 0.03749598
#
# Stress axis : x y z
#
# Youngs Moduli (GPa) = 44.48505 63.61463 32.15971
#
# Poissons Ratio (x) = 0.36338 -0.02935
# Poissons Ratio (y) = 0.25411 0.35695
# Poissons Ratio (z) = -0.04060 0.70608
#
# Static dielectric constant tensor:
#      x y z
#    x 4.221100 0.000000 -0.051650 
#    y 0.000000 4.265050 0.000000 
#    z -0.051650 0.000000 4.208650 
# 
# 
# High freq. dielectric constant tensor:
#      x y z
#    x 1.899840 0.000000 -0.011090 
#    y 0.000000 1.922270 0.000000 
#    z -0.011090 0.000000 1.922890 
# 
# From -- ./inp_files/9251.got.cif
#   From: 2010.06.25/outbox.cif.g09.slc.cpg/sg9_5_cif.got.tgz:9251.got - 2010.06.27 21:40:51.
