data_PCOD8055113
_publ_section_title
;
Structure prediction by ZEFSAII (Michael W. Deem and Ramdas Pophale) SiO2 
 PCOD8055113
Probable space group: C C
;
_chemical_formula_sum "Si O2"
_cell_formula_units_Z 32
_cell_length_a 11.490966
_cell_length_b 8.308810
_cell_length_c 16.419865
_cell_angle_alpha 90.000000
_cell_angle_beta 63.994369
_cell_angle_gamma 90.000000
_cell_volume 1408.978339
_symmetry_space_group_name_H-M "C C"
_symmetry_group_IT_number 9
_symmetry_cell_setting 'monoclinic'
loop_
_space_group_symop_operation_xyz
x,y,z
x,-y,1/2+z
1/2+x,1/2+y,z
1/2+x,1/2-y,1/2+z
loop_
_atom_site_type_symbol
_atom_site_label
_atom_site_fract_x
_atom_site_fract_y
_atom_site_fract_z
Si Si1 0.771580 0.772524 0.591750
Si Si2 0.981211 0.818024 0.154830
Si Si3 0.884420 0.612730 0.404597
Si Si4 0.950328 0.034026 0.493644
Si Si5 0.501599 0.219903 0.841598
Si Si6 0.616459 0.682178 0.846290
Si Si7 0.860604 0.152768 0.239465
Si Si8 0.254438 0.874166 0.780001
O O1 0.618604 0.739813 0.649936
O O2 0.826022 0.643188 0.511541
O O3 0.845999 0.765878 0.655229
O O4 0.808103 0.952535 0.548122
O O5 0.995013 0.856835 0.055375
O O6 0.887071 0.663591 0.192616
O O7 0.916738 0.971336 0.220645
O O8 0.773048 0.606411 0.371451
O O9 0.957248 0.445890 0.392852
O O10 0.988462 0.746557 0.341439
O O11 0.941548 0.136907 0.414090
O O12 0.061688 0.895628 0.447461
O O13 0.458339 0.237186 0.761123
O O14 0.657311 0.225845 0.794592
O O15 0.719688 0.828036 0.827740
O O16 0.687333 0.541453 0.770546
#
# Coordination Sequence:
#
# PCOD8055113 Si02
#       8
#     4   4   4   4   4   4   4   4
#     4  10  23  43  71  99 141 180 222 286 355 403
#     4  11  24  43  69 100 141 183 226 288 351 407
#     4  11  23  45  72  97 135 184 229 283 346 410
#     4   9  23  45  65 100 140 176 232 286 337 419
#     4  11  24  44  69 102 134 181 235 280 339 418
#     4  10  21  44  70  94 136 177 229 284 337 403
#     4  11  24  41  68 105 136 177 230 286 340 414
#     4  11  24  41  70  99 133 178 235 279 339 414
#
# _framework density 22.711490000000001
#
# number of rings (size 3 to 8) (size 9 to 14) (size 15 to 20)
#    0.000    1.500    1.250    3.000    8.750    2.000 
#    2.250    0.000    0.000    0.000    0.000    0.000 
#    0.000    0.000    0.000    0.000    0.000    0.000 
#
# Total GULP energy -198276.436255 kJ/mol
# GULP energy per Si atom -12392.277266 kJ/mol
# Density = 2.265980 g / cm^3
# Si number density = 22.711490 Si / 1000 Ang^3
#
#
#
# Elastic Constant Matrix: (Units=GPa)
#
#
# Indices 1 2 3 4 5 6 
#
# 1 122.5684 43.8314 43.8269 0.0000 -14.0748 0.0000
# 2 43.8314 85.8304 47.6532 0.0000 -12.2200 0.0000
# 3 43.8269 47.6532 106.0582 0.0000 -10.2823 0.0000
# 4 0.0000 0.0000 0.0000 40.7593 0.0000 -13.9983
# 5 -14.0748 -12.2200 -10.2823 0.0000 39.4204 0.0000
# 6 0.0000 0.0000 0.0000 -13.9983 0.0000 39.4632
#
#
#
# Elastic Compliance Matrix: (Units=1/GPa)
#
#
# Indices 1 2 3 4 5 6 
#
# 1 0.010625 -0.003748 -0.002515 0.000000 0.001976 0.000000
# 2 -0.003748 0.017217 -0.005949 0.000000 0.002447 0.000000
# 3 -0.002515 -0.005949 0.013209 0.000000 0.000703 0.000000
# 4 0.000000 0.000000 0.000000 0.027938 0.000000 0.009910
# 5 0.001976 0.002447 0.000703 0.000000 0.027015 0.000000
# 6 0.000000 0.000000 0.000000 0.009910 0.000000 0.028855
#
#
# Mechanical properties :
#
#
# Convention : Reuss Voigt Hill
#
# Bulk Modulus (GPa) = 60.14818 65.00890 62.57854
# Shear Modulus (GPa) = 32.29412 35.87162 34.08287
#
# Velocity S-wave (km/s) = 3.77494 3.97854 3.87807
# Velocity P-wave (km/s) = 6.74843 7.05627 6.90407
#
# Compressibility (1/GPa) = 0.01662561
#
# Stress axis : x y z
#
# Youngs Moduli (GPa) = 94.11447 58.08347 75.70380
#
# Poissons Ratio (x) = 0.21773 0.19039
# Poissons Ratio (y) = 0.35279 0.45039
# Poissons Ratio (z) = 0.23670 0.34556
#
# Static dielectric constant tensor:
#      x y z
#    x 4.138610 0.000000 -0.247340 
#    y 0.000000 4.149910 0.000000 
#    z -0.247340 0.000000 4.143810 
# 
# 
# High freq. dielectric constant tensor:
#      x y z
#    x 1.896900 0.000000 -0.009950 
#    y 0.000000 1.893380 0.000000 
#    z -0.009950 0.000000 1.894540 
# 
# From -- ./inp_files/29908.got.cif
#   From: 2010.06.25/outbox.cif.g09.slc.cpg/sg9_15_cif.got.tgz:29908.got - 2010.06.27 21:40:51.
