data_PCOD8055973
_publ_section_title
;
Structure prediction by ZEFSAII (Michael W. Deem and Ramdas Pophale) SiO2 
 PCOD8055973
Probable space group: C C
;
_chemical_formula_sum "Si O2"
_cell_formula_units_Z 32
_cell_length_a 9.847122
_cell_length_b 15.293742
_cell_length_c 10.869452
_cell_angle_alpha 90.000000
_cell_angle_beta 59.609229
_cell_angle_gamma 90.000000
_cell_volume 1412.009921
_symmetry_space_group_name_H-M "C C"
_symmetry_group_IT_number 9
_symmetry_cell_setting 'monoclinic'
loop_
_space_group_symop_operation_xyz
x,y,z
x,-y,1/2+z
1/2+x,1/2+y,z
1/2+x,1/2-y,1/2+z
loop_
_atom_site_type_symbol
_atom_site_label
_atom_site_fract_x
_atom_site_fract_y
_atom_site_fract_z
Si Si1 0.757320 0.008275 0.552510
Si Si2 0.779623 0.567920 0.615742
Si Si3 0.930977 0.275218 0.922174
Si Si4 0.945246 0.001270 0.711685
Si Si5 0.564974 0.690611 0.102071
Si Si6 0.388323 0.880751 0.517872
Si Si7 0.486698 0.869646 0.219672
Si Si8 0.120415 0.323182 0.605564
O O1 0.849593 0.991688 0.382718
O O2 0.631264 0.084625 0.580917
O O3 0.861537 0.035180 0.624504
O O4 0.666776 0.919638 0.628432
O O5 0.884029 0.623733 0.471089
O O6 0.596387 0.564780 0.661529
O O7 0.832602 0.468384 0.608260
O O8 0.817578 0.610693 0.731537
O O9 0.049466 0.270043 0.753254
O O10 0.767338 0.225260 0.975848
O O11 0.023065 0.225424 0.986850
O O12 0.981860 0.899842 0.672948
O O13 0.750873 0.679871 0.027871
O O14 0.508938 0.765378 0.221818
O O15 0.491795 0.909702 0.353533
O O16 0.484828 0.822536 0.567109
#
# Coordination Sequence:
#
# PCOD8055973 Si02
#       8
#     4   4   4   4   4   4   4   4
#     4  12  26  46  73 104 150 190 250 297 377 434
#     4  10  25  45  72 102 137 192 236 299 363 433
#     4  11  27  46  76 103 146 191 245 305 369 440
#     4  11  27  46  74 107 144 192 249 308 357 449
#     4  10  26  45  72 105 138 189 240 299 363 437
#     4  11  25  45  71 101 145 182 244 295 370 444
#     4  11  25  43  73  98 143 187 236 295 372 436
#     4  12  27  46  73 108 147 189 246 304 375 433
#
# _framework density 22.662728999999999
#
# number of rings (size 3 to 8) (size 9 to 14) (size 15 to 20)
#    0.000    1.000    2.500    1.500   15.750    2.000 
#    0.000    0.000    0.000    0.000    0.000    0.000 
#    0.000    0.000    0.000    0.000    0.000    0.000 
#
# Total GULP energy -198362.314035 kJ/mol
# GULP energy per Si atom -12397.644627 kJ/mol
# Density = 2.261115 g / cm^3
# Si number density = 22.662729 Si / 1000 Ang^3
#
#
#
# Elastic Constant Matrix: (Units=GPa)
#
#
# Indices 1 2 3 4 5 6 
#
# 1 148.0406 50.6314 39.8475 0.0000 -0.8571 0.0000
# 2 50.6314 102.0847 11.4953 0.0000 -5.3917 0.0000
# 3 39.8475 11.4953 92.6418 0.0000 9.5670 0.0000
# 4 0.0000 0.0000 0.0000 26.8794 0.0000 -1.0715
# 5 -0.8571 -5.3917 9.5670 0.0000 31.8748 0.0000
# 6 0.0000 0.0000 0.0000 -1.0715 0.0000 31.2546
#
#
#
# Elastic Compliance Matrix: (Units=1/GPa)
#
#
# Indices 1 2 3 4 5 6 
#
# 1 0.009088 -0.004086 -0.003463 0.000000 0.000593 0.000000
# 2 -0.004086 0.011912 0.000085 0.000000 0.001879 0.000000
# 3 -0.003463 0.000085 0.012674 0.000000 -0.003883 0.000000
# 4 0.000000 0.000000 0.000000 0.037254 0.000000 0.001277
# 5 0.000593 0.001879 -0.003883 0.000000 0.032872 0.000000
# 6 0.000000 0.000000 0.000000 0.001277 0.000000 0.032039
#
#
# Mechanical properties :
#
#
# Convention : Reuss Voigt Hill
#
# Bulk Modulus (GPa) = 53.34346 60.74618 57.04482
# Shear Modulus (GPa) = 31.84386 34.05462 32.94924
#
# Velocity S-wave (km/s) = 3.75256 3.88064 3.81713
# Velocity P-wave (km/s) = 6.50882 6.85140 6.68231
#
# Compressibility (1/GPa) = 0.01874644
#
# Stress axis : x y z
#
# Youngs Moduli (GPa) = 110.03526 83.94855 78.90029
#
# Poissons Ratio (x) = 0.34303 0.27324
# Poissons Ratio (y) = 0.44962 -0.00674
# Poissons Ratio (z) = 0.38107 -0.00717
#
# Static dielectric constant tensor:
#      x y z
#    x 4.380650 0.000000 -0.044170 
#    y 0.000000 4.193780 0.000000 
#    z -0.044170 0.000000 3.953480 
# 
# 
# High freq. dielectric constant tensor:
#      x y z
#    x 1.910850 0.000000 -0.001430 
#    y 0.000000 1.901890 0.000000 
#    z -0.001430 0.000000 1.884460 
# 
# From -- ./inp_files/14704.got.cif
#   From: 2010.06.25/outbox.cif.g09.slc.cpg/sg9_8_cif.got.tgz:14704.got - 2010.06.27 21:40:51.
