data_PCOD8055387
_publ_section_title
;
Structure prediction by ZEFSAII (Michael W. Deem and Ramdas Pophale) SiO2 
 PCOD8055387
Probable space group: C C
;
_chemical_formula_sum "Si O2"
_cell_formula_units_Z 32
_cell_length_a 6.581083
_cell_length_b 19.353005
_cell_length_c 16.303096
_cell_angle_alpha 90.000000
_cell_angle_beta 43.242169
_cell_angle_gamma 90.000000
_cell_volume 1422.523101
_symmetry_space_group_name_H-M "C C"
_symmetry_group_IT_number 9
_symmetry_cell_setting 'monoclinic'
loop_
_space_group_symop_operation_xyz
x,y,z
x,-y,1/2+z
1/2+x,1/2+y,z
1/2+x,1/2-y,1/2+z
loop_
_atom_site_type_symbol
_atom_site_label
_atom_site_fract_x
_atom_site_fract_y
_atom_site_fract_z
Si Si1 0.750000 0.832919 0.425030
Si Si2 0.135104 0.133531 0.538943
Si Si3 0.015544 0.078530 0.398393
Si Si4 0.096769 0.671657 0.787736
Si Si5 0.699963 0.630223 0.171497
Si Si6 0.360302 0.024483 0.585526
Si Si7 0.679590 0.217041 0.339659
Si Si8 0.732236 0.437925 0.305602
O O1 0.609995 0.848520 0.378391
O O2 0.481782 0.820444 0.568573
O O3 0.968738 0.767208 0.348277
O O4 0.923481 0.898288 0.410703
O O5 0.026140 0.125211 0.476777
O O6 0.154471 0.058785 0.576376
O O7 0.460788 0.166953 0.453608
O O8 0.916367 0.185305 0.652252
O O9 0.134406 0.125220 0.288181
O O10 0.703669 0.042230 0.467651
O O11 0.236228 0.013663 0.345091
O O12 0.879351 0.736899 0.842146
O O13 0.995226 0.603345 0.769999
O O14 0.772916 0.556377 0.109001
O O15 0.405669 0.668479 0.220102
O O16 0.281409 0.058946 0.694487
#
# Coordination Sequence:
#
# PCOD8055387 Si02
#       8
#     4   4   4   4   4   4   4   4
#     4  11  24  45  68  99 142 185 231 281 336 407
#     4  12  25  44  73 101 135 183 233 284 351 407
#     4  11  24  43  71 103 142 174 222 292 354 410
#     4  11  25  44  72  97 137 187 234 279 334 407
#     4  11  25  47  70 101 143 180 227 287 348 409
#     4  11  22  44  73  99 139 174 225 295 350 407
#     4  11  27  46  65 102 139 189 233 278 337 407
#     4  10  22  43  68 104 133 176 225 282 352 404
#
# _framework density 22.495241
#
# number of rings (size 3 to 8) (size 9 to 14) (size 15 to 20)
#    0.000    1.000    5.000    0.750    3.500    2.000 
#    4.500    0.000    0.000    0.000    0.000    0.000 
#    0.000    0.000    0.000    0.000    0.000    0.000 
#
# Total GULP energy -198330.222692 kJ/mol
# GULP energy per Si atom -12395.638918 kJ/mol
# Density = 2.244404 g / cm^3
# Si number density = 22.495241 Si / 1000 Ang^3
#
#
#
# Elastic Constant Matrix: (Units=GPa)
#
#
# Indices 1 2 3 4 5 6 
#
# 1 80.4810 38.2908 50.0420 0.0000 -10.4230 0.0000
# 2 38.2908 98.4208 38.1500 0.0000 -8.9430 0.0000
# 3 50.0420 38.1500 145.8006 0.0000 -16.1811 0.0000
# 4 0.0000 0.0000 0.0000 35.2967 0.0000 -13.2787
# 5 -10.4230 -8.9430 -16.1811 0.0000 42.7821 0.0000
# 6 0.0000 0.0000 0.0000 -13.2787 0.0000 25.8553
#
#
#
# Elastic Compliance Matrix: (Units=1/GPa)
#
#
# Indices 1 2 3 4 5 6 
#
# 1 0.017914 -0.005021 -0.004663 0.000000 0.001551 0.000000
# 2 -0.005021 0.012784 -0.001525 0.000000 0.000872 0.000000
# 3 -0.004663 -0.001525 0.009078 0.000000 0.001979 0.000000
# 4 0.000000 0.000000 0.000000 0.035116 0.000000 0.018035
# 5 0.001551 0.000872 0.001979 0.000000 0.024683 0.000000
# 6 0.000000 0.000000 0.000000 0.018035 0.000000 0.047939
#
#
# Mechanical properties :
#
#
# Convention : Reuss Voigt Hill
#
# Bulk Modulus (GPa) = 57.60804 64.18534 60.89669
# Shear Modulus (GPa) = 28.45466 34.00146 31.22806
#
# Velocity S-wave (km/s) = 3.56043 3.89201 3.72991
# Velocity P-wave (km/s) = 6.52432 6.98511 6.75865
#
# Compressibility (1/GPa) = 0.01735869
#
# Stress axis : x y z
#
# Youngs Moduli (GPa) = 55.82120 78.22059 110.16179
#
# Poissons Ratio (x) = 0.39277 0.51363
# Poissons Ratio (y) = 0.28030 0.16799
# Poissons Ratio (z) = 0.26027 0.11928
#
# Static dielectric constant tensor:
#      x y z
#    x 3.815310 0.000000 -0.344370 
#    y 0.000000 4.175330 0.000000 
#    z -0.344370 0.000000 4.168460 
# 
# 
# High freq. dielectric constant tensor:
#      x y z
#    x 1.870570 0.000000 -0.022320 
#    y 0.000000 1.898860 0.000000 
#    z -0.022320 0.000000 1.892730 
# 
# From -- ./inp_files/13363.got.cif
#   From: 2010.06.25/outbox.cif.g09.slc.cpg/sg9_7_cif.got.tgz:13363.got - 2010.06.27 21:40:51.
