data_PCOD8055968
_publ_section_title
;
Structure prediction by ZEFSAII (Michael W. Deem and Ramdas Pophale) SiO2 
 PCOD8055968
Probable space group: C C
;
_chemical_formula_sum "Si O2"
_cell_formula_units_Z 32
_cell_length_a 8.626992
_cell_length_b 16.344760
_cell_length_c 14.319368
_cell_angle_alpha 90.000000
_cell_angle_beta 139.188993
_cell_angle_gamma 90.000000
_cell_volume 1319.627192
_symmetry_space_group_name_H-M "C C"
_symmetry_group_IT_number 9
_symmetry_cell_setting 'monoclinic'
loop_
_space_group_symop_operation_xyz
x,y,z
x,-y,1/2+z
1/2+x,1/2+y,z
1/2+x,1/2-y,1/2+z
loop_
_atom_site_type_symbol
_atom_site_label
_atom_site_fract_x
_atom_site_fract_y
_atom_site_fract_z
Si Si1 0.291140 0.770730 0.032890
Si Si2 0.458875 0.161460 0.236832
Si Si3 0.054679 0.667565 0.067549
Si Si4 0.960907 0.112910 0.016507
Si Si5 0.919004 0.935011 0.990584
Si Si6 0.623739 0.427907 0.278982
Si Si7 0.029468 0.091006 0.331831
Si Si8 0.306285 0.328199 0.254298
O O1 0.132781 0.755332 0.054786
O O2 0.528163 0.824615 0.153233
O O3 0.345746 0.676525 0.034958
O O4 0.149410 0.817986 0.885212
O O5 0.475878 0.186940 0.136462
O O6 0.697166 0.124974 0.388250
O O7 0.406616 0.242864 0.267934
O O8 0.243300 0.099188 0.160962
O O9 0.265336 0.600804 0.171659
O O10 0.841372 0.627652 0.911907
O O11 0.952626 0.150948 0.911504
O O12 0.823323 0.027490 0.963351
O O13 0.051741 0.934015 0.951281
O O14 0.102771 0.916158 0.157920
O O15 0.659879 0.523091 0.327247
O O16 0.372243 0.398056 0.208769
#
# Coordination Sequence:
#
# PCOD8055968 Si02
#       8
#     4   4   4   4   4   4   4   4
#     4  11  27  44  76 105 150 183 247 305 373 423
#     4  10  25  44  78 104 148 189 248 295 360 451
#     4  11  25  48  74 112 148 188 248 308 355 442
#     4  11  23  49  67 110 143 193 236 306 359 438
#     4  11  26  44  75 106 142 192 246 291 366 432
#     4  12  27  45  77 107 151 197 244 302 373 435
#     4  11  26  48  71 112 145 190 243 306 360 434
#     4  11  25  46  74 104 147 192 246 297 380 423
#
# _framework density 24.249272000000001
#
# number of rings (size 3 to 8) (size 9 to 14) (size 15 to 20)
#    0.000    1.000    2.500    1.500   10.500    5.000 
#    0.000    0.000    0.000    0.000    0.000    0.000 
#    0.000    0.000    0.000    0.000    0.000    0.000 
#
# Total GULP energy -198354.858886 kJ/mol
# GULP energy per Si atom -12397.178680 kJ/mol
# Density = 2.419408 g / cm^3
# Si number density = 24.249272 Si / 1000 Ang^3
#
#
#
# Elastic Constant Matrix: (Units=GPa)
#
#
# Indices 1 2 3 4 5 6 
#
# 1 73.8506 37.1788 48.9874 -0.0005 -2.8896 0.0003
# 2 37.1788 58.7957 41.6528 0.0002 12.5097 0.0000
# 3 48.9874 41.6528 155.8402 -0.0020 -13.6279 0.0010
# 4 -0.0005 0.0002 -0.0020 34.7754 -0.0007 -5.9928
# 5 -2.8896 12.5097 -13.6279 -0.0007 41.3525 0.0004
# 6 0.0003 0.0000 0.0010 -5.9928 0.0004 33.5634
#
#
#
# Elastic Compliance Matrix: (Units=1/GPa)
#
#
# Indices 1 2 3 4 5 6 
#
# 1 0.022242 -0.012710 -0.003215 0.000000 0.004340 0.000000
# 2 -0.012710 0.031555 -0.005510 -0.000001 -0.012250 0.000000
# 3 -0.003215 -0.005510 0.009294 0.000001 0.004505 0.000000
# 4 0.000000 -0.000001 0.000001 0.029669 0.000001 0.005297
# 5 0.004340 -0.012250 0.004505 0.000001 0.029676 0.000000
# 6 0.000000 0.000000 0.000000 0.005297 0.000000 0.030740
#
#
# Mechanical properties :
#
#
# Convention : Reuss Voigt Hill
#
# Bulk Modulus (GPa) = 49.45369 60.45827 54.95598
# Shear Modulus (GPa) = 24.65655 32.64943 28.65299
#
# Velocity S-wave (km/s) = 3.19218 3.67333 3.44117
# Velocity P-wave (km/s) = 5.83308 6.55570 6.20492
#
# Compressibility (1/GPa) = 0.02022094
#
# Stress axis : x y z
#
# Youngs Moduli (GPa) = 44.96009 31.69092 107.59593
#
# Poissons Ratio (x) = 0.40280 0.34592
# Poissons Ratio (y) = 0.57145 0.59283
# Poissons Ratio (z) = 0.14455 0.17461
#
# Static dielectric constant tensor:
#      x y z
#    x 4.750840 0.000000 0.031210 
#    y 0.000000 4.313290 0.000000 
#    z 0.031210 0.000000 4.468440 
# 
# 
# High freq. dielectric constant tensor:
#      x y z
#    x 1.965480 0.000000 -0.008780 
#    y 0.000000 1.968130 0.000000 
#    z -0.008780 0.000000 1.966850 
# 
# From -- ./inp_files/23688.got.cif
#   From: 2010.06.25/outbox.cif.g09.slc.cpg/sg9_12_cif.got.tgz:23688.got - 2010.06.27 21:40:51.
