data_PCOD8055533
_publ_section_title
;
Structure prediction by ZEFSAII (Michael W. Deem and Ramdas Pophale) SiO2 
 PCOD8055533
Probable space group: C C
;
_chemical_formula_sum "Si O2"
_cell_formula_units_Z 28
_cell_length_a 11.188850
_cell_length_b 10.715932
_cell_length_c 14.338776
_cell_angle_alpha 90.000000
_cell_angle_beta 50.806115
_cell_angle_gamma 90.000000
_cell_volume 1332.403834
_symmetry_space_group_name_H-M "C C"
_symmetry_group_IT_number 9
_symmetry_cell_setting 'monoclinic'
loop_
_space_group_symop_operation_xyz
x,y,z
x,-y,1/2+z
1/2+x,1/2+y,z
1/2+x,1/2-y,1/2+z
loop_
_atom_site_type_symbol
_atom_site_label
_atom_site_fract_x
_atom_site_fract_y
_atom_site_fract_z
Si Si1 0.245990 0.194866 0.358250
Si Si2 0.114087 0.845183 0.404440
Si Si3 0.010431 0.959140 0.087978
Si Si4 0.615755 0.937265 0.945544
Si Si5 0.417546 0.434966 0.334757
Si Si6 0.666161 0.887280 0.256398
Si Si7 0.430612 0.046154 0.718791
O O1 0.103029 0.150278 0.490769
O O2 0.323890 0.306623 0.375582
O O3 0.186444 0.246094 0.286681
O O4 0.373190 0.087526 0.283454
O O5 0.076861 0.700199 0.426757
O O6 0.291454 0.856090 0.288022
O O7 0.016653 0.929095 0.379416
O O8 0.076513 0.906548 0.523268
O O9 0.030940 0.948983 0.189682
O O10 0.831038 0.947027 0.150042
O O11 0.792081 0.952079 0.897020
O O12 0.583501 0.030415 0.876563
O O13 0.493968 0.972379 0.084414
O O14 0.563096 0.890908 0.215794
#
# Coordination Sequence:
#
# PCOD8055533 Si02
#       7
#     4   4   4   4   4   4   4
#     4   9  21  41  65  92 122 165 218 254 318 383
#     4  11  24  41  63  93 131 165 210 262 318 387
#     4   9  21  42  62  91 123 163 212 257 323 375
#     4  10  24  42  63  96 124 165 217 258 322 380
#     4  10  23  40  69  90 127 169 208 268 318 375
#     4  10  23  40  66  91 127 164 210 267 317 377
#     4  11  24  40  62  95 126 165 211 260 320 383
#
# _framework density 21.014648999999999
#
# number of rings (size 3 to 8) (size 9 to 14) (size 15 to 20)
#    0.000    2.286    0.000    1.714   12.000    6.857 
#    0.000    0.000    0.000    0.000    0.000    0.000 
#    0.000    0.000    0.000    0.000    0.000    0.000 
#
# Total GULP energy -173591.299561 kJ/mol
# GULP energy per Si atom -12399.378540 kJ/mol
# Density = 2.096682 g / cm^3
# Si number density = 21.014649 Si / 1000 Ang^3
#
#
#
# Elastic Constant Matrix: (Units=GPa)
#
#
# Indices 1 2 3 4 5 6 
#
# 1 67.5832 5.2795 21.7588 0.0000 4.1470 0.0000
# 2 5.2795 67.2552 18.9473 0.0000 4.3143 0.0000
# 3 21.7588 18.9473 142.9677 0.0000 -10.0679 0.0000
# 4 0.0000 0.0000 0.0000 16.5275 0.0000 -1.5299
# 5 4.1470 4.3143 -10.0679 0.0000 21.9576 0.0000
# 6 0.0000 0.0000 0.0000 -1.5299 0.0000 26.8303
#
#
#
# Elastic Compliance Matrix: (Units=1/GPa)
#
#
# Indices 1 2 3 4 5 6 
#
# 1 0.015938 -0.000223 -0.002692 0.000000 -0.004201 0.000000
# 2 -0.000223 0.015815 -0.002354 0.000000 -0.004145 0.000000
# 3 -0.002692 -0.002354 0.008044 0.000000 0.004659 0.000000
# 4 0.000000 0.000000 0.000000 0.060826 0.000000 0.003468
# 5 -0.004201 -0.004145 0.004659 0.000000 0.049286 0.000000
# 6 0.000000 0.000000 0.000000 0.003468 0.000000 0.037469
#
#
# Mechanical properties :
#
#
# Convention : Reuss Voigt Hill
#
# Bulk Modulus (GPa) = 34.17653 41.08638 37.63146
# Shear Modulus (GPa) = 24.07652 28.51779 26.29715
#
# Velocity S-wave (km/s) = 3.38849 3.68780 3.54131
# Velocity P-wave (km/s) = 5.62207 6.14223 5.88790
#
# Compressibility (1/GPa) = 0.02925984
#
# Stress axis : x y z
#
# Youngs Moduli (GPa) = 62.74127 63.23001 124.31079
#
# Poissons Ratio (x) = 0.01412 0.33464
# Poissons Ratio (y) = 0.01401 0.29261
# Poissons Ratio (z) = 0.16890 0.14883
#
# Static dielectric constant tensor:
#      x y z
#    x 3.694660 0.000000 -0.014440 
#    y 0.000000 3.765610 0.000000 
#    z -0.014440 0.000000 3.935710 
# 
# 
# High freq. dielectric constant tensor:
#      x y z
#    x 1.809210 0.000000 -0.003720 
#    y 0.000000 1.823050 0.000000 
#    z -0.003720 0.000000 1.837980 
# 
# From -- ./inp_files/20868.got.cif
#   From: 2010.06.25/outbox.cif.g09.slc.cpg/sg9_11_cif.got.tgz:20868.got - 2010.06.27 21:40:51.
