data_PCOD8055758
_publ_section_title
;
Structure prediction by ZEFSAII (Michael W. Deem and Ramdas Pophale) SiO2 
 PCOD8055758
Probable space group: C C
;
_chemical_formula_sum "Si O2"
_cell_formula_units_Z 32
_cell_length_a 9.411122
_cell_length_b 14.134129
_cell_length_c 13.055535
_cell_angle_alpha 90.000000
_cell_angle_beta 128.303893
_cell_angle_gamma 90.000000
_cell_volume 1362.786239
_symmetry_space_group_name_H-M "C C"
_symmetry_group_IT_number 9
_symmetry_cell_setting 'monoclinic'
loop_
_space_group_symop_operation_xyz
x,y,z
x,-y,1/2+z
1/2+x,1/2+y,z
1/2+x,1/2-y,1/2+z
loop_
_atom_site_type_symbol
_atom_site_label
_atom_site_fract_x
_atom_site_fract_y
_atom_site_fract_z
Si Si1 0.849690 0.339530 0.493500
Si Si2 0.341392 0.793840 0.057076
Si Si3 0.746177 0.198896 0.800967
Si Si4 0.286141 0.000363 0.607219
Si Si5 0.449932 0.476631 0.096442
Si Si6 0.504082 0.292417 0.237047
Si Si7 0.223194 0.622389 0.114019
Si Si8 0.204229 0.481756 0.811816
O O1 0.733204 0.418043 0.503148
O O2 0.716374 0.281027 0.360467
O O3 0.959941 0.273565 0.621768
O O4 0.006556 0.391031 0.495747
O O5 0.557151 0.786308 0.158274
O O6 0.273911 0.900617 0.042071
O O7 0.263644 0.733783 0.118076
O O8 0.263065 0.757138 0.913856
O O9 0.893041 0.239102 0.787272
O O10 0.777501 0.088279 0.834617
O O11 0.147897 0.997732 0.640367
O O12 0.489693 0.980378 0.738482
O O13 0.465784 0.401854 0.194607
O O14 0.350946 0.571287 0.089515
O O15 0.315078 0.431942 0.952192
O O16 0.264554 0.581357 0.243436
#
# Coordination Sequence:
#
# PCOD8055758 Si02
#       8
#     4   4   4   4   4   4   4   4
#     4  11  28  50  73 106 150 189 249 304 370 443
#     4  11  25  44  77 103 149 194 246 296 370 435
#     4  11  23  45  70 109 144 190 244 304 366 433
#     4  10  26  48  69 108 144 194 244 305 366 442
#     4  12  25  43  79 103 147 196 245 304 372 434
#     4  12  27  47  76 108 149 194 247 300 376 436
#     4  11  25  46  75 107 145 194 241 309 361 438
#     4  10  23  47  69 104 152 189 248 304 369 437
#
# _framework density 23.481304999999999
#
# number of rings (size 3 to 8) (size 9 to 14) (size 15 to 20)
#    0.000    1.000    2.500    2.250    8.750    1.000 
#    0.000    0.000    0.000    0.000    0.000    0.000 
#    0.000    0.000    0.000    0.000    0.000    0.000 
#
# Total GULP energy -198409.241968 kJ/mol
# GULP energy per Si atom -12400.577623 kJ/mol
# Density = 2.342786 g / cm^3
# Si number density = 23.481305 Si / 1000 Ang^3
#
#
#
# Elastic Constant Matrix: (Units=GPa)
#
#
# Indices 1 2 3 4 5 6 
#
# 1 140.4381 30.2014 40.9028 0.0000 9.2278 0.0000
# 2 30.2014 90.6549 36.3399 0.0000 0.1182 0.0000
# 3 40.9028 36.3399 139.3994 0.0000 2.6842 0.0000
# 4 0.0000 0.0000 0.0000 33.7810 0.0000 -1.3985
# 5 9.2278 0.1182 2.6842 0.0000 23.7733 0.0000
# 6 0.0000 0.0000 0.0000 -1.3985 0.0000 37.5020
#
#
#
# Elastic Compliance Matrix: (Units=1/GPa)
#
#
# Indices 1 2 3 4 5 6 
#
# 1 0.008290 -0.002017 -0.001849 0.000000 -0.002999 0.000000
# 2 -0.002017 0.012811 -0.002768 0.000000 0.001032 0.000000
# 3 -0.001849 -0.002768 0.008442 0.000000 -0.000222 0.000000
# 4 0.000000 0.000000 0.000000 0.029648 0.000000 0.001106
# 5 -0.002999 0.001032 -0.000222 0.000000 0.043248 0.000000
# 6 0.000000 0.000000 0.000000 0.001106 0.000000 0.026706
#
#
# Mechanical properties :
#
#
# Convention : Reuss Voigt Hill
#
# Bulk Modulus (GPa) = 61.44073 65.04230 63.24152
# Shear Modulus (GPa) = 33.82096 36.54781 35.18439
#
# Velocity S-wave (km/s) = 3.79929 3.94949 3.87512
# Velocity P-wave (km/s) = 6.74305 6.96833 6.85662
#
# Compressibility (1/GPa) = 0.01627585
#
# Stress axis : x y z
#
# Youngs Moduli (GPa) = 120.62989 78.05891 118.45603
#
# Poissons Ratio (x) = 0.15742 0.21902
# Poissons Ratio (y) = 0.24327 0.32786
# Poissons Ratio (z) = 0.22304 0.21605
#
# Static dielectric constant tensor:
#      x y z
#    x 4.236010 0.000000 0.101900 
#    y 0.000000 4.318270 0.000000 
#    z 0.101900 0.000000 4.190470 
# 
# 
# High freq. dielectric constant tensor:
#      x y z
#    x 1.937940 0.000000 0.008140 
#    y 0.000000 1.934730 0.000000 
#    z 0.008140 0.000000 1.929640 
# 
# From -- ./inp_files/23438.got.cif
#   From: 2010.06.25/outbox.cif.g09.slc.cpg/sg9_12_cif.got.tgz:23438.got - 2010.06.27 21:40:51.
