data_PCOD8055071
_publ_section_title
;
Structure prediction by ZEFSAII (Michael W. Deem and Ramdas Pophale) SiO2 
 PCOD8055071
Probable space group: C C
;
_chemical_formula_sum "Si O2"
_cell_formula_units_Z 32
_cell_length_a 8.891138
_cell_length_b 13.978868
_cell_length_c 12.816363
_cell_angle_alpha 90.000000
_cell_angle_beta 66.406643
_cell_angle_gamma 90.000000
_cell_volume 1459.767085
_symmetry_space_group_name_H-M "C C"
_symmetry_group_IT_number 9
_symmetry_cell_setting 'monoclinic'
loop_
_space_group_symop_operation_xyz
x,y,z
x,-y,1/2+z
1/2+x,1/2+y,z
1/2+x,1/2-y,1/2+z
loop_
_atom_site_type_symbol
_atom_site_label
_atom_site_fract_x
_atom_site_fract_y
_atom_site_fract_z
Si Si1 0.479860 0.586310 0.246530
Si Si2 0.389524 0.721624 0.457645
Si Si3 0.917222 0.928101 0.408593
Si Si4 0.895796 0.591822 0.475890
Si Si5 0.653810 0.064328 0.576141
Si Si6 0.686010 0.229655 0.018961
Si Si7 0.200230 0.905425 0.496598
Si Si8 0.641574 0.901446 0.726947
O O1 0.476598 0.658759 0.344537
O O2 0.491982 0.475288 0.282860
O O3 0.639010 0.607222 0.132723
O O4 0.324620 0.603060 0.217625
O O5 0.264396 0.658889 0.563495
O O6 0.529324 0.767959 0.488789
O O7 0.286031 0.807808 0.434424
O O8 0.840873 0.822205 0.418016
O O9 0.050985 0.931670 0.462460
O O10 0.759355 0.992617 0.476957
O O11 0.743151 0.663431 0.530503
O O12 0.832940 0.488883 0.458349
O O13 0.988159 0.590436 0.560812
O O14 0.017848 0.628127 0.351956
O O15 0.606135 0.010119 0.696419
O O16 0.628002 0.175701 0.138926
#
# Coordination Sequence:
#
# PCOD8055071 Si02
#       8
#     4   4   4   4   4   4   4   4
#     4  11  24  45  72  97 140 186 224 279 351 400
#     4  11  25  44  68 100 140 179 230 283 336 405
#     4  10  21  43  67  97 136 175 224 282 333 398
#     4  12  25  44  71 103 138 177 231 283 336 411
#     4  10  21  43  67  97 136 175 224 282 333 398
#     4  11  25  44  68 100 140 179 230 283 336 405
#     4  12  25  44  71 103 138 177 231 283 336 411
#     4  11  24  45  72  97 140 186 224 279 351 400
#
# _framework density 21.921306999999999
#
# number of rings (size 3 to 8) (size 9 to 14) (size 15 to 20)
#    0.000    1.000    5.000    3.750    0.000    6.000 
#    0.000    0.000    0.000    0.000    0.000    0.000 
#    0.000    0.000    0.000    0.000    0.000    0.000 
#
# Total GULP energy -198417.503156 kJ/mol
# GULP energy per Si atom -12401.093947 kJ/mol
# Density = 2.187141 g / cm^3
# Si number density = 21.921307 Si / 1000 Ang^3
#
#
#
# Elastic Constant Matrix: (Units=GPa)
#
#
# Indices 1 2 3 4 5 6 
#
# 1 98.9002 17.7743 21.2824 0.0000 14.1337 0.0000
# 2 17.7743 91.6502 11.6184 0.0000 0.4644 0.0000
# 3 21.2824 11.6184 47.2825 0.0000 10.3512 0.0000
# 4 0.0000 0.0000 0.0000 30.2618 0.0000 -2.9384
# 5 14.1337 0.4644 10.3512 0.0000 31.2994 0.0000
# 6 0.0000 0.0000 0.0000 -2.9384 0.0000 40.4507
#
#
#
# Elastic Compliance Matrix: (Units=1/GPa)
#
#
# Indices 1 2 3 4 5 6 
#
# 1 0.011869 -0.001770 -0.004031 0.000000 -0.004000 0.000000
# 2 -0.001770 0.011545 -0.002347 0.000000 0.001404 0.000000
# 3 -0.004031 -0.002347 0.024940 0.000000 -0.006393 0.000000
# 4 0.000000 0.000000 0.000000 0.033280 0.000000 0.002417
# 5 -0.004000 0.001404 -0.006393 0.000000 0.035849 0.000000
# 6 0.000000 0.000000 0.000000 0.002417 0.000000 0.024897
#
#
# Mechanical properties :
#
#
# Convention : Reuss Voigt Hill
#
# Bulk Modulus (GPa) = 31.19615 37.68701 34.44158
# Shear Modulus (GPa) = 29.52233 32.87958 31.20095
#
# Velocity S-wave (km/s) = 3.67378 3.87704 3.77678
# Velocity P-wave (km/s) = 5.67956 6.10502 5.89613
#
# Compressibility (1/GPa) = 0.03205523
#
# Stress axis : x y z
#
# Youngs Moduli (GPa) = 84.25643 86.61861 40.09549
#
# Poissons Ratio (x) = 0.15335 0.16164
# Poissons Ratio (y) = 0.14917 0.09412
# Poissons Ratio (z) = 0.33968 0.20333
#
# Static dielectric constant tensor:
#      x y z
#    x 3.872400 0.000000 -0.030860 
#    y 0.000000 4.347050 0.000000 
#    z -0.030860 0.000000 4.079060 
# 
# 
# High freq. dielectric constant tensor:
#      x y z
#    x 1.871350 0.000000 0.002370 
#    y 0.000000 1.872030 0.000000 
#    z 0.002370 0.000000 1.845580 
# 
# From -- ./inp_files/14591.got.cif
#   From: 2010.06.25/outbox.cif.g09.slc.cpg/sg9_8_cif.got.tgz:14591.got - 2010.06.27 21:40:51.
