data_PCOD8055003
_publ_section_title
;
Structure prediction by ZEFSAII (Michael W. Deem and Ramdas Pophale) SiO2 
 PCOD8055003
Probable space group: C C
;
_chemical_formula_sum "Si O2"
_cell_formula_units_Z 32
_cell_length_a 13.707037
_cell_length_b 12.008998
_cell_length_c 25.264935
_cell_angle_alpha 90.000000
_cell_angle_beta 159.224259
_cell_angle_gamma 90.000000
_cell_volume 1475.174354
_symmetry_space_group_name_H-M "C C"
_symmetry_group_IT_number 9
_symmetry_cell_setting 'monoclinic'
loop_
_space_group_symop_operation_xyz
x,y,z
x,-y,1/2+z
1/2+x,1/2+y,z
1/2+x,1/2-y,1/2+z
loop_
_atom_site_type_symbol
_atom_site_label
_atom_site_fract_x
_atom_site_fract_y
_atom_site_fract_z
Si Si1 0.891270 0.674808 0.040050
Si Si2 0.188631 0.418483 0.936582
Si Si3 0.212228 0.841265 0.332057
Si Si4 0.961380 0.819903 0.878241
Si Si5 0.057736 0.268851 0.149719
Si Si6 0.295067 0.176574 0.161342
Si Si7 0.666231 0.467390 0.730548
Si Si8 0.000372 0.068912 0.919916
O O1 0.216642 0.687588 0.211660
O O2 0.745003 0.790603 0.980899
O O3 0.840518 0.636279 0.954365
O O4 0.762113 0.583993 0.013932
O O5 0.034193 0.411665 0.801197
O O6 0.982662 0.476704 0.873533
O O7 0.470648 0.488923 0.082572
O O8 0.432010 0.775975 0.407487
O O9 0.933168 0.769533 0.194071
O O10 0.125805 0.958873 0.262362
O O11 0.946460 0.938559 0.899519
O O12 0.240754 0.803896 0.987365
O O13 0.156381 0.235807 0.141198
O O14 0.094258 0.161045 0.206247
O O15 0.231736 0.371896 0.259979
O O16 0.063481 0.114207 0.010470
#
# Coordination Sequence:
#
# PCOD8055003 Si02
#       8
#     4   4   4   4   4   4   4   4
#     4  11  23  49  67  98 144 185 225 273 362 418
#     4  10  21  41  69  97 135 178 221 286 334 404
#     4  11  23  44  74 100 131 190 225 277 354 410
#     4  12  26  46  71 105 141 173 240 291 333 410
#     4  11  26  47  68 109 134 178 234 293 336 406
#     4  10  23  45  73  98 140 189 227 266 367 413
#     4  11  21  42  71  98 138 168 233 285 336 398
#     4  12  23  50  71  97 143 189 225 285 348 419
#
# _framework density 21.692350999999999
#
# number of rings (size 3 to 8) (size 9 to 14) (size 15 to 20)
#    0.000    1.000    6.250    1.500    0.000    5.000 
#    9.000    0.000    0.000    0.000    0.000    0.000 
#    0.000    0.000    0.000    0.000    0.000    0.000 
#
# Total GULP energy -198409.955491 kJ/mol
# GULP energy per Si atom -12400.622218 kJ/mol
# Density = 2.164298 g / cm^3
# Si number density = 21.692351 Si / 1000 Ang^3
#
#
#
# Elastic Constant Matrix: (Units=GPa)
#
#
# Indices 1 2 3 4 5 6 
#
# 1 73.9432 27.4209 50.3199 -0.0068 -3.8523 -0.0118
# 2 27.4209 88.2255 21.4562 -0.0113 2.8734 -0.0021
# 3 50.3199 21.4562 137.2809 0.0192 5.6312 -0.0602
# 4 -0.0068 -0.0113 0.0192 32.7678 -0.0367 1.2599
# 5 -3.8523 2.8734 5.6312 -0.0367 36.2130 -0.0110
# 6 -0.0118 -0.0021 -0.0602 1.2599 -0.0110 27.2832
#
#
#
# Elastic Compliance Matrix: (Units=1/GPa)
#
#
# Indices 1 2 3 4 5 6 
#
# 1 0.020056 -0.004705 -0.006762 0.000011 0.003558 -0.000006
# 2 -0.004705 0.012901 -0.000231 0.000002 -0.001488 -0.000002
# 3 -0.006762 -0.000231 0.009891 -0.000010 -0.002239 0.000018
# 4 0.000011 0.000002 -0.000010 0.030572 0.000033 -0.001412
# 5 0.003558 -0.001488 -0.002239 0.000033 0.028459 0.000006
# 6 -0.000006 -0.000002 0.000018 -0.001412 0.000006 0.036718
#
#
# Mechanical properties :
#
#
# Convention : Reuss Voigt Hill
#
# Bulk Modulus (GPa) = 51.40661 55.31595 53.36128
# Shear Modulus (GPa) = 29.67772 32.60298 31.14035
#
# Velocity S-wave (km/s) = 3.70282 3.88102 3.79297
# Velocity P-wave (km/s) = 6.48311 6.75564 6.62078
#
# Compressibility (1/GPa) = 0.01945275
#
# Stress axis : x y z
#
# Youngs Moduli (GPa) = 49.86127 77.51049 101.10361
#
# Poissons Ratio (x) = 0.36467 0.68366
# Poissons Ratio (y) = 0.23459 0.02334
# Poissons Ratio (z) = 0.33716 0.01789
#
# Static dielectric constant tensor:
#      x y z
#    x 3.666910 0.000030 0.021380 
#    y 0.000030 3.961820 -0.000040 
#    z 0.021380 -0.000040 4.208970 
# 
# 
# High freq. dielectric constant tensor:
#      x y z
#    x 1.833850 0.000000 0.003380 
#    y 0.000000 1.854000 -0.000010 
#    z 0.003380 -0.000010 1.865320 
# 
# From -- ./inp_files/36767.got.cif
#   From: 2010.06.25/outbox.cif.g09.slc.cpg/sg9_19_cif.got.tgz:36767.got - 2010.06.27 21:40:51.
