data_PCOD8055647
_publ_section_title
;
Structure prediction by ZEFSAII (Michael W. Deem and Ramdas Pophale) SiO2 
 PCOD8055647
Probable space group: C C
;
_chemical_formula_sum "Si O2"
_cell_formula_units_Z 32
_cell_length_a 18.275763
_cell_length_b 11.467467
_cell_length_c 12.975903
_cell_angle_alpha 90.000000
_cell_angle_beta 146.062351
_cell_angle_gamma 90.000000
_cell_volume 1518.241150
_symmetry_space_group_name_H-M "C C"
_symmetry_group_IT_number 9
_symmetry_cell_setting 'monoclinic'
loop_
_space_group_symop_operation_xyz
x,y,z
x,-y,1/2+z
1/2+x,1/2+y,z
1/2+x,1/2-y,1/2+z
loop_
_atom_site_type_symbol
_atom_site_label
_atom_site_fract_x
_atom_site_fract_y
_atom_site_fract_z
Si Si1 0.231730 0.281871 0.614550
Si Si2 0.720288 0.619150 0.035858
Si Si3 0.996676 0.354117 0.482445
Si Si4 0.554833 0.351260 0.531197
Si Si5 0.097318 0.898724 0.817614
Si Si6 0.004219 0.606257 0.401539
Si Si7 0.134539 0.646534 0.352258
Si Si8 0.361953 0.502913 0.672377
O O1 0.119709 0.290145 0.571676
O O2 0.359255 0.212146 0.804597
O O3 0.162881 0.219238 0.436861
O O4 0.274703 0.409939 0.631708
O O5 0.676549 0.604090 0.104312
O O6 0.868569 0.658562 0.202150
O O7 0.704222 0.499176 0.955993
O O8 0.636365 0.716715 0.879962
O O9 0.027759 0.363368 0.639020
O O10 0.979176 0.487493 0.431212
O O11 0.565929 0.390286 0.661117
O O12 0.559716 0.209912 0.537950
O O13 0.425359 0.409848 0.330486
O O14 0.966194 0.932516 0.725989
O O15 0.092690 0.578402 0.406629
O O16 0.273590 0.582680 0.491149
#
# Coordination Sequence:
#
# PCOD8055647 Si02
#       8
#     4   4   4   4   4   4   4   4
#     4  12  26  47  63 107 141 179 231 284 338 418
#     4  10  23  44  65  98 136 171 232 279 330 412
#     4  12  28  44  74  98 145 184 228 286 346 407
#     4  10  25  42  70  99 133 184 222 284 345 404
#     4  11  25  43  71  98 140 186 220 282 348 403
#     4  11  23  46  65 101 133 171 233 284 327 413
#     4  11  26  43  71 100 134 184 226 285 344 407
#     4  11  24  45  67 101 140 173 234 282 338 414
#
# _framework density 21.077019
#
# number of rings (size 3 to 8) (size 9 to 14) (size 15 to 20)
#    0.000    1.000    5.000    0.000    7.000    2.000 
#    0.000    0.000    0.000    0.000    0.000    0.000 
#    0.000    0.000    0.000    0.000    0.000    0.000 
#
# Total GULP energy -198362.472779 kJ/mol
# GULP energy per Si atom -12397.654549 kJ/mol
# Density = 2.102905 g / cm^3
# Si number density = 21.077019 Si / 1000 Ang^3
#
#
#
# Elastic Constant Matrix: (Units=GPa)
#
#
# Indices 1 2 3 4 5 6 
#
# 1 55.0351 47.6848 41.8987 0.0000 8.5742 0.0000
# 2 47.6848 104.5363 38.8352 0.0000 -13.1657 0.0000
# 3 41.8987 38.8352 114.3282 0.0000 -11.6318 0.0000
# 4 0.0000 0.0000 0.0000 -0.6174 0.0000 5.8878
# 5 8.5742 -13.1657 -11.6318 0.0000 34.9396 0.0000
# 6 0.0000 0.0000 0.0000 5.8878 0.0000 27.2278
#
#
#
# Elastic Compliance Matrix: (Units=1/GPa)
#
#
# Indices 1 2 3 4 5 6 
#
# 1 0.051486 -0.021420 -0.014179 0.000000 -0.025426 0.000000
# 2 -0.021420 0.020169 0.002388 0.000000 0.013652 0.000000
# 3 -0.014179 0.002388 0.014054 0.000000 0.009058 0.000000
# 4 0.000000 0.000000 0.000000 -0.528928 0.000000 0.114376
# 5 -0.025426 0.013652 0.009058 0.000000 0.043020 0.000000
# 6 0.000000 0.000000 0.000000 0.114376 0.000000 0.011994
#
#
# Mechanical properties :
#
#
# Convention : Reuss Voigt Hill
#
# Bulk Modulus (GPa) = 51.85295 58.97079 55.41187
# Shear Modulus (GPa) = -15.85523 22.00873 3.07675
#
# Velocity S-wave (km/s) = -2.74570 3.23492 1.20952
# Velocity P-wave (km/s) = 3.82142 6.48016 5.31957
#
# Compressibility (1/GPa) = 0.01928531
#
# Stress axis : x y z
#
# Youngs Moduli (GPa) = 19.42288 49.58042 71.15634
#
# Poissons Ratio (x) = 1.06202 1.00894
# Poissons Ratio (y) = 0.41604 -0.16991
# Poissons Ratio (z) = 0.27540 -0.11839
#
# Static dielectric constant tensor:
#      x y z
#    x 3.849770 0.000000 0.221750 
#    y 0.000000 4.011470 0.000000 
#    z 0.221750 0.000000 3.736080 
# 
# 
# High freq. dielectric constant tensor:
#      x y z
#    x 1.824620 0.000000 0.014210 
#    y 0.000000 1.845670 0.000000 
#    z 0.014210 0.000000 1.823490 
# 
# From -- ./inp_files/18268.got.cif
#   From: 2010.06.25/outbox.cif.g09.slc.cpg/sg9_10_cif.got.tgz:18268.got - 2010.06.27 21:40:51.
