data_PCOD8055455
_publ_section_title
;
Structure prediction by ZEFSAII (Michael W. Deem and Ramdas Pophale) SiO2 
 PCOD8055455
Probable space group: C C
;
_chemical_formula_sum "Si O2"
_cell_formula_units_Z 28
_cell_length_a 22.198587
_cell_length_b 9.359017
_cell_length_c 11.857240
_cell_angle_alpha 90.000000
_cell_angle_beta 31.885938
_cell_angle_gamma 90.000000
_cell_volume 1301.254383
_symmetry_space_group_name_H-M "C C"
_symmetry_group_IT_number 9
_symmetry_cell_setting 'monoclinic'
loop_
_space_group_symop_operation_xyz
x,y,z
x,-y,1/2+z
1/2+x,1/2+y,z
1/2+x,1/2-y,1/2+z
loop_
_atom_site_type_symbol
_atom_site_label
_atom_site_fract_x
_atom_site_fract_y
_atom_site_fract_z
Si Si1 0.613310 0.660136 0.693110
Si Si2 0.215815 0.696401 0.815109
Si Si3 0.376254 0.191518 0.889555
Si Si4 0.992635 0.340386 0.559444
Si Si5 0.425344 0.138128 0.569487
Si Si6 0.960569 0.884958 0.931668
Si Si7 0.826975 0.619922 0.496623
O O1 0.683558 0.695576 0.468016
O O2 0.521856 0.535257 0.816524
O O3 0.697835 0.610188 0.658359
O O4 0.548094 0.801325 0.837699
O O5 0.253749 0.787866 0.644707
O O6 0.323814 0.595321 0.677783
O O7 0.105948 0.608440 0.946997
O O8 0.376279 0.223653 0.755587
O O9 0.470361 0.293535 0.799539
O O10 0.402408 0.024598 0.863449
O O11 0.940137 0.469502 0.569298
O O12 0.020122 0.206880 0.435048
O O13 0.900467 0.277885 0.796759
O O14 0.332252 0.165675 0.618874
#
# Coordination Sequence:
#
# PCOD8055455 Si02
#       7
#     4   4   4   4   4   4   4
#     4  12  25  43  77 106 140 194 242 306 359 434
#     4  10  22  45  66 105 143 188 232 306 364 416
#     4   9  22  44  64  98 138 182 236 294 355 426
#     4  11  21  44  72  92 144 191 226 300 373 419
#     4  11  24  44  66 105 138 183 247 296 359 445
#     4  10  23  43  70 103 140 187 246 290 366 438
#     4  11  21  43  73  95 139 189 235 294 372 420
#
# _framework density 21.517699
#
# number of rings (size 3 to 8) (size 9 to 14) (size 15 to 20)
#    0.857    0.571    4.286    0.857    2.000    3.429 
#    5.143    0.000    0.000    0.000    0.000    0.000 
#    0.000    0.000    0.000    0.000    0.000    0.000 
#
# Total GULP energy -173452.123046 kJ/mol
# GULP energy per Si atom -12389.437360 kJ/mol
# Density = 2.146872 g / cm^3
# Si number density = 21.517699 Si / 1000 Ang^3
#
#
#
# Elastic Constant Matrix: (Units=GPa)
#
#
# Indices 1 2 3 4 5 6 
#
# 1 166.9851 29.3388 60.9161 0.0000 1.9775 0.0000
# 2 29.3388 44.2481 25.8012 0.0000 6.5765 0.0000
# 3 60.9161 25.8012 117.4297 0.0000 12.0675 0.0000
# 4 0.0000 0.0000 0.0000 34.3856 0.0000 -6.8038
# 5 1.9775 6.5765 12.0675 0.0000 49.9766 0.0000
# 6 0.0000 0.0000 0.0000 -6.8038 0.0000 23.1741
#
#
#
# Elastic Compliance Matrix: (Units=1/GPa)
#
#
# Indices 1 2 3 4 5 6 
#
# 1 0.007808 -0.003326 -0.003418 0.000000 0.000954 0.000000
# 2 -0.003326 0.027552 -0.004070 0.000000 -0.002511 0.000000
# 3 -0.003418 -0.004070 0.011397 0.000000 -0.002081 0.000000
# 4 0.000000 0.000000 0.000000 0.030876 0.000000 0.009065
# 5 0.000954 -0.002511 -0.002081 0.000000 0.020805 0.000000
# 6 0.000000 0.000000 0.000000 0.009065 0.000000 0.045813
#
#
# Mechanical properties :
#
#
# Convention : Reuss Voigt Hill
#
# Bulk Modulus (GPa) = 39.79483 62.30833 51.05158
# Shear Modulus (GPa) = 28.69361 35.68105 32.18733
#
# Velocity S-wave (km/s) = 3.65566 4.07654 3.87182
# Velocity P-wave (km/s) = 6.02931 7.15383 6.61551
#
# Compressibility (1/GPa) = 0.02512889
#
# Stress axis : x y z
#
# Youngs Moduli (GPa) = 128.06561 36.29520 87.74373
#
# Poissons Ratio (x) = 0.12073 0.29989
# Poissons Ratio (y) = 0.42598 0.35712
# Poissons Ratio (z) = 0.43771 0.14772
#
# Static dielectric constant tensor:
#      x y z
#    x 3.967290 0.000000 0.232410 
#    y 0.000000 3.431850 0.000000 
#    z 0.232410 0.000000 3.954080 
# 
# 
# High freq. dielectric constant tensor:
#      x y z
#    x 1.858300 0.000000 0.010800 
#    y 0.000000 1.810460 0.000000 
#    z 0.010800 0.000000 1.843330 
# 
# From -- ./inp_files/19979.got.cif
#   From: 2010.06.25/outbox.cif.g09.slc.cpg/sg9_10_cif.got.tgz:19979.got - 2010.06.27 21:40:51.
