data_PCOD8055525
_publ_section_title
;
Structure prediction by ZEFSAII (Michael W. Deem and Ramdas Pophale) SiO2 
 PCOD8055525
Probable space group: C C
;
_chemical_formula_sum "Si O2"
_cell_formula_units_Z 28
_cell_length_a 12.204669
_cell_length_b 13.402490
_cell_length_c 7.539176
_cell_angle_alpha 90.000000
_cell_angle_beta 68.294805
_cell_angle_gamma 90.000000
_cell_volume 1145.769855
_symmetry_space_group_name_H-M "C C"
_symmetry_group_IT_number 9
_symmetry_cell_setting 'monoclinic'
loop_
_space_group_symop_operation_xyz
x,y,z
x,-y,1/2+z
1/2+x,1/2+y,z
1/2+x,1/2-y,1/2+z
loop_
_atom_site_type_symbol
_atom_site_label
_atom_site_fract_x
_atom_site_fract_y
_atom_site_fract_z
Si Si1 0.473320 0.178059 0.495680
Si Si2 0.957761 0.108411 0.061620
Si Si3 0.223198 0.587787 0.403049
Si Si4 0.445577 0.193064 0.923541
Si Si5 0.698595 0.128752 0.818303
Si Si6 0.041034 0.095241 0.377784
Si Si7 0.785024 0.660696 0.328772
O O1 0.490591 0.294284 0.423571
O O2 0.596746 0.120244 0.398237
O O3 0.423881 0.179887 0.726387
O O4 0.376883 0.125403 0.425331
O O5 0.827666 0.129495 0.218950
O O6 0.057196 0.103223 0.156169
O O7 0.964209 0.004810 0.951726
O O8 0.240560 0.630749 0.588779
O O9 0.238592 0.468234 0.402185
O O10 0.558145 0.128187 0.908876
O O11 0.466642 0.306998 0.977271
O O12 0.337909 0.148202 0.099646
O O13 0.751954 0.224108 0.885693
O O14 0.167116 0.092827 0.401996
#
# Coordination Sequence:
#
# PCOD8055525 Si02
#       7
#     4   4   4   4   4   4   4
#     4  10  25  42  70  99 129 173 229 264 340 384
#     4  11  23  44  65  97 132 177 217 278 319 402
#     4  11  23  43  68  98 130 174 222 279 321 396
#     4   9  21  45  65  94 136 175 214 277 321 396
#     4  10  23  39  67  98 131 170 226 263 332 391
#     4  10  24  43  66 100 133 172 226 262 339 392
#     4  11  23  46  67  98 135 177 212 281 328 395
#
# _framework density 24.437716999999999
#
# number of rings (size 3 to 8) (size 9 to 14) (size 15 to 20)
#    0.000    1.714    0.000    4.286    8.000    1.143 
#    5.143    0.000    0.000    0.000    0.000    0.000 
#    0.000    0.000    0.000    0.000    0.000    0.000 
#
# Total GULP energy -173567.899846 kJ/mol
# GULP energy per Si atom -12397.707132 kJ/mol
# Density = 2.438210 g / cm^3
# Si number density = 24.437717 Si / 1000 Ang^3
#
#
#
# Elastic Constant Matrix: (Units=GPa)
#
#
# Indices 1 2 3 4 5 6 
#
# 1 149.9764 7.2853 35.9710 0.0000 2.5647 0.0000
# 2 7.2853 49.1428 10.5964 0.0000 -15.8758 0.0000
# 3 35.9710 10.5964 64.2275 0.0000 -10.6062 0.0000
# 4 0.0000 0.0000 0.0000 26.7292 0.0000 1.2220
# 5 2.5647 -15.8758 -10.6062 0.0000 38.7535 0.0000
# 6 0.0000 0.0000 0.0000 1.2220 0.0000 24.3766
#
#
#
# Elastic Compliance Matrix: (Units=1/GPa)
#
#
# Indices 1 2 3 4 5 6 
#
# 1 0.007851 -0.000859 -0.004607 0.000000 -0.002133 0.000000
# 2 -0.000859 0.023903 -0.001923 0.000000 0.009323 0.000000
# 3 -0.004607 -0.001923 0.019258 0.000000 0.004788 0.000000
# 4 0.000000 0.000000 0.000000 0.037498 0.000000 -0.001880
# 5 -0.002133 0.009323 0.004788 0.000000 0.031075 0.000000
# 6 0.000000 0.000000 0.000000 -0.001880 0.000000 0.041117
#
#
# Mechanical properties :
#
#
# Convention : Reuss Voigt Hill
#
# Bulk Modulus (GPa) = 27.59956 41.22803 34.41380
# Shear Modulus (GPa) = 26.65842 31.93811 29.29826
#
# Velocity S-wave (km/s) = 3.30642 3.61906 3.46626
# Velocity P-wave (km/s) = 5.08870 5.86265 5.48933
#
# Compressibility (1/GPa) = 0.03623246
#
# Stress axis : x y z
#
# Youngs Moduli (GPa) = 127.37252 41.83657 51.92676
#
# Poissons Ratio (x) = 0.03595 0.23925
# Poissons Ratio (y) = 0.10946 0.09984
# Poissons Ratio (z) = 0.58685 0.08044
#
# Static dielectric constant tensor:
#      x y z
#    x 4.437640 0.000000 0.008300 
#    y 0.000000 4.407700 0.000000 
#    z 0.008300 0.000000 4.118210 
# 
# 
# High freq. dielectric constant tensor:
#      x y z
#    x 1.983540 0.000000 0.002240 
#    y 0.000000 1.960950 0.000000 
#    z 0.002240 0.000000 1.951830 
# 
# From -- ./inp_files/7370.got.cif
#   From: 2010.06.25/outbox.cif.g09.slc.cpg/sg9_4_cif.got.tgz:7370.got - 2010.06.27 21:40:51.
