data_PCOD8055366
_publ_section_title
;
Structure prediction by ZEFSAII (Michael W. Deem and Ramdas Pophale) SiO2 
 PCOD8055366
Probable space group: C C
;
_chemical_formula_sum "Si O2"
_cell_formula_units_Z 32
_cell_length_a 26.637663
_cell_length_b 10.639324
_cell_length_c 14.450152
_cell_angle_alpha 90.000000
_cell_angle_beta 20.163585
_cell_angle_gamma 90.000000
_cell_volume 1411.646462
_symmetry_space_group_name_H-M "C C"
_symmetry_group_IT_number 9
_symmetry_cell_setting 'monoclinic'
loop_
_space_group_symop_operation_xyz
x,y,z
x,-y,1/2+z
1/2+x,1/2+y,z
1/2+x,1/2-y,1/2+z
loop_
_atom_site_type_symbol
_atom_site_label
_atom_site_fract_x
_atom_site_fract_y
_atom_site_fract_z
Si Si1 0.125000 0.247200 0.633740
Si Si2 0.315178 0.945402 0.905988
Si Si3 0.827856 0.053271 0.373454
Si Si4 0.004671 0.486065 0.917527
Si Si5 0.498277 0.484237 0.248319
Si Si6 0.198706 0.196363 0.142720
Si Si7 0.910074 0.876959 0.080408
Si Si8 0.278472 0.030496 0.160892
O O1 0.221207 0.175415 0.543568
O O2 0.246298 0.322509 0.364027
O O3 0.033303 0.154090 0.727094
O O4 0.006680 0.335935 0.890729
O O5 0.463457 0.969946 0.592462
O O6 0.220965 0.069811 0.043086
O O7 0.346064 0.940437 0.963286
O O8 0.822949 0.203308 0.398562
O O9 0.870400 0.977936 0.392988
O O10 0.927308 0.002006 0.117030
O O11 0.666900 0.025443 0.619275
O O12 0.899217 0.559533 0.028892
O O13 0.447500 0.583459 0.412101
O O14 0.642073 0.537035 0.947062
O O15 0.225211 0.161876 0.205575
O O16 0.027824 0.227890 0.415895
#
# Coordination Sequence:
#
# PCOD8055366 Si02
#       8
#     4   4   4   4   4   4   4   4
#     4  11  25  43  72  99 142 179 230 283 348 408
#     4  10  22  43  69  98 138 180 224 285 347 396
#     4  11  26  41  67 106 134 175 242 273 343 413
#     4  11  24  43  68 101 136 179 229 283 336 413
#     4  12  24  44  67 100 139 183 223 280 349 402
#     4  10  22  42  72  95 141 177 221 292 340 403
#     4  11  24  44  71 102 137 180 227 288 341 409
#     4  10  23  44  66  99 135 181 228 272 350 404
#
# _framework density 22.668564
#
# number of rings (size 3 to 8) (size 9 to 14) (size 15 to 20)
#    0.750    0.500    3.750    0.750    3.500    4.000 
#    0.000    0.000    0.000    0.000    0.000    0.000 
#    0.000    0.000    0.000    0.000    0.000    0.000 
#
# Total GULP energy -198216.326756 kJ/mol
# GULP energy per Si atom -12388.520422 kJ/mol
# Density = 2.261697 g / cm^3
# Si number density = 22.668564 Si / 1000 Ang^3
#
#
#
# Elastic Constant Matrix: (Units=GPa)
#
#
# Indices 1 2 3 4 5 6 
#
# 1 109.1411 19.6335 45.4306 0.0000 17.9618 0.0001
# 2 19.6335 65.3302 18.6792 -0.0001 6.3363 0.0001
# 3 45.4306 18.6792 71.1920 0.0000 7.9772 0.0000
# 4 0.0000 -0.0001 0.0000 35.8322 0.0001 -5.1253
# 5 17.9618 6.3363 7.9772 0.0001 44.9733 -0.0001
# 6 0.0001 0.0001 0.0000 -5.1253 -0.0001 21.8878
#
#
#
# Elastic Compliance Matrix: (Units=1/GPa)
#
#
# Indices 1 2 3 4 5 6 
#
# 1 0.013211 -0.001425 -0.007640 0.000000 -0.003720 0.000000
# 2 -0.001425 0.016815 -0.003368 0.000000 -0.001203 0.000000
# 3 -0.007640 -0.003368 0.019804 0.000000 0.000013 0.000000
# 4 0.000000 0.000000 0.000000 0.028875 0.000000 0.006761
# 5 -0.003720 -0.001203 0.000013 0.000000 0.023888 0.000000
# 6 0.000000 0.000000 0.000000 0.006761 0.000000 0.047271
#
#
# Mechanical properties :
#
#
# Convention : Reuss Voigt Hill
#
# Bulk Modulus (GPa) = 40.05657 45.90556 42.98106
# Shear Modulus (GPa) = 27.31482 31.33333 29.32407
#
# Velocity S-wave (km/s) = 3.47503 3.72188 3.60057
# Velocity P-wave (km/s) = 5.81463 6.22612 6.02389
#
# Compressibility (1/GPa) = 0.02496470
#
# Stress axis : x y z
#
# Youngs Moduli (GPa) = 75.69317 59.47202 50.49499
#
# Poissons Ratio (x) = 0.08475 0.38577
# Poissons Ratio (y) = 0.10787 0.17005
# Poissons Ratio (z) = 0.57828 0.20028
#
# Static dielectric constant tensor:
#      x y z
#    x 3.968980 0.000000 0.165280 
#    y 0.000000 4.343440 0.000000 
#    z 0.165280 0.000000 4.314610 
# 
# 
# High freq. dielectric constant tensor:
#      x y z
#    x 1.892600 0.000000 0.003120 
#    y 0.000000 1.881110 0.000000 
#    z 0.003120 0.000000 1.895410 
# 
# From -- ./inp_files/28083.got.cif
#   From: 2010.06.25/outbox.cif.g09.slc.cpg/sg9_15_cif.got.tgz:28083.got - 2010.06.27 21:40:51.
