data_PCOD8055138
_publ_section_title
;
Structure prediction by ZEFSAII (Michael W. Deem and Ramdas Pophale) SiO2 
 PCOD8055138
Probable space group: C C
;
_chemical_formula_sum "Si O2"
_cell_formula_units_Z 32
_cell_length_a 13.900305
_cell_length_b 11.288222
_cell_length_c 14.882072
_cell_angle_alpha 90.000000
_cell_angle_beta 35.853570
_cell_angle_gamma 90.000000
_cell_volume 1367.729359
_symmetry_space_group_name_H-M "C C"
_symmetry_group_IT_number 9
_symmetry_cell_setting 'monoclinic'
loop_
_space_group_symop_operation_xyz
x,y,z
x,-y,1/2+z
1/2+x,1/2+y,z
1/2+x,1/2-y,1/2+z
loop_
_atom_site_type_symbol
_atom_site_label
_atom_site_fract_x
_atom_site_fract_y
_atom_site_fract_z
Si Si1 0.011230 0.742509 0.412940
Si Si2 0.174781 0.819326 0.120157
Si Si3 0.465218 0.784586 0.297770
Si Si4 0.129080 0.924949 0.595194
Si Si5 0.983448 0.586653 0.605567
Si Si6 0.110589 0.970992 0.407074
Si Si7 0.685685 0.280077 0.787891
Si Si8 0.544796 0.821892 0.555700
O O1 0.158629 0.758086 0.230410
O O2 0.976061 0.874362 0.478999
O O3 0.866182 0.701769 0.456205
O O4 0.053195 0.652813 0.463395
O O5 0.058996 0.755808 0.134938
O O6 0.154079 0.962127 0.141640
O O7 0.289996 0.836901 0.464481
O O8 0.474961 0.646823 0.255605
O O9 0.536393 0.849630 0.156661
O O10 0.599841 0.796511 0.275185
O O11 0.091061 0.985240 0.528817
O O12 0.787731 0.582302 0.747343
O O13 0.064305 0.459635 0.559798
O O14 0.085668 0.096786 0.377763
O O15 0.877469 0.301204 0.624702
O O16 0.690191 0.211261 0.878521
#
# Coordination Sequence:
#
# PCOD8055138 Si02
#       8
#     4   4   4   4   4   4   4   4
#     4  12  24  45  70 104 139 192 235 286 353 425
#     4  12  27  46  73 102 148 191 236 289 358 424
#     4  11  24  43  76 104 138 182 238 292 364 414
#     4  11  24  48  71 101 148 185 232 299 354 422
#     4  10  24  44  69 101 145 182 230 294 350 421
#     4  10  21  46  69  97 143 184 227 290 355 413
#     4  11  23  44  72  98 135 184 232 294 352 419
#     4  11  25  48  66 101 142 184 234 290 356 416
#
# _framework density 23.396439999999998
#
# number of rings (size 3 to 8) (size 9 to 14) (size 15 to 20)
#    0.000    1.000    3.750    2.250    7.000    0.000 
#   11.250    0.000    0.000    0.000    0.000    0.000 
#    0.000    0.000    0.000    0.000    0.000    0.000 
#
# Total GULP energy -198232.792617 kJ/mol
# GULP energy per Si atom -12389.549539 kJ/mol
# Density = 2.334319 g / cm^3
# Si number density = 23.396440 Si / 1000 Ang^3
#
#
#
# Elastic Constant Matrix: (Units=GPa)
#
#
# Indices 1 2 3 4 5 6 
#
# 1 99.3416 49.9524 17.8421 -0.0002 21.8494 0.0001
# 2 49.9524 161.1662 40.0365 -0.0001 -0.0533 0.0001
# 3 17.8421 40.0365 72.5604 -0.0003 26.8992 0.0001
# 4 -0.0002 -0.0001 -0.0003 26.9683 0.0002 -3.1887
# 5 21.8494 -0.0533 26.8992 0.0002 32.1857 -0.0001
# 6 0.0001 0.0001 0.0001 -3.1887 -0.0001 37.9172
#
#
#
# Elastic Compliance Matrix: (Units=1/GPa)
#
#
# Indices 1 2 3 4 5 6 
#
# 1 0.015411 -0.006008 0.004937 0.000000 -0.014598 0.000000
# 2 -0.006008 0.010089 -0.008125 0.000000 0.010886 0.000000
# 3 0.004937 -0.008125 0.026512 0.000000 -0.025523 0.000000
# 4 0.000000 0.000000 0.000000 0.037453 -0.000001 0.003150
# 5 -0.014598 0.010886 -0.025523 -0.000001 0.062329 0.000000
# 6 0.000000 0.000000 0.000000 0.003150 0.000000 0.026638
#
#
# Mechanical properties :
#
#
# Convention : Reuss Voigt Hill
#
# Bulk Modulus (GPa) = 29.74292 60.97003 45.35648
# Shear Modulus (GPa) = 24.03496 34.43006 29.23251
#
# Velocity S-wave (km/s) = 3.20862 3.84030 3.53858
# Velocity P-wave (km/s) = 5.14462 6.76609 6.01029
#
# Compressibility (1/GPa) = 0.03362144
#
# Stress axis : x y z
#
# Youngs Moduli (GPa) = 64.88731 99.11919 37.71832
#
# Poissons Ratio (x) = 0.59551 -0.18623
# Poissons Ratio (y) = 0.38984 0.30646
# Poissons Ratio (z) = -0.32037 0.80533
#
# Static dielectric constant tensor:
#      x y z
#    x 4.001890 0.000000 0.259580 
#    y 0.000000 4.373070 0.000000 
#    z 0.259580 0.000000 4.102980 
# 
# 
# High freq. dielectric constant tensor:
#      x y z
#    x 1.923500 0.000000 0.025440 
#    y 0.000000 1.932240 0.000000 
#    z 0.025440 0.000000 1.919300 
# 
# From -- ./inp_files/9101.got.cif
#   From: 2010.06.25/outbox.cif.g09.slc.cpg/sg9_5_cif.got.tgz:9101.got - 2010.06.27 21:40:51.
