data_PCOD8055712
_publ_section_title
;
Structure prediction by ZEFSAII (Michael W. Deem and Ramdas Pophale) SiO2 
 PCOD8055712
Probable space group: C C
;
_chemical_formula_sum "Si O2"
_cell_formula_units_Z 32
_cell_length_a 11.823706
_cell_length_b 10.353098
_cell_length_c 11.080991
_cell_angle_alpha 90.000000
_cell_angle_beta 90.690216
_cell_angle_gamma 90.000000
_cell_volume 1356.347704
_symmetry_space_group_name_H-M "C C"
_symmetry_group_IT_number 9
_symmetry_cell_setting 'monoclinic'
loop_
_space_group_symop_operation_xyz
x,y,z
x,-y,1/2+z
1/2+x,1/2+y,z
1/2+x,1/2-y,1/2+z
loop_
_atom_site_type_symbol
_atom_site_label
_atom_site_fract_x
_atom_site_fract_y
_atom_site_fract_z
Si Si1 0.036620 0.707766 0.811180
Si Si2 0.679203 0.202586 0.195987
Si Si3 0.875367 0.920297 0.538415
Si Si4 0.086208 0.249840 0.054038
Si Si5 0.534345 0.644543 0.535341
Si Si6 0.822427 0.562010 0.752527
Si Si7 0.170255 0.480000 0.912694
Si Si8 0.744995 0.529346 0.006762
O O1 0.101310 0.773404 0.699060
O O2 0.113316 0.618568 0.896405
O O3 0.940456 0.632777 0.737761
O O4 0.983902 0.811163 0.904517
O O5 0.780664 0.134584 0.125427
O O6 0.562502 0.233244 0.121698
O O7 0.719259 0.337499 0.251575
O O8 0.642058 0.103520 0.296243
O O9 0.963242 0.804707 0.505204
O O10 0.804008 0.987440 0.429305
O O11 0.950637 0.038846 0.594671
O O12 0.111877 0.400147 0.022501
O O13 0.185350 0.168002 0.992216
O O14 0.656466 0.585842 0.508224
O O15 0.820277 0.499142 0.887574
O O16 0.814487 0.469125 0.634765
#
# Coordination Sequence:
#
# PCOD8055712 Si02
#       8
#     4   4   4   4   4   4   4   4
#     4  12  25  42  67 101 147 181 232 299 352 437
#     4  11  22  46  67 103 140 182 237 296 345 434
#     4  11  24  46  74 100 139 191 234 294 357 421
#     4  11  25  46  69 102 137 184 245 286 356 434
#     4  10  24  42  73 101 139 185 237 285 365 418
#     4  11  23  41  73  97 144 180 231 297 363 415
#     4  12  26  44  70 102 144 186 238 293 363 421
#     4  10  23  45  71 104 134 187 238 296 353 434
#
# _framework density 23.592770000000002
#
# number of rings (size 3 to 8) (size 9 to 14) (size 15 to 20)
#    0.000    1.000    3.750    2.250    1.750    1.000 
#    2.250    0.000    0.000    0.000    0.000    0.000 
#    0.000    0.000    0.000    0.000    0.000    0.000 
#
# Total GULP energy -198244.346905 kJ/mol
# GULP energy per Si atom -12390.271682 kJ/mol
# Density = 2.353907 g / cm^3
# Si number density = 23.592770 Si / 1000 Ang^3
#
#
#
# Elastic Constant Matrix: (Units=GPa)
#
#
# Indices 1 2 3 4 5 6 
#
# 1 68.6156 22.3302 28.6244 0.0000 15.0591 0.0000
# 2 22.3302 76.9476 31.3977 0.0000 7.6989 0.0000
# 3 28.6244 31.3977 132.6306 0.0000 0.5461 0.0000
# 4 0.0000 0.0000 0.0000 43.0799 0.0000 4.3103
# 5 15.0591 7.6989 0.5461 0.0000 29.7841 0.0000
# 6 0.0000 0.0000 0.0000 4.3103 0.0000 38.3631
#
#
#
# Elastic Compliance Matrix: (Units=1/GPa)
#
#
# Indices 1 2 3 4 5 6 
#
# 1 0.018905 -0.003288 -0.003266 0.000000 -0.008649 0.000000
# 2 -0.003288 0.015367 -0.002919 0.000000 -0.002256 0.000000
# 3 -0.003266 -0.002919 0.008926 0.000000 0.002242 0.000000
# 4 0.000000 0.000000 0.000000 0.023477 0.000000 -0.002638
# 5 -0.008649 -0.002256 0.002242 0.000000 0.038490 0.000000
# 6 0.000000 0.000000 0.000000 -0.002638 0.000000 0.026363
#
#
# Mechanical properties :
#
#
# Convention : Reuss Voigt Hill
#
# Bulk Modulus (GPa) = 41.23405 49.21094 45.22250
# Shear Modulus (GPa) = 31.53435 35.30151 33.41793
#
# Velocity S-wave (km/s) = 3.65994 3.87238 3.76766
# Velocity P-wave (km/s) = 5.94773 6.39512 6.17548
#
# Compressibility (1/GPa) = 0.02425180
#
# Stress axis : x y z
#
# Youngs Moduli (GPa) = 52.89712 65.07526 112.02779
#
# Poissons Ratio (x) = 0.21398 0.36588
# Poissons Ratio (y) = 0.17393 0.32699
# Poissons Ratio (z) = 0.17276 0.18995
#
# Static dielectric constant tensor:
#      x y z
#    x 4.160820 0.000000 0.227870 
#    y 0.000000 4.384250 0.000000 
#    z 0.227870 0.000000 4.350150 
# 
# 
# High freq. dielectric constant tensor:
#      x y z
#    x 1.922050 0.000000 0.006920 
#    y 0.000000 1.935070 0.000000 
#    z 0.006920 0.000000 1.937130 
# 
# From -- ./inp_files/16443.got.cif
#   From: 2010.06.25/outbox.cif.g09.slc.cpg/sg9_9_cif.got.tgz:16443.got - 2010.06.27 21:40:51.
