data_PCOD8055300
_publ_section_title
;
Structure prediction by ZEFSAII (Michael W. Deem and Ramdas Pophale) SiO2 
 PCOD8055300
Probable space group: C C
;
_chemical_formula_sum "Si O2"
_cell_formula_units_Z 24
_cell_length_a 9.205560
_cell_length_b 25.735570
_cell_length_c 5.140689
_cell_angle_alpha 90.000000
_cell_angle_beta 72.523584
_cell_angle_gamma 90.000000
_cell_volume 1161.665684
_symmetry_space_group_name_H-M "C C"
_symmetry_group_IT_number 9
_symmetry_cell_setting 'monoclinic'
loop_
_space_group_symop_operation_xyz
x,y,z
x,-y,1/2+z
1/2+x,1/2+y,z
1/2+x,1/2-y,1/2+z
loop_
_atom_site_type_symbol
_atom_site_label
_atom_site_fract_x
_atom_site_fract_y
_atom_site_fract_z
Si Si1 0.280050 0.798364 0.311840
Si Si2 0.043485 0.033992 0.568991
Si Si3 0.836980 0.601441 0.509038
Si Si4 0.492778 0.124004 0.917490
Si Si5 0.441633 0.306618 0.607258
Si Si6 0.348773 0.367457 0.159499
O O1 0.404683 0.820459 0.449860
O O2 0.333137 0.742963 0.181324
O O3 0.118406 0.791253 0.541901
O O4 0.267240 0.840221 0.081272
O O5 0.204994 0.061631 0.514435
O O6 0.906652 0.074381 0.677651
O O7 0.029089 0.989032 0.788875
O O8 0.924341 0.585892 0.729412
O O9 0.962072 0.599089 0.213936
O O10 0.668534 0.133320 0.778159
O O11 0.419046 0.329682 0.334642
O O12 0.398864 0.348741 0.847522
#
# Coordination Sequence:
#
# PCOD8055300 Si02
#       6
#     4   4   4   4   4   4
#     4  10  25  40  66 101 130 188 222 265 335 414
#     4  12  25  46  73  97 129 181 236 283 349 396
#     4  10  22  44  64  98 131 171 225 282 319 409
#     4  10  22  41  68  91 142 163 221 270 340 393
#     4  12  25  39  68  95 144 175 229 266 338 403
#     4  12  25  44  65 100 136 178 215 298 329 401
#
# _framework density 20.659988999999999
#
# number of rings (size 3 to 8) (size 9 to 14) (size 15 to 20)
#    1.000    0.000    1.667    5.000    4.667    0.000 
#    0.000    5.000    0.000    0.000    0.000    0.000 
#    0.000    0.000    0.000    0.000    0.000    0.000 
#
# Total GULP energy -148794.486046 kJ/mol
# GULP energy per Si atom -12399.540504 kJ/mol
# Density = 2.061297 g / cm^3
# Si number density = 20.659989 Si / 1000 Ang^3
#
#
#
# Elastic Constant Matrix: (Units=GPa)
#
#
# Indices 1 2 3 4 5 6 
#
# 1 119.5672 33.4886 36.4900 0.0000 -34.6290 0.0000
# 2 33.4886 84.0023 13.1021 0.0000 -12.9269 0.0000
# 3 36.4900 13.1021 109.3425 0.0000 -13.5938 0.0000
# 4 0.0000 0.0000 0.0000 29.5770 0.0000 3.9086
# 5 -34.6290 -12.9269 -13.5938 0.0000 43.8153 0.0000
# 6 0.0000 0.0000 0.0000 3.9086 0.0000 11.3148
#
#
#
# Elastic Compliance Matrix: (Units=1/GPa)
#
#
# Indices 1 2 3 4 5 6 
#
# 1 0.012451 -0.003300 -0.002764 0.000000 0.008009 0.000000
# 2 -0.003300 0.013469 -0.000357 0.000000 0.001255 0.000000
# 3 -0.002764 -0.000357 0.010220 0.000000 0.000881 0.000000
# 4 0.000000 0.000000 0.000000 0.035427 0.000000 -0.012238
# 5 0.008009 0.001255 0.000881 0.000000 0.029797 0.000000
# 6 0.000000 0.000000 0.000000 -0.012238 0.000000 0.092608
#
#
# Mechanical properties :
#
#
# Convention : Reuss Voigt Hill
#
# Bulk Modulus (GPa) = 42.92087 53.23037 48.07562
# Shear Modulus (GPa) = 23.30141 32.26350 27.78245
#
# Velocity S-wave (km/s) = 3.36199 3.95605 3.67106
# Velocity P-wave (km/s) = 5.99088 6.83286 6.42568
#
# Compressibility (1/GPa) = 0.02329869
#
# Stress axis : x y z
#
# Youngs Moduli (GPa) = 80.31498 74.24569 97.84488
#
# Poissons Ratio (x) = 0.24502 0.27044
# Poissons Ratio (y) = 0.26505 0.03489
# Poissons Ratio (z) = 0.22199 0.02647
#
# Static dielectric constant tensor:
#      x y z
#    x 3.781730 0.000000 0.025740 
#    y 0.000000 3.605160 0.000000 
#    z 0.025740 0.000000 3.803790 
# 
# 
# High freq. dielectric constant tensor:
#      x y z
#    x 1.816160 0.000000 -0.004070 
#    y 0.000000 1.791930 0.000000 
#    z -0.004070 0.000000 1.820900 
# 
# From -- ./inp_files/822.got.cif
#   From: 2010.06.25/outbox.cif.g09.slc.cpg/sg9_1_cif.got.tgz:822.got - 2010.06.27 21:40:51.
