data_PCOD8055339
_publ_section_title
;
Structure prediction by ZEFSAII (Michael W. Deem and Ramdas Pophale) SiO2 
 PCOD8055339
Probable space group: C C
;
_chemical_formula_sum "Si O2"
_cell_formula_units_Z 28
_cell_length_a 14.976914
_cell_length_b 8.801741
_cell_length_c 20.155714
_cell_angle_alpha 90.000000
_cell_angle_beta 28.501439
_cell_angle_gamma 90.000000
_cell_volume 1267.862329
_symmetry_space_group_name_H-M "C C"
_symmetry_group_IT_number 9
_symmetry_cell_setting 'monoclinic'
loop_
_space_group_symop_operation_xyz
x,y,z
x,-y,1/2+z
1/2+x,1/2+y,z
1/2+x,1/2-y,1/2+z
loop_
_atom_site_type_symbol
_atom_site_label
_atom_site_fract_x
_atom_site_fract_y
_atom_site_fract_z
Si Si1 0.953680 0.288042 0.622860
Si Si2 0.032577 0.157819 0.431709
Si Si3 0.019358 0.682027 0.309669
Si Si4 0.620532 0.042648 0.437706
Si Si5 0.443823 0.684051 0.999090
Si Si6 0.011179 0.090571 0.701267
Si Si7 0.384998 0.073990 0.967413
O O1 0.748273 0.294382 0.788319
O O2 0.945903 0.197080 0.559419
O O3 0.036434 0.457890 0.557851
O O4 0.078219 0.191058 0.594083
O O5 0.909983 0.241877 0.452890
O O6 0.023689 0.978715 0.428533
O O7 0.928701 0.732100 0.438675
O O8 0.941595 0.788307 0.302184
O O9 0.952499 0.503609 0.353289
O O10 0.242659 0.683155 0.164845
O O11 0.576758 0.223526 0.464072
O O12 0.524095 0.969023 0.436691
O O13 0.842342 0.019432 0.290806
O O14 0.173708 0.979409 0.621685
#
# Coordination Sequence:
#
# PCOD8055339 Si02
#       7
#     4   4   4   4   4   4   4
#     4  11  22  42  69 101 136 177 232 274 352 401
#     4  11  24  42  71  97 140 184 230 282 344 405
#     4  11  22  42  69 101 136 177 232 274 352 401
#     4  10  22  42  67  97 134 182 225 280 338 408
#     4  11  24  42  71  97 140 184 230 282 344 405
#     4  12  22  42  72 102 140 180 230 286 344 410
#     4  10  22  42  67  97 134 182 225 280 338 408
#
# _framework density 22.084416000000001
#
# number of rings (size 3 to 8) (size 9 to 14) (size 15 to 20)
#    0.000    1.143    5.714    2.571    4.000    0.000 
#    0.000    2.857    0.000    0.000    0.000    0.000 
#    0.000    0.000    0.000    0.000    0.000    0.000 
#
# Total GULP energy -173499.285502 kJ/mol
# GULP energy per Si atom -12392.806107 kJ/mol
# Density = 2.203415 g / cm^3
# Si number density = 22.084416 Si / 1000 Ang^3
#
#
#
# Elastic Constant Matrix: (Units=GPa)
#
#
# Indices 1 2 3 4 5 6 
#
# 1 72.8651 41.5097 26.3091 -0.0015 -12.5767 0.0001
# 2 41.5097 149.7221 30.4080 -0.0026 -7.0090 0.0001
# 3 26.3091 30.4080 89.3125 -0.0043 -7.3723 0.0001
# 4 -0.0015 -0.0026 -0.0043 20.4284 -0.0003 -4.8206
# 5 -12.5767 -7.0090 -7.3723 -0.0003 32.4039 0.0002
# 6 0.0001 0.0001 0.0001 -4.8206 0.0002 36.7915
#
#
#
# Elastic Compliance Matrix: (Units=1/GPa)
#
#
# Indices 1 2 3 4 5 6 
#
# 1 0.018266 -0.004092 -0.003542 0.000000 0.005398 0.000000
# 2 -0.004092 0.008125 -0.001576 0.000000 -0.000189 0.000000
# 3 -0.003542 -0.001576 0.012877 0.000002 0.001214 0.000000
# 4 0.000000 0.000000 0.000002 0.050513 0.000001 0.006619
# 5 0.005398 -0.000189 0.001214 0.000001 0.033191 0.000000
# 6 0.000000 0.000000 0.000000 0.006619 0.000000 0.028047
#
#
# Mechanical properties :
#
#
# Convention : Reuss Voigt Hill
#
# Bulk Modulus (GPa) = 47.96882 56.48373 52.22628
# Shear Modulus (GPa) = 28.34647 32.16961 30.25804
#
# Velocity S-wave (km/s) = 3.58655 3.82077 3.70551
# Velocity P-wave (km/s) = 6.23851 6.71537 6.48133
#
# Compressibility (1/GPa) = 0.02084688
#
# Stress axis : x y z
#
# Youngs Moduli (GPa) = 54.74727 123.07920 77.65842
#
# Poissons Ratio (x) = 0.50365 0.27505
# Poissons Ratio (y) = 0.22403 0.12243
# Poissons Ratio (z) = 0.19390 0.19403
#
# Static dielectric constant tensor:
#      x y z
#    x 3.860630 0.000000 0.013780 
#    y 0.000000 4.853260 0.000000 
#    z 0.013780 0.000000 3.882890 
# 
# 
# High freq. dielectric constant tensor:
#      x y z
#    x 1.840610 0.000000 -0.005890 
#    y 0.000000 1.872650 0.000000 
#    z -0.005890 0.000000 1.880640 
# 
# From -- ./inp_files/11293.got.cif
#   From: 2010.06.25/outbox.cif.g09.slc.cpg/sg9_6_cif.got.tgz:11293.got - 2010.06.27 21:40:51.
