data_PCOD8055606
_publ_section_title
;
Structure prediction by ZEFSAII (Michael W. Deem and Ramdas Pophale) SiO2 
 PCOD8055606
Probable space group: C C
;
_chemical_formula_sum "Si O2"
_cell_formula_units_Z 20
_cell_length_a 4.936140
_cell_length_b 13.134604
_cell_length_c 13.329107
_cell_angle_alpha 90.000000
_cell_angle_beta 96.765202
_cell_angle_gamma 90.000000
_cell_volume 858.165479
_symmetry_space_group_name_H-M "C C"
_symmetry_group_IT_number 9
_symmetry_cell_setting 'monoclinic'
loop_
_space_group_symop_operation_xyz
x,y,z
x,-y,1/2+z
1/2+x,1/2+y,z
1/2+x,1/2-y,1/2+z
loop_
_atom_site_type_symbol
_atom_site_label
_atom_site_fract_x
_atom_site_fract_y
_atom_site_fract_z
Si Si1 0.759830 0.269188 0.939790
Si Si2 0.862453 0.458822 0.065094
Si Si3 0.465698 0.557661 0.913128
Si Si4 0.404479 0.501726 0.696806
Si Si5 0.736872 0.857732 0.849340
O O1 0.848754 0.154050 0.968869
O O2 0.445715 0.268694 0.891746
O O3 0.934614 0.315400 0.853682
O O4 0.804162 0.339441 0.039605
O O5 0.689494 0.501813 0.151460
O O6 0.178449 0.464055 0.107517
O O7 0.770955 0.528901 0.965559
O O8 0.458375 0.579551 0.792692
O O9 0.279205 0.456489 0.924826
O O10 0.306244 0.392294 0.738305
#
# Coordination Sequence:
#
# PCOD8055606 Si02
#       5
#     4   4   4   4   4
#     4  11  21  42  67  91 126 172 213 263 322 372
#     4  11  22  42  65  98 129 168 222 262 313 394
#     4   9  24  43  68  91 135 169 211 268 329 369
#     4  10  23  43  65  91 138 168 209 272 322 371
#     4   9  22  40  65  87 128 167 205 265 316 380
#
# _framework density 23.305527999999999
#
# number of rings (size 3 to 8) (size 9 to 14) (size 15 to 20)
#    1.200    0.800    0.000    3.600    0.000    6.400 
#   10.800    0.000    0.000    0.000    0.000    0.000 
#    0.000    0.000    0.000    0.000    0.000    0.000 
#
# Total GULP energy -123889.108769 kJ/mol
# GULP energy per Si atom -12388.910877 kJ/mol
# Density = 2.325248 g / cm^3
# Si number density = 23.305528 Si / 1000 Ang^3
#
#
#
# Elastic Constant Matrix: (Units=GPa)
#
#
# Indices 1 2 3 4 5 6 
#
# 1 61.5210 9.8533 16.2582 0.0000 2.6272 0.0000
# 2 9.8533 100.3843 17.7216 0.0000 9.4846 0.0000
# 3 16.2582 17.7216 88.7794 0.0000 25.0579 0.0000
# 4 0.0000 0.0000 0.0000 21.0253 0.0000 -6.5743
# 5 2.6272 9.4846 25.0579 0.0000 42.1725 0.0000
# 6 0.0000 0.0000 0.0000 -6.5743 0.0000 27.3841
#
#
#
# Elastic Compliance Matrix: (Units=1/GPa)
#
#
# Indices 1 2 3 4 5 6 
#
# 1 0.017258 -0.001229 -0.003232 0.000000 0.001121 0.000000
# 2 -0.001229 0.010475 -0.001469 0.000000 -0.001406 0.000000
# 3 -0.003232 -0.001469 0.014417 0.000000 -0.008034 0.000000
# 4 0.000000 0.000000 0.000000 0.051422 0.000000 0.012345
# 5 0.001121 -0.001406 -0.008034 0.000000 0.028732 0.000000
# 6 0.000000 0.000000 0.000000 0.012345 0.000000 0.039481
#
#
# Mechanical properties :
#
#
# Convention : Reuss Voigt Hill
#
# Bulk Modulus (GPa) = 33.01494 37.59453 35.30473
# Shear Modulus (GPa) = 27.21235 31.90651 29.55943
#
# Velocity S-wave (km/s) = 3.42077 3.70409 3.56525
# Velocity P-wave (km/s) = 5.45886 5.87025 5.66829
#
# Compressibility (1/GPa) = 0.03028932
#
# Stress axis : x y z
#
# Youngs Moduli (GPa) = 57.94542 95.46933 69.36493
#
# Poissons Ratio (x) = 0.11737 0.22415
# Poissons Ratio (y) = 0.07124 0.10188
# Poissons Ratio (z) = 0.18725 0.14022
#
# Static dielectric constant tensor:
#      x y z
#    x 4.006700 0.000000 0.080480 
#    y 0.000000 3.873420 0.000000 
#    z 0.080480 0.000000 3.998020 
# 
# 
# High freq. dielectric constant tensor:
#      x y z
#    x 1.926890 0.000000 0.001390 
#    y 0.000000 1.895040 0.000000 
#    z 0.001390 0.000000 1.910360 
# 
# From -- ./inp_files/12821.got.cif
#   From: 2010.06.25/outbox.cif.g09.slc.cpg/sg9_7_cif.got.tgz:12821.got - 2010.06.27 21:40:51.
