data_PCOD8055303
_publ_section_title
;
Structure prediction by ZEFSAII (Michael W. Deem and Ramdas Pophale) SiO2 
 PCOD8055303
Probable space group: C C
;
_chemical_formula_sum "Si O2"
_cell_formula_units_Z 32
_cell_length_a 16.957836
_cell_length_b 7.782183
_cell_length_c 12.865024
_cell_angle_alpha 90.000000
_cell_angle_beta 121.584124
_cell_angle_gamma 90.000000
_cell_volume 1446.294922
_symmetry_space_group_name_H-M "C C"
_symmetry_group_IT_number 9
_symmetry_cell_setting 'monoclinic'
loop_
_space_group_symop_operation_xyz
x,y,z
x,-y,1/2+z
1/2+x,1/2+y,z
1/2+x,1/2-y,1/2+z
loop_
_atom_site_type_symbol
_atom_site_label
_atom_site_fract_x
_atom_site_fract_y
_atom_site_fract_z
Si Si1 0.338200 0.572947 0.177720
Si Si2 0.201392 0.029606 0.415112
Si Si3 0.968022 0.672490 0.073117
Si Si4 0.873158 0.421360 0.149556
Si Si5 0.015959 0.853201 0.311519
Si Si6 0.694464 0.920449 0.412200
Si Si7 0.783013 0.215400 0.354466
Si Si8 0.517536 0.003302 0.403934
O O1 0.387004 0.717758 0.140432
O O2 0.412934 0.428997 0.260138
O O3 0.298028 0.689913 0.243078
O O4 0.251802 0.504270 0.051432
O O5 0.266940 0.011923 0.562662
O O6 0.215047 0.226853 0.386397
O O7 0.232729 0.896048 0.346753
O O8 0.095863 0.995351 0.377930
O O9 0.930893 0.497913 0.095296
O O10 0.024656 0.775545 0.200452
O O11 0.883836 0.795497 0.978661
O O12 0.030437 0.600900 0.020637
O O13 0.912502 0.478107 0.289302
O O14 0.033541 0.710114 0.413746
O O15 0.717260 0.055161 0.338057
O O16 0.587170 0.921603 0.368573
#
# Coordination Sequence:
#
# PCOD8055303 Si02
#       8
#     4   4   4   4   4   4   4   4
#     4  11  23  40  71  96 135 181 230 283 351 406
#     4  10  23  42  67  94 141 176 224 287 341 401
#     4  10  22  41  69  97 139 181 228 282 350 409
#     4   9  21  41  64  94 134 178 225 286 336 407
#     4  11  23  42  69 102 140 180 232 289 344 416
#     4  11  24  43  67 102 138 177 230 289 340 411
#     4  11  22  45  68  97 135 178 227 285 346 408
#     4  11  22  40  71  96 138 183 230 283 348 408
#
# _framework density 22.125501
#
# number of rings (size 3 to 8) (size 9 to 14) (size 15 to 20)
#    0.000    1.500    3.750    0.750    1.750    3.000 
#    0.000    0.000   11.000    0.000    0.000    0.000 
#    0.000    0.000    0.000    0.000    0.000    0.000 
#
# Total GULP energy -198241.661868 kJ/mol
# GULP energy per Si atom -12390.103867 kJ/mol
# Density = 2.207514 g / cm^3
# Si number density = 22.125501 Si / 1000 Ang^3
#
#
#
# Elastic Constant Matrix: (Units=GPa)
#
#
# Indices 1 2 3 4 5 6 
#
# 1 82.7296 45.1832 27.5359 0.0000 5.2089 0.0000
# 2 45.1832 134.8469 21.3968 0.0000 -4.0419 0.0000
# 3 27.5359 21.3968 62.6046 0.0000 3.0687 0.0000
# 4 0.0000 0.0000 0.0000 29.3591 0.0000 6.9619
# 5 5.2089 -4.0419 3.0687 0.0000 29.9195 0.0000
# 6 0.0000 0.0000 0.0000 6.9619 0.0000 31.3935
#
#
#
# Elastic Compliance Matrix: (Units=1/GPa)
#
#
# Indices 1 2 3 4 5 6 
#
# 1 0.016768 -0.004823 -0.005580 0.000000 -0.002998 0.000000
# 2 -0.004823 0.009282 -0.001160 0.000000 0.002213 0.000000
# 3 -0.005580 -0.001160 0.018879 0.000000 -0.001122 0.000000
# 4 0.000000 0.000000 0.000000 0.035952 0.000000 -0.007973
# 5 -0.002998 0.002213 -0.001122 0.000000 0.034359 0.000000
# 6 0.000000 0.000000 0.000000 -0.007973 0.000000 0.033622
#
#
# Mechanical properties :
#
#
# Convention : Reuss Voigt Hill
#
# Bulk Modulus (GPa) = 45.86286 52.04588 48.95437
# Shear Modulus (GPa) = 27.89351 30.53875 29.21613
#
# Velocity S-wave (km/s) = 3.55448 3.71920 3.63777
# Velocity P-wave (km/s) = 6.13345 6.48208 6.31018
#
# Compressibility (1/GPa) = 0.02180413
#
# Stress axis : x y z
#
# Youngs Moduli (GPa) = 59.63898 107.73390 52.96964
#
# Poissons Ratio (x) = 0.51958 0.29556
# Poissons Ratio (y) = 0.28763 0.06142
# Poissons Ratio (z) = 0.33277 0.12493
#
# Static dielectric constant tensor:
#      x y z
#    x 3.829140 0.000000 0.249700 
#    y 0.000000 4.060270 0.000000 
#    z 0.249700 0.000000 4.074880 
# 
# 
# High freq. dielectric constant tensor:
#      x y z
#    x 1.857000 0.000000 0.021680 
#    y 0.000000 1.876900 0.000000 
#    z 0.021680 0.000000 1.859650 
# 
# From -- ./inp_files/19167.got.cif
#   From: 2010.06.25/outbox.cif.g09.slc.cpg/sg9_10_cif.got.tgz:19167.got - 2010.06.27 21:40:51.
