data_PCOD8055212
_publ_section_title
;
Structure prediction by ZEFSAII (Michael W. Deem and Ramdas Pophale) SiO2 
 PCOD8055212
Probable space group: C C
;
_chemical_formula_sum "Si O2"
_cell_formula_units_Z 32
_cell_length_a 13.591541
_cell_length_b 8.540405
_cell_length_c 21.629126
_cell_angle_alpha 90.000000
_cell_angle_beta 142.380909
_cell_angle_gamma 90.000000
_cell_volume 1532.523529
_symmetry_space_group_name_H-M "C C"
_symmetry_group_IT_number 9
_symmetry_cell_setting 'monoclinic'
loop_
_space_group_symop_operation_xyz
x,y,z
x,-y,1/2+z
1/2+x,1/2+y,z
1/2+x,1/2-y,1/2+z
loop_
_atom_site_type_symbol
_atom_site_label
_atom_site_fract_x
_atom_site_fract_y
_atom_site_fract_z
Si Si1 0.962860 0.140431 0.018450
Si Si2 0.697146 0.731225 0.898562
Si Si3 0.474253 0.398057 0.382010
Si Si4 0.134526 0.284661 0.208806
Si Si5 0.530036 0.485668 0.226932
Si Si6 0.373549 0.672228 0.254419
Si Si7 0.102619 0.568379 0.819322
Si Si8 0.032923 0.175381 0.606997
O O1 0.021609 0.286427 0.090915
O O2 0.001498 0.147936 0.966009
O O3 0.771307 0.130064 0.931300
O O4 0.066867 0.992563 0.093479
O O5 0.634267 0.671563 0.932635
O O6 0.668401 0.596462 0.834880
O O7 0.594688 0.885049 0.829431
O O8 0.888111 0.749205 0.996377
O O9 0.315903 0.312541 0.276063
O O10 0.450643 0.583124 0.352671
O O11 0.087353 0.415637 0.236879
O O12 0.124132 0.122256 0.239501
O O13 0.389668 0.556562 0.202027
O O14 0.470464 0.358926 0.146295
O O15 0.464900 0.835238 0.286715
O O16 0.187854 0.711695 0.177885
#
# Coordination Sequence:
#
# PCOD8055212 Si02
#       8
#     4   4   4   4   4   4   4   4
#     4   9  20  41  61  92 121 158 212 252 313 384
#     4  10  22  41  61  92 122 161 207 265 315 376
#     4  10  22  40  60  92 128 157 212 253 316 381
#     4   9  19  40  63  86 120 165 197 261 307 374
#     4   9  21  42  60  88 131 155 213 261 314 380
#     4  10  22  42  61  91 124 171 205 259 322 376
#     4   9  20  40  63  86 125 162 203 261 314 367
#     4  10  22  40  63  91 123 165 213 260 313 380
#
# _framework density 20.880593000000001
#
# number of rings (size 3 to 8) (size 9 to 14) (size 15 to 20)
#    0.000    2.500    0.000    0.000    8.750    2.000 
#   20.250    0.000    0.000    0.000    0.000    0.000 
#    0.000    0.000    0.000    0.000    0.000    0.000 
#
# Total GULP energy -198229.332734 kJ/mol
# GULP energy per Si atom -12389.333296 kJ/mol
# Density = 2.083307 g / cm^3
# Si number density = 20.880593 Si / 1000 Ang^3
#
#
#
# Elastic Constant Matrix: (Units=GPa)
#
#
# Indices 1 2 3 4 5 6 
#
# 1 81.0690 41.2745 45.3655 0.0000 -6.3069 0.0000
# 2 41.2745 73.3644 33.9569 0.0000 3.6597 0.0000
# 3 45.3655 33.9569 79.8220 0.0000 -13.1186 0.0000
# 4 0.0000 0.0000 0.0000 27.6419 0.0000 8.7100
# 5 -6.3069 3.6597 -13.1186 0.0000 27.8210 0.0000
# 6 0.0000 0.0000 0.0000 8.7100 0.0000 24.4127
#
#
#
# Elastic Compliance Matrix: (Units=1/GPa)
#
#
# Indices 1 2 3 4 5 6 
#
# 1 0.021335 -0.008275 -0.008272 0.000000 0.002024 0.000000
# 2 -0.008275 0.021198 -0.005508 0.000000 -0.007262 0.000000
# 3 -0.008272 -0.005508 0.021012 0.000000 0.008757 0.000000
# 4 0.000000 0.000000 0.000000 0.040759 0.000000 -0.014542
# 5 0.002024 -0.007262 0.008757 0.000000 0.041487 0.000000
# 6 0.000000 0.000000 0.000000 -0.014542 0.000000 0.046151
#
#
# Mechanical properties :
#
#
# Convention : Reuss Voigt Hill
#
# Bulk Modulus (GPa) = 51.45804 52.82767 52.14286
# Shear Modulus (GPa) = 20.61598 23.55236 22.08417
#
# Velocity S-wave (km/s) = 3.14559 3.36215 3.25567
# Velocity P-wave (km/s) = 6.15552 6.35821 6.25769
#
# Compressibility (1/GPa) = 0.01943331
#
# Stress axis : x y z
#
# Youngs Moduli (GPa) = 46.87180 47.17474 47.59241
#
# Poissons Ratio (x) = 0.39037 0.39370
# Poissons Ratio (y) = 0.38786 0.26215
# Poissons Ratio (z) = 0.38774 0.25985
#
# Static dielectric constant tensor:
#      x y z
#    x 3.889150 0.000000 -0.284550 
#    y 0.000000 3.895930 0.000000 
#    z -0.284550 0.000000 3.831690 
# 
# 
# High freq. dielectric constant tensor:
#      x y z
#    x 1.820020 0.000000 -0.013380 
#    y 0.000000 1.815990 0.000000 
#    z -0.013380 0.000000 1.804790 
# 
# From -- ./inp_files/17734.got.cif
#   From: 2010.06.25/outbox.cif.g09.slc.cpg/sg9_9_cif.got.tgz:17734.got - 2010.06.27 21:40:51.
