data_PCOD8055077
_publ_section_title
;
Structure prediction by ZEFSAII (Michael W. Deem and Ramdas Pophale) SiO2 
 PCOD8055077
Probable space group: C C
;
_chemical_formula_sum "Si O2"
_cell_formula_units_Z 32
_cell_length_a 21.838169
_cell_length_b 7.109028
_cell_length_c 9.244119
_cell_angle_alpha 90.000000
_cell_angle_beta 77.437555
_cell_angle_gamma 90.000000
_cell_volume 1400.774682
_symmetry_space_group_name_H-M "C C"
_symmetry_group_IT_number 9
_symmetry_cell_setting 'monoclinic'
loop_
_space_group_symop_operation_xyz
x,y,z
x,-y,1/2+z
1/2+x,1/2+y,z
1/2+x,1/2-y,1/2+z
loop_
_atom_site_type_symbol
_atom_site_label
_atom_site_fract_x
_atom_site_fract_y
_atom_site_fract_z
Si Si1 0.625000 0.589773 0.251400
Si Si2 0.585466 0.165677 0.224542
Si Si3 0.890895 0.649471 0.960246
Si Si4 0.708360 0.536355 0.477765
Si Si5 0.032699 0.635892 0.929941
Si Si6 0.722666 0.109189 0.169164
Si Si7 0.334539 0.122803 0.294600
Si Si8 0.302849 0.453458 0.895318
O O1 0.595742 0.381721 0.259922
O O2 0.665374 0.621485 0.374686
O O3 0.567108 0.732901 0.292534
O O4 0.669782 0.625590 0.086156
O O5 0.650046 0.045074 0.215141
O O6 0.536681 0.075809 0.363789
O O7 0.562043 0.149364 0.072953
O O8 0.892234 0.465538 0.855865
O O9 0.864546 0.827133 0.883283
O O10 0.960508 0.698737 0.976935
O O11 0.846616 0.601876 0.118920
O O12 0.722885 0.691989 0.590119
O O13 0.775420 0.486738 0.371279
O O14 0.752753 0.135653 0.310890
O O15 0.765391 0.957395 0.065358
O O16 0.324784 0.339727 0.337461
#
# Coordination Sequence:
#
# PCOD8055077 Si02
#       8
#     4   4   4   4   4   4   4   4
#     4  11  23  47  69 108 141 186 234 293 368 421
#     4  11  26  45  71 105 142 185 242 297 358 418
#     4  12  28  45  71 103 146 195 244 286 351 434
#     4  10  23  42  72 107 139 174 234 296 363 422
#     4  12  27  48  69 102 145 199 244 286 346 434
#     4  10  21  43  69 106 136 171 236 287 365 419
#     4  11  26  47  70 109 142 185 240 300 360 421
#     4  11  24  45  71 106 139 189 226 299 365 419
#
# _framework density 22.844501000000001
#
# number of rings (size 3 to 8) (size 9 to 14) (size 15 to 20)
#    0.000    1.000    3.750    2.250   10.500    3.000 
#    0.000    0.000    0.000    0.000    0.000    0.000 
#    0.000    0.000    0.000    0.000    0.000    0.000 
#
# Total GULP energy -198359.271503 kJ/mol
# GULP energy per Si atom -12397.454469 kJ/mol
# Density = 2.279251 g / cm^3
# Si number density = 22.844501 Si / 1000 Ang^3
#
#
#
# Elastic Constant Matrix: (Units=GPa)
#
#
# Indices 1 2 3 4 5 6 
#
# 1 138.2656 36.7550 42.8988 0.0000 12.3506 0.0000
# 2 36.7550 74.1832 25.0289 0.0000 3.6274 0.0000
# 3 42.8988 25.0289 97.5989 0.0000 9.5665 0.0000
# 4 0.0000 0.0000 0.0000 32.2328 0.0000 -1.1636
# 5 12.3506 3.6274 9.5665 0.0000 33.2844 0.0000
# 6 0.0000 0.0000 0.0000 -1.1636 0.0000 32.1445
#
#
#
# Elastic Compliance Matrix: (Units=1/GPa)
#
#
# Indices 1 2 3 4 5 6 
#
# 1 0.009277 -0.003488 -0.002967 0.000000 -0.002210 0.000000
# 2 -0.003488 0.016077 -0.002619 0.000000 0.000295 0.000000
# 3 -0.002967 -0.002619 0.012436 0.000000 -0.002188 0.000000
# 4 0.000000 0.000000 0.000000 0.031065 0.000000 0.001125
# 5 -0.002210 0.000295 -0.002188 0.000000 0.031461 0.000000
# 6 0.000000 0.000000 0.000000 0.001125 0.000000 0.031150
#
#
# Mechanical properties :
#
#
# Convention : Reuss Voigt Hill
#
# Bulk Modulus (GPa) = 50.90559 57.71255 54.30907
# Shear Modulus (GPa) = 32.01811 33.22334 32.62073
#
# Velocity S-wave (km/s) = 3.74781 3.81770 3.78292
# Velocity P-wave (km/s) = 6.40781 6.68963 6.55024
#
# Compressibility (1/GPa) = 0.01964421
#
# Stress axis : x y z
#
# Youngs Moduli (GPa) = 107.78832 62.19953 80.41072
#
# Poissons Ratio (x) = 0.21693 0.23857
# Poissons Ratio (y) = 0.37592 0.21059
# Poissons Ratio (z) = 0.31979 0.16290
#
# Static dielectric constant tensor:
#      x y z
#    x 4.182340 0.000000 -0.169990 
#    y 0.000000 3.956930 0.000000 
#    z -0.169990 0.000000 4.355880 
# 
# 
# High freq. dielectric constant tensor:
#      x y z
#    x 1.896020 0.000000 0.006010 
#    y 0.000000 1.897850 0.000000 
#    z 0.006010 0.000000 1.915940 
# 
# From -- ./inp_files/11333.got.cif
#   From: 2010.06.25/outbox.cif.g09.slc.cpg/sg9_6_cif.got.tgz:11333.got - 2010.06.27 21:40:51.
