data_PCOD8055983
_publ_section_title
;
Structure prediction by ZEFSAII (Michael W. Deem and Ramdas Pophale) SiO2 
 PCOD8055983
Probable space group: C C
;
_chemical_formula_sum "Si O2"
_cell_formula_units_Z 20
_cell_length_a 18.749164
_cell_length_b 4.728377
_cell_length_c 9.323393
_cell_angle_alpha 90.000000
_cell_angle_beta 65.262148
_cell_angle_gamma 90.000000
_cell_volume 750.697130
_symmetry_space_group_name_H-M "C C"
_symmetry_group_IT_number 9
_symmetry_cell_setting 'monoclinic'
loop_
_space_group_symop_operation_xyz
x,y,z
x,-y,1/2+z
1/2+x,1/2+y,z
1/2+x,1/2-y,1/2+z
loop_
_atom_site_type_symbol
_atom_site_label
_atom_site_fract_x
_atom_site_fract_y
_atom_site_fract_z
Si Si1 0.445470 0.295829 0.645990
Si Si2 0.390224 0.208636 0.016818
Si Si3 0.211991 0.897752 0.656335
Si Si4 0.623641 0.123710 0.325369
Si Si5 0.589780 0.669195 0.578382
O O1 0.422891 0.265324 0.830820
O O2 0.385626 0.502806 0.612649
O O3 0.533747 0.427013 0.557659
O O4 0.446098 0.997105 0.563338
O O5 0.305052 0.067460 0.076183
O O6 0.189154 0.571028 0.690450
O O7 0.170465 0.079649 0.823808
O O8 0.175434 0.032707 0.541732
O O9 0.557353 0.206866 0.259841
O O10 0.589173 0.952419 0.485451
#
# Coordination Sequence:
#
# PCOD8055983 Si02
#       5
#     4   4   4   4   4
#     4  12  30  53  82 117 173 216 269 341 411 504
#     4  12  29  54  81 121 167 219 272 334 425 485
#     4  10  26  47  82 114 158 212 270 341 391 494
#     4  10  25  45  82 113 155 203 278 337 388 476
#     4  10  28  49  81 117 159 212 275 331 405 479
#
# _framework density 26.641905999999999
#
# number of rings (size 3 to 8) (size 9 to 14) (size 15 to 20)
#    1.200    0.000    0.000    2.400   11.200    3.200 
#    0.000    0.000    0.000    0.000    0.000    0.000 
#    0.000    0.000    0.000    0.000    0.000    0.000 
#
# Total GULP energy -123903.310710 kJ/mol
# GULP energy per Si atom -12390.331071 kJ/mol
# Density = 2.658127 g / cm^3
# Si number density = 26.641906 Si / 1000 Ang^3
#
#
#
# Elastic Constant Matrix: (Units=GPa)
#
#
# Indices 1 2 3 4 5 6 
#
# 1 129.4429 10.4745 36.9148 0.0000 -1.1374 0.0000
# 2 10.4745 134.2417 30.6756 0.0000 23.3021 0.0000
# 3 36.9148 30.6756 162.4979 0.0000 37.6529 0.0000
# 4 0.0000 0.0000 0.0000 51.6348 0.0000 4.7784
# 5 -1.1374 23.3021 37.6529 0.0000 41.1986 0.0000
# 6 0.0000 0.0000 0.0000 4.7784 0.0000 50.7009
#
#
#
# Elastic Compliance Matrix: (Units=1/GPa)
#
#
# Indices 1 2 3 4 5 6 
#
# 1 0.008504 -0.000589 -0.002477 0.000000 0.002832 0.000000
# 2 -0.000589 0.008348 -0.000437 0.000000 -0.004339 0.000000
# 3 -0.002477 -0.000437 0.008573 0.000000 -0.007657 0.000000
# 4 0.000000 0.000000 0.000000 0.019537 0.000000 -0.001841
# 5 0.002832 -0.004339 -0.007657 0.000000 0.033803 0.000000
# 6 0.000000 0.000000 0.000000 -0.001841 0.000000 0.019897
#
#
# Mechanical properties :
#
#
# Convention : Reuss Voigt Hill
#
# Bulk Modulus (GPa) = 54.28795 64.70137 59.49466
# Shear Modulus (GPa) = 44.71950 51.91471 48.31710
#
# Velocity S-wave (km/s) = 4.10144 4.41910 4.26323
# Velocity P-wave (km/s) = 6.54601 7.09762 6.82739
#
# Compressibility (1/GPa) = 0.01842030
#
# Stress axis : x y z
#
# Youngs Moduli (GPa) = 117.58726 119.78672 116.64260
#
# Poissons Ratio (x) = 0.07057 0.28891
# Poissons Ratio (y) = 0.06927 0.05094
# Poissons Ratio (z) = 0.29125 0.05231
#
# Static dielectric constant tensor:
#      x y z
#    x 4.532590 0.000000 0.290410 
#    y 0.000000 5.139690 0.000000 
#    z 0.290410 0.000000 4.898840 
# 
# 
# High freq. dielectric constant tensor:
#      x y z
#    x 2.054920 0.000000 0.020640 
#    y 0.000000 2.103650 0.000000 
#    z 0.020640 0.000000 2.088950 
# 
# From -- ./inp_files/10236.got.cif
#   From: 2010.06.25/outbox.cif.g09.slc.cpg/sg9_6_cif.got.tgz:10236.got - 2010.06.27 21:40:51.
