data_PCOD8055364
_publ_section_title
;
Structure prediction by ZEFSAII (Michael W. Deem and Ramdas Pophale) SiO2 
 PCOD8055364
Probable space group: C C
;
_chemical_formula_sum "Si O2"
_cell_formula_units_Z 28
_cell_length_a 14.661197
_cell_length_b 10.740914
_cell_length_c 8.227355
_cell_angle_alpha 90.000000
_cell_angle_beta 112.003884
_cell_angle_gamma 90.000000
_cell_volume 1201.226405
_symmetry_space_group_name_H-M "C C"
_symmetry_group_IT_number 9
_symmetry_cell_setting 'monoclinic'
loop_
_space_group_symop_operation_xyz
x,y,z
x,-y,1/2+z
1/2+x,1/2+y,z
1/2+x,1/2-y,1/2+z
loop_
_atom_site_type_symbol
_atom_site_label
_atom_site_fract_x
_atom_site_fract_y
_atom_site_fract_z
Si Si1 0.625000 0.160907 0.116320
Si Si2 0.566798 0.523774 0.798869
Si Si3 0.361661 0.079083 0.415733
Si Si4 0.175741 0.161223 0.134186
Si Si5 0.468589 0.660550 0.460590
Si Si6 0.588540 0.095194 0.463931
Si Si7 0.810373 0.674372 0.738142
O O1 0.604370 0.130397 0.289080
O O2 0.699239 0.277707 0.140705
O O3 0.528564 0.213444 0.961496
O O4 0.648327 0.032604 0.038821
O O5 0.617099 0.418780 0.725989
O O6 0.495691 0.622801 0.662671
O O7 0.492348 0.459703 0.871697
O O8 0.654937 0.598706 0.945446
O O9 0.292050 0.163260 0.252638
O O10 0.473202 0.084779 0.428451
O O11 0.354981 0.128721 0.595883
O O12 0.319745 0.938135 0.372912
O O13 0.136285 0.301492 0.112582
O O14 0.357646 0.700787 0.348150
#
# Coordination Sequence:
#
# PCOD8055364 Si02
#       7
#     4   4   4   4   4   4   4
#     4  12  28  47  71 110 152 197 245 320 374 448
#     4  10  22  42  72 104 146 195 236 323 361 445
#     4  12  26  47  81 110 144 207 254 308 373 458
#     4  11  23  44  73 106 144 188 256 297 380 438
#     4  11  23  46  70 104 151 187 256 297 385 437
#     4  12  28  48  74 109 155 197 243 318 382 442
#     4  12  28  46  79 109 150 199 260 311 373 462
#
# _framework density 23.309511000000001
#
# number of rings (size 3 to 8) (size 9 to 14) (size 15 to 20)
#    0.000    0.571    2.857    5.143    6.000    1.143 
#    5.143    0.000    0.000    0.000    0.000    0.000 
#    0.000    0.000    0.000    0.000    0.000    0.000 
#
# Total GULP energy -173558.484286 kJ/mol
# GULP energy per Si atom -12397.034592 kJ/mol
# Density = 2.325646 g / cm^3
# Si number density = 23.309511 Si / 1000 Ang^3
#
#
#
# Elastic Constant Matrix: (Units=GPa)
#
#
# Indices 1 2 3 4 5 6 
#
# 1 71.4608 20.7612 20.0207 0.0000 0.9581 0.0000
# 2 20.7612 137.7891 34.1849 0.0000 8.5914 0.0000
# 3 20.0207 34.1849 113.7214 0.0000 1.2821 0.0000
# 4 0.0000 0.0000 0.0000 55.5325 0.0000 9.6021
# 5 0.9581 8.5914 1.2821 0.0000 36.7689 0.0000
# 6 0.0000 0.0000 0.0000 9.6021 0.0000 32.2608
#
#
#
# Elastic Compliance Matrix: (Units=1/GPa)
#
#
# Indices 1 2 3 4 5 6 
#
# 1 0.015099 -0.001752 -0.002133 0.000000 0.000090 0.000000
# 2 -0.001752 0.008160 -0.002124 0.000000 -0.001787 0.000000
# 3 -0.002133 -0.002124 0.009805 0.000000 0.000210 0.000000
# 4 0.000000 0.000000 0.000000 0.018985 0.000000 -0.005651
# 5 0.000090 -0.001787 0.000210 0.000000 0.027605 0.000000
# 6 0.000000 0.000000 0.000000 -0.005651 0.000000 0.032679
#
#
# Mechanical properties :
#
#
# Convention : Reuss Voigt Hill
#
# Bulk Modulus (GPa) = 47.51346 52.54501 50.02924
# Shear Modulus (GPa) = 38.06192 41.44606 39.75399
#
# Velocity S-wave (km/s) = 4.04529 4.22130 4.13423
# Velocity P-wave (km/s) = 6.49978 6.80811 6.65573
#
# Compressibility (1/GPa) = 0.02104667
#
# Stress axis : x y z
#
# Youngs Moduli (GPa) = 66.23030 122.55138 101.98778
#
# Poissons Ratio (x) = 0.21465 0.21751
# Poissons Ratio (y) = 0.11600 0.21666
# Poissons Ratio (z) = 0.14125 0.26034
#
# Static dielectric constant tensor:
#      x y z
#    x 3.977110 0.000000 0.070380 
#    y 0.000000 4.516970 0.000000 
#    z 0.070380 0.000000 4.511190 
# 
# 
# High freq. dielectric constant tensor:
#      x y z
#    x 1.903340 0.000000 0.002670 
#    y 0.000000 1.937450 0.000000 
#    z 0.002670 0.000000 1.940230 
# 
# From -- ./inp_files/9305.got.cif
#   From: 2010.06.25/outbox.cif.g09.slc.cpg/sg9_5_cif.got.tgz:9305.got - 2010.06.27 21:40:51.
