data_PCOD8055461
_publ_section_title
;
Structure prediction by ZEFSAII (Michael W. Deem and Ramdas Pophale) SiO2 
 PCOD8055461
Probable space group: C C
;
_chemical_formula_sum "Si O2"
_cell_formula_units_Z 32
_cell_length_a 7.383769
_cell_length_b 12.380421
_cell_length_c 14.704937
_cell_angle_alpha 90.000000
_cell_angle_beta 75.980421
_cell_angle_gamma 90.000000
_cell_volume 1304.198729
_symmetry_space_group_name_H-M "C C"
_symmetry_group_IT_number 9
_symmetry_cell_setting 'monoclinic'
loop_
_space_group_symop_operation_xyz
x,y,z
x,-y,1/2+z
1/2+x,1/2+y,z
1/2+x,1/2-y,1/2+z
loop_
_atom_site_type_symbol
_atom_site_label
_atom_site_fract_x
_atom_site_fract_y
_atom_site_fract_z
Si Si1 0.804090 0.301186 0.924270
Si Si2 0.035349 0.061469 0.192862
Si Si3 0.098270 0.463465 0.939554
Si Si4 0.454042 0.859251 0.244110
Si Si5 0.782806 0.795867 0.618839
Si Si6 0.819681 0.127651 0.781693
Si Si7 0.950550 0.565904 0.139062
Si Si8 0.920242 0.191852 0.383387
O O1 0.888153 0.231077 0.830555
O O2 0.580456 0.314913 0.940468
O O3 0.909025 0.416520 0.916351
O O4 0.840432 0.236034 0.011346
O O5 0.892813 0.094548 0.130668
O O6 0.998341 0.131026 0.286055
O O7 0.241144 0.088433 0.131440
O O8 0.000366 0.934376 0.219699
O O9 0.195660 0.547959 0.860793
O O10 0.232405 0.360944 0.943239
O O11 0.062542 0.515135 0.041612
O O12 0.343517 0.800603 0.176988
O O13 0.678915 0.835249 0.218131
O O14 0.430379 0.987129 0.229489
O O15 0.379788 0.815400 0.352289
O O16 0.561029 0.824847 0.654774
#
# Coordination Sequence:
#
# PCOD8055461 Si02
#       8
#     4   4   4   4   4   4   4   4
#     4  11  23  42  68 100 133 185 230 283 358 412
#     4  10  24  43  68  99 132 181 229 289 352 419
#     4  11  24  44  69  99 142 179 231 301 346 424
#     4  10  22  45  67  96 135 179 225 291 350 404
#     4  11  23  46  64  98 143 176 234 293 347 424
#     4  10  22  47  70  99 139 181 236 290 351 426
#     4  12  24  43  69 101 138 182 232 291 359 422
#     4   9  24  44  65  98 134 177 235 282 343 423
#
# _framework density 24.536137
#
# number of rings (size 3 to 8) (size 9 to 14) (size 15 to 20)
#    0.000    1.500    3.750    0.000    3.500    2.000 
#    4.500    0.000    0.000    0.000    0.000    0.000 
#    0.000    0.000    0.000    0.000    0.000    0.000 
#
# Total GULP energy -198322.369794 kJ/mol
# GULP energy per Si atom -12395.148112 kJ/mol
# Density = 2.448029 g / cm^3
# Si number density = 24.536137 Si / 1000 Ang^3
#
#
#
# Elastic Constant Matrix: (Units=GPa)
#
#
# Indices 1 2 3 4 5 6 
#
# 1 120.8303 5.2450 34.2438 0.0000 5.0369 0.0000
# 2 5.2450 47.4457 5.3364 0.0000 3.4304 0.0000
# 3 34.2438 5.3364 72.3621 0.0000 11.2134 0.0000
# 4 0.0000 0.0000 0.0000 35.2577 0.0000 2.3478
# 5 5.0369 3.4304 11.2134 0.0000 39.0567 0.0000
# 6 0.0000 0.0000 0.0000 2.3478 0.0000 47.1932
#
#
#
# Elastic Compliance Matrix: (Units=1/GPa)
#
#
# Indices 1 2 3 4 5 6 
#
# 1 0.009573 -0.000559 -0.004506 0.000000 0.000108 0.000000
# 2 -0.000559 0.021368 -0.001079 0.000000 -0.001495 0.000000
# 3 -0.004506 -0.001079 0.016668 0.000000 -0.004110 0.000000
# 4 0.000000 0.000000 0.000000 0.028457 0.000000 -0.001416
# 5 0.000108 -0.001495 -0.004110 0.000000 0.026901 0.000000
# 6 0.000000 0.000000 0.000000 -0.001416 0.000000 0.021260
#
#
# Mechanical properties :
#
#
# Convention : Reuss Voigt Hill
#
# Bulk Modulus (GPa) = 28.31256 36.69870 32.50563
# Shear Modulus (GPa) = 33.71801 37.35572 35.53686
#
# Velocity S-wave (km/s) = 3.71107 3.90613 3.80985
# Velocity P-wave (km/s) = 5.47055 5.94418 5.71227
#
# Compressibility (1/GPa) = 0.03532001
#
# Stress axis : x y z
#
# Youngs Moduli (GPa) = 104.46320 46.79885 59.99518
#
# Poissons Ratio (x) = 0.02617 0.27031
# Poissons Ratio (y) = 0.05843 0.06476
# Poissons Ratio (z) = 0.47067 0.05052
#
# Static dielectric constant tensor:
#      x y z
#    x 4.586430 0.000000 0.275050 
#    y 0.000000 4.731980 0.000000 
#    z 0.275050 0.000000 4.164970 
# 
# 
# High freq. dielectric constant tensor:
#      x y z
#    x 1.982120 0.000000 0.021570 
#    y 0.000000 1.980910 0.000000 
#    z 0.021570 0.000000 1.956360 
# 
# From -- ./inp_files/28603.got.cif
#   From: 2010.06.25/outbox.cif.g09.slc.cpg/sg9_15_cif.got.tgz:28603.got - 2010.06.27 21:40:51.
