data_PCOD8055835
_publ_section_title
;
Structure prediction by ZEFSAII (Michael W. Deem and Ramdas Pophale) SiO2 
 PCOD8055835
Probable space group: C C
;
_chemical_formula_sum "Si O2"
_cell_formula_units_Z 32
_cell_length_a 8.896463
_cell_length_b 29.121340
_cell_length_c 5.198190
_cell_angle_alpha 90.000000
_cell_angle_beta 82.345115
_cell_angle_gamma 90.000000
_cell_volume 1334.729538
_symmetry_space_group_name_H-M "C C"
_symmetry_group_IT_number 9
_symmetry_cell_setting 'monoclinic'
loop_
_space_group_symop_operation_xyz
x,y,z
x,-y,1/2+z
1/2+x,1/2+y,z
1/2+x,1/2-y,1/2+z
loop_
_atom_site_type_symbol
_atom_site_label
_atom_site_fract_x
_atom_site_fract_y
_atom_site_fract_z
Si Si1 0.642070 0.602074 0.785480
Si Si2 0.619969 0.028949 0.176982
Si Si3 0.235332 0.173060 0.125758
Si Si4 0.000197 0.269808 0.643018
Si Si5 0.463417 0.329681 0.023831
Si Si6 0.113758 0.680860 0.616606
Si Si7 0.419212 0.105988 0.445740
Si Si8 0.469307 0.528633 0.118335
O O1 0.503761 0.621072 0.644389
O O2 0.779714 0.576293 0.604352
O O3 0.733401 0.647763 0.853810
O O4 0.577109 0.571896 0.034577
O O5 0.517182 0.073310 0.240019
O O6 0.795442 0.044294 0.144550
O O7 0.583332 0.991780 0.406217
O O8 0.322235 0.221937 0.101404
O O9 0.339919 0.144524 0.294876
O O10 0.058279 0.175209 0.239302
O O11 0.046456 0.286617 0.912717
O O12 0.019153 0.215182 0.668336
O O13 0.100327 0.294930 0.398853
O O14 0.287000 0.329968 0.007875
O O15 0.028633 0.631397 0.628387
O O16 0.506083 0.510195 0.394894
#
# Coordination Sequence:
#
# PCOD8055835 Si02
#       8
#     4   4   4   4   4   4   4   4
#     4  11  25  44  69 102 142 183 234 286 352 416
#     4  10  24  43  69 102 135 176 228 287 348 420
#     4  10  24  45  64 100 141 181 230 293 342 415
#     4  11  25  46  67  97 143 181 233 290 348 406
#     4  11  27  40  71 101 135 187 234 287 347 413
#     4  11  26  44  69 100 133 184 234 284 344 410
#     4  10  24  44  67  98 139 182 226 289 346 417
#     4  10  25  46  70 102 140 180 227 290 351 419
#
# _framework density 23.974896999999999
#
# number of rings (size 3 to 8) (size 9 to 14) (size 15 to 20)
#    0.000    1.500    1.250    0.750   12.250    4.000 
#    0.000    0.000    0.000    0.000    0.000    0.000 
#    0.000    0.000    0.000    0.000    0.000    0.000 
#
# Total GULP energy -198312.284700 kJ/mol
# GULP energy per Si atom -12394.517794 kJ/mol
# Density = 2.392033 g / cm^3
# Si number density = 23.974897 Si / 1000 Ang^3
#
#
#
# Elastic Constant Matrix: (Units=GPa)
#
#
# Indices 1 2 3 4 5 6 
#
# 1 100.6139 22.2948 14.4437 0.0000 -32.9775 0.0000
# 2 22.2948 73.5430 13.1468 0.0000 -26.5871 0.0000
# 3 14.4437 13.1468 86.9884 0.0000 -21.0085 0.0000
# 4 0.0000 0.0000 0.0000 36.3742 0.0000 -12.1233
# 5 -32.9775 -26.5871 -21.0085 0.0000 38.1696 0.0000
# 6 0.0000 0.0000 0.0000 -12.1233 0.0000 20.1360
#
#
#
# Elastic Compliance Matrix: (Units=1/GPa)
#
#
# Indices 1 2 3 4 5 6 
#
# 1 0.013902 0.000189 0.000687 0.000000 0.012521 0.000000
# 2 0.000189 0.018186 0.000368 0.000000 0.013034 0.000000
# 3 0.000687 0.000368 0.013299 0.000000 0.008170 0.000000
# 4 0.000000 0.000000 0.000000 0.034394 0.000000 0.020707
# 5 0.012521 0.013034 0.008170 0.000000 0.050592 0.000000
# 6 0.000000 0.000000 0.000000 0.020707 0.000000 0.062130
#
#
# Mechanical properties :
#
#
# Convention : Reuss Voigt Hill
#
# Bulk Modulus (GPa) = 20.88729 40.10178 30.49453
# Shear Modulus (GPa) = 24.27494 33.01997 28.64745
#
# Velocity S-wave (km/s) = 3.18546 3.71519 3.46047
# Velocity P-wave (km/s) = 4.71811 5.93013 5.35850
#
# Compressibility (1/GPa) = 0.04787601
#
# Stress axis : x y z
#
# Youngs Moduli (GPa) = 71.92973 54.98663 75.19277
#
# Poissons Ratio (x) = -0.01041 -0.05166
# Poissons Ratio (y) = -0.01362 -0.02765
# Poissons Ratio (z) = -0.04942 -0.02022
#
# Static dielectric constant tensor:
#      x y z
#    x 4.408100 0.000000 -0.330830 
#    y 0.000000 4.165370 0.000000 
#    z -0.330830 0.000000 4.401150 
# 
# 
# High freq. dielectric constant tensor:
#      x y z
#    x 1.956040 0.000000 -0.016340 
#    y 0.000000 1.940280 0.000000 
#    z -0.016340 0.000000 1.958480 
# 
# From -- ./inp_files/1234.got.cif
#   From: 2010.06.25/outbox.cif.g09.slc.cpg/sg9_1_cif.got.tgz:1234.got - 2010.06.27 21:40:51.
