data_PCOD8055101
_publ_section_title
;
Structure prediction by ZEFSAII (Michael W. Deem and Ramdas Pophale) SiO2 
 PCOD8055101
Probable space group: C C
;
_chemical_formula_sum "Si O2"
_cell_formula_units_Z 32
_cell_length_a 16.168990
_cell_length_b 9.390794
_cell_length_c 10.977190
_cell_angle_alpha 90.000000
_cell_angle_beta 56.909554
_cell_angle_gamma 90.000000
_cell_volume 1396.438476
_symmetry_space_group_name_H-M "C C"
_symmetry_group_IT_number 9
_symmetry_cell_setting 'monoclinic'
loop_
_space_group_symop_operation_xyz
x,y,z
x,-y,1/2+z
1/2+x,1/2+y,z
1/2+x,1/2-y,1/2+z
loop_
_atom_site_type_symbol
_atom_site_label
_atom_site_fract_x
_atom_site_fract_y
_atom_site_fract_z
Si Si1 0.092610 0.731791 0.635730
Si Si2 0.902585 0.697658 0.538163
Si Si3 0.768615 0.677116 0.868553
Si Si4 0.468932 0.498195 0.537851
Si Si5 0.838391 0.374846 0.836767
Si Si6 0.144083 0.784572 0.856568
Si Si7 0.902237 0.912692 0.835904
Si Si8 0.523455 0.033000 0.057160
O O1 0.149640 0.816664 0.480403
O O2 0.160050 0.756960 0.700950
O O3 0.988418 0.798560 0.750875
O O4 0.073968 0.566792 0.618622
O O5 0.804892 0.677152 0.699917
O O6 0.973755 0.825365 0.527302
O O7 0.858177 0.719728 0.440216
O O8 0.974200 0.560763 0.489035
O O9 0.813307 0.536961 0.897226
O O10 0.801494 0.825421 0.904508
O O11 0.572894 0.580099 0.442985
O O12 0.417386 0.530088 0.712781
O O13 0.400894 0.529089 0.474522
O O14 0.749829 0.312117 0.829427
O O15 0.938419 0.367000 0.679807
O O16 0.105362 0.637108 0.940866
#
# Coordination Sequence:
#
# PCOD8055101 Si02
#       8
#     4   4   4   4   4   4   4   4
#     4  11  22  46  70  96 141 180 230 276 355 412
#     4  10  23  46  72 101 141 183 229 285 355 410
#     4  10  23  43  71  96 137 189 222 286 351 419
#     4  10  22  43  69 103 140 176 236 288 346 415
#     4  11  24  45  70 103 139 180 235 281 348 418
#     4  11  27  43  73 107 134 183 235 287 347 413
#     4  10  21  44  67 103 139 184 228 289 353 406
#     4  11  24  48  70 101 143 185 229 286 351 411
#
# _framework density 22.915438999999999
#
# number of rings (size 3 to 8) (size 9 to 14) (size 15 to 20)
#    0.000    1.500    3.750    1.500    7.000    1.000 
#   13.500    0.000    0.000    0.000    0.000    0.000 
#    0.000    0.000    0.000    0.000    0.000    0.000 
#
# Total GULP energy -198284.378259 kJ/mol
# GULP energy per Si atom -12392.773641 kJ/mol
# Density = 2.286328 g / cm^3
# Si number density = 22.915439 Si / 1000 Ang^3
#
#
#
# Elastic Constant Matrix: (Units=GPa)
#
#
# Indices 1 2 3 4 5 6 
#
# 1 103.0822 14.2949 36.4380 0.0000 29.4038 0.0000
# 2 14.2949 63.3082 27.4767 0.0000 4.6971 0.0000
# 3 36.4380 27.4767 82.9879 0.0000 12.3702 0.0000
# 4 0.0000 0.0000 0.0000 37.2547 0.0000 -0.8744
# 5 29.4038 4.6971 12.3702 0.0000 44.0962 0.0000
# 6 0.0000 0.0000 0.0000 -0.8744 0.0000 37.3311
#
#
#
# Elastic Compliance Matrix: (Units=1/GPa)
#
#
# Indices 1 2 3 4 5 6 
#
# 1 0.013621 -0.000475 -0.004673 0.000000 -0.007721 0.000000
# 2 -0.000475 0.018466 -0.005906 0.000000 0.000007 0.000000
# 3 -0.004673 -0.005906 0.016175 0.000000 -0.000793 0.000000
# 4 0.000000 0.000000 0.000000 0.026857 0.000000 0.000629
# 5 -0.007721 0.000007 -0.000793 0.000000 0.028048 0.000000
# 6 0.000000 0.000000 0.000000 0.000629 0.000000 0.026802
#
#
# Mechanical properties :
#
#
# Convention : Reuss Voigt Hill
#
# Bulk Modulus (GPa) = 38.23401 45.08861 41.66131
# Shear Modulus (GPa) = 31.09548 35.14763 33.12155
#
# Velocity S-wave (km/s) = 3.68770 3.92062 3.80594
# Velocity P-wave (km/s) = 5.90366 6.34144 6.12646
#
# Compressibility (1/GPa) = 0.02615473
#
# Stress axis : x y z
#
# Youngs Moduli (GPa) = 73.41629 54.15370 61.82266
#
# Poissons Ratio (x) = 0.02571 0.28887
# Poissons Ratio (y) = 0.03486 0.36515
# Poissons Ratio (z) = 0.34304 0.31986
#
# Static dielectric constant tensor:
#      x y z
#    x 4.199590 0.000000 0.387530 
#    y 0.000000 4.136230 0.000000 
#    z 0.387530 0.000000 4.275220 
# 
# 
# High freq. dielectric constant tensor:
#      x y z
#    x 1.902540 0.000000 0.006040 
#    y 0.000000 1.906420 0.000000 
#    z 0.006040 0.000000 1.904720 
# 
# From -- ./inp_files/17904.got.cif
#   From: 2010.06.25/outbox.cif.g09.slc.cpg/sg9_9_cif.got.tgz:17904.got - 2010.06.27 21:40:51.
