data_PCOD8055964
_publ_section_title
;
Structure prediction by ZEFSAII (Michael W. Deem and Ramdas Pophale) SiO2 
 PCOD8055964
Probable space group: C C
;
_chemical_formula_sum "Si O2"
_cell_formula_units_Z 28
_cell_length_a 11.470201
_cell_length_b 12.388848
_cell_length_c 11.716578
_cell_angle_alpha 90.000000
_cell_angle_beta 129.813713
_cell_angle_gamma 90.000000
_cell_volume 1278.903093
_symmetry_space_group_name_H-M "C C"
_symmetry_group_IT_number 9
_symmetry_cell_setting 'monoclinic'
loop_
_space_group_symop_operation_xyz
x,y,z
x,-y,1/2+z
1/2+x,1/2+y,z
1/2+x,1/2-y,1/2+z
loop_
_atom_site_type_symbol
_atom_site_label
_atom_site_fract_x
_atom_site_fract_y
_atom_site_fract_z
Si Si1 0.723150 0.843661 0.494490
Si Si2 0.173850 0.649340 0.217336
Si Si3 0.381267 0.712780 0.539973
Si Si4 0.012347 0.970217 0.620299
Si Si5 0.002270 0.523823 0.718582
Si Si6 0.772705 0.357458 0.670226
Si Si7 0.259840 0.872607 0.911455
O O1 0.748861 0.870805 0.642660
O O2 0.869465 0.891276 0.523809
O O3 0.564026 0.885594 0.343146
O O4 0.713466 0.715228 0.475783
O O5 0.275137 0.723040 0.362997
O O6 0.011775 0.703003 0.097640
O O7 0.152097 0.533106 0.261983
O O8 0.453611 0.593175 0.591195
O O9 0.281747 0.755226 0.587763
O O10 0.116033 0.930846 0.575218
O O11 0.117820 0.953513 0.799763
O O12 0.907940 0.439731 0.732946
O O13 0.905438 0.565988 0.551240
O O14 0.799993 0.312605 0.816204
#
# Coordination Sequence:
#
# PCOD8055964 Si02
#       7
#     4   4   4   4   4   4   4
#     4  12  25  45  70 105 142 182 247 300 366 443
#     4  11  28  43  71 106 139 189 241 301 368 449
#     4  11  25  49  73 105 143 190 243 298 373 435
#     4  10  25  47  70 109 139 194 235 304 366 430
#     4  11  23  48  70 101 142 189 235 303 373 430
#     4   9  25  46  73 103 143 191 242 297 365 448
#     4  10  25  44  71 105 136 193 235 299 371 429
#
# _framework density 21.893761999999999
#
# number of rings (size 3 to 8) (size 9 to 14) (size 15 to 20)
#    0.857    0.571    1.429    1.714   10.000    3.429 
#    0.000    0.000    0.000    0.000    0.000    0.000 
#    0.000    0.000    0.000    0.000    0.000    0.000 
#
# Total GULP energy -173464.476508 kJ/mol
# GULP energy per Si atom -12390.319751 kJ/mol
# Density = 2.184393 g / cm^3
# Si number density = 21.893762 Si / 1000 Ang^3
#
#
#
# Elastic Constant Matrix: (Units=GPa)
#
#
# Indices 1 2 3 4 5 6 
#
# 1 96.4308 37.0024 27.4592 0.0000 -3.6472 0.0000
# 2 37.0024 87.2409 18.0371 0.0000 -1.1020 0.0000
# 3 27.4592 18.0371 136.4317 0.0000 3.7518 0.0000
# 4 0.0000 0.0000 0.0000 43.5031 0.0000 4.8997
# 5 -3.6472 -1.1020 3.7518 0.0000 29.5958 0.0000
# 6 0.0000 0.0000 0.0000 4.8997 0.0000 37.6574
#
#
#
# Elastic Compliance Matrix: (Units=1/GPa)
#
#
# Indices 1 2 3 4 5 6 
#
# 1 0.012937 -0.005057 -0.001981 0.000000 0.001657 0.000000
# 2 -0.005057 0.013773 -0.000803 0.000000 -0.000009 0.000000
# 3 -0.001981 -0.000803 0.007869 0.000000 -0.001272 0.000000
# 4 0.000000 0.000000 0.000000 0.023329 0.000000 -0.003035
# 5 0.001657 -0.000009 -0.001272 0.000000 0.034154 0.000000
# 6 0.000000 0.000000 0.000000 -0.003035 0.000000 0.026950
#
#
# Mechanical properties :
#
#
# Convention : Reuss Voigt Hill
#
# Bulk Modulus (GPa) = 52.91328 53.90011 53.40669
# Shear Modulus (GPa) = 35.46273 37.99157 36.72715
#
# Velocity S-wave (km/s) = 4.02900 4.17018 4.10019
# Velocity P-wave (km/s) = 6.77233 6.91806 6.84558
#
# Compressibility (1/GPa) = 0.01889885
#
# Stress axis : x y z
#
# Youngs Moduli (GPa) = 77.29621 72.60494 127.07320
#
# Poissons Ratio (x) = 0.36714 0.25172
# Poissons Ratio (y) = 0.39087 0.10203
# Poissons Ratio (z) = 0.15311 0.05830
#
# Static dielectric constant tensor:
#      x y z
#    x 3.994530 0.000000 0.016840 
#    y 0.000000 4.080420 0.000000 
#    z 0.016840 0.000000 3.925460 
# 
# 
# High freq. dielectric constant tensor:
#      x y z
#    x 1.860130 0.000000 0.007100 
#    y 0.000000 1.857320 0.000000 
#    z 0.007100 0.000000 1.866730 
# 
# From -- ./inp_files/16525.got.cif
#   From: 2010.06.25/outbox.cif.g09.slc.cpg/sg9_9_cif.got.tgz:16525.got - 2010.06.27 21:40:51.
