data_PCOD8055732
_publ_section_title
;
Structure prediction by ZEFSAII (Michael W. Deem and Ramdas Pophale) SiO2 
 PCOD8055732
Probable space group: C C
;
_chemical_formula_sum "Si O2"
_cell_formula_units_Z 32
_cell_length_a 11.383380
_cell_length_b 8.419773
_cell_length_c 14.980922
_cell_angle_alpha 90.000000
_cell_angle_beta 86.828972
_cell_angle_gamma 90.000000
_cell_volume 1433.655105
_symmetry_space_group_name_H-M "C C"
_symmetry_group_IT_number 9
_symmetry_cell_setting 'monoclinic'
loop_
_space_group_symop_operation_xyz
x,y,z
x,-y,1/2+z
1/2+x,1/2+y,z
1/2+x,1/2-y,1/2+z
loop_
_atom_site_type_symbol
_atom_site_label
_atom_site_fract_x
_atom_site_fract_y
_atom_site_fract_z
Si Si1 0.167710 0.658631 0.390830
Si Si2 0.450028 0.667929 0.966956
Si Si3 0.320622 0.195292 0.752825
Si Si4 0.759487 0.624641 0.556789
Si Si5 0.528235 0.861239 0.356615
Si Si6 0.350630 0.791489 0.509306
Si Si7 0.005812 0.089666 0.606608
Si Si8 0.981692 0.959370 0.793392
O O1 0.195979 0.793327 0.312922
O O2 0.137543 0.483915 0.351355
O O3 0.280642 0.659417 0.452835
O O4 0.053311 0.704868 0.451639
O O5 0.442572 0.564578 0.878281
O O6 0.327937 0.763332 0.984692
O O7 0.476334 0.571123 0.055315
O O8 0.311432 0.139469 0.653155
O O9 0.419232 0.082567 0.796218
O O10 0.362792 0.379466 0.758849
O O11 0.766882 0.439631 0.530521
O O12 0.622719 0.670394 0.559869
O O13 0.471032 0.844267 0.456433
O O14 0.570186 0.684180 0.321312
O O15 0.394968 0.708531 0.598914
O O16 0.035329 0.059604 0.709349
#
# Coordination Sequence:
#
# PCOD8055732 Si02
#       8
#     4   4   4   4   4   4   4   4
#     4  11  21  42  74 100 141 186 233 297 350 426
#     4  12  22  43  73  98 143 188 233 296 355 410
#     4   9  22  42  64 102 143 172 245 285 347 429
#     4  12  25  45  71 101 142 193 228 297 352 423
#     4   9  20  43  70  96 137 180 232 283 349 422
#     4  11  24  44  68 103 139 182 240 280 352 429
#     4  12  25  47  67 106 146 178 240 296 345 430
#     4  10  23  46  65 102 145 179 241 296 342 433
#
# _framework density 22.320568999999999
#
# number of rings (size 3 to 8) (size 9 to 14) (size 15 to 20)
#    0.750    0.500    5.000    0.750    0.000    4.000 
#    2.250    0.000    0.000    0.000    0.000    0.000 
#    0.000    0.000    0.000    0.000    0.000    0.000 
#
# Total GULP energy -198261.229160 kJ/mol
# GULP energy per Si atom -12391.326822 kJ/mol
# Density = 2.226977 g / cm^3
# Si number density = 22.320569 Si / 1000 Ang^3
#
#
#
# Elastic Constant Matrix: (Units=GPa)
#
#
# Indices 1 2 3 4 5 6 
#
# 1 91.2235 44.5038 27.6582 0.0000 -0.1189 0.0000
# 2 44.5038 101.3170 51.0069 0.0000 12.8118 0.0000
# 3 27.6582 51.0069 117.5615 0.0000 2.7838 0.0000
# 4 0.0000 0.0000 0.0000 33.6825 0.0000 3.0653
# 5 -0.1189 12.8118 2.7838 0.0000 28.3237 0.0000
# 6 0.0000 0.0000 0.0000 3.0653 0.0000 38.4269
#
#
#
# Elastic Compliance Matrix: (Units=1/GPa)
#
#
# Indices 1 2 3 4 5 6 
#
# 1 0.014241 -0.006281 -0.000696 0.000000 0.002969 0.000000
# 2 -0.006281 0.016207 -0.005392 0.000000 -0.006827 0.000000
# 3 -0.000696 -0.005392 0.010977 0.000000 0.001357 0.000000
# 4 0.000000 0.000000 0.000000 0.029906 0.000000 -0.002386
# 5 0.002969 -0.006827 0.001357 0.000000 0.038273 0.000000
# 6 0.000000 0.000000 0.000000 -0.002386 0.000000 0.026214
#
#
# Mechanical properties :
#
#
# Convention : Reuss Voigt Hill
#
# Bulk Modulus (GPa) = 59.92460 61.82663 60.87562
# Shear Modulus (GPa) = 30.09900 32.54882 31.32391
#
# Velocity S-wave (km/s) = 3.67616 3.82284 3.75022
# Velocity P-wave (km/s) = 6.70257 6.87350 6.78857
#
# Compressibility (1/GPa) = 0.01668764
#
# Stress axis : x y z
#
# Youngs Moduli (GPa) = 70.22036 61.70226 91.09641
#
# Poissons Ratio (x) = 0.38752 0.06338
# Poissons Ratio (y) = 0.44102 0.49123
# Poissons Ratio (z) = 0.04885 0.33273
#
# Static dielectric constant tensor:
#      x y z
#    x 3.935340 0.000000 -0.090800 
#    y 0.000000 3.863590 0.000000 
#    z -0.090800 0.000000 3.929230 
# 
# 
# High freq. dielectric constant tensor:
#      x y z
#    x 1.873220 0.000000 0.002030 
#    y 0.000000 1.863960 0.000000 
#    z 0.002030 0.000000 1.876930 
# 
# From -- ./inp_files/24384.got.cif
#   From: 2010.06.25/outbox.cif.g09.slc.cpg/sg9_13_cif.got.tgz:24384.got - 2010.06.27 21:40:51.
