data_PCOD8055997
_publ_section_title
;
Structure prediction by ZEFSAII (Michael W. Deem and Ramdas Pophale) SiO2 
 PCOD8055997
Probable space group: C C
;
_chemical_formula_sum "Si O2"
_cell_formula_units_Z 32
_cell_length_a 11.523208
_cell_length_b 19.026053
_cell_length_c 8.676617
_cell_angle_alpha 90.000000
_cell_angle_beta 131.303029
_cell_angle_gamma 90.000000
_cell_volume 1429.042072
_symmetry_space_group_name_H-M "C C"
_symmetry_group_IT_number 9
_symmetry_cell_setting 'monoclinic'
loop_
_space_group_symop_operation_xyz
x,y,z
x,-y,1/2+z
1/2+x,1/2+y,z
1/2+x,1/2-y,1/2+z
loop_
_atom_site_type_symbol
_atom_site_label
_atom_site_fract_x
_atom_site_fract_y
_atom_site_fract_z
Si Si1 0.841370 0.410150 0.208610
Si Si2 0.749785 0.537340 0.310579
Si Si3 0.400185 0.265106 0.076090
Si Si4 0.149058 0.646263 0.859321
Si Si5 0.888519 0.963951 0.446662
Si Si6 0.294839 0.587804 0.550924
Si Si7 0.681217 0.265006 0.127184
Si Si8 0.488968 0.146298 0.395023
O O1 0.810400 0.458704 0.328971
O O2 0.740900 0.339969 0.125663
O O3 0.022807 0.393609 0.353257
O O4 0.782072 0.457309 0.017957
O O5 0.569023 0.547593 0.128017
O O6 0.841983 0.597248 0.297771
O O7 0.397751 0.341983 0.148094
O O8 0.499966 0.262836 0.005508
O O9 0.433636 0.212197 0.245319
O O10 0.236140 0.251909 0.850708
O O11 0.069787 0.670823 0.627511
O O12 0.292873 0.595341 0.954645
O O13 0.215231 0.711566 0.016220
O O14 0.853763 0.961645 0.237348
O O15 0.830514 0.042735 0.431170
O O16 0.112521 0.602977 0.402920
#
# Coordination Sequence:
#
# PCOD8055997 Si02
#       8
#     4   4   4   4   4   4   4   4
#     4  11  25  45  67 103 136 183 225 281 346 402
#     4  11  25  42  71 101 139 177 230 282 338 409
#     4  12  26  45  71 102 139 179 230 282 341 407
#     4  10  25  47  70 102 136 184 226 284 346 404
#     4  11  25  42  71 101 139 177 230 282 338 409
#     4  11  25  45  67 103 136 183 225 281 346 402
#     4  12  26  45  71 102 139 179 230 282 341 407
#     4  10  25  47  70 102 136 184 226 284 346 404
#
# _framework density 22.392624000000001
#
# number of rings (size 3 to 8) (size 9 to 14) (size 15 to 20)
#    0.000    1.000    2.500    2.250    7.000    5.000 
#    0.000    0.000    0.000    0.000    0.000    0.000 
#    0.000    0.000    0.000    0.000    0.000    0.000 
#
# Total GULP energy -198387.419777 kJ/mol
# GULP energy per Si atom -12399.213736 kJ/mol
# Density = 2.234166 g / cm^3
# Si number density = 22.392624 Si / 1000 Ang^3
#
#
#
# Elastic Constant Matrix: (Units=GPa)
#
#
# Indices 1 2 3 4 5 6 
#
# 1 92.5679 45.9447 23.4033 0.0000 10.8839 0.0000
# 2 45.9447 149.2083 66.5932 0.0000 -9.9382 0.0000
# 3 23.4033 66.5932 105.2642 0.0000 -4.9278 0.0000
# 4 0.0000 0.0000 0.0000 31.2479 0.0000 -19.3613
# 5 10.8839 -9.9382 -4.9278 0.0000 28.8295 0.0000
# 6 0.0000 0.0000 0.0000 -19.3613 0.0000 41.5604
#
#
#
# Elastic Compliance Matrix: (Units=1/GPa)
#
#
# Indices 1 2 3 4 5 6 
#
# 1 0.014008 -0.004516 -0.000583 0.000000 -0.006945 0.000000
# 2 -0.004516 0.010939 -0.005705 0.000000 0.004501 0.000000
# 3 -0.000583 -0.005705 0.013263 0.000000 0.000520 0.000000
# 4 0.000000 0.000000 0.000000 0.044988 0.000000 0.020958
# 5 -0.006945 0.004501 0.000520 0.000000 0.038949 0.000000
# 6 0.000000 0.000000 0.000000 0.020958 0.000000 0.033825
#
#
# Mechanical properties :
#
#
# Convention : Reuss Voigt Hill
#
# Bulk Modulus (GPa) = 60.23340 68.76920 64.50130
# Shear Modulus (GPa) = 27.30542 34.40084 30.85313
#
# Velocity S-wave (km/s) = 3.49577 3.92376 3.71593
# Velocity P-wave (km/s) = 6.57655 7.16277 6.87591
#
# Compressibility (1/GPa) = 0.01660208
#
# Stress axis : x y z
#
# Youngs Moduli (GPa) = 71.38688 91.41776 75.39641
#
# Poissons Ratio (x) = 0.41284 0.04393
# Poissons Ratio (y) = 0.32238 0.43017
# Poissons Ratio (z) = 0.04159 0.52158
#
# Static dielectric constant tensor:
#      x y z
#    x 4.303270 0.000000 0.022590 
#    y 0.000000 3.969740 0.000000 
#    z 0.022590 0.000000 4.088430 
# 
# 
# High freq. dielectric constant tensor:
#      x y z
#    x 1.903070 0.000000 0.001060 
#    y 0.000000 1.885100 0.000000 
#    z 0.001060 0.000000 1.885020 
# 
# From -- ./inp_files/8321.got.cif
#   From: 2010.06.25/outbox.cif.g09.slc.cpg/sg9_5_cif.got.tgz:8321.got - 2010.06.27 21:40:51.
