data_PCOD8055925
_publ_section_title
;
Structure prediction by ZEFSAII (Michael W. Deem and Ramdas Pophale) SiO2 
 PCOD8055925
Probable space group: C C
;
_chemical_formula_sum "Si O2"
_cell_formula_units_Z 32
_cell_length_a 9.555518
_cell_length_b 10.624026
_cell_length_c 14.122621
_cell_angle_alpha 90.000000
_cell_angle_beta 86.690448
_cell_angle_gamma 90.000000
_cell_volume 1431.310133
_symmetry_space_group_name_H-M "C C"
_symmetry_group_IT_number 9
_symmetry_cell_setting 'monoclinic'
loop_
_space_group_symop_operation_xyz
x,y,z
x,-y,1/2+z
1/2+x,1/2+y,z
1/2+x,1/2-y,1/2+z
loop_
_atom_site_type_symbol
_atom_site_label
_atom_site_fract_x
_atom_site_fract_y
_atom_site_fract_z
Si Si1 0.704960 0.371662 0.242890
Si Si2 0.380133 0.070639 0.440913
Si Si3 0.751112 0.715757 0.279782
Si Si4 0.238689 0.598442 0.213612
Si Si5 0.203869 0.937826 0.595922
Si Si6 0.429283 0.439621 0.329418
Si Si7 0.022651 0.415356 0.290435
Si Si8 0.918568 0.838245 0.528366
O O1 0.668088 0.225610 0.254279
O O2 0.669313 0.423543 0.139235
O O3 0.598720 0.445614 0.317375
O O4 0.868425 0.392459 0.257025
O O5 0.272817 0.115545 0.363206
O O6 0.424175 0.190244 0.502415
O O7 0.311787 0.959468 0.506252
O O8 0.513333 0.000815 0.386263
O O9 0.766135 0.645144 0.179207
O O10 0.874640 0.818330 0.273708
O O11 0.600079 0.782153 0.304359
O O12 0.360943 0.561609 0.283533
O O13 0.117853 0.492682 0.211261
O O14 0.299790 0.627754 0.108116
O O15 0.069101 0.867336 0.563858
O O16 0.383561 0.426537 0.440139
#
# Coordination Sequence:
#
# PCOD8055925 Si02
#       8
#     4   4   4   4   4   4   4   4
#     4  12  23  42  71  97 135 184 227 280 352 410
#     4  11  24  48  67 105 142 183 233 292 344 414
#     4  10  24  47  69 105 141 182 235 288 350 413
#     4  11  23  46  68 102 139 183 228 287 352 403
#     4  12  24  41  75 104 138 186 230 286 347 417
#     4  10  24  47  69  96 142 186 228 295 343 410
#     4  11  25  45  74 101 141 184 228 291 349 412
#     4  11  23  42  71 102 140 182 241 285 343 421
#
# _framework density 22.357137999999999
#
# number of rings (size 3 to 8) (size 9 to 14) (size 15 to 20)
#    0.000    1.000    3.750    3.000    0.000    0.000 
#    9.000    5.000    0.000    0.000    0.000    0.000 
#    0.000    0.000    0.000    0.000    0.000    0.000 
#
# Total GULP energy -198350.951901 kJ/mol
# GULP energy per Si atom -12396.934494 kJ/mol
# Density = 2.230625 g / cm^3
# Si number density = 22.357138 Si / 1000 Ang^3
#
#
#
# Elastic Constant Matrix: (Units=GPa)
#
#
# Indices 1 2 3 4 5 6 
#
# 1 110.8972 30.6406 32.8825 0.0000 1.7317 0.0000
# 2 30.6406 93.4392 48.8204 0.0000 6.8504 0.0000
# 3 32.8825 48.8204 119.8177 0.0000 -3.8026 0.0000
# 4 0.0000 0.0000 0.0000 42.3647 0.0000 -4.1494
# 5 1.7317 6.8504 -3.8026 0.0000 39.3559 0.0000
# 6 0.0000 0.0000 0.0000 -4.1494 0.0000 35.0216
#
#
#
# Elastic Compliance Matrix: (Units=1/GPa)
#
#
# Indices 1 2 3 4 5 6 
#
# 1 0.010224 -0.002372 -0.001846 0.000000 -0.000215 0.000000
# 2 -0.002372 0.014488 -0.005345 0.000000 -0.002934 0.000000
# 3 -0.001846 -0.005345 0.011097 0.000000 0.002084 0.000000
# 4 0.000000 0.000000 0.000000 0.023882 0.000000 0.002830
# 5 -0.000215 -0.002934 0.002084 0.000000 0.026131 0.000000
# 6 0.000000 0.000000 0.000000 0.002830 0.000000 0.028889
#
#
# Mechanical properties :
#
#
# Convention : Reuss Voigt Hill
#
# Bulk Modulus (GPa) = 59.94764 60.98235 60.46500
# Shear Modulus (GPa) = 35.86875 37.46912 36.66894
#
# Velocity S-wave (km/s) = 4.00978 4.09826 4.05426
# Velocity P-wave (km/s) = 6.95052 7.05195 7.00142
#
# Compressibility (1/GPa) = 0.01668122
#
# Stress axis : x y z
#
# Youngs Moduli (GPa) = 97.81373 69.02273 90.11666
#
# Poissons Ratio (x) = 0.16374 0.16635
# Poissons Ratio (y) = 0.23204 0.48170
# Poissons Ratio (z) = 0.18056 0.36895
#
# Static dielectric constant tensor:
#      x y z
#    x 4.014050 0.000000 -0.034550 
#    y 0.000000 4.363180 0.000000 
#    z -0.034550 0.000000 4.186070 
# 
# 
# High freq. dielectric constant tensor:
#      x y z
#    x 1.882670 0.000000 -0.005040 
#    y 0.000000 1.893880 0.000000 
#    z -0.005040 0.000000 1.875000 
# 
# From -- ./inp_files/22742.got.cif
#   From: 2010.06.25/outbox.cif.g09.slc.cpg/sg9_12_cif.got.tgz:22742.got - 2010.06.27 21:40:51.
