data_PCOD8055367
_publ_section_title
;
Structure prediction by ZEFSAII (Michael W. Deem and Ramdas Pophale) SiO2 
 PCOD8055367
Probable space group: C C
;
_chemical_formula_sum "Si O2"
_cell_formula_units_Z 32
_cell_length_a 6.911447
_cell_length_b 18.828748
_cell_length_c 13.907373
_cell_angle_alpha 90.000000
_cell_angle_beta 60.357820
_cell_angle_gamma 90.000000
_cell_volume 1572.971305
_symmetry_space_group_name_H-M "C C"
_symmetry_group_IT_number 9
_symmetry_cell_setting 'monoclinic'
loop_
_space_group_symop_operation_xyz
x,y,z
x,-y,1/2+z
1/2+x,1/2+y,z
1/2+x,1/2-y,1/2+z
loop_
_atom_site_type_symbol
_atom_site_label
_atom_site_fract_x
_atom_site_fract_y
_atom_site_fract_z
Si Si1 0.668350 0.058805 0.284040
Si Si2 0.001798 0.669351 0.003277
Si Si3 0.995360 0.814562 0.675445
Si Si4 0.182020 0.230505 0.614334
Si Si5 0.340066 0.438591 0.130078
Si Si6 0.196502 0.699420 0.756020
Si Si7 0.032146 0.534053 0.113670
Si Si8 0.328125 0.924019 0.038351
O O1 0.865033 0.116620 0.244846
O O2 0.504559 0.066611 0.229273
O O3 0.526842 0.062284 0.415461
O O4 0.789174 0.982313 0.241748
O O5 0.067075 0.667432 0.877073
O O6 0.734898 0.666316 0.073400
O O7 0.092321 0.597817 0.028722
O O8 0.115416 0.737819 0.025932
O O9 0.841032 0.783508 0.630527
O O10 0.039258 0.761255 0.753070
O O11 0.321144 0.157270 0.576411
O O12 0.944751 0.223779 0.728227
O O13 0.230457 0.360837 0.166426
O O14 0.240358 0.479490 0.062905
O O15 0.597215 0.435031 0.040893
O O16 0.835144 0.482552 0.123010
#
# Coordination Sequence:
#
# PCOD8055367 Si02
#       8
#     4   4   4   4   4   4   4   4
#     4  10  23  41  65  93 127 164 216 256 324 376
#     4  11  23  40  66  90 128 167 211 265 325 372
#     4  11  23  42  60  94 128 163 212 269 311 389
#     4  10  23  41  61  95 128 162 212 268 308 395
#     4   9  21  44  58  96 125 161 218 256 308 397
#     4  10  23  40  65  91 125 169 212 256 326 381
#     4  10  22  43  60  93 126 159 213 265 302 388
#     4  11  22  41  67  88 131 167 208 263 324 372
#
# _framework density 20.343664
#
# number of rings (size 3 to 8) (size 9 to 14) (size 15 to 20)
#    0.750    1.000    1.250    2.250    3.500    0.000 
#    9.000    0.000    0.000    0.000    0.000    0.000 
#    0.000    0.000    0.000    0.000    0.000    0.000 
#
# Total GULP energy -198228.506476 kJ/mol
# GULP energy per Si atom -12389.281655 kJ/mol
# Density = 2.029736 g / cm^3
# Si number density = 20.343664 Si / 1000 Ang^3
#
#
#
# Elastic Constant Matrix: (Units=GPa)
#
#
# Indices 1 2 3 4 5 6 
#
# 1 78.1107 33.4501 41.7400 0.0000 0.7565 0.0000
# 2 33.4501 99.7711 16.9549 0.0000 3.1287 0.0000
# 3 41.7400 16.9549 76.0658 0.0000 -11.7121 0.0000
# 4 0.0000 0.0000 0.0000 22.4651 0.0000 3.5661
# 5 0.7565 3.1287 -11.7121 0.0000 22.7509 0.0000
# 6 0.0000 0.0000 0.0000 3.5661 0.0000 50.1529
#
#
#
# Elastic Compliance Matrix: (Units=1/GPa)
#
#
# Indices 1 2 3 4 5 6 
#
# 1 0.021038 -0.004942 -0.011345 0.000000 -0.005860 0.000000
# 2 -0.004942 0.011752 -0.000143 0.000000 -0.001525 0.000000
# 3 -0.011345 -0.000143 0.021141 0.000000 0.011280 0.000000
# 4 0.000000 0.000000 0.000000 0.045022 0.000000 -0.003201
# 5 -0.005860 -0.001525 0.011280 0.000000 0.050166 0.000000
# 6 0.000000 0.000000 0.000000 -0.003201 0.000000 0.020167
#
#
# Mechanical properties :
#
#
# Convention : Reuss Voigt Hill
#
# Bulk Modulus (GPa) = 47.45744 48.69307 48.07525
# Shear Modulus (GPa) = 23.90441 29.86062 26.88251
#
# Velocity S-wave (km/s) = 3.43159 3.83536 3.63908
# Velocity P-wave (km/s) = 6.25137 6.60307 6.42962
#
# Compressibility (1/GPa) = 0.02107151
#
# Stress axis : x y z
#
# Youngs Moduli (GPa) = 47.53368 85.09354 47.30247
#
# Poissons Ratio (x) = 0.42050 0.53665
# Poissons Ratio (y) = 0.23489 0.00675
# Poissons Ratio (z) = 0.53927 0.01214
#
# Static dielectric constant tensor:
#      x y z
#    x 3.735390 0.000000 -0.002960 
#    y 0.000000 3.933050 0.000000 
#    z -0.002960 0.000000 3.311520 
# 
# 
# High freq. dielectric constant tensor:
#      x y z
#    x 1.799600 0.000000 -0.000420 
#    y 0.000000 1.816360 0.000000 
#    z -0.000420 0.000000 1.763150 
# 
# From -- ./inp_files/13483.got.cif
#   From: 2010.06.25/outbox.cif.g09.slc.cpg/sg9_7_cif.got.tgz:13483.got - 2010.06.27 21:40:51.
