data_PCOD8055107
_publ_section_title
;
Structure prediction by ZEFSAII (Michael W. Deem and Ramdas Pophale) SiO2 
 PCOD8055107
Probable space group: C C
;
_chemical_formula_sum "Si O2"
_cell_formula_units_Z 32
_cell_length_a 11.795333
_cell_length_b 14.071327
_cell_length_c 9.007931
_cell_angle_alpha 90.000000
_cell_angle_beta 71.445647
_cell_angle_gamma 90.000000
_cell_volume 1417.388255
_symmetry_space_group_name_H-M "C C"
_symmetry_group_IT_number 9
_symmetry_cell_setting 'monoclinic'
loop_
_space_group_symop_operation_xyz
x,y,z
x,-y,1/2+z
1/2+x,1/2+y,z
1/2+x,1/2-y,1/2+z
loop_
_atom_site_type_symbol
_atom_site_label
_atom_site_fract_x
_atom_site_fract_y
_atom_site_fract_z
Si Si1 0.388050 0.629131 0.920870
Si Si2 0.633749 0.496561 0.106559
Si Si3 0.310330 0.696527 0.642128
Si Si4 0.318845 0.861261 0.436679
Si Si5 0.586135 0.081111 0.820365
Si Si6 0.643370 0.886933 0.640523
Si Si7 0.635125 0.308359 0.285109
Si Si8 0.477166 0.562677 0.407512
O O1 0.360565 0.691103 0.786612
O O2 0.517244 0.662069 0.930229
O O3 0.392545 0.518416 0.869845
O O4 0.285823 0.635019 0.087467
O O5 0.752381 0.537438 0.979522
O O6 0.666791 0.393635 0.159297
O O7 0.587175 0.575506 0.246584
O O8 0.526656 0.480518 0.038586
O O9 0.306511 0.806947 0.599160
O O10 0.181064 0.645377 0.690865
O O11 0.399763 0.654893 0.478027
O O12 0.454413 0.882543 0.331022
O O13 0.249993 0.796233 0.343426
O O14 0.604163 0.971495 0.765883
O O15 0.602116 0.090083 0.990589
O O16 0.592522 0.787035 0.719064
#
# Coordination Sequence:
#
# PCOD8055107 Si02
#       8
#     4   4   4   4   4   4   4   4
#     4  10  21  44  69 102 130 187 248 293 343 420
#     4  11  24  43  71 103 138 182 244 295 355 411
#     4  11  24  43  71 102 142 186 243 286 358 431
#     4  12  28  44  70 110 149 189 232 304 367 426
#     4  11  28  46  69 111 147 192 232 300 369 427
#     4  11  26  46  75 102 150 191 239 297 363 429
#     4  11  25  45  72 107 137 195 242 293 359 425
#     4  11  20  41  75  95 135 176 248 300 336 417
#
# _framework density 22.576737000000001
#
# number of rings (size 3 to 8) (size 9 to 14) (size 15 to 20)
#    0.000    1.000    6.250    0.750    5.250    4.000 
#    0.000    0.000    0.000    0.000    0.000    0.000 
#    0.000    0.000    0.000    0.000    0.000    0.000 
#
# Total GULP energy -198300.708541 kJ/mol
# GULP energy per Si atom -12393.794284 kJ/mol
# Density = 2.252535 g / cm^3
# Si number density = 22.576737 Si / 1000 Ang^3
#
#
#
# Elastic Constant Matrix: (Units=GPa)
#
#
# Indices 1 2 3 4 5 6 
#
# 1 124.7041 31.9012 33.7815 0.0000 -15.1465 0.0000
# 2 31.9012 111.6706 31.3825 0.0000 -4.8132 0.0000
# 3 33.7815 31.3825 79.5889 0.0000 -0.1766 0.0000
# 4 0.0000 0.0000 0.0000 41.9736 0.0000 2.0457
# 5 -15.1465 -4.8132 -0.1766 0.0000 39.3843 0.0000
# 6 0.0000 0.0000 0.0000 2.0457 0.0000 24.1455
#
#
#
# Elastic Compliance Matrix: (Units=1/GPa)
#
#
# Indices 1 2 3 4 5 6 
#
# 1 0.009828 -0.001669 -0.003505 0.000000 0.003560 0.000000
# 2 -0.001669 0.010413 -0.003396 0.000000 0.000615 0.000000
# 3 -0.003505 -0.003396 0.015388 0.000000 -0.001694 0.000000
# 4 0.000000 0.000000 0.000000 0.023923 0.000000 -0.002027
# 5 0.003560 0.000615 -0.001694 0.000000 0.026828 0.000000
# 6 0.000000 0.000000 0.000000 -0.002027 0.000000 0.041587
#
#
# Mechanical properties :
#
#
# Convention : Reuss Voigt Hill
#
# Bulk Modulus (GPa) = 54.09095 56.67710 55.38402
# Shear Modulus (GPa) = 33.05354 35.69393 34.37374
#
# Velocity S-wave (km/s) = 3.83045 3.98050 3.90619
# Velocity P-wave (km/s) = 6.60105 6.80327 6.70292
#
# Compressibility (1/GPa) = 0.01848738
#
# Stress axis : x y z
#
# Youngs Moduli (GPa) = 101.75081 96.03766 64.98674
#
# Poissons Ratio (x) = 0.16029 0.22781
# Poissons Ratio (y) = 0.16982 0.22069
# Poissons Ratio (z) = 0.35668 0.32614
#
# Static dielectric constant tensor:
#      x y z
#    x 4.171140 0.000000 -0.117060 
#    y 0.000000 4.063540 0.000000 
#    z -0.117060 0.000000 4.122900 
# 
# 
# High freq. dielectric constant tensor:
#      x y z
#    x 1.895740 0.000000 -0.006120 
#    y 0.000000 1.884620 0.000000 
#    z -0.006120 0.000000 1.882880 
# 
# From -- ./inp_files/7581.got.cif
#   From: 2010.06.25/outbox.cif.g09.slc.cpg/sg9_4_cif.got.tgz:7581.got - 2010.06.27 21:40:51.
