data_PCOD8055509
_publ_section_title
;
Structure prediction by ZEFSAII (Michael W. Deem and Ramdas Pophale) SiO2 
 PCOD8055509
Probable space group: C C
;
_chemical_formula_sum "Si O2"
_cell_formula_units_Z 32
_cell_length_a 13.908036
_cell_length_b 14.197139
_cell_length_c 9.305252
_cell_angle_alpha 90.000000
_cell_angle_beta 46.452929
_cell_angle_gamma 90.000000
_cell_volume 1331.735954
_symmetry_space_group_name_H-M "C C"
_symmetry_group_IT_number 9
_symmetry_cell_setting 'monoclinic'
loop_
_space_group_symop_operation_xyz
x,y,z
x,-y,1/2+z
1/2+x,1/2+y,z
1/2+x,1/2-y,1/2+z
loop_
_atom_site_type_symbol
_atom_site_label
_atom_site_fract_x
_atom_site_fract_y
_atom_site_fract_z
Si Si1 0.134730 0.393564 0.447350
Si Si2 0.344978 0.092457 0.209001
Si Si3 0.360864 0.394130 0.993891
Si Si4 0.185252 0.997447 0.624568
Si Si5 0.850515 0.786269 0.724220
Si Si6 0.128052 0.862668 0.433197
Si Si7 0.473405 0.277588 0.109115
Si Si8 0.341773 0.403603 0.466035
O O1 0.228852 0.417979 0.218745
O O2 0.110057 0.279632 0.478488
O O3 0.205201 0.420908 0.522205
O O4 0.995107 0.448459 0.574998
O O5 0.291501 0.058232 0.111332
O O6 0.350979 0.206143 0.203026
O O7 0.256559 0.062231 0.433829
O O8 0.477769 0.351207 0.972868
O O9 0.313564 0.324809 0.918164
O O10 0.417761 0.495849 0.888050
O O11 0.105950 0.919709 0.607288
O O12 0.107706 0.067480 0.816450
O O13 0.774588 0.686589 0.777857
O O14 0.799694 0.863711 0.663511
O O15 0.012390 0.782539 0.545569
O O16 0.444645 0.332152 0.285770
#
# Coordination Sequence:
#
# PCOD8055509 Si02
#       8
#     4   4   4   4   4   4   4   4
#     4   9  23  41  70 101 143 202 234 297 363 452
#     4   9  20  40  73 105 143 189 250 296 366 431
#     4  11  24  45  67 110 145 189 243 306 364 429
#     4  10  22  48  74 106 140 198 248 308 354 456
#     4  12  28  46  74 113 149 193 241 319 364 437
#     4  11  28  48  78 108 151 191 250 301 379 430
#     4   9  21  43  67  95 140 195 237 285 364 442
#     4  11  24  45  67 110 145 189 243 306 364 429
#
# _framework density 24.028787000000001
#
# number of rings (size 3 to 8) (size 9 to 14) (size 15 to 20)
#    0.750    1.000    0.000    3.000    7.000    0.000 
#    4.500    0.000    0.000    0.000    0.000    0.000 
#    0.000    0.000    0.000    0.000    0.000    0.000 
#
# Total GULP energy -198275.074263 kJ/mol
# GULP energy per Si atom -12392.192141 kJ/mol
# Density = 2.397410 g / cm^3
# Si number density = 24.028787 Si / 1000 Ang^3
#
#
#
# Elastic Constant Matrix: (Units=GPa)
#
#
# Indices 1 2 3 4 5 6 
#
# 1 109.0171 31.8973 36.8781 0.0000 15.5248 0.0000
# 2 31.8973 115.6890 5.9840 0.0000 -0.4066 0.0000
# 3 36.8781 5.9840 64.8332 0.0000 7.6894 0.0000
# 4 0.0000 0.0000 0.0000 20.6130 0.0000 16.4625
# 5 15.5248 -0.4066 7.6894 0.0000 43.9085 0.0000
# 6 0.0000 0.0000 0.0000 16.4625 0.0000 31.0447
#
#
#
# Elastic Compliance Matrix: (Units=1/GPa)
#
#
# Indices 1 2 3 4 5 6 
#
# 1 0.012829 -0.003208 -0.006597 0.000000 -0.003410 0.000000
# 2 -0.003208 0.009490 0.000821 0.000000 0.001078 0.000000
# 3 -0.006597 0.000821 0.019222 0.000000 -0.001026 0.000000
# 4 0.000000 0.000000 0.000000 0.084152 0.000000 -0.044624
# 5 -0.003410 0.001078 -0.001026 0.000000 0.024170 0.000000
# 6 0.000000 0.000000 0.000000 -0.044624 0.000000 0.055875
#
#
# Mechanical properties :
#
#
# Convention : Reuss Voigt Hill
#
# Bulk Modulus (GPa) = 42.42026 48.78423 45.60224
# Shear Modulus (GPa) = 21.59245 33.43192 27.51219
#
# Velocity S-wave (km/s) = 3.00093 3.73410 3.38741
# Velocity P-wave (km/s) = 5.44974 6.24002 5.85822
#
# Compressibility (1/GPa) = 0.02357364
#
# Stress axis : x y z
#
# Youngs Moduli (GPa) = 77.95110 105.37806 52.02270
#
# Poissons Ratio (x) = 0.33803 0.34317
# Poissons Ratio (y) = 0.25005 -0.04270
# Poissons Ratio (z) = 0.51421 -0.08650
#
# Static dielectric constant tensor:
#      x y z
#    x 4.395760 0.000000 0.169390 
#    y 0.000000 4.310000 0.000000 
#    z 0.169390 0.000000 4.174440 
# 
# 
# High freq. dielectric constant tensor:
#      x y z
#    x 1.968920 0.000000 0.007400 
#    y 0.000000 1.948060 0.000000 
#    z 0.007400 0.000000 1.957970 
# 
# From -- ./inp_files/9686.got.cif
#   From: 2010.06.25/outbox.cif.g09.slc.cpg/sg9_5_cif.got.tgz:9686.got - 2010.06.27 21:40:51.
