data_PCOD8055007
_publ_section_title
;
Structure prediction by ZEFSAII (Michael W. Deem and Ramdas Pophale) SiO2 
 PCOD8055007
Probable space group: C C
;
_chemical_formula_sum "Si O2"
_cell_formula_units_Z 32
_cell_length_a 10.317319
_cell_length_b 14.936606
_cell_length_c 9.237402
_cell_angle_alpha 90.000000
_cell_angle_beta 99.358468
_cell_angle_gamma 90.000000
_cell_volume 1404.589713
_symmetry_space_group_name_H-M "C C"
_symmetry_group_IT_number 9
_symmetry_cell_setting 'monoclinic'
loop_
_space_group_symop_operation_xyz
x,y,z
x,-y,1/2+z
1/2+x,1/2+y,z
1/2+x,1/2-y,1/2+z
loop_
_atom_site_type_symbol
_atom_site_label
_atom_site_fract_x
_atom_site_fract_y
_atom_site_fract_z
Si Si1 0.679670 0.930574 0.014870
Si Si2 0.540930 0.958539 0.265037
Si Si3 0.487463 0.228199 0.436668
Si Si4 0.211769 0.836248 0.379467
Si Si5 0.921634 0.737075 0.745378
Si Si6 0.603386 0.493512 0.210114
Si Si7 0.960719 0.087481 0.419174
Si Si8 0.833764 0.611890 0.183110
O O1 0.668184 0.956548 0.181575
O O2 0.822579 0.925575 0.973141
O O3 0.612014 0.834917 0.985727
O O4 0.592601 0.006810 0.925520
O O5 0.488419 0.859026 0.282146
O O6 0.428953 0.026050 0.182879
O O7 0.557531 0.313695 0.377621
O O8 0.421888 0.260475 0.574821
O O9 0.380551 0.181811 0.314233
O O10 0.269641 0.770064 0.267134
O O11 0.208269 0.937377 0.322053
O O12 0.316304 0.832869 0.531138
O O13 0.986461 0.813412 0.858725
O O14 0.476802 0.520282 0.284851
O O15 0.567554 0.436994 0.060510
O O16 0.683766 0.583163 0.187536
#
# Coordination Sequence:
#
# PCOD8055007 Si02
#       8
#     4   4   4   4   4   4   4   4
#     4  10  21  42  67  96 145 178 237 283 360 425
#     4  10  21  41  72 104 131 191 235 293 347 430
#     4  10  25  44  70 107 141 187 237 302 356 426
#     4  12  24  46  68 106 142 186 237 299 360 422
#     4  11  24  43  73 102 144 180 244 292 359 422
#     4  12  27  44  72 101 143 193 240 292 366 430
#     4  12  26  47  68 105 146 189 235 303 359 429
#     4  11  24  45  74 105 144 188 245 298 355 436
#
# _framework density 22.782454999999999
#
# number of rings (size 3 to 8) (size 9 to 14) (size 15 to 20)
#    0.000    1.000    3.750    2.250    7.000    0.000 
#    0.000    1.250    0.000    0.000    0.000    0.000 
#    0.000    0.000    0.000    0.000    0.000    0.000 
#
# Total GULP energy -198312.481016 kJ/mol
# GULP energy per Si atom -12394.530064 kJ/mol
# Density = 2.273060 g / cm^3
# Si number density = 22.782455 Si / 1000 Ang^3
#
#
#
# Elastic Constant Matrix: (Units=GPa)
#
#
# Indices 1 2 3 4 5 6 
#
# 1 106.6224 32.0305 62.8581 0.0000 -16.9627 0.0000
# 2 32.0305 86.1779 53.3676 0.0000 -0.8799 0.0000
# 3 62.8581 53.3676 130.4732 0.0000 -19.6139 0.0000
# 4 0.0000 0.0000 0.0000 37.9972 0.0000 0.2968
# 5 -16.9627 -0.8799 -19.6139 0.0000 43.0146 0.0000
# 6 0.0000 0.0000 0.0000 0.2968 0.0000 35.9926
#
#
#
# Elastic Compliance Matrix: (Units=1/GPa)
#
#
# Indices 1 2 3 4 5 6 
#
# 1 0.013513 -0.001641 -0.005414 0.000000 0.002827 0.000000
# 2 -0.001641 0.016053 -0.006252 0.000000 -0.003170 0.000000
# 3 -0.005414 -0.006252 0.013409 0.000000 0.003851 0.000000
# 4 0.000000 0.000000 0.000000 0.026319 0.000000 -0.000217
# 5 0.002827 -0.003170 0.003851 0.000000 0.026054 0.000000
# 6 0.000000 0.000000 0.000000 -0.000217 0.000000 0.027785
#
#
# Mechanical properties :
#
#
# Convention : Reuss Voigt Hill
#
# Bulk Modulus (GPa) = 61.12067 68.86511 64.99289
# Shear Modulus (GPa) = 32.21587 35.06870 33.64228
#
# Velocity S-wave (km/s) = 3.76448 3.92763 3.84692
# Velocity P-wave (km/s) = 6.76619 7.13171 6.95135
#
# Compressibility (1/GPa) = 0.01636108
#
# Stress axis : x y z
#
# Youngs Moduli (GPa) = 74.00037 62.29257 74.57579
#
# Poissons Ratio (x) = 0.10222 0.40377
# Poissons Ratio (y) = 0.12143 0.46627
# Poissons Ratio (z) = 0.40066 0.38947
#
# Static dielectric constant tensor:
#      x y z
#    x 3.933850 0.000000 -0.360290 
#    y 0.000000 4.055090 0.000000 
#    z -0.360290 0.000000 4.302410 
# 
# 
# High freq. dielectric constant tensor:
#      x y z
#    x 1.889560 0.000000 -0.025880 
#    y 0.000000 1.900390 0.000000 
#    z -0.025880 0.000000 1.909050 
# 
# From -- ./inp_files/7466.got.cif
#   From: 2010.06.25/outbox.cif.g09.slc.cpg/sg9_4_cif.got.tgz:7466.got - 2010.06.27 21:40:51.
