data_PCOD8055286
_publ_section_title
;
Structure prediction by ZEFSAII (Michael W. Deem and Ramdas Pophale) SiO2 
 PCOD8055286
Probable space group: C C
;
_chemical_formula_sum "Si O2"
_cell_formula_units_Z 32
_cell_length_a 7.397286
_cell_length_b 15.688408
_cell_length_c 14.509920
_cell_angle_alpha 90.000000
_cell_angle_beta 65.841033
_cell_angle_gamma 90.000000
_cell_volume 1536.413036
_symmetry_space_group_name_H-M "C C"
_symmetry_group_IT_number 9
_symmetry_cell_setting 'monoclinic'
loop_
_space_group_symop_operation_xyz
x,y,z
x,-y,1/2+z
1/2+x,1/2+y,z
1/2+x,1/2-y,1/2+z
loop_
_atom_site_type_symbol
_atom_site_label
_atom_site_fract_x
_atom_site_fract_y
_atom_site_fract_z
Si Si1 0.325480 0.925285 0.886480
Si Si2 0.354784 0.464938 0.650363
Si Si3 0.222835 0.667306 0.321382
Si Si4 0.328252 0.186607 0.665119
Si Si5 0.010607 0.139733 0.589071
Si Si6 0.743715 0.231771 0.511625
Si Si7 0.917733 0.510997 0.175980
Si Si8 0.771517 0.421213 0.513674
O O1 0.489912 0.853151 0.868076
O O2 0.296941 0.946669 0.785187
O O3 0.124881 0.892382 0.974093
O O4 0.388967 0.014224 0.922448
O O5 0.338344 0.409095 0.746631
O O6 0.413327 0.561430 0.665735
O O7 0.532833 0.428095 0.550766
O O8 0.150406 0.465857 0.635656
O O9 0.260288 0.759273 0.267470
O O10 0.294413 0.673356 0.412454
O O11 0.509198 0.234044 0.577586
O O12 0.149504 0.190551 0.629649
O O13 0.386084 0.090602 0.680631
O O14 0.837959 0.199180 0.587008
O O15 0.831885 0.325668 0.475241
O O16 0.829052 0.554964 0.105272
#
# Coordination Sequence:
#
# PCOD8055286 Si02
#       8
#     4   4   4   4   4   4   4   4
#     4  10  23  43  65  95 129 173 226 263 338 395
#     4  10  22  41  66  94 125 177 217 261 335 391
#     4  11  24  44  68  94 139 174 220 277 330 397
#     4  12  23  44  66  97 139 170 220 280 329 390
#     4  11  24  42  68  96 133 173 223 277 331 396
#     4  12  25  41  68 101 133 176 222 274 334 391
#     4  11  22  41  68  94 130 176 214 273 329 401
#     4  11  23  44  65  95 134 173 218 275 332 387
#
# _framework density 20.827732999999998
#
# number of rings (size 3 to 8) (size 9 to 14) (size 15 to 20)
#    0.000    1.000    6.250    0.750    5.250    0.000 
#    0.000    0.000    0.000    0.000    0.000    0.000 
#    0.000    0.000    0.000    0.000    0.000    0.000 
#
# Total GULP energy -198388.064157 kJ/mol
# GULP energy per Si atom -12399.254010 kJ/mol
# Density = 2.078033 g / cm^3
# Si number density = 20.827733 Si / 1000 Ang^3
#
#
#
# Elastic Constant Matrix: (Units=GPa)
#
#
# Indices 1 2 3 4 5 6 
#
# 1 96.0223 32.4129 30.1020 0.0000 10.3473 0.0000
# 2 32.4129 110.2409 23.5806 0.0000 4.2327 0.0000
# 3 30.1020 23.5806 75.7098 0.0000 7.6316 0.0000
# 4 0.0000 0.0000 0.0000 38.1964 0.0000 1.5771
# 5 10.3473 4.2327 7.6316 0.0000 31.9408 0.0000
# 6 0.0000 0.0000 0.0000 1.5771 0.0000 17.2844
#
#
#
# Elastic Compliance Matrix: (Units=1/GPa)
#
#
# Indices 1 2 3 4 5 6 
#
# 1 0.012925 -0.002842 -0.003965 0.000000 -0.002863 0.000000
# 2 -0.002842 0.010354 -0.002100 0.000000 0.000050 0.000000
# 3 -0.003965 -0.002100 0.015658 0.000000 -0.002178 0.000000
# 4 0.000000 0.000000 0.000000 0.026279 0.000000 -0.002398
# 5 -0.002863 0.000050 -0.002178 0.000000 0.032749 0.000000
# 6 0.000000 0.000000 0.000000 -0.002398 0.000000 0.058074
#
#
# Mechanical properties :
#
#
# Convention : Reuss Voigt Hill
#
# Bulk Modulus (GPa) = 47.34144 50.46268 48.90206
# Shear Modulus (GPa) = 27.64014 30.54282 29.09148
#
# Velocity S-wave (km/s) = 3.64687 3.83358 3.74139
# Velocity P-wave (km/s) = 6.36492 6.62392 6.49571
#
# Compressibility (1/GPa) = 0.02112314
#
# Stress axis : x y z
#
# Youngs Moduli (GPa) = 77.36823 96.58170 63.86310
#
# Poissons Ratio (x) = 0.27450 0.25323
# Poissons Ratio (y) = 0.21989 0.13411
# Poissons Ratio (z) = 0.30678 0.20281
#
# Static dielectric constant tensor:
#      x y z
#    x 3.728320 0.000000 -0.100810 
#    y 0.000000 3.870720 0.000000 
#    z -0.100810 0.000000 3.745050 
# 
# 
# High freq. dielectric constant tensor:
#      x y z
#    x 1.813540 0.000000 -0.001710 
#    y 0.000000 1.824240 0.000000 
#    z -0.001710 0.000000 1.808760 
# 
# From -- ./inp_files/23194.got.cif
#   From: 2010.06.25/outbox.cif.g09.slc.cpg/sg9_12_cif.got.tgz:23194.got - 2010.06.27 21:40:51.
