data_PCOD8055035
_publ_section_title
;
Structure prediction by ZEFSAII (Michael W. Deem and Ramdas Pophale) SiO2 
 PCOD8055035
Probable space group: C C
;
_chemical_formula_sum "Si O2"
_cell_formula_units_Z 32
_cell_length_a 29.048813
_cell_length_b 4.930501
_cell_length_c 13.186661
_cell_angle_alpha 90.000000
_cell_angle_beta 131.465130
_cell_angle_gamma 90.000000
_cell_volume 1415.285719
_symmetry_space_group_name_H-M "C C"
_symmetry_group_IT_number 9
_symmetry_cell_setting 'monoclinic'
loop_
_space_group_symop_operation_xyz
x,y,z
x,-y,1/2+z
1/2+x,1/2+y,z
1/2+x,1/2-y,1/2+z
loop_
_atom_site_type_symbol
_atom_site_label
_atom_site_fract_x
_atom_site_fract_y
_atom_site_fract_z
Si Si1 0.936290 0.253386 0.518590
Si Si2 0.657470 0.040123 0.165144
Si Si3 0.660182 0.536625 0.034132
Si Si4 0.856248 0.257680 0.896230
Si Si5 0.522465 0.432682 0.324279
Si Si6 0.519527 0.923475 0.456242
Si Si7 0.273315 0.543474 0.954202
Si Si8 0.780007 0.561430 0.094636
O O1 0.895744 0.500335 0.504895
O O2 0.980515 0.142401 0.669365
O O3 0.973184 0.385064 0.480154
O O4 0.896711 0.999218 0.420700
O O5 0.659160 0.736478 0.127312
O O6 0.702620 0.034041 0.327186
O O7 0.679250 0.243841 0.107620
O O8 0.588802 0.127747 0.098525
O O9 0.709826 0.626775 0.023564
O O10 0.592455 0.543895 0.885265
O O11 0.805899 0.146738 0.900679
O O12 0.824573 0.401851 0.754605
O O13 0.502584 0.722897 0.339376
O O14 0.514107 0.225078 0.404812
O O15 0.302302 0.264648 0.038405
O O16 0.281773 0.756083 0.057076
#
# Coordination Sequence:
#
# PCOD8055035 Si02
#       8
#     4   4   4   4   4   4   4   4
#     4  12  26  44  71  95 133 189 226 269 336 412
#     4  10  21  42  69  98 140 170 212 286 343 391
#     4  10  21  42  69  98 141 168 213 288 339 396
#     4  12  28  46  65  97 143 178 229 285 324 400
#     4  10  23  43  67 101 133 172 221 280 338 395
#     4  10  23  43  68 100 135 171 220 283 334 399
#     4  12  26  43  70 102 133 182 227 278 342 403
#     4  12  26  43  69 103 132 182 228 277 342 402
#
# _framework density 22.610275999999999
#
# number of rings (size 3 to 8) (size 9 to 14) (size 15 to 20)
#    0.000    1.000    1.250    4.500    3.500    6.000 
#    2.250    0.000    0.000    0.000    0.000    0.000 
#    0.000    0.000    0.000    0.000    0.000    0.000 
#
# Total GULP energy -198433.877638 kJ/mol
# GULP energy per Si atom -12402.117352 kJ/mol
# Density = 2.255881 g / cm^3
# Si number density = 22.610276 Si / 1000 Ang^3
#
#
#
# Elastic Constant Matrix: (Units=GPa)
#
#
# Indices 1 2 3 4 5 6 
#
# 1 79.1536 22.4529 41.5394 0.0004 8.8021 0.0000
# 2 22.4529 102.9531 24.2727 0.0017 13.5486 -0.0065
# 3 41.5394 24.2727 102.3530 0.0005 8.3930 0.0000
# 4 0.0004 0.0017 0.0005 41.5065 0.0003 1.8920
# 5 8.8021 13.5486 8.3930 0.0003 21.9862 -0.0003
# 6 0.0000 -0.0065 0.0000 1.8920 -0.0003 31.2129
#
#
#
# Elastic Compliance Matrix: (Units=1/GPa)
#
#
# Indices 1 2 3 4 5 6 
#
# 1 0.016695 -0.001776 -0.006087 0.000000 -0.003266 0.000000
# 2 -0.001776 0.011187 -0.001471 0.000000 -0.005621 0.000002
# 3 -0.006087 -0.001471 0.012713 0.000000 -0.001510 0.000000
# 4 0.000000 0.000000 0.000000 0.024159 0.000000 -0.001464
# 5 -0.003266 -0.005621 -0.001510 0.000000 0.050831 -0.000001
# 6 0.000000 0.000002 0.000000 -0.001464 -0.000001 0.032127
#
#
# Mechanical properties :
#
#
# Convention : Reuss Voigt Hill
#
# Bulk Modulus (GPa) = 45.60560 51.22109 48.41334
# Shear Modulus (GPa) = 28.78716 32.02077 30.40396
#
# Velocity S-wave (km/s) = 3.57205 3.76733 3.67099
# Velocity P-wave (km/s) = 6.10138 6.45188 6.27908
#
# Compressibility (1/GPa) = 0.02192713
#
# Stress axis : x y z
#
# Youngs Moduli (GPa) = 59.89876 89.38852 78.65978
#
# Poissons Ratio (x) = 0.15877 0.47876
# Poissons Ratio (y) = 0.10639 0.11572
# Poissons Ratio (z) = 0.36457 0.13151
#
# Static dielectric constant tensor:
#      x y z
#    x 4.038120 0.000000 0.335200 
#    y 0.000000 4.314230 0.000000 
#    z 0.335200 0.000000 3.963560 
# 
# 
# High freq. dielectric constant tensor:
#      x y z
#    x 1.885470 0.000000 0.013940 
#    y 0.000000 1.914160 0.000000 
#    z 0.013940 0.000000 1.888170 
# 
# From -- ./inp_files/20555.got.cif
#   From: 2010.06.25/outbox.cif.g09.slc.cpg/sg9_11_cif.got.tgz:20555.got - 2010.06.27 21:40:51.
