data_PCOD8055011
_publ_section_title
;
Structure prediction by ZEFSAII (Michael W. Deem and Ramdas Pophale) SiO2 
 PCOD8055011
Probable space group: C C
;
_chemical_formula_sum "Si O2"
_cell_formula_units_Z 32
_cell_length_a 14.434864
_cell_length_b 9.891175
_cell_length_c 15.596679
_cell_angle_alpha 90.000000
_cell_angle_beta 38.062836
_cell_angle_gamma 90.000000
_cell_volume 1372.914931
_symmetry_space_group_name_H-M "C C"
_symmetry_group_IT_number 9
_symmetry_cell_setting 'monoclinic'
loop_
_space_group_symop_operation_xyz
x,y,z
x,-y,1/2+z
1/2+x,1/2+y,z
1/2+x,1/2-y,1/2+z
loop_
_atom_site_type_symbol
_atom_site_label
_atom_site_fract_x
_atom_site_fract_y
_atom_site_fract_z
Si Si1 0.404680 0.861936 0.119890
Si Si2 0.925480 0.383381 0.865278
Si Si3 0.681525 0.670641 0.940326
Si Si4 0.345886 0.829360 0.491302
Si Si5 0.610248 0.637970 0.750196
Si Si6 0.917161 0.637971 0.181434
Si Si7 0.101930 0.116619 0.566350
Si Si8 0.122731 0.861935 0.811739
O O1 0.306783 0.831751 0.275860
O O2 0.293883 0.841401 0.118133
O O3 0.456862 0.019564 0.084308
O O4 0.548803 0.768583 0.008111
O O5 0.917420 0.523210 0.922476
O O6 0.983174 0.408514 0.725358
O O7 0.763705 0.315595 0.965814
O O8 0.034305 0.278927 0.835213
O O9 0.763704 0.724938 0.965816
O O10 0.609989 0.523212 0.009153
O O11 0.220632 0.831750 0.655768
O O12 0.478610 0.731420 0.423514
O O13 0.544237 0.591485 0.706270
O O14 0.570547 0.519563 0.847321
O O15 0.733526 0.658598 0.313498
O O16 0.993103 0.778928 0.096418
#
# Coordination Sequence:
#
# PCOD8055011 Si02
#       8
#     4   4   4   4   4   4   4   4
#     4  11  24  42  65  94 125 162 211 256 304 371
#     4  10  21  42  63  85 129 164 201 257 314 359
#     4  11  23  42  66  90 130 163 205 256 312 365
#     4  11  23  42  66  90 130 163 205 256 312 365
#     4  10  23  40  62  91 122 164 208 254 307 366
#     4  10  23  40  62  91 122 164 208 254 307 366
#     4  10  21  42  63  85 129 164 201 257 314 359
#     4  11  24  42  65  94 125 162 211 256 304 371
#
# _framework density 23.308071999999999
#
# number of rings (size 3 to 8) (size 9 to 14) (size 15 to 20)
#    0.000    1.500    5.000    0.750    3.500    2.000 
#    4.500    0.000    0.000    0.000    0.000    0.000 
#    0.000    0.000    0.000    0.000    0.000    0.000 
#
# Total GULP energy -198329.856239 kJ/mol
# GULP energy per Si atom -12395.616015 kJ/mol
# Density = 2.325502 g / cm^3
# Si number density = 23.308072 Si / 1000 Ang^3
#
#
#
# Elastic Constant Matrix: (Units=GPa)
#
#
# Indices 1 2 3 4 5 6 
#
# 1 123.0990 59.1776 9.3231 0.0000 -10.2788 0.0000
# 2 59.1776 104.5314 13.8388 0.0000 -36.8442 0.0000
# 3 9.3231 13.8388 24.1144 0.0000 -4.6386 0.0000
# 4 0.0000 0.0000 0.0000 26.9829 0.0000 -26.1856
# 5 -10.2788 -36.8442 -4.6386 0.0000 41.6421 0.0000
# 6 0.0000 0.0000 0.0000 -26.1856 0.0000 38.3131
#
#
#
# Elastic Compliance Matrix: (Units=1/GPa)
#
#
# Indices 1 2 3 4 5 6 
#
# 1 0.011682 -0.008034 -0.000734 0.000000 -0.004307 0.000000
# 2 -0.008034 0.020249 -0.005569 0.000000 0.015313 0.000000
# 3 -0.000734 -0.005569 0.044929 0.000000 -0.000104 0.000000
# 4 0.000000 0.000000 0.000000 0.110060 0.000000 0.075222
# 5 -0.004307 0.015313 -0.000104 0.000000 0.036488 0.000000
# 6 0.000000 0.000000 0.000000 0.075222 0.000000 0.077512
#
#
# Mechanical properties :
#
#
# Convention : Reuss Voigt Hill
#
# Bulk Modulus (GPa) = 20.75322 46.26932 33.51127
# Shear Modulus (GPa) = 14.46523 32.68129 23.57326
#
# Velocity S-wave (km/s) = 2.49391 3.74858 3.18367
# Velocity P-wave (km/s) = 4.14921 6.21532 5.28423
#
# Compressibility (1/GPa) = 0.04818528
#
# Stress axis : x y z
#
# Youngs Moduli (GPa) = 85.60330 49.38416 22.25740
#
# Poissons Ratio (x) = 0.39676 0.01634
# Poissons Ratio (y) = 0.68775 0.12395
# Poissons Ratio (z) = 0.06285 0.27502
#
# Static dielectric constant tensor:
#      x y z
#    x 4.668610 0.000000 0.178780 
#    y 0.000000 4.167960 0.000000 
#    z 0.178780 0.000000 4.139230 
# 
# 
# High freq. dielectric constant tensor:
#      x y z
#    x 1.946700 0.000000 0.024270 
#    y 0.000000 1.908640 0.000000 
#    z 0.024270 0.000000 1.910620 
# 
# From -- ./inp_files/30622.got.cif
#   From: 2010.06.25/outbox.cif.g09.slc.cpg/sg9_16_cif.got.tgz:30622.got - 2010.06.27 21:40:51.
