data_PCOD8055577
_publ_section_title
;
Structure prediction by ZEFSAII (Michael W. Deem and Ramdas Pophale) SiO2 
 PCOD8055577
Probable space group: C C
;
_chemical_formula_sum "Si O2"
_cell_formula_units_Z 28
_cell_length_a 9.956976
_cell_length_b 11.279284
_cell_length_c 14.198862
_cell_angle_alpha 90.000000
_cell_angle_beta 133.063160
_cell_angle_gamma 90.000000
_cell_volume 1165.045976
_symmetry_space_group_name_H-M "C C"
_symmetry_group_IT_number 9
_symmetry_cell_setting 'monoclinic'
loop_
_space_group_symop_operation_xyz
x,y,z
x,-y,1/2+z
1/2+x,1/2+y,z
1/2+x,1/2-y,1/2+z
loop_
_atom_site_type_symbol
_atom_site_label
_atom_site_fract_x
_atom_site_fract_y
_atom_site_fract_z
Si Si1 0.742870 0.671793 0.685510
Si Si2 0.397545 0.945017 0.427845
Si Si3 0.878174 0.926726 0.369735
Si Si4 0.293523 0.570787 0.154273
Si Si5 0.849541 0.083824 0.523108
Si Si6 0.944148 0.668892 0.341644
Si Si7 0.804552 0.549283 0.097765
O O1 0.782410 0.654589 0.816404
O O2 0.840490 0.793002 0.698864
O O3 0.518823 0.666817 0.567366
O O4 0.847691 0.573883 0.672445
O O5 0.609721 0.927153 0.503799
O O6 0.394544 0.937721 0.539053
O O7 0.343715 0.073299 0.360484
O O8 0.855077 0.787839 0.340520
O O9 0.091849 0.952325 0.474432
O O10 0.772030 0.000172 0.240145
O O11 0.791059 0.978900 0.423159
O O12 0.427199 0.490650 0.151692
O O13 0.668921 0.166150 0.455456
O O14 0.877683 0.654539 0.200912
#
# Coordination Sequence:
#
# PCOD8055577 Si02
#       7
#     4   4   4   4   4   4   4
#     4  10  24  44  66 101 135 170 226 275 328 403
#     4  10  23  42  65  97 132 174 219 278 335 387
#     4  11  25  42  68  99 131 176 224 270 335 399
#     4  11  25  42  68  99 131 176 224 270 335 399
#     4  10  24  46  68 104 134 178 220 272 344 390
#     4  10  24  44  66 101 135 170 226 275 328 403
#     4  10  23  42  65  97 132 174 219 278 335 387
#
# _framework density 24.033387999999999
#
# number of rings (size 3 to 8) (size 9 to 14) (size 15 to 20)
#    0.000    1.714    0.000    1.714   12.000    2.286 
#    0.000    5.714    0.000    0.000    0.000    0.000 
#    0.000    0.000    0.000    0.000    0.000    0.000 
#
# Total GULP energy -173480.420589 kJ/mol
# GULP energy per Si atom -12391.458613 kJ/mol
# Density = 2.397869 g / cm^3
# Si number density = 24.033388 Si / 1000 Ang^3
#
#
#
# Elastic Constant Matrix: (Units=GPa)
#
#
# Indices 1 2 3 4 5 6 
#
# 1 29.9456 -9.7735 3.0033 0.0000 -16.9686 0.0000
# 2 -9.7735 108.9695 16.5992 0.0000 -12.1970 0.0000
# 3 3.0033 16.5992 104.8860 0.0000 -20.5192 0.0000
# 4 0.0000 0.0000 0.0000 30.2212 0.0000 -4.4060
# 5 -16.9686 -12.1970 -20.5192 0.0000 52.1465 0.0000
# 6 0.0000 0.0000 0.0000 -4.4060 0.0000 23.8689
#
#
#
# Elastic Compliance Matrix: (Units=1/GPa)
#
#
# Indices 1 2 3 4 5 6 
#
# 1 0.044255 0.005621 0.000994 0.000000 0.016107 0.000000
# 2 0.005621 0.010267 -0.001038 0.000000 0.003822 0.000000
# 3 0.000994 -0.001038 0.010494 0.000000 0.004210 0.000000
# 4 0.000000 0.000000 0.000000 0.034004 0.000000 0.006277
# 5 0.016107 0.003822 0.004210 0.000000 0.026968 0.000000
# 6 0.000000 0.000000 0.000000 0.006277 0.000000 0.043054
#
#
# Mechanical properties :
#
#
# Convention : Reuss Voigt Hill
#
# Bulk Modulus (GPa) = 13.12856 29.27322 21.20089
# Shear Modulus (GPa) = 27.28078 36.84546 32.06312
#
# Velocity S-wave (km/s) = 3.37281 3.91972 3.65651
# Velocity P-wave (km/s) = 4.54338 5.71772 5.16404
#
# Compressibility (1/GPa) = 0.07616980
#
# Stress axis : x y z
#
# Youngs Moduli (GPa) = 22.59607 97.40018 95.29641
#
# Poissons Ratio (x) = -0.54745 -0.09475
# Poissons Ratio (y) = -0.12701 0.09893
# Poissons Ratio (z) = -0.02247 0.10111
#
# Static dielectric constant tensor:
#      x y z
#    x 4.465350 0.000000 -0.231070 
#    y 0.000000 4.537490 0.000000 
#    z -0.231070 0.000000 4.466740 
# 
# 
# High freq. dielectric constant tensor:
#      x y z
#    x 1.935040 0.000000 -0.007850 
#    y 0.000000 1.952300 0.000000 
#    z -0.007850 0.000000 1.971880 
# 
# From -- ./inp_files/24686.got.cif
#   From: 2010.06.25/outbox.cif.g09.slc.cpg/sg9_13_cif.got.tgz:24686.got - 2010.06.27 21:40:51.
