data_PCOD8055414
_publ_section_title
;
Structure prediction by ZEFSAII (Michael W. Deem and Ramdas Pophale) SiO2 
 PCOD8055414
Probable space group: C C
;
_chemical_formula_sum "Si O2"
_cell_formula_units_Z 32
_cell_length_a 8.913318
_cell_length_b 12.094147
_cell_length_c 15.019884
_cell_angle_alpha 90.000000
_cell_angle_beta 65.141282
_cell_angle_gamma 90.000000
_cell_volume 1469.111290
_symmetry_space_group_name_H-M "C C"
_symmetry_group_IT_number 9
_symmetry_cell_setting 'monoclinic'
loop_
_space_group_symop_operation_xyz
x,y,z
x,-y,1/2+z
1/2+x,1/2+y,z
1/2+x,1/2-y,1/2+z
loop_
_atom_site_type_symbol
_atom_site_label
_atom_site_fract_x
_atom_site_fract_y
_atom_site_fract_z
Si Si1 0.349210 0.356052 0.152020
Si Si2 0.585295 0.836450 0.624846
Si Si3 0.610071 0.506051 0.029991
Si Si4 0.367660 0.832666 0.018905
Si Si5 0.148904 0.308324 0.805199
Si Si6 0.951707 0.954170 0.741593
Si Si7 0.189357 0.061136 0.815376
Si Si8 0.521477 0.927001 0.148634
O O1 0.414752 0.231002 0.150722
O O2 0.366299 0.426803 0.239773
O O3 0.161413 0.357829 0.165809
O O4 0.466638 0.414312 0.048213
O O5 0.744107 0.771883 0.547345
O O6 0.605502 0.866913 0.723812
O O7 0.583122 0.960041 0.583308
O O8 0.644254 0.571712 0.930917
O O9 0.774420 0.446394 0.022851
O O10 0.550719 0.585383 0.126795
O O11 0.451440 0.841458 0.094156
O O12 0.503546 0.818783 0.910775
O O13 0.317003 0.362419 0.802673
O O14 0.169804 0.180314 0.775467
O O15 0.074987 0.971163 0.794011
O O16 0.381511 0.031381 0.753540
#
# Coordination Sequence:
#
# PCOD8055414 Si02
#       8
#     4   4   4   4   4   4   4   4
#     4   9  21  41  68  95 133 174 232 274 339 410
#     4  11  22  48  68  96 134 187 217 292 344 401
#     4   9  21  43  64  93 140 175 217 294 333 400
#     4  11  25  45  65 102 137 174 241 272 348 421
#     4  12  24  39  73  99 132 186 228 275 357 414
#     4  10  22  44  66  97 141 176 224 289 339 408
#     4  12  24  43  69 100 139 181 231 288 347 412
#     4  12  23  43  71 100 136 181 228 290 343 404
#
# _framework density 21.781874999999999
#
# number of rings (size 3 to 8) (size 9 to 14) (size 15 to 20)
#    0.750    0.500    5.000    0.750    5.250    1.000 
#    2.250    0.000    0.000    0.000    0.000    0.000 
#    0.000    0.000    0.000    0.000    0.000    0.000 
#
# Total GULP energy -198320.911420 kJ/mol
# GULP energy per Si atom -12395.056964 kJ/mol
# Density = 2.173230 g / cm^3
# Si number density = 21.781875 Si / 1000 Ang^3
#
#
#
# Elastic Constant Matrix: (Units=GPa)
#
#
# Indices 1 2 3 4 5 6 
#
# 1 149.1368 22.2344 34.7339 0.0000 -16.7173 0.0000
# 2 22.2344 54.5071 -1.3613 0.0000 -17.5674 0.0000
# 3 34.7339 -1.3613 102.7299 0.0000 -22.4546 0.0000
# 4 0.0000 0.0000 0.0000 23.5719 0.0000 -0.7123
# 5 -16.7173 -17.5674 -22.4546 0.0000 28.9684 0.0000
# 6 0.0000 0.0000 0.0000 -0.7123 0.0000 34.3159
#
#
#
# Elastic Compliance Matrix: (Units=1/GPa)
#
#
# Indices 1 2 3 4 5 6 
#
# 1 0.007826 -0.003022 -0.002528 0.000000 0.000724 0.000000
# 2 -0.003022 0.025425 0.005234 0.000000 0.017732 0.000000
# 3 -0.002528 0.005234 0.013284 0.000000 0.012013 0.000000
# 4 0.000000 0.000000 0.000000 0.042450 0.000000 0.000881
# 5 0.000724 0.017732 0.012013 0.000000 0.055003 0.000000
# 6 0.000000 0.000000 0.000000 0.000881 0.000000 0.029159
#
#
# Mechanical properties :
#
#
# Convention : Reuss Voigt Hill
#
# Bulk Modulus (GPa) = 21.78466 46.39862 34.09164
# Shear Modulus (GPa) = 26.44411 34.08903 30.26657
#
# Velocity S-wave (km/s) = 3.48809 3.96032 3.73168
# Velocity P-wave (km/s) = 5.12302 6.50076 5.85258
#
# Compressibility (1/GPa) = 0.04590387
#
# Stress axis : x y z
#
# Youngs Moduli (GPa) = 127.78473 39.33204 75.27867
#
# Poissons Ratio (x) = 0.11886 0.19028
# Poissons Ratio (y) = 0.38616 -0.39404
# Poissons Ratio (z) = 0.32300 -0.20588
#
# Static dielectric constant tensor:
#      x y z
#    x 3.957030 0.000000 -0.195190 
#    y 0.000000 3.739790 0.000000 
#    z -0.195190 0.000000 3.691870 
# 
# 
# High freq. dielectric constant tensor:
#      x y z
#    x 1.863090 0.000000 -0.011680 
#    y 0.000000 1.845630 0.000000 
#    z -0.011680 0.000000 1.836830 
# 
# From -- ./inp_files/22692.got.cif
#   From: 2010.06.25/outbox.cif.g09.slc.cpg/sg9_12_cif.got.tgz:22692.got - 2010.06.27 21:40:51.
