data_PCOD8055747
_publ_section_title
;
Structure prediction by ZEFSAII (Michael W. Deem and Ramdas Pophale) SiO2 
 PCOD8055747
Probable space group: C C
;
_chemical_formula_sum "Si O2"
_cell_formula_units_Z 32
_cell_length_a 12.395565
_cell_length_b 13.751136
_cell_length_c 20.551476
_cell_angle_alpha 90.000000
_cell_angle_beta 154.935898
_cell_angle_gamma 90.000000
_cell_volume 1484.009379
_symmetry_space_group_name_H-M "C C"
_symmetry_group_IT_number 9
_symmetry_cell_setting 'monoclinic'
loop_
_space_group_symop_operation_xyz
x,y,z
x,-y,1/2+z
1/2+x,1/2+y,z
1/2+x,1/2-y,1/2+z
loop_
_atom_site_type_symbol
_atom_site_label
_atom_site_fract_x
_atom_site_fract_y
_atom_site_fract_z
Si Si1 0.186520 0.258908 0.312650
Si Si2 0.686146 0.771372 0.160062
Si Si3 0.214612 0.365339 0.553684
Si Si4 0.457760 0.106027 0.782559
Si Si5 0.968963 0.605134 0.242288
Si Si6 0.464702 0.730515 0.515322
Si Si7 0.892282 0.575156 0.053421
Si Si8 0.838938 0.019876 0.721055
O O1 0.394519 0.228750 0.479569
O O2 0.255181 0.272311 0.274551
O O3 0.998197 0.170211 0.218087
O O4 0.057860 0.358902 0.266892
O O5 0.810015 0.865776 0.196145
O O6 0.794789 0.677964 0.185512
O O7 0.219187 0.469616 0.591717
O O8 0.165479 0.373760 0.451086
O O9 0.013259 0.289739 0.475132
O O10 0.206857 0.164955 0.667388
O O11 0.435500 0.990830 0.767276
O O12 0.249145 0.649631 0.388782
O O13 0.857266 0.582546 0.111008
O O14 0.393426 0.812652 0.529375
O O15 0.647341 0.508982 0.897400
O O16 0.161891 0.522250 0.183273
#
# Coordination Sequence:
#
# PCOD8055747 Si02
#       8
#     4   4   4   4   4   4   4   4
#     4  11  24  46  70 101 141 179 232 289 351 428
#     4  12  25  43  69 103 142 182 227 294 356 420
#     4  10  23  46  71 102 133 186 234 288 349 424
#     4  11  25  44  72 101 137 183 233 292 358 421
#     4  12  27  42  70 102 141 180 233 294 355 424
#     4  10  24  46  69  98 139 185 232 291 352 428
#     4  11  24  47  71 104 140 189 238 291 360 434
#     4  11  24  44  72 101 137 188 237 287 357 431
#
# _framework density 21.563206000000001
#
# number of rings (size 3 to 8) (size 9 to 14) (size 15 to 20)
#    0.000    1.000    2.500    3.000    5.250    0.000 
#    4.500    0.000    0.000    0.000    0.000    0.000 
#    0.000    0.000    0.000    0.000    0.000    0.000 
#
# Total GULP energy -198296.053640 kJ/mol
# GULP energy per Si atom -12393.503352 kJ/mol
# Density = 2.151413 g / cm^3
# Si number density = 21.563206 Si / 1000 Ang^3
#
#
#
# Elastic Constant Matrix: (Units=GPa)
#
#
# Indices 1 2 3 4 5 6 
#
# 1 111.9062 88.3957 63.0479 0.0615 1.8474 -0.0357
# 2 88.3957 310.0087 99.9408 0.2306 19.6084 -0.1339
# 3 63.0479 99.9408 126.3047 0.0896 4.0439 -0.0277
# 4 0.0615 0.2306 0.0896 32.2902 0.0256 6.8273
# 5 1.8474 19.6084 4.0439 0.0256 40.4955 -0.0085
# 6 -0.0357 -0.1339 -0.0277 6.8273 -0.0085 29.6857
#
#
#
# Elastic Compliance Matrix: (Units=1/GPa)
#
#
# Indices 1 2 3 4 5 6 
#
# 1 0.013551 -0.002331 -0.004952 0.000004 0.001005 0.000001
# 2 -0.002331 0.004860 -0.002619 -0.000026 -0.001985 0.000022
# 3 -0.004952 -0.002619 0.012453 -0.000006 0.000250 -0.000005
# 4 0.000004 -0.000026 -0.000006 0.032552 -0.000009 -0.007487
# 5 0.001005 -0.001985 0.000250 -0.000009 0.025585 0.000002
# 6 0.000001 0.000022 -0.000005 -0.007487 0.000002 0.035408
#
#
# Mechanical properties :
#
#
# Convention : Reuss Voigt Hill
#
# Bulk Modulus (GPa) = 90.40628 116.77649 103.59138
# Shear Modulus (GPa) = 33.80692 40.28331 37.04511
#
# Velocity S-wave (km/s) = 3.96385 4.32690 4.14935
# Velocity P-wave (km/s) = 7.93515 8.90145 8.43215
#
# Compressibility (1/GPa) = 0.01106118
#
# Stress axis : x y z
#
# Youngs Moduli (GPa) = 73.79747 205.75502 80.30124
#
# Poissons Ratio (x) = 0.47962 0.39764
# Poissons Ratio (y) = 0.17202 0.21027
# Poissons Ratio (z) = 0.36543 0.53877
#
# Static dielectric constant tensor:
#      x y z
#    x 3.389330 0.000110 0.340070 
#    y 0.000110 3.993720 -0.000070 
#    z 0.340070 -0.000070 3.881580 
# 
# 
# High freq. dielectric constant tensor:
#      x y z
#    x 1.848620 0.000000 0.006060 
#    y 0.000000 1.859970 0.000000 
#    z 0.006060 0.000000 1.849800 
# 
# From -- ./inp_files/30148.got.cif
#   From: 2010.06.25/outbox.cif.g09.slc.cpg/sg9_16_cif.got.tgz:30148.got - 2010.06.27 21:40:51.
