data_PCOD8055715
_publ_section_title
;
Structure prediction by ZEFSAII (Michael W. Deem and Ramdas Pophale) SiO2 
 PCOD8055715
Probable space group: C C
;
_chemical_formula_sum "Si O2"
_cell_formula_units_Z 20
_cell_length_a 5.073126
_cell_length_b 13.031027
_cell_length_c 12.445735
_cell_angle_alpha 90.000000
_cell_angle_beta 93.802499
_cell_angle_gamma 90.000000
_cell_volume 820.951921
_symmetry_space_group_name_H-M "C C"
_symmetry_group_IT_number 9
_symmetry_cell_setting 'monoclinic'
loop_
_space_group_symop_operation_xyz
x,y,z
x,-y,1/2+z
1/2+x,1/2+y,z
1/2+x,1/2-y,1/2+z
loop_
_atom_site_type_symbol
_atom_site_label
_atom_site_fract_x
_atom_site_fract_y
_atom_site_fract_z
Si Si1 0.860770 0.539536 0.910600
Si Si2 0.459921 0.221883 0.783102
Si Si3 0.880323 0.032055 0.530651
Si Si4 0.419055 0.723184 0.650892
Si Si5 0.171501 0.082301 0.218477
O O1 0.905519 0.661910 0.893256
O O2 0.874745 0.486997 0.792431
O O3 0.570323 0.516040 0.946608
O O4 0.079721 0.496439 0.996600
O O5 0.719594 0.172739 0.733369
O O6 0.515433 0.343990 0.800388
O O7 0.217258 0.211156 0.695713
O O8 0.963263 0.986401 0.648604
O O9 0.893841 0.156656 0.540249
O O10 0.333547 0.844109 0.637326
#
# Coordination Sequence:
#
# PCOD8055715 Si02
#       5
#     4   4   4   4   4
#     4  12  27  44  74 108 139 184 241 289 349 420
#     4  10  23  45  72  98 141 188 232 277 360 414
#     4  12  27  44  74 108 139 184 241 289 349 420
#     4  10  23  45  72  98 141 188 232 277 360 414
#     4  10  28  46  76  94 156 186 222 306 348 404
#
# _framework density 24.361965000000001
#
# number of rings (size 3 to 8) (size 9 to 14) (size 15 to 20)
#    1.200    0.000    2.000    2.400    5.600    3.200 
#    0.000    0.000    0.000    0.000    0.000    0.000 
#    0.000    0.000    0.000    0.000    0.000    0.000 
#
# Total GULP energy -123923.894473 kJ/mol
# GULP energy per Si atom -12392.389447 kJ/mol
# Density = 2.430652 g / cm^3
# Si number density = 24.361965 Si / 1000 Ang^3
#
#
#
# Elastic Constant Matrix: (Units=GPa)
#
#
# Indices 1 2 3 4 5 6 
#
# 1 78.7602 12.6317 5.9333 0.0000 7.5189 0.0000
# 2 12.6317 108.4498 23.6999 0.0000 12.3950 0.0000
# 3 5.9333 23.6999 52.7935 0.0000 26.8404 0.0000
# 4 0.0000 0.0000 0.0000 16.2578 0.0000 -6.3668
# 5 7.5189 12.3950 26.8404 0.0000 51.1150 0.0000
# 6 0.0000 0.0000 0.0000 -6.3668 0.0000 31.9332
#
#
#
# Elastic Compliance Matrix: (Units=1/GPa)
#
#
# Indices 1 2 3 4 5 6 
#
# 1 0.013064 -0.001326 -0.000081 0.000000 -0.001558 0.000000
# 2 -0.001326 0.010359 -0.004534 0.000000 0.000064 0.000000
# 3 -0.000081 -0.004534 0.027858 0.000000 -0.013517 0.000000
# 4 0.000000 0.000000 0.000000 0.066718 0.000000 0.013302
# 5 -0.001558 0.000064 -0.013517 0.000000 0.026875 0.000000
# 6 0.000000 0.000000 0.000000 0.013302 0.000000 0.033968
#
#
# Mechanical properties :
#
#
# Convention : Reuss Voigt Hill
#
# Bulk Modulus (GPa) = 25.38081 36.05925 30.72003
# Shear Modulus (GPa) = 24.52702 33.04375 28.78538
#
# Velocity S-wave (km/s) = 3.17641 3.68688 3.44113
# Velocity P-wave (km/s) = 4.88811 5.74088 5.33157
#
# Compressibility (1/GPa) = 0.03939985
#
# Stress axis : x y z
#
# Youngs Moduli (GPa) = 76.54489 96.53667 35.89617
#
# Poissons Ratio (x) = 0.12800 0.00291
# Poissons Ratio (y) = 0.10149 0.16274
# Poissons Ratio (z) = 0.00621 0.43766
#
# Static dielectric constant tensor:
#      x y z
#    x 4.114910 0.000000 0.015630 
#    y 0.000000 4.694410 0.000000 
#    z 0.015630 0.000000 3.918940 
# 
# 
# High freq. dielectric constant tensor:
#      x y z
#    x 1.968010 0.000000 0.008600 
#    y 0.000000 1.981090 0.000000 
#    z 0.008600 0.000000 1.942430 
# 
# From -- ./inp_files/12869.got.cif
#   From: 2010.06.25/outbox.cif.g09.slc.cpg/sg9_7_cif.got.tgz:12869.got - 2010.06.27 21:40:51.
