data_PCOD8055311
_publ_section_title
;
Structure prediction by ZEFSAII (Michael W. Deem and Ramdas Pophale) SiO2 
 PCOD8055311
Probable space group: C C
;
_chemical_formula_sum "Si O2"
_cell_formula_units_Z 28
_cell_length_a 10.634951
_cell_length_b 15.512471
_cell_length_c 12.975356
_cell_angle_alpha 90.000000
_cell_angle_beta 145.885537
_cell_angle_gamma 90.000000
_cell_volume 1200.551887
_symmetry_space_group_name_H-M "C C"
_symmetry_group_IT_number 9
_symmetry_cell_setting 'monoclinic'
loop_
_space_group_symop_operation_xyz
x,y,z
x,-y,1/2+z
1/2+x,1/2+y,z
1/2+x,1/2-y,1/2+z
loop_
_atom_site_type_symbol
_atom_site_label
_atom_site_fract_x
_atom_site_fract_y
_atom_site_fract_z
Si Si1 0.742930 0.189449 0.786800
Si Si2 0.993969 0.362895 0.702388
Si Si3 0.402325 0.011321 0.803620
Si Si4 0.539889 0.671718 0.801280
Si Si5 0.946977 0.075951 0.529313
Si Si6 0.802658 0.630710 0.393781
Si Si7 0.334493 0.598468 0.047931
O O1 0.774921 0.292244 0.790808
O O2 0.488631 0.154679 0.603919
O O3 0.903966 0.142319 0.812090
O O4 0.801541 0.177776 0.946930
O O5 0.006717 0.273899 0.772909
O O6 0.933053 0.444788 0.731555
O O7 0.802210 0.354633 0.485691
O O8 0.244382 0.380859 0.824888
O O9 0.190997 0.076606 0.640672
O O10 0.375180 0.958473 0.890196
O O11 0.614959 0.074539 0.963987
O O12 0.438350 0.624188 0.633964
O O13 0.892245 0.976552 0.506913
O O14 0.549768 0.616394 0.268815
#
# Coordination Sequence:
#
# PCOD8055311 Si02
#       7
#     4   4   4   4   4   4   4
#     4  12  21  36  67  97 116 156 213 262 298 355
#     4  11  21  38  66  93 119 159 210 256 303 356
#     4  10  22  42  60  90 134 162 194 256 314 364
#     4  12  21  36  67  97 116 156 213 262 298 355
#     4  10  23  40  59  92 132 158 200 256 310 363
#     4  11  21  38  66  93 119 159 210 256 303 356
#     4  10  23  40  59  92 132 158 200 256 310 363
#
# _framework density 23.322607000000001
#
# number of rings (size 3 to 8) (size 9 to 14) (size 15 to 20)
#    0.000    1.143    4.286    4.286    0.000    4.571 
#    0.000    8.571    0.000    0.000    0.000    0.000 
#    0.000    0.000    0.000    0.000    0.000    0.000 
#
# Total GULP energy -173445.499298 kJ/mol
# GULP energy per Si atom -12388.964236 kJ/mol
# Density = 2.326952 g / cm^3
# Si number density = 23.322607 Si / 1000 Ang^3
#
#
#
# Elastic Constant Matrix: (Units=GPa)
#
#
# Indices 1 2 3 4 5 6 
#
# 1 58.4748 25.5453 30.8333 0.0009 33.4761 0.0023
# 2 25.5453 65.0160 23.3282 -0.0079 13.6363 -0.0053
# 3 30.8333 23.3282 153.8837 -0.0085 41.1978 -0.0061
# 4 0.0009 -0.0079 -0.0085 40.1680 -0.0022 12.7980
# 5 33.4761 13.6363 41.1978 -0.0022 40.4355 -0.0013
# 6 0.0023 -0.0053 -0.0061 12.7980 -0.0013 18.1675
#
#
#
# Elastic Compliance Matrix: (Units=1/GPa)
#
#
# Indices 1 2 3 4 5 6 
#
# 1 0.036870 -0.008986 0.001836 -0.000001 -0.029364 -0.000008
# 2 -0.008986 0.018963 -0.001862 0.000002 0.002942 0.000005
# 3 0.001836 -0.001862 0.009146 0.000001 -0.010211 0.000001
# 4 -0.000001 0.000002 0.000001 0.032100 0.000001 -0.022613
# 5 -0.029364 0.002942 -0.010211 0.000001 0.058453 0.000005
# 6 -0.000008 0.000005 0.000001 -0.022613 0.000005 0.070973
#
#
# Mechanical properties :
#
#
# Convention : Reuss Voigt Hill
#
# Bulk Modulus (GPa) = 21.29691 48.53202 34.91447
# Shear Modulus (GPa) = 19.21749 32.93205 26.07477
#
# Velocity S-wave (km/s) = 2.87363 3.76177 3.34728
# Velocity P-wave (km/s) = 4.49017 6.30254 5.47191
#
# Compressibility (1/GPa) = 0.04695517
#
# Stress axis : x y z
#
# Youngs Moduli (GPa) = 27.12259 52.73514 109.33180
#
# Poissons Ratio (x) = 0.47390 -0.20076
# Poissons Ratio (y) = 0.24374 0.20353
# Poissons Ratio (z) = -0.04980 0.09817
#
# Static dielectric constant tensor:
#      x y z
#    x 3.716020 0.000000 0.698430 
#    y 0.000000 4.320160 -0.000010 
#    z 0.698430 -0.000010 4.618260 
# 
# 
# High freq. dielectric constant tensor:
#      x y z
#    x 1.864660 0.000000 0.039580 
#    y 0.000000 1.924950 0.000000 
#    z 0.039580 0.000000 1.942280 
# 
# From -- ./inp_files/24886.got.cif
#   From: 2010.06.25/outbox.cif.g09.slc.cpg/sg9_13_cif.got.tgz:24886.got - 2010.06.27 21:40:51.
