data_PCOD8055227
_publ_section_title
;
Structure prediction by ZEFSAII (Michael W. Deem and Ramdas Pophale) SiO2 
 PCOD8055227
Probable space group: C C
;
_chemical_formula_sum "Si O2"
_cell_formula_units_Z 32
_cell_length_a 6.200984
_cell_length_b 27.202514
_cell_length_c 8.975339
_cell_angle_alpha 90.000000
_cell_angle_beta 79.479210
_cell_angle_gamma 90.000000
_cell_volume 1488.529344
_symmetry_space_group_name_H-M "C C"
_symmetry_group_IT_number 9
_symmetry_cell_setting 'monoclinic'
loop_
_space_group_symop_operation_xyz
x,y,z
x,-y,1/2+z
1/2+x,1/2+y,z
1/2+x,1/2-y,1/2+z
loop_
_atom_site_type_symbol
_atom_site_label
_atom_site_fract_x
_atom_site_fract_y
_atom_site_fract_z
Si Si1 0.931300 0.644884 0.818150
Si Si2 0.155198 0.916433 0.123003
Si Si3 0.724001 0.943767 0.297144
Si Si4 0.712893 0.663063 0.154488
Si Si5 0.371125 0.615295 0.388818
Si Si6 0.424033 0.757081 0.158725
Si Si7 0.570947 0.029773 0.499949
Si Si8 0.049641 0.302522 0.847877
O O1 0.793016 0.622290 0.700013
O O2 0.150558 0.613160 0.817642
O O3 0.994165 0.699933 0.764001
O O4 0.796257 0.643684 0.987164
O O5 0.989020 0.945719 0.254412
O O6 0.315390 0.954382 0.014908
O O7 0.009802 0.886432 0.023259
O O8 0.621028 0.974062 0.446386
O O9 0.620149 0.969123 0.167083
O O10 0.530829 0.623297 0.228164
O O11 0.613479 0.717024 0.149733
O O12 0.902011 0.665403 0.255183
O O13 0.230563 0.565702 0.385481
O O14 0.206957 0.661329 0.421941
O O15 0.186957 0.736176 0.232865
O O16 0.404786 0.774313 0.989389
#
# Coordination Sequence:
#
# PCOD8055227 Si02
#       8
#     4   4   4   4   4   4   4   4
#     4  11  24  43  64 100 133 173 229 275 339 401
#     4  10  22  43  68  90 132 178 210 281 328 393
#     4  10  24  40  67  96 133 173 222 271 339 399
#     4  11  25  40  65  97 129 176 214 289 330 398
#     4  10  22  42  64  93 129 172 224 262 346 389
#     4  11  23  42  60  95 129 177 224 267 340 403
#     4  10  22  40  63  98 128 175 217 273 329 403
#     4  11  24  40  65  93 129 176 222 272 335 402
#
# _framework density 21.497727000000001
#
# number of rings (size 3 to 8) (size 9 to 14) (size 15 to 20)
#    0.000    1.500    1.250    3.750    1.750   12.000 
#    0.000    0.000    0.000    0.000    0.000    0.000 
#    0.000    0.000    0.000    0.000    0.000    0.000 
#
# Total GULP energy -198433.639786 kJ/mol
# GULP energy per Si atom -12402.102487 kJ/mol
# Density = 2.144880 g / cm^3
# Si number density = 21.497727 Si / 1000 Ang^3
#
#
#
# Elastic Constant Matrix: (Units=GPa)
#
#
# Indices 1 2 3 4 5 6 
#
# 1 89.7251 26.4898 16.5504 0.0000 -21.7699 0.0000
# 2 26.4898 67.8954 9.9767 0.0000 -14.5344 0.0000
# 3 16.5504 9.9767 81.2888 0.0000 -22.9566 0.0000
# 4 0.0000 0.0000 0.0000 38.8777 0.0000 -11.3654
# 5 -21.7699 -14.5344 -22.9566 0.0000 29.6872 0.0000
# 6 0.0000 0.0000 0.0000 -11.3654 0.0000 24.2632
#
#
#
# Elastic Compliance Matrix: (Units=1/GPa)
#
#
# Indices 1 2 3 4 5 6 
#
# 1 0.014360 -0.003741 -0.000010 0.000000 0.008691 0.000000
# 2 -0.003741 0.017434 0.000330 0.000000 0.006047 0.000000
# 3 -0.000010 0.000330 0.015745 0.000000 0.012330 0.000000
# 4 0.000000 0.000000 0.000000 0.029803 0.000000 0.013960
# 5 0.008691 0.006047 0.012330 0.000000 0.052553 0.000000
# 6 0.000000 0.000000 0.000000 0.013960 0.000000 0.047754
#
#
# Mechanical properties :
#
#
# Convention : Reuss Voigt Hill
#
# Bulk Modulus (GPa) = 24.57166 38.32703 31.44935
# Shear Modulus (GPa) = 25.24524 30.95844 28.10184
#
# Velocity S-wave (km/s) = 3.43055 3.79896 3.61945
# Velocity P-wave (km/s) = 5.21021 6.09179 5.66816
#
# Compressibility (1/GPa) = 0.04069729
#
# Stress axis : x y z
#
# Youngs Moduli (GPa) = 69.63716 57.35890 63.51070
#
# Poissons Ratio (x) = 0.21456 0.00065
# Poissons Ratio (y) = 0.26049 -0.02094
# Poissons Ratio (z) = 0.00071 -0.01891
#
# Static dielectric constant tensor:
#      x y z
#    x 3.965740 0.000000 -0.307370 
#    y 0.000000 3.814900 0.000000 
#    z -0.307370 0.000000 3.961380 
# 
# 
# High freq. dielectric constant tensor:
#      x y z
#    x 1.842260 0.000000 -0.016530 
#    y 0.000000 1.837970 0.000000 
#    z -0.016530 0.000000 1.853140 
# 
# From -- ./inp_files/4321.got.cif
#   From: 2010.06.25/outbox.cif.g09.slc.cpg/sg9_3_cif.got.tgz:4321.got - 2010.06.27 21:40:51.
