data_PCOD8055143
_publ_section_title
;
Structure prediction by ZEFSAII (Michael W. Deem and Ramdas Pophale) SiO2 
 PCOD8055143
Probable space group: C C
;
_chemical_formula_sum "Si O2"
_cell_formula_units_Z 28
_cell_length_a 9.845509
_cell_length_b 11.708939
_cell_length_c 25.376570
_cell_angle_alpha 90.000000
_cell_angle_beta 155.259705
_cell_angle_gamma 90.000000
_cell_volume 1224.306709
_symmetry_space_group_name_H-M "C C"
_symmetry_group_IT_number 9
_symmetry_cell_setting 'monoclinic'
loop_
_space_group_symop_operation_xyz
x,y,z
x,-y,1/2+z
1/2+x,1/2+y,z
1/2+x,1/2-y,1/2+z
loop_
_atom_site_type_symbol
_atom_site_label
_atom_site_fract_x
_atom_site_fract_y
_atom_site_fract_z
Si Si1 0.889380 0.270760 0.111660
Si Si2 0.929870 0.850241 0.373408
Si Si3 0.448988 0.564874 0.522213
Si Si4 0.390704 0.922044 0.450656
Si Si5 0.405292 0.292224 0.214019
Si Si6 0.153326 0.334522 0.017950
Si Si7 0.036235 0.456845 0.782509
O O1 0.661326 0.371988 0.052239
O O2 0.220344 0.265782 0.262428
O O3 0.028564 0.293736 0.101647
O O4 0.718533 0.147356 0.053139
O O5 0.272326 0.885508 0.467282
O O6 0.956472 0.783706 0.438834
O O7 0.748161 0.969504 0.317282
O O8 0.314220 0.653571 0.517113
O O9 0.147117 0.510440 0.382135
O O10 0.658957 0.477571 0.632559
O O11 0.104423 0.896518 0.308664
O O12 0.447017 0.056872 0.464037
O O13 0.416462 0.308000 0.155256
O O14 0.600704 0.177156 0.297396
#
# Coordination Sequence:
#
# PCOD8055143 Si02
#       7
#     4   4   4   4   4   4   4
#     4  10  21  47  69  93 142 186 223 300 361 422
#     4  10  24  45  69 108 141 184 238 300 366 431
#     4  11  23  43  73 101 145 185 239 297 369 422
#     4  11  24  44  72  98 146 186 234 304 360 428
#     4  11  25  44  69 105 136 185 248 287 369 442
#     4  12  26  43  70 109 138 186 244 299 358 451
#     4  11  23  46  74 100 142 194 234 305 363 446
#
# _framework density 22.870086000000001
#
# number of rings (size 3 to 8) (size 9 to 14) (size 15 to 20)
#    0.000    1.143    2.857    2.571    6.000    0.000 
#   10.286    0.000    0.000    0.000    0.000    0.000 
#    0.000    0.000    0.000    0.000    0.000    0.000 
#
# Total GULP energy -173496.012870 kJ/mol
# GULP energy per Si atom -12392.572348 kJ/mol
# Density = 2.281803 g / cm^3
# Si number density = 22.870086 Si / 1000 Ang^3
#
#
#
# Elastic Constant Matrix: (Units=GPa)
#
#
# Indices 1 2 3 4 5 6 
#
# 1 102.6740 35.9038 48.1740 -0.0009 -9.0031 -0.0002
# 2 35.9038 97.2080 35.4484 0.0012 -0.2891 0.0003
# 3 48.1740 35.4484 114.1223 0.0056 -24.2500 0.0007
# 4 -0.0009 0.0012 0.0056 38.1703 0.0005 -2.8442
# 5 -9.0031 -0.2891 -24.2500 0.0005 42.7391 -0.0004
# 6 -0.0002 0.0003 0.0007 -2.8442 -0.0004 34.8540
#
#
#
# Elastic Compliance Matrix: (Units=1/GPa)
#
#
# Indices 1 2 3 4 5 6 
#
# 1 0.012946 -0.003160 -0.004444 0.000001 0.000184 0.000000
# 2 -0.003160 0.012564 -0.003061 0.000000 -0.002317 0.000000
# 3 -0.004444 -0.003061 0.012947 -0.000002 0.006389 0.000000
# 4 0.000001 0.000000 -0.000002 0.026359 -0.000001 0.002151
# 5 0.000184 -0.002317 0.006389 -0.000001 0.027046 0.000000
# 6 0.000000 0.000000 0.000000 0.002151 0.000000 0.028867
#
#
# Mechanical properties :
#
#
# Convention : Reuss Voigt Hill
#
# Bulk Modulus (GPa) = 58.39080 61.45074 59.92077
# Shear Modulus (GPa) = 33.83695 36.11788 34.97742
#
# Velocity S-wave (km/s) = 3.85064 3.97831 3.91499
# Velocity P-wave (km/s) = 6.73475 6.93039 6.83327
#
# Compressibility (1/GPa) = 0.01712599
#
# Stress axis : x y z
#
# Youngs Moduli (GPa) = 77.24394 79.59343 77.23881
#
# Poissons Ratio (x) = 0.25155 0.34325
# Poissons Ratio (y) = 0.24413 0.23642
# Poissons Ratio (z) = 0.34327 0.24363
#
# Static dielectric constant tensor:
#      x y z
#    x 4.044630 0.000000 -0.094870 
#    y 0.000000 3.974670 0.000000 
#    z -0.094870 0.000000 4.291510 
# 
# 
# High freq. dielectric constant tensor:
#      x y z
#    x 1.896320 0.000000 -0.008620 
#    y 0.000000 1.901560 0.000000 
#    z -0.008620 0.000000 1.904960 
# 
# From -- ./inp_files/14269.got.cif
#   From: 2010.06.25/outbox.cif.g09.slc.cpg/sg9_8_cif.got.tgz:14269.got - 2010.06.27 21:40:51.
