data_PCOD8055377
_publ_section_title
;
Structure prediction by ZEFSAII (Michael W. Deem and Ramdas Pophale) SiO2 
 PCOD8055377
Probable space group: C C
;
_chemical_formula_sum "Si O2"
_cell_formula_units_Z 32
_cell_length_a 13.611225
_cell_length_b 20.342356
_cell_length_c 5.415342
_cell_angle_alpha 90.000000
_cell_angle_beta 68.322898
_cell_angle_gamma 90.000000
_cell_volume 1393.384794
_symmetry_space_group_name_H-M "C C"
_symmetry_group_IT_number 9
_symmetry_cell_setting 'monoclinic'
loop_
_space_group_symop_operation_xyz
x,y,z
x,-y,1/2+z
1/2+x,1/2+y,z
1/2+x,1/2-y,1/2+z
loop_
_atom_site_type_symbol
_atom_site_label
_atom_site_fract_x
_atom_site_fract_y
_atom_site_fract_z
Si Si1 0.559510 0.832723 0.956160
Si Si2 0.051841 0.861626 0.150111
Si Si3 0.204488 0.247190 0.489155
Si Si4 0.683470 0.460953 0.282217
Si Si5 0.926673 0.539789 0.524849
Si Si6 0.761887 0.151263 0.566358
Si Si7 0.900465 0.225082 0.090498
Si Si8 0.398824 0.541847 0.593798
O O1 0.619478 0.799215 0.672295
O O2 0.493446 0.894421 0.923103
O O3 0.645281 0.860360 0.067509
O O4 0.481085 0.776839 0.146805
O O5 0.148524 0.819332 0.945531
O O6 0.103321 0.899522 0.336349
O O7 0.960226 0.811563 0.313130
O O8 0.003772 0.912430 0.995773
O O9 0.261742 0.280144 0.207743
O O10 0.298158 0.232848 0.597675
O O11 0.658417 0.492838 0.569046
O O12 0.804567 0.438813 0.144591
O O13 0.953679 0.505106 0.761249
O O14 0.858491 0.163474 0.288159
O O15 0.792856 0.086776 0.694759
O O16 0.398072 0.497932 0.350361
#
# Coordination Sequence:
#
# PCOD8055377 Si02
#       8
#     4   4   4   4   4   4   4   4
#     4  10  24  41  70  96 134 185 236 282 365 421
#     4  11  22  43  73  98 140 182 238 285 361 422
#     4  10  23  44  65 102 136 176 233 301 349 426
#     4  10  22  43  66 101 139 175 230 288 350 418
#     4  10  23  44  67  98 137 180 233 293 347 423
#     4  11  25  44  66 103 138 181 237 293 353 427
#     4  10  22  45  67 101 141 181 232 296 363 426
#     4  12  27  46  72 101 145 192 235 292 352 429
#
# _framework density 22.965661999999998
#
# number of rings (size 3 to 8) (size 9 to 14) (size 15 to 20)
#    0.000    1.500    1.250    2.250    5.250    2.000 
#   13.500    0.000    0.000    0.000    0.000    0.000 
#    0.000    0.000    0.000    0.000    0.000    0.000 
#
# Total GULP energy -198283.481024 kJ/mol
# GULP energy per Si atom -12392.717564 kJ/mol
# Density = 2.291339 g / cm^3
# Si number density = 22.965662 Si / 1000 Ang^3
#
#
#
# Elastic Constant Matrix: (Units=GPa)
#
#
# Indices 1 2 3 4 5 6 
#
# 1 142.1491 81.6116 38.7587 0.0000 0.3680 0.0000
# 2 81.6116 116.8445 28.2091 0.0000 8.0701 0.0000
# 3 38.7587 28.2091 74.3238 0.0000 15.0738 0.0000
# 4 0.0000 0.0000 0.0000 16.0536 0.0000 0.9037
# 5 0.3680 8.0701 15.0738 0.0000 34.3514 0.0000
# 6 0.0000 0.0000 0.0000 0.9037 0.0000 59.6328
#
#
#
# Elastic Compliance Matrix: (Units=1/GPa)
#
#
# Indices 1 2 3 4 5 6 
#
# 1 0.012955 -0.008248 -0.004380 0.000000 0.003721 0.000000
# 2 -0.008248 0.014689 -0.000650 0.000000 -0.003077 0.000000
# 3 -0.004380 -0.000650 0.017502 0.000000 -0.007481 0.000000
# 4 0.000000 0.000000 0.000000 0.062345 0.000000 -0.000945
# 5 0.003721 -0.003077 -0.007481 0.000000 0.033077 0.000000
# 6 0.000000 0.000000 0.000000 -0.000945 0.000000 0.016784
#
#
# Mechanical properties :
#
#
# Convention : Reuss Voigt Hill
#
# Bulk Modulus (GPa) = 53.78999 70.05292 61.92146
# Shear Modulus (GPa) = 26.30148 34.32342 30.31245
#
# Velocity S-wave (km/s) = 3.38783 3.87014 3.63699
# Velocity P-wave (km/s) = 6.22703 7.10916 6.68267
#
# Compressibility (1/GPa) = 0.01859082
#
# Stress axis : x y z
#
# Youngs Moduli (GPa) = 77.19054 68.07912 57.13487
#
# Poissons Ratio (x) = 0.56153 0.25025
# Poissons Ratio (y) = 0.63668 0.03712
# Poissons Ratio (z) = 0.33809 0.04423
#
# Static dielectric constant tensor:
#      x y z
#    x 4.598330 0.000000 0.010110 
#    y 0.000000 4.181900 0.000000 
#    z 0.010110 0.000000 3.828860 
# 
# 
# High freq. dielectric constant tensor:
#      x y z
#    x 1.933520 0.000000 -0.004470 
#    y 0.000000 1.906900 0.000000 
#    z -0.004470 0.000000 1.884030 
# 
# From -- ./inp_files/1844.got.cif
#   From: 2010.06.25/outbox.cif.g09.slc.cpg/sg9_1_cif.got.tgz:1844.got - 2010.06.27 21:40:51.
