data_PCOD8055717
_publ_section_title
;
Structure prediction by ZEFSAII (Michael W. Deem and Ramdas Pophale) SiO2 
 PCOD8055717
Probable space group: C C
;
_chemical_formula_sum "Si O2"
_cell_formula_units_Z 28
_cell_length_a 8.771096
_cell_length_b 30.491023
_cell_length_c 5.135897
_cell_angle_alpha 90.000000
_cell_angle_beta 61.385140
_cell_angle_gamma 90.000000
_cell_volume 1205.776539
_symmetry_space_group_name_H-M "C C"
_symmetry_group_IT_number 9
_symmetry_cell_setting 'monoclinic'
loop_
_space_group_symop_operation_xyz
x,y,z
x,-y,1/2+z
1/2+x,1/2+y,z
1/2+x,1/2-y,1/2+z
loop_
_atom_site_type_symbol
_atom_site_label
_atom_site_fract_x
_atom_site_fract_y
_atom_site_fract_z
Si Si1 0.086290 0.329579 0.353460
Si Si2 0.294439 0.828892 0.983456
Si Si3 0.437613 0.758766 0.178467
Si Si4 0.937390 0.407410 0.170589
Si Si5 0.741527 0.971383 0.848472
Si Si6 0.939070 0.799331 0.176432
Si Si7 0.132969 0.971400 0.491223
O O1 0.273642 0.331691 0.339857
O O2 0.942517 0.310905 0.669457
O O3 0.095414 0.293564 0.109581
O O4 0.029750 0.377950 0.313624
O O5 0.282117 0.793052 0.229902
O O6 0.345046 0.877635 0.029157
O O7 0.108433 0.829681 0.990510
O O8 0.398642 0.732092 0.469586
O O9 0.474214 0.727131 0.909706
O O10 0.782295 0.435702 0.424109
O O11 0.092338 0.435620 0.915940
O O12 0.937267 0.951210 0.669940
O O13 0.715590 0.009526 0.658271
O O14 0.158767 0.009593 0.681298
#
# Coordination Sequence:
#
# PCOD8055717 Si02
#       7
#     4   4   4   4   4   4   4
#     4  11  27  43  66 102 134 178 224 272 346 389
#     4  11  27  43  66 102 134 178 224 272 346 389
#     4  11  24  46  70  94 128 180 234 284 324 388
#     4  11  26  42  68 101 144 172 214 277 332 400
#     4  10  23  45  73 102 129 174 223 265 323 396
#     4  12  26  44  70  93 132 180 230 283 324 392
#     4  10  23  45  73 102 129 174 223 265 323 396
#
# _framework density 23.221551999999999
#
# number of rings (size 3 to 8) (size 9 to 14) (size 15 to 20)
#    0.000    1.143    1.429    2.571   12.000    2.286 
#    2.571    0.000    0.000    0.000    0.000    0.000 
#    0.000    0.000    0.000    0.000    0.000    0.000 
#
# Total GULP energy -173513.895823 kJ/mol
# GULP energy per Si atom -12393.849702 kJ/mol
# Density = 2.316870 g / cm^3
# Si number density = 23.221552 Si / 1000 Ang^3
#
#
#
# Elastic Constant Matrix: (Units=GPa)
#
#
# Indices 1 2 3 4 5 6 
#
# 1 176.6896 72.6636 61.5234 0.0000 -45.0201 0.0000
# 2 72.6636 103.3934 32.0690 0.0000 -23.0865 0.0000
# 3 61.5234 32.0690 83.1918 0.0000 -8.5468 0.0000
# 4 0.0000 0.0000 0.0000 20.4234 0.0000 13.8090
# 5 -45.0201 -23.0865 -8.5468 0.0000 48.1484 0.0000
# 6 0.0000 0.0000 0.0000 13.8090 0.0000 5.7931
#
#
#
# Elastic Compliance Matrix: (Units=1/GPa)
#
#
# Indices 1 2 3 4 5 6 
#
# 1 0.011554 -0.004572 -0.006007 0.000000 0.007545 0.000000
# 2 -0.004572 0.013895 -0.001762 0.000000 0.002074 0.000000
# 3 -0.006007 -0.001762 0.016784 0.000000 -0.003482 0.000000
# 4 0.000000 0.000000 0.000000 -0.080045 0.000000 0.190801
# 5 0.007545 0.002074 -0.003482 0.000000 0.028200 0.000000
# 6 0.000000 0.000000 0.000000 0.190801 0.000000 -0.282193
#
#
# Mechanical properties :
#
#
# Convention : Reuss Voigt Hill
#
# Bulk Modulus (GPa) = 56.97666 77.30966 67.14316
# Shear Modulus (GPa) = -19.13709 28.00757 4.43524
#
# Velocity S-wave (km/s) = -2.87384 3.47667 1.38351
# Velocity P-wave (km/s) = 3.68475 7.03426 5.61508
#
# Compressibility (1/GPa) = 0.01755104
#
# Stress axis : x y z
#
# Youngs Moduli (GPa) = 86.55060 71.96977 59.57997
#
# Poissons Ratio (x) = 0.32906 0.35789
# Poissons Ratio (y) = 0.39573 0.10497
# Poissons Ratio (z) = 0.51991 0.12679
#
# Static dielectric constant tensor:
#      x y z
#    x 4.573060 0.000000 -0.062760 
#    y 0.000000 3.874620 0.000000 
#    z -0.062760 0.000000 4.504080 
# 
# 
# High freq. dielectric constant tensor:
#      x y z
#    x 1.943980 0.000000 0.000460 
#    y 0.000000 1.898210 0.000000 
#    z 0.000460 0.000000 1.911990 
# 
# From -- ./inp_files/1350.got.cif
#   From: 2010.06.25/outbox.cif.g09.slc.cpg/sg9_1_cif.got.tgz:1350.got - 2010.06.27 21:40:51.
