data_PCOD8055885
_publ_section_title
;
Structure prediction by ZEFSAII (Michael W. Deem and Ramdas Pophale) SiO2 
 PCOD8055885
Probable space group: C C
;
_chemical_formula_sum "Si O2"
_cell_formula_units_Z 20
_cell_length_a 5.152693
_cell_length_b 18.586957
_cell_length_c 9.509699
_cell_angle_alpha 90.000000
_cell_angle_beta 80.061094
_cell_angle_gamma 90.000000
_cell_volume 897.102758
_symmetry_space_group_name_H-M "C C"
_symmetry_group_IT_number 9
_symmetry_cell_setting 'monoclinic'
loop_
_space_group_symop_operation_xyz
x,y,z
x,-y,1/2+z
1/2+x,1/2+y,z
1/2+x,1/2-y,1/2+z
loop_
_atom_site_type_symbol
_atom_site_label
_atom_site_fract_x
_atom_site_fract_y
_atom_site_fract_z
Si Si1 0.668370 0.692495 0.657740
Si Si2 0.136135 0.632007 0.797043
Si Si3 0.717549 0.031781 0.300119
Si Si4 0.701569 0.398237 0.882879
Si Si5 0.058058 0.351939 0.620874
O O1 0.406069 0.677292 0.772292
O O2 0.624207 0.658813 0.508263
O O3 0.707310 0.777642 0.639856
O O4 0.929549 0.660649 0.702998
O O5 0.213956 0.550457 0.752702
O O6 0.001306 0.638764 0.961793
O O7 0.448589 0.052344 0.408845
O O8 0.740843 0.081856 0.157997
O O9 0.960921 0.047717 0.379411
O O10 0.780837 0.354950 0.732664
#
# Coordination Sequence:
#
# PCOD8055885 Si02
#       5
#     4   4   4   4   4
#     4  12  27  44  72 106 143 183 235 290 352 420
#     4  12  28  45  74 105 138 189 238 284 356 416
#     4  10  25  45  72  97 142 180 238 283 346 410
#     4  10  24  44  72  96 145 180 228 290 347 403
#     4  10  28  44  74 100 146 182 235 287 349 419
#
# _framework density 22.293991999999999
#
# number of rings (size 3 to 8) (size 9 to 14) (size 15 to 20)
#    1.200    0.000    0.000    3.600   14.000    0.000 
#    0.000    0.000    0.000    0.000    0.000    0.000 
#    0.000    0.000    0.000    0.000    0.000    0.000 
#
# Total GULP energy -123991.534372 kJ/mol
# GULP energy per Si atom -12399.153437 kJ/mol
# Density = 2.224325 g / cm^3
# Si number density = 22.293992 Si / 1000 Ang^3
#
#
#
# Elastic Constant Matrix: (Units=GPa)
#
#
# Indices 1 2 3 4 5 6 
#
# 1 137.4624 44.8759 20.7681 0.0000 14.4640 0.0000
# 2 44.8759 175.1689 45.7485 0.0000 21.2618 0.0000
# 3 20.7681 45.7485 104.5330 0.0000 -1.2781 0.0000
# 4 0.0000 0.0000 0.0000 32.4073 0.0000 8.5513
# 5 14.4640 21.2618 -1.2781 0.0000 27.2471 0.0000
# 6 0.0000 0.0000 0.0000 8.5513 0.0000 25.5683
#
#
#
# Elastic Compliance Matrix: (Units=1/GPa)
#
#
# Indices 1 2 3 4 5 6 
#
# 1 0.008251 -0.001438 -0.001050 0.000000 -0.003307 0.000000
# 2 -0.001438 0.007515 -0.003067 0.000000 -0.005245 0.000000
# 3 -0.001050 -0.003067 0.011160 0.000000 0.003475 0.000000
# 4 0.000000 0.000000 0.000000 0.033844 0.000000 -0.011319
# 5 -0.003307 -0.005245 0.003475 0.000000 0.042712 0.000000
# 6 0.000000 0.000000 0.000000 -0.011319 0.000000 0.042897
#
#
# Mechanical properties :
#
#
# Convention : Reuss Voigt Hill
#
# Bulk Modulus (GPa) = 63.23384 71.10550 67.16967
# Shear Modulus (GPa) = 30.71989 37.42933 34.07461
#
# Velocity S-wave (km/s) = 3.71610 4.10188 3.91374
# Velocity P-wave (km/s) = 6.84381 7.37547 7.11461
#
# Compressibility (1/GPa) = 0.01581432
#
# Stress axis : x y z
#
# Youngs Moduli (GPa) = 121.19988 133.07018 89.60670
#
# Poissons Ratio (x) = 0.19136 0.09412
# Poissons Ratio (y) = 0.17429 0.27485
# Poissons Ratio (z) = 0.12730 0.40816
#
# Static dielectric constant tensor:
#      x y z
#    x 3.797590 0.000000 -0.093540 
#    y 0.000000 3.983880 0.000000 
#    z -0.093540 0.000000 3.810410 
# 
# 
# High freq. dielectric constant tensor:
#      x y z
#    x 1.873370 0.000000 -0.002620 
#    y 0.000000 1.886520 0.000000 
#    z -0.002620 0.000000 1.871750 
# 
# From -- ./inp_files/3634.got.cif
#   From: 2010.06.25/outbox.cif.g09.slc.cpg/sg9_2_cif.got.tgz:3634.got - 2010.06.27 21:40:51.
