data_PCOD8055807
_publ_section_title
;
Structure prediction by ZEFSAII (Michael W. Deem and Ramdas Pophale) SiO2 
 PCOD8055807
Probable space group: C C
;
_chemical_formula_sum "Si O2"
_cell_formula_units_Z 32
_cell_length_a 17.465580
_cell_length_b 5.022314
_cell_length_c 18.380204
_cell_angle_alpha 90.000000
_cell_angle_beta 121.367914
_cell_angle_gamma 90.000000
_cell_volume 1376.622726
_symmetry_space_group_name_H-M "C C"
_symmetry_group_IT_number 9
_symmetry_cell_setting 'monoclinic'
loop_
_space_group_symop_operation_xyz
x,y,z
x,-y,1/2+z
1/2+x,1/2+y,z
1/2+x,1/2-y,1/2+z
loop_
_atom_site_type_symbol
_atom_site_label
_atom_site_fract_x
_atom_site_fract_y
_atom_site_fract_z
Si Si1 0.367480 0.692365 0.377540
Si Si2 0.408525 0.867685 0.175922
Si Si3 0.051328 0.785125 0.631550
Si Si4 0.202224 0.993648 0.809359
Si Si5 0.863921 0.112622 0.734315
Si Si6 0.046814 0.279957 0.535036
Si Si7 0.727362 0.978695 0.907832
Si Si8 0.730110 0.872895 0.567073
O O1 0.299358 0.934026 0.319663
O O2 0.359537 0.440764 0.318574
O O3 0.467855 0.804493 0.436156
O O4 0.331168 0.584912 0.437748
O O5 0.409885 0.113481 0.232659
O O6 0.482270 0.869644 0.149603
O O7 0.431297 0.612942 0.236710
O O8 0.309517 0.841811 0.090249
O O9 0.069785 0.567414 0.579450
O O10 0.141262 0.879942 0.715549
O O11 0.014688 0.054237 0.576001
O O12 0.166245 0.264967 0.831638
O O13 0.205695 0.778374 0.874714
O O14 0.764913 0.069064 0.649236
O O15 0.140930 0.206317 0.543249
O O16 0.712876 0.949411 0.986654
#
# Coordination Sequence:
#
# PCOD8055807 Si02
#       8
#     4   4   4   4   4   4   4   4
#     4  10  26  44  72 108 146 194 246 307 378 438
#     4  10  25  41  75  96 144 187 241 298 359 445
#     4  12  26  49  70 110 140 201 252 299 378 452
#     4  10  25  42  75  99 143 192 243 306 360 454
#     4  10  24  41  73 100 147 185 242 296 375 433
#     4  12  28  41  78 104 151 186 255 311 367 446
#     4  10  24  41  75  99 149 183 246 297 384 433
#     4  10  26  45  72 108 144 192 241 308 373 443
#
# _framework density 23.245294999999999
#
# number of rings (size 3 to 8) (size 9 to 14) (size 15 to 20)
#    1.500    0.000    0.000    3.000   12.250    1.000 
#    0.000    0.000    0.000    0.000    0.000    0.000 
#    0.000    0.000    0.000    0.000    0.000    0.000 
#
# Total GULP energy -198209.967603 kJ/mol
# GULP energy per Si atom -12388.122975 kJ/mol
# Density = 2.319239 g / cm^3
# Si number density = 23.245295 Si / 1000 Ang^3
#
#
#
# Elastic Constant Matrix: (Units=GPa)
#
#
# Indices 1 2 3 4 5 6 
#
# 1 107.7918 22.6182 53.4967 0.0000 15.7141 -0.0007
# 2 22.6182 132.5737 40.7986 -0.0003 10.3323 0.0011
# 3 53.4967 40.7986 130.6944 -0.0001 13.2051 -0.0001
# 4 0.0000 -0.0003 -0.0001 32.5107 -0.0006 -7.2089
# 5 15.7141 10.3323 13.2051 -0.0006 30.8115 0.0008
# 6 -0.0007 0.0011 -0.0001 -7.2089 0.0008 28.2313
#
#
#
# Elastic Compliance Matrix: (Units=1/GPa)
#
#
# Indices 1 2 3 4 5 6 
#
# 1 0.012170 -0.000385 -0.004440 0.000000 -0.004175 0.000000
# 2 -0.000385 0.008449 -0.002314 0.000000 -0.001645 0.000000
# 3 -0.004440 -0.002314 0.010331 0.000000 -0.001388 0.000000
# 4 0.000000 0.000000 0.000000 0.032605 0.000000 0.008326
# 5 -0.004175 -0.001645 -0.001388 0.000000 0.035731 -0.000001
# 6 0.000000 0.000000 0.000000 0.008326 -0.000001 0.037548
#
#
# Mechanical properties :
#
#
# Convention : Reuss Voigt Hill
#
# Bulk Modulus (GPa) = 59.97381 67.20965 63.59173
# Shear Modulus (GPa) = 31.91467 35.25380 33.58423
#
# Velocity S-wave (km/s) = 3.70936 3.89858 3.80514
# Velocity P-wave (km/s) = 6.64847 7.01721 6.83533
#
# Compressibility (1/GPa) = 0.01667395
#
# Stress axis : x y z
#
# Youngs Moduli (GPa) = 82.17058 118.35882 96.79483
#
# Poissons Ratio (x) = 0.04553 0.42972
# Poissons Ratio (y) = 0.03161 0.22396
# Poissons Ratio (z) = 0.36480 0.27385
#
# Static dielectric constant tensor:
#      x y z
#    x 3.918910 0.000000 -0.007150 
#    y 0.000000 4.088500 0.000000 
#    z -0.007150 0.000000 3.933030 
# 
# 
# High freq. dielectric constant tensor:
#      x y z
#    x 1.904900 0.000000 -0.006930 
#    y 0.000000 1.921370 0.000000 
#    z -0.006930 0.000000 1.907040 
# 
# From -- ./inp_files/30909.got.cif
#   From: 2010.06.25/outbox.cif.g09.slc.cpg/sg9_16_cif.got.tgz:30909.got - 2010.06.27 21:40:51.
