data_PCOD8055424
_publ_section_title
;
Structure prediction by ZEFSAII (Michael W. Deem and Ramdas Pophale) SiO2 
 PCOD8055424
Probable space group: C C
;
_chemical_formula_sum "Si O2"
_cell_formula_units_Z 24
_cell_length_a 16.424446
_cell_length_b 6.662807
_cell_length_c 29.859251
_cell_angle_alpha 90.000000
_cell_angle_beta 161.596614
_cell_angle_gamma 90.000000
_cell_volume 1031.593238
_symmetry_space_group_name_H-M "C C"
_symmetry_group_IT_number 9
_symmetry_cell_setting 'monoclinic'
loop_
_space_group_symop_operation_xyz
x,y,z
x,-y,1/2+z
1/2+x,1/2+y,z
1/2+x,1/2-y,1/2+z
loop_
_atom_site_type_symbol
_atom_site_label
_atom_site_fract_x
_atom_site_fract_y
_atom_site_fract_z
Si Si1 0.200030 0.177109 0.778690
Si Si2 0.351062 0.747827 0.003201
Si Si3 0.179214 0.517201 0.492303
Si Si4 0.599714 0.145941 0.130242
Si Si5 0.421512 0.287376 0.290629
Si Si6 0.756070 0.904156 0.894956
O O1 0.454721 0.036737 0.910662
O O2 0.243800 0.362648 0.835652
O O3 0.142628 0.263032 0.700569
O O4 0.945238 0.047764 0.658781
O O5 0.199050 0.665348 0.966970
O O6 0.246251 0.641148 0.902652
O O7 0.652224 0.683363 0.164886
O O8 0.348613 0.992034 0.999335
O O9 0.121762 0.722382 0.434268
O O10 0.865215 0.028582 0.256186
O O11 0.525162 0.314237 0.055307
O O12 0.511273 0.204376 0.289679
#
# Coordination Sequence:
#
# PCOD8055424 Si02
#       6
#     4   4   4   4   4   4
#     4  12  25  41  73 102 142 180 237 278 351 408
#     4   9  21  43  66  94 133 178 222 283 336 400
#     4  11  21  44  66 102 138 180 228 285 334 414
#     4  10  22  44  68  96 133 189 218 286 345 405
#     4   9  20  42  69  90 137 175 226 283 344 396
#     4  11  23  44  64 104 135 178 233 285 338 415
#
# _framework density 23.264984999999999
#
# number of rings (size 3 to 8) (size 9 to 14) (size 15 to 20)
#    1.000    0.667    5.000    0.000    4.667    0.000 
#   12.000    0.000    0.000    0.000    0.000    0.000 
#    0.000    0.000    0.000    0.000    0.000    0.000 
#
# Total GULP energy -148692.655630 kJ/mol
# GULP energy per Si atom -12391.054636 kJ/mol
# Density = 2.321203 g / cm^3
# Si number density = 23.264985 Si / 1000 Ang^3
#
#
#
# Elastic Constant Matrix: (Units=GPa)
#
#
# Indices 1 2 3 4 5 6 
#
# 1 43.0075 -9.9919 33.4250 -0.0216 6.6103 0.0022
# 2 -9.9919 76.2925 2.5269 -0.0268 -6.8902 0.0200
# 3 33.4250 2.5269 78.7948 -0.0570 6.1365 -0.0168
# 4 -0.0216 -0.0268 -0.0570 31.2227 -0.0106 -9.1184
# 5 6.6103 -6.8902 6.1365 -0.0106 40.3023 -0.0219
# 6 0.0022 0.0200 -0.0168 -9.1184 -0.0219 14.3044
#
#
#
# Elastic Compliance Matrix: (Units=1/GPa)
#
#
# Indices 1 2 3 4 5 6 
#
# 1 0.037043 0.005116 -0.015658 -0.000012 -0.002817 -0.000043
# 2 0.005116 0.014049 -0.002775 0.000006 0.001985 -0.000017
# 3 -0.015658 -0.002775 0.019491 0.000037 -0.000874 0.000052
# 4 -0.000012 0.000006 0.000037 0.039354 0.000021 0.025087
# 5 -0.002817 0.001985 -0.000874 0.000021 0.025747 0.000050
# 6 -0.000043 -0.000017 0.000052 0.025087 0.000050 0.085900
#
#
# Mechanical properties :
#
#
# Convention : Reuss Voigt Hill
#
# Bulk Modulus (GPa) = 22.75512 27.77944 25.26728
# Shear Modulus (GPa) = 19.02094 28.64153 23.83123
#
# Velocity S-wave (km/s) = 2.86243 3.51251 3.20400
# Velocity P-wave (km/s) = 4.55267 5.33073 4.95699
#
# Compressibility (1/GPa) = 0.04394615
#
# Stress axis : x y z
#
# Youngs Moduli (GPa) = 26.99581 71.18120 51.30673
#
# Poissons Ratio (x) = -0.36414 0.80338
# Poissons Ratio (y) = -0.13810 0.14239
# Poissons Ratio (z) = 0.42271 0.19754
#
# Static dielectric constant tensor:
#      x y z
#    x 3.943690 0.000000 0.543260 
#    y 0.000000 4.099050 0.000060 
#    z 0.543260 0.000060 4.411390 
# 
# 
# High freq. dielectric constant tensor:
#      x y z
#    x 1.895070 0.000000 0.035360 
#    y 0.000000 1.914460 0.000000 
#    z 0.035360 0.000000 1.927190 
# 
# From -- ./inp_files/26565.got.cif
#   From: 2010.06.25/outbox.cif.g09.slc.cpg/sg9_14_cif.got.tgz:26565.got - 2010.06.27 21:40:51.
