data_PCOD8055348
_publ_section_title
;
Structure prediction by ZEFSAII (Michael W. Deem and Ramdas Pophale) SiO2 
 PCOD8055348
Probable space group: C C
;
_chemical_formula_sum "Si O2"
_cell_formula_units_Z 32
_cell_length_a 14.323326
_cell_length_b 11.522719
_cell_length_c 18.635056
_cell_angle_alpha 90.000000
_cell_angle_beta 28.969906
_cell_angle_gamma 90.000000
_cell_volume 1489.666342
_symmetry_space_group_name_H-M "C C"
_symmetry_group_IT_number 9
_symmetry_cell_setting 'monoclinic'
loop_
_space_group_symop_operation_xyz
x,y,z
x,-y,1/2+z
1/2+x,1/2+y,z
1/2+x,1/2-y,1/2+z
loop_
_atom_site_type_symbol
_atom_site_label
_atom_site_fract_x
_atom_site_fract_y
_atom_site_fract_z
Si Si1 0.036570 0.540565 0.607960
Si Si2 0.611079 0.697675 0.450025
Si Si3 0.786144 0.632666 0.188669
Si Si4 0.230691 0.994095 0.581787
Si Si5 0.431954 0.734918 0.100358
Si Si6 0.216893 0.041352 0.935336
Si Si7 0.870298 0.864709 0.363893
Si Si8 0.496553 0.194392 0.406119
O O1 0.240150 0.473719 0.479356
O O2 0.913014 0.472428 0.632349
O O3 0.049290 0.671631 0.569639
O O4 0.929003 0.543880 0.757040
O O5 0.626556 0.661839 0.355788
O O6 0.399774 0.748457 0.601148
O O7 0.632799 0.587878 0.486856
O O8 0.767855 0.792617 0.369522
O O9 0.705649 0.591409 0.166223
O O10 0.434620 0.061230 0.433137
O O11 0.061701 0.088181 0.698579
O O12 0.216966 0.918601 0.518386
O O13 0.223890 0.700555 0.272590
O O14 0.569670 0.625662 0.994435
O O15 0.379005 0.778527 0.057166
O O16 0.924486 0.782449 0.393785
#
# Coordination Sequence:
#
# PCOD8055348 Si02
#       8
#     4   4   4   4   4   4   4   4
#     4  10  23  44  68  96 130 175 218 275 337 391
#     4  10  22  42  69  94 129 173 216 269 336 390
#     4  10  22  43  65  94 129 167 221 272 321 395
#     4  12  25  42  65 101 133 172 226 277 328 392
#     4  12  25  45  69  95 140 179 222 273 339 401
#     4  11  25  43  68  97 132 177 224 271 336 402
#     4  11  24  41  72  99 131 170 225 282 327 398
#     4  12  24  42  68 102 130 173 228 275 324 393
#
# _framework density 21.48132
#
# number of rings (size 3 to 8) (size 9 to 14) (size 15 to 20)
#    0.000    1.000    5.000    0.750    8.750    1.000 
#    4.500    0.000    0.000    0.000    0.000    0.000 
#    0.000    0.000    0.000    0.000    0.000    0.000 
#
# Total GULP energy -198363.329789 kJ/mol
# GULP energy per Si atom -12397.708112 kJ/mol
# Density = 2.143243 g / cm^3
# Si number density = 21.481320 Si / 1000 Ang^3
#
#
#
# Elastic Constant Matrix: (Units=GPa)
#
#
# Indices 1 2 3 4 5 6 
#
# 1 81.3401 18.9126 28.0160 -0.0028 27.7460 -0.0008
# 2 18.9126 68.7350 36.7734 0.0025 -4.8026 -0.0006
# 3 28.0160 36.7734 83.3793 -0.0032 13.2052 -0.0010
# 4 -0.0028 0.0025 -0.0032 31.6788 -0.0001 1.1753
# 5 27.7460 -4.8026 13.2052 -0.0001 39.8505 0.0005
# 6 -0.0008 -0.0006 -0.0010 1.1753 0.0005 31.0163
#
#
#
# Elastic Compliance Matrix: (Units=1/GPa)
#
#
# Indices 1 2 3 4 5 6 
#
# 1 0.018497 -0.004899 -0.002028 0.000002 -0.012797 0.000000
# 2 -0.004899 0.021489 -0.009268 -0.000003 0.009072 0.000000
# 3 -0.002028 -0.009268 0.017641 0.000002 -0.005551 0.000000
# 4 0.000002 -0.000003 0.000002 0.031611 -0.000002 -0.001198
# 5 -0.012797 0.009072 -0.005551 -0.000002 0.036936 -0.000001
# 6 0.000000 0.000000 0.000000 -0.001198 -0.000001 0.032287
#
#
# Mechanical properties :
#
#
# Convention : Reuss Voigt Hill
#
# Bulk Modulus (GPa) = 39.62320 44.53983 42.08151
# Shear Modulus (GPa) = 25.09254 30.49261 27.79258
#
# Velocity S-wave (km/s) = 3.42147 3.77171 3.60085
# Velocity P-wave (km/s) = 5.83901 6.30451 6.07622
#
# Compressibility (1/GPa) = 0.02523774
#
# Stress axis : x y z
#
# Youngs Moduli (GPa) = 54.06411 46.53587 56.68465
#
# Poissons Ratio (x) = 0.22796 0.11495
# Poissons Ratio (y) = 0.26484 0.52536
# Poissons Ratio (z) = 0.10963 0.43130
#
# Static dielectric constant tensor:
#      x y z
#    x 3.718060 0.000000 0.130750 
#    y 0.000000 3.849670 0.000000 
#    z 0.130750 0.000000 3.886550 
# 
# 
# High freq. dielectric constant tensor:
#      x y z
#    x 1.831830 0.000000 0.016110 
#    y 0.000000 1.843260 0.000000 
#    z 0.016110 0.000000 1.848480 
# 
# From -- ./inp_files/9127.got.cif
#   From: 2010.06.25/outbox.cif.g09.slc.cpg/sg9_5_cif.got.tgz:9127.got - 2010.06.27 21:40:51.
