data_PCOD8055027
_publ_section_title
;
Structure prediction by ZEFSAII (Michael W. Deem and Ramdas Pophale) SiO2 
 PCOD8055027
Probable space group: C C
;
_chemical_formula_sum "Si O2"
_cell_formula_units_Z 28
_cell_length_a 17.290227
_cell_length_b 8.114736
_cell_length_c 9.222712
_cell_angle_alpha 90.000000
_cell_angle_beta 103.528778
_cell_angle_gamma 90.000000
_cell_volume 1258.093232
_symmetry_space_group_name_H-M "C C"
_symmetry_group_IT_number 9
_symmetry_cell_setting 'monoclinic'
loop_
_space_group_symop_operation_xyz
x,y,z
x,-y,1/2+z
1/2+x,1/2+y,z
1/2+x,1/2-y,1/2+z
loop_
_atom_site_type_symbol
_atom_site_label
_atom_site_fract_x
_atom_site_fract_y
_atom_site_fract_z
Si Si1 0.166600 0.428392 0.406730
Si Si2 0.323008 0.698182 0.084074
Si Si3 0.367107 0.145878 0.876588
Si Si4 0.528009 0.291911 0.939642
Si Si5 0.995789 0.087408 0.118559
Si Si6 0.289120 0.945502 0.615325
Si Si7 0.641151 0.782610 0.086849
O O1 0.256769 0.428190 0.503695
O O2 0.162392 0.401226 0.232427
O O3 0.139254 0.612355 0.437678
O O4 0.114422 0.291844 0.469866
O O5 0.335739 0.699243 0.265192
O O6 0.289844 0.880752 0.027244
O O7 0.405970 0.646820 0.044331
O O8 0.462972 0.144646 0.914194
O O9 0.335649 0.974807 0.787889
O O10 0.336617 0.175375 0.026903
O O11 0.515059 0.402208 0.076271
O O12 0.514980 0.411654 0.797166
O O13 0.052707 0.215368 0.062362
O O14 0.201980 0.871687 0.605922
#
# Coordination Sequence:
#
# PCOD8055027 Si02
#       7
#     4   4   4   4   4   4   4
#     4  11  25  41  65  98 135 169 222 275 322 386
#     4   9  22  41  67  92 133 164 222 268 319 399
#     4   9  22  39  67  95 125 171 216 265 327 385
#     4  10  23  44  64  94 134 171 215 272 328 394
#     4  10  23  45  66  95 129 173 219 265 335 391
#     4  10  21  42  68  90 130 171 218 262 332 388
#     4  11  26  42  65  98 132 177 216 277 323 391
#
# _framework density 22.255903
#
# number of rings (size 3 to 8) (size 9 to 14) (size 15 to 20)
#    0.857    1.143    0.000    1.714    6.000    3.429 
#    2.571    0.000    0.000    0.000    0.000    0.000 
#    0.000    0.000    0.000    0.000    0.000    0.000 
#
# Total GULP energy -173485.040370 kJ/mol
# GULP energy per Si atom -12391.788598 kJ/mol
# Density = 2.220525 g / cm^3
# Si number density = 22.255903 Si / 1000 Ang^3
#
#
#
# Elastic Constant Matrix: (Units=GPa)
#
#
# Indices 1 2 3 4 5 6 
#
# 1 148.4537 26.6460 38.9179 0.0000 -0.5601 0.0000
# 2 26.6460 62.1342 15.6523 0.0000 -0.9120 0.0000
# 3 38.9179 15.6523 65.1561 0.0000 -10.7874 0.0000
# 4 0.0000 0.0000 0.0000 32.9372 0.0000 -9.5175
# 5 -0.5601 -0.9120 -10.7874 0.0000 28.4723 0.0000
# 6 0.0000 0.0000 0.0000 -9.5175 0.0000 36.9700
#
#
#
# Elastic Compliance Matrix: (Units=1/GPa)
#
#
# Indices 1 2 3 4 5 6 
#
# 1 0.008404 -0.002441 -0.004714 0.000000 -0.001699 0.000000
# 2 -0.002441 0.017871 -0.002932 0.000000 -0.000586 0.000000
# 3 -0.004714 -0.002932 0.020098 0.000000 0.007428 0.000000
# 4 0.000000 0.000000 0.000000 0.032801 0.000000 0.008444
# 5 -0.001699 -0.000586 0.007428 0.000000 0.037884 0.000000
# 6 0.000000 0.000000 0.000000 0.008444 0.000000 0.029223
#
#
# Mechanical properties :
#
#
# Convention : Reuss Voigt Hill
#
# Bulk Modulus (GPa) = 38.17198 48.68628 43.42913
# Shear Modulus (GPa) = 28.54073 32.64444 30.59259
#
# Velocity S-wave (km/s) = 3.58493 3.83401 3.71156
# Velocity P-wave (km/s) = 5.85869 6.44381 6.15820
#
# Compressibility (1/GPa) = 0.02619723
#
# Stress axis : x y z
#
# Youngs Moduli (GPa) = 118.99382 55.95621 49.75655
#
# Poissons Ratio (x) = 0.13660 0.23458
# Poissons Ratio (y) = 0.29049 0.14589
# Poissons Ratio (z) = 0.56099 0.16407
#
# Static dielectric constant tensor:
#      x y z
#    x 4.022370 0.000000 -0.138650 
#    y 0.000000 3.631070 0.000000 
#    z -0.138650 0.000000 3.907730 
# 
# 
# High freq. dielectric constant tensor:
#      x y z
#    x 1.886410 0.000000 -0.011120 
#    y 0.000000 1.851680 0.000000 
#    z -0.011120 0.000000 1.867080 
# 
# From -- ./inp_files/10377.got.cif
#   From: 2010.06.25/outbox.cif.g09.slc.cpg/sg9_6_cif.got.tgz:10377.got - 2010.06.27 21:40:51.
