data_PCOD8055934
_publ_section_title
;
Structure prediction by ZEFSAII (Michael W. Deem and Ramdas Pophale) SiO2 
 PCOD8055934
Probable space group: C C
;
_chemical_formula_sum "Si O2"
_cell_formula_units_Z 32
_cell_length_a 9.287142
_cell_length_b 11.815397
_cell_length_c 13.621537
_cell_angle_alpha 90.000000
_cell_angle_beta 66.993190
_cell_angle_gamma 90.000000
_cell_volume 1375.817050
_symmetry_space_group_name_H-M "C C"
_symmetry_group_IT_number 9
_symmetry_cell_setting 'monoclinic'
loop_
_space_group_symop_operation_xyz
x,y,z
x,-y,1/2+z
1/2+x,1/2+y,z
1/2+x,1/2-y,1/2+z
loop_
_atom_site_type_symbol
_atom_site_label
_atom_site_fract_x
_atom_site_fract_y
_atom_site_fract_z
Si Si1 0.611290 0.631462 0.507000
Si Si2 0.766490 0.112691 0.791387
Si Si3 0.611401 0.678354 0.279838
Si Si4 0.094072 0.613491 0.029655
Si Si5 0.584320 0.664333 0.816475
Si Si6 0.776944 0.485422 0.131827
Si Si7 0.911295 0.072368 0.043233
Si Si8 0.810210 0.147111 0.258253
O O1 0.654459 0.638811 0.379716
O O2 0.573921 0.754037 0.565493
O O3 0.751960 0.571455 0.531168
O O4 0.459225 0.553669 0.567487
O O5 0.701290 0.204494 0.730244
O O6 0.931554 0.157560 0.789526
O O7 0.778783 0.986013 0.751110
O O8 0.623565 0.113660 0.906495
O O9 0.659267 0.589346 0.182999
O O10 0.421894 0.683557 0.319141
O O11 0.244187 0.556713 0.038159
O O12 0.950522 0.533800 0.097332
O O13 0.735975 0.604058 0.728427
O O14 0.641746 0.793509 0.814624
O O15 0.545689 0.611763 0.932200
O O16 0.898097 0.169691 0.130741
#
# Coordination Sequence:
#
# PCOD8055934 Si02
#       8
#     4   4   4   4   4   4   4   4
#     4  11  23  48  71  96 146 189 225 295 356 410
#     4  10  24  48  66  99 144 183 233 296 352 419
#     4  11  24  44  70 102 138 183 235 288 351 420
#     4  10  26  44  71 105 137 189 240 286 357 426
#     4  11  25  48  71 101 149 186 235 299 358 416
#     4  12  24  45  73 105 140 186 238 288 357 423
#     4  11  23  46  70 101 143 186 229 298 355 414
#     4  12  25  45  72 105 137 192 237 290 360 422
#
# _framework density 23.258907000000001
#
# number of rings (size 3 to 8) (size 9 to 14) (size 15 to 20)
#    0.000    1.000    3.750    1.500    5.250    7.000 
#    0.000    1.250    0.000    0.000    0.000    0.000 
#    0.000    0.000    0.000    0.000    0.000    0.000 
#
# Total GULP energy -198297.630161 kJ/mol
# GULP energy per Si atom -12393.601885 kJ/mol
# Density = 2.320597 g / cm^3
# Si number density = 23.258907 Si / 1000 Ang^3
#
#
#
# Elastic Constant Matrix: (Units=GPa)
#
#
# Indices 1 2 3 4 5 6 
#
# 1 94.6960 73.1361 37.6254 0.0000 -14.5755 0.0000
# 2 73.1361 132.8991 28.2076 0.0000 -6.5909 0.0000
# 3 37.6254 28.2076 80.4604 0.0000 -6.8544 0.0000
# 4 0.0000 0.0000 0.0000 24.3428 0.0000 -8.0755
# 5 -14.5755 -6.5909 -6.8544 0.0000 35.2681 0.0000
# 6 0.0000 0.0000 0.0000 -8.0755 0.0000 47.6777
#
#
#
# Elastic Compliance Matrix: (Units=1/GPa)
#
#
# Indices 1 2 3 4 5 6 
#
# 1 0.022042 -0.010539 -0.006105 0.000000 0.005953 0.000000
# 2 -0.010539 0.013202 0.000141 0.000000 -0.001861 0.000000
# 3 -0.006105 0.000141 0.015274 0.000000 0.000472 0.000000
# 4 0.000000 0.000000 0.000000 0.043526 0.000000 0.007372
# 5 0.005953 -0.001861 0.000472 0.000000 0.030559 0.000000
# 6 0.000000 0.000000 0.000000 0.007372 0.000000 0.022223
#
#
# Mechanical properties :
#
#
# Convention : Reuss Voigt Hill
#
# Bulk Modulus (GPa) = 57.10347 65.11042 61.10694
# Shear Modulus (GPa) = 26.92991 32.73014 29.83002
#
# Velocity S-wave (km/s) = 3.40638 3.75535 3.58511
# Velocity P-wave (km/s) = 6.33055 6.84529 6.59294
#
# Compressibility (1/GPa) = 0.01751207
#
# Stress axis : x y z
#
# Youngs Moduli (GPa) = 45.36886 75.74734 65.47008
#
# Poissons Ratio (x) = 0.79828 0.39972
# Poissons Ratio (y) = 0.47813 -0.00926
# Poissons Ratio (z) = 0.27700 -0.01071
#
# Static dielectric constant tensor:
#      x y z
#    x 3.963930 0.000000 -0.020310 
#    y 0.000000 4.472940 0.000000 
#    z -0.020310 0.000000 4.358170 
# 
# 
# High freq. dielectric constant tensor:
#      x y z
#    x 1.906440 0.000000 -0.000670 
#    y 0.000000 1.927310 0.000000 
#    z -0.000670 0.000000 1.922390 
# 
# From -- ./inp_files/22884.got.cif
#   From: 2010.06.25/outbox.cif.g09.slc.cpg/sg9_12_cif.got.tgz:22884.got - 2010.06.27 21:40:51.
