data_PCOD8055163
_publ_section_title
;
Structure prediction by ZEFSAII (Michael W. Deem and Ramdas Pophale) SiO2 
 PCOD8055163
Probable space group: C C
;
_chemical_formula_sum "Si O2"
_cell_formula_units_Z 32
_cell_length_a 15.048946
_cell_length_b 20.087569
_cell_length_c 15.070260
_cell_angle_alpha 90.000000
_cell_angle_beta 160.844713
_cell_angle_gamma 90.000000
_cell_volume 1494.856741
_symmetry_space_group_name_H-M "C C"
_symmetry_group_IT_number 9
_symmetry_cell_setting 'monoclinic'
loop_
_space_group_symop_operation_xyz
x,y,z
x,-y,1/2+z
1/2+x,1/2+y,z
1/2+x,1/2-y,1/2+z
loop_
_atom_site_type_symbol
_atom_site_label
_atom_site_fract_x
_atom_site_fract_y
_atom_site_fract_z
Si Si1 0.402030 0.709355 0.246200
Si Si2 0.173930 0.578809 0.621240
Si Si3 0.158819 0.703391 0.511450
Si Si4 0.120675 0.394912 0.819962
Si Si5 0.673146 0.415258 0.913079
Si Si6 0.782477 0.208109 0.334518
Si Si7 0.231694 0.457810 0.376018
Si Si8 0.724376 0.456998 0.563631
O O1 0.606142 0.772358 0.429458
O O2 0.555017 0.652368 0.338542
O O3 0.347581 0.687451 0.295666
O O4 0.105541 0.658273 0.549722
O O5 0.159821 0.547437 0.705041
O O6 0.980757 0.536611 0.373006
O O7 0.485952 0.579556 0.888074
O O8 0.246504 0.651541 0.516167
O O9 0.879294 0.739641 0.227153
O O10 0.150198 0.356141 0.755733
O O11 0.260775 0.466441 0.937806
O O12 0.813396 0.413263 0.560875
O O13 0.520625 0.426698 0.674975
O O14 0.611249 0.471488 0.927741
O O15 0.995978 0.416245 0.203496
O O16 0.066961 0.231997 0.643880
#
# Coordination Sequence:
#
# PCOD8055163 Si02
#       8
#     4   4   4   4   4   4   4   4
#     4  10  22  41  62  90 123 163 213 261 316 384
#     4  11  23  43  61  94 131 167 217 268 322 389
#     4  11  22  38  64  88 125 169 206 259 315 390
#     4  10  22  40  61  96 124 167 209 258 325 381
#     4  11  22  42  64  91 124 167 214 270 319 379
#     4  10  22  38  58  91 128 160 203 253 308 388
#     4  11  25  41  65  95 129 163 220 275 318 383
#     4  10  22  39  65  91 128 168 212 258 323 392
#
# _framework density 21.406732999999999
#
# number of rings (size 3 to 8) (size 9 to 14) (size 15 to 20)
#    0.000    1.500    0.000    6.000    1.750    5.000 
#    4.500    3.750    0.000    0.000    0.000    0.000 
#    0.000    0.000    0.000    0.000    0.000    0.000 
#
# Total GULP energy -198260.669881 kJ/mol
# GULP energy per Si atom -12391.291868 kJ/mol
# Density = 2.135801 g / cm^3
# Si number density = 21.406733 Si / 1000 Ang^3
#
#
#
# Elastic Constant Matrix: (Units=GPa)
#
#
# Indices 1 2 3 4 5 6 
#
# 1 66.7970 39.1724 18.3394 0.0007 0.0682 0.0011
# 2 39.1724 82.5119 13.0131 -0.0059 -6.2126 0.0001
# 3 18.3394 13.0131 90.4326 0.0124 -1.4242 0.0061
# 4 0.0007 -0.0059 0.0124 22.5332 0.0045 2.1254
# 5 0.0682 -6.2126 -1.4242 0.0045 28.5532 0.0020
# 6 0.0011 0.0001 0.0061 2.1254 0.0020 29.2553
#
#
#
# Elastic Compliance Matrix: (Units=1/GPa)
#
#
# Indices 1 2 3 4 5 6 
#
# 1 0.021650 -0.009985 -0.002991 -0.000001 -0.002374 0.000000
# 2 -0.009985 0.017204 -0.000392 0.000004 0.003748 0.000000
# 3 -0.002991 -0.000392 0.011729 -0.000006 0.000507 -0.000002
# 4 -0.000001 0.000004 -0.000006 0.044685 -0.000006 -0.003246
# 5 -0.002374 0.003748 0.000507 -0.000006 0.035869 -0.000002
# 6 0.000000 0.000000 -0.000002 -0.003246 -0.000002 0.034418
#
#
# Mechanical properties :
#
#
# Convention : Reuss Voigt Hill
#
# Bulk Modulus (GPa) = 41.93422 42.31016 42.12219
# Shear Modulus (GPa) = 24.97010 27.34946 26.15978
#
# Velocity S-wave (km/s) = 3.41905 3.57825 3.49955
# Velocity P-wave (km/s) = 5.93451 6.07286 6.00408
#
# Compressibility (1/GPa) = 0.02384687
#
# Stress axis : x y z
#
# Youngs Moduli (GPa) = 46.18898 58.12625 85.25961
#
# Poissons Ratio (x) = 0.58041 0.25502
# Poissons Ratio (y) = 0.46121 0.03339
# Poissons Ratio (z) = 0.13816 0.02276
#
# Static dielectric constant tensor:
#      x y z
#    x 3.839370 0.000000 0.064060 
#    y 0.000000 3.833770 -0.000010 
#    z 0.064060 -0.000010 3.977110 
# 
# 
# High freq. dielectric constant tensor:
#      x y z
#    x 1.827320 0.000000 0.010550 
#    y 0.000000 1.833960 0.000000 
#    z 0.010550 0.000000 1.851610 
# 
# From -- ./inp_files/26123.got.cif
#   From: 2010.06.25/outbox.cif.g09.slc.cpg/sg9_14_cif.got.tgz:26123.got - 2010.06.27 21:40:51.
