data_PCOD8055171
_publ_section_title
;
Structure prediction by ZEFSAII (Michael W. Deem and Ramdas Pophale) SiO2 
 PCOD8055171
Probable space group: C C
;
_chemical_formula_sum "Si O2"
_cell_formula_units_Z 32
_cell_length_a 17.603703
_cell_length_b 6.876788
_cell_length_c 14.436297
_cell_angle_alpha 90.000000
_cell_angle_beta 121.771218
_cell_angle_gamma 90.000000
_cell_volume 1485.746664
_symmetry_space_group_name_H-M "C C"
_symmetry_group_IT_number 9
_symmetry_cell_setting 'monoclinic'
loop_
_space_group_symop_operation_xyz
x,y,z
x,-y,1/2+z
1/2+x,1/2+y,z
1/2+x,1/2-y,1/2+z
loop_
_atom_site_type_symbol
_atom_site_label
_atom_site_fract_x
_atom_site_fract_y
_atom_site_fract_z
Si Si1 0.067590 0.328834 0.890510
Si Si2 0.330663 0.279430 0.578088
Si Si3 0.143433 0.264954 0.758619
Si Si4 0.949040 0.892279 0.075059
Si Si5 0.319463 0.942303 0.427394
Si Si6 0.164513 0.391112 0.576451
Si Si7 0.030858 0.918482 0.939484
Si Si8 0.913627 0.415907 0.295674
O O1 0.131739 0.388625 0.845774
O O2 0.064776 0.099223 0.902318
O O3 0.968250 0.394842 0.799887
O O4 0.098379 0.434565 0.004999
O O5 0.411181 0.429280 0.611034
O O6 0.249059 0.410247 0.563243
O O7 0.344087 0.128412 0.670685
O O8 0.312654 0.147955 0.476379
O O9 0.218614 0.109147 0.833757
O O10 0.180041 0.402485 0.698162
O O11 0.044704 0.175454 0.676673
O O12 0.874859 0.718918 0.022323
O O13 0.965873 0.976245 0.982603
O O14 0.370560 0.972727 0.364715
O O15 0.120416 0.180475 0.535524
O O16 0.979091 0.769591 0.840624
#
# Coordination Sequence:
#
# PCOD8055171 Si02
#       8
#     4   4   4   4   4   4   4   4
#     4  11  21  39  66  90 123 172 220 259 332 391
#     4  12  22  39  64  90 129 172 217 263 328 389
#     4  11  22  43  67  95 137 171 212 279 328 375
#     4  10  23  40  66  98 131 172 219 267 327 397
#     4  11  23  43  66  94 135 174 216 273 329 391
#     4  10  23  40  61  92 127 166 215 271 320 388
#     4   9  20  40  60  89 129 162 212 271 318 387
#     4  10  22  38  62  92 127 167 213 269 326 380
#
# _framework density 21.537993
#
# number of rings (size 3 to 8) (size 9 to 14) (size 15 to 20)
#    0.000    1.500    1.250    4.500    0.000    2.000 
#    0.000    6.250    0.000    0.000    0.000    0.000 
#    0.000    0.000    0.000    0.000    0.000    0.000 
#
# Total GULP energy -198293.510635 kJ/mol
# GULP energy per Si atom -12393.344415 kJ/mol
# Density = 2.148897 g / cm^3
# Si number density = 21.537993 Si / 1000 Ang^3
#
#
#
# Elastic Constant Matrix: (Units=GPa)
#
#
# Indices 1 2 3 4 5 6 
#
# 1 110.3135 30.0611 26.8550 0.0000 -8.4462 0.0000
# 2 30.0611 62.3063 22.6145 0.0000 -9.6533 0.0000
# 3 26.8550 22.6145 75.1039 0.0000 -8.2535 0.0000
# 4 0.0000 0.0000 0.0000 24.6333 0.0000 -0.3985
# 5 -8.4462 -9.6533 -8.2535 0.0000 44.9802 0.0000
# 6 0.0000 0.0000 0.0000 -0.3985 0.0000 31.6789
#
#
#
# Elastic Compliance Matrix: (Units=1/GPa)
#
#
# Indices 1 2 3 4 5 6 
#
# 1 0.010888 -0.004225 -0.002547 0.000000 0.000670 0.000000
# 2 -0.004225 0.020045 -0.004225 0.000000 0.002733 0.000000
# 3 -0.002547 -0.004225 0.015661 0.000000 0.001489 0.000000
# 4 0.000000 0.000000 0.000000 0.040604 0.000000 0.000511
# 5 0.000670 0.002733 0.001489 0.000000 0.023218 0.000000
# 6 0.000000 0.000000 0.000000 0.000511 0.000000 0.031573
#
#
# Mechanical properties :
#
#
# Convention : Reuss Voigt Hill
#
# Bulk Modulus (GPa) = 40.64933 45.19833 42.92383
# Shear Modulus (GPa) = 29.03896 31.47134 30.25515
#
# Velocity S-wave (km/s) = 3.67586 3.82671 3.75204
# Velocity P-wave (km/s) = 6.07702 6.36835 6.22439
#
# Compressibility (1/GPa) = 0.02460065
#
# Stress axis : x y z
#
# Youngs Moduli (GPa) = 91.84604 49.88805 63.85095
#
# Poissons Ratio (x) = 0.21076 0.16265
# Poissons Ratio (y) = 0.38801 0.26975
# Poissons Ratio (z) = 0.23397 0.21076
#
# Static dielectric constant tensor:
#      x y z
#    x 4.111170 0.000000 -0.111880 
#    y 0.000000 3.529740 0.000000 
#    z -0.111880 0.000000 4.087110 
# 
# 
# High freq. dielectric constant tensor:
#      x y z
#    x 1.860810 0.000000 -0.008970 
#    y 0.000000 1.819980 0.000000 
#    z -0.008970 0.000000 1.854120 
# 
# From -- ./inp_files/26440.got.cif
#   From: 2010.06.25/outbox.cif.g09.slc.cpg/sg9_14_cif.got.tgz:26440.got - 2010.06.27 21:40:51.
