data_PCOD8055688
_publ_section_title
;
Structure prediction by ZEFSAII (Michael W. Deem and Ramdas Pophale) SiO2 
 PCOD8055688
Probable space group: C C
;
_chemical_formula_sum "Si O2"
_cell_formula_units_Z 32
_cell_length_a 11.967076
_cell_length_b 8.059753
_cell_length_c 16.733358
_cell_angle_alpha 90.000000
_cell_angle_beta 109.798096
_cell_angle_gamma 90.000000
_cell_volume 1518.562503
_symmetry_space_group_name_H-M "C C"
_symmetry_group_IT_number 9
_symmetry_cell_setting 'monoclinic'
loop_
_space_group_symop_operation_xyz
x,y,z
x,-y,1/2+z
1/2+x,1/2+y,z
1/2+x,1/2-y,1/2+z
loop_
_atom_site_type_symbol
_atom_site_label
_atom_site_fract_x
_atom_site_fract_y
_atom_site_fract_z
Si Si1 0.598800 0.842181 0.196310
Si Si2 0.477540 0.667368 0.467673
Si Si3 0.905427 0.463806 0.567118
Si Si4 0.740298 0.985268 0.853537
Si Si5 0.046385 0.253452 0.870767
Si Si6 0.826615 0.680506 0.413129
Si Si7 0.145463 0.124817 0.053733
Si Si8 0.079162 0.103347 0.332105
O O1 0.636005 0.740771 0.127822
O O2 0.541695 0.714290 0.247368
O O3 0.503540 0.986816 0.155835
O O4 0.717219 0.931659 0.260423
O O5 0.454165 0.812278 0.525020
O O6 0.354333 0.629280 0.391204
O O7 0.544398 0.519545 0.532118
O O8 0.558089 0.708048 0.409587
O O9 0.894099 0.624357 0.508495
O O10 0.781585 0.435559 0.582591
O O11 0.617338 0.889303 0.838230
O O12 0.767690 0.140393 0.918545
O O13 0.916514 0.320365 0.860501
O O14 0.020178 0.079150 0.818443
O O15 0.123925 0.229445 0.969058
O O16 0.719834 0.557677 0.363347
#
# Coordination Sequence:
#
# PCOD8055688 Si02
#       8
#     4   4   4   4   4   4   4   4
#     4  11  27  42  61 103 145 162 220 292 353 380
#     4  11  22  46  74  93 129 185 238 259 330 425
#     4  12  24  45  68 101 133 181 226 281 339 403
#     4  11  23  42  68 103 129 178 224 275 340 400
#     4  11  21  42  73  89 130 179 234 266 323 411
#     4  11  21  39  71  94 129 172 229 270 322 407
#     4  11  23  47  65  98 134 177 227 281 329 411
#     4  10  23  45  64 101 131 174 224 280 330 407
#
# _framework density 21.072558999999998
#
# number of rings (size 3 to 8) (size 9 to 14) (size 15 to 20)
#    0.000    1.000    7.500    0.000    3.500    3.000 
#    6.750    0.000    0.000    0.000    0.000    0.000 
#    0.000    0.000    0.000    0.000    0.000    0.000 
#
# Total GULP energy -198221.570410 kJ/mol
# GULP energy per Si atom -12388.848151 kJ/mol
# Density = 2.102460 g / cm^3
# Si number density = 21.072559 Si / 1000 Ang^3
#
#
#
# Elastic Constant Matrix: (Units=GPa)
#
#
# Indices 1 2 3 4 5 6 
#
# 1 139.4071 46.6678 39.0983 0.0000 7.6993 0.0000
# 2 46.6678 88.4917 61.1266 0.0000 -2.4577 0.0000
# 3 39.0983 61.1266 112.8708 0.0000 3.6530 0.0000
# 4 0.0000 0.0000 0.0000 48.0928 0.0000 -0.2114
# 5 7.6993 -2.4577 3.6530 0.0000 28.2715 0.0000
# 6 0.0000 0.0000 0.0000 -0.2114 0.0000 35.0663
#
#
#
# Elastic Compliance Matrix: (Units=1/GPa)
#
#
# Indices 1 2 3 4 5 6 
#
# 1 0.008965 -0.004345 -0.000664 0.000000 -0.002733 0.000000
# 2 -0.004345 0.020391 -0.009674 0.000000 0.004206 0.000000
# 3 -0.000664 -0.009674 0.014410 0.000000 -0.002522 0.000000
# 4 0.000000 0.000000 0.000000 0.020794 0.000000 0.000125
# 5 -0.002733 0.004206 -0.002522 0.000000 0.036807 0.000000
# 6 0.000000 0.000000 0.000000 0.000125 0.000000 0.028518
#
#
# Mechanical properties :
#
#
# Convention : Reuss Voigt Hill
#
# Bulk Modulus (GPa) = 69.44239 70.50610 69.97424
# Shear Modulus (GPa) = 30.47807 35.21125 32.84466
#
# Velocity S-wave (km/s) = 3.80720 4.09216 3.95225
# Velocity P-wave (km/s) = 7.23546 7.47389 7.35564
#
# Compressibility (1/GPa) = 0.01440043
#
# Stress axis : x y z
#
# Youngs Moduli (GPa) = 111.54515 49.04030 69.39440
#
# Poissons Ratio (x) = 0.21309 0.04606
# Poissons Ratio (y) = 0.48470 0.67133
# Poissons Ratio (z) = 0.07404 0.47442
#
# Static dielectric constant tensor:
#      x y z
#    x 4.111590 0.000000 0.113820 
#    y 0.000000 3.836710 0.000000 
#    z 0.113820 0.000000 3.691600 
# 
# 
# High freq. dielectric constant tensor:
#      x y z
#    x 1.839300 0.000000 0.011740 
#    y 0.000000 1.825900 0.000000 
#    z 0.011740 0.000000 1.809010 
# 
# From -- ./inp_files/29804.got.cif
#   From: 2010.06.25/outbox.cif.g09.slc.cpg/sg9_15_cif.got.tgz:29804.got - 2010.06.27 21:40:51.
