data_PCOD8055651
_publ_section_title
;
Structure prediction by ZEFSAII (Michael W. Deem and Ramdas Pophale) SiO2 
 PCOD8055651
Probable space group: C C
;
_chemical_formula_sum "Si O2"
_cell_formula_units_Z 32
_cell_length_a 13.880107
_cell_length_b 12.150025
_cell_length_c 9.051142
_cell_angle_alpha 90.000000
_cell_angle_beta 69.525781
_cell_angle_gamma 90.000000
_cell_volume 1429.993301
_symmetry_space_group_name_H-M "C C"
_symmetry_group_IT_number 9
_symmetry_cell_setting 'monoclinic'
loop_
_space_group_symop_operation_xyz
x,y,z
x,-y,1/2+z
1/2+x,1/2+y,z
1/2+x,1/2-y,1/2+z
loop_
_atom_site_type_symbol
_atom_site_label
_atom_site_fract_x
_atom_site_fract_y
_atom_site_fract_z
Si Si1 0.806570 0.822299 0.590370
Si Si2 0.831290 0.579792 0.573983
Si Si3 0.550805 0.112540 0.594528
Si Si4 0.269016 0.109672 0.296984
Si Si5 0.350973 0.339677 0.235319
Si Si6 0.505637 0.364659 0.644066
Si Si7 0.543899 0.425280 0.955929
Si Si8 0.667373 0.004737 0.271066
O O1 0.774993 0.695784 0.633735
O O2 0.866088 0.835817 0.403374
O O3 0.883997 0.858310 0.678236
O O4 0.703675 0.894823 0.646702
O O5 0.841019 0.565387 0.391860
O O6 0.761065 0.482138 0.674375
O O7 0.941238 0.574895 0.593202
O O8 0.559392 0.245096 0.600193
O O9 0.573237 0.060720 0.744370
O O10 0.635970 0.060554 0.441526
O O11 0.315157 0.219438 0.199211
O O12 0.153998 0.134076 0.419181
O O13 0.459454 0.365791 0.102460
O O14 0.264510 0.425942 0.237353
O O15 0.556885 0.447472 0.498229
O O16 0.512229 0.416375 0.802594
#
# Coordination Sequence:
#
# PCOD8055651 Si02
#       8
#     4   4   4   4   4   4   4   4
#     4  10  23  44  67 101 143 187 233 293 365 412
#     4  10  24  47  65 101 143 183 240 295 351 429
#     4  11  26  44  73 106 145 189 242 295 371 426
#     4  11  25  45  69 101 139 192 237 294 366 425
#     4  11  25  45  70 105 144 184 241 303 357 432
#     4  11  25  45  69 107 141 192 236 300 359 425
#     4  12  25  44  71 102 144 189 244 296 362 437
#     4  12  23  44  72 105 143 186 237 296 355 442
#
# _framework density 22.377727
#
# number of rings (size 3 to 8) (size 9 to 14) (size 15 to 20)
#    0.000    1.000    2.500    3.000    3.500    4.000 
#   11.250    0.000    0.000    0.000    0.000    0.000 
#    0.000    0.000    0.000    0.000    0.000    0.000 
#
# Total GULP energy -198416.851769 kJ/mol
# GULP energy per Si atom -12401.053236 kJ/mol
# Density = 2.232679 g / cm^3
# Si number density = 22.377727 Si / 1000 Ang^3
#
#
#
# Elastic Constant Matrix: (Units=GPa)
#
#
# Indices 1 2 3 4 5 6 
#
# 1 75.5253 41.7832 20.9520 0.0000 -2.6786 0.0000
# 2 41.7832 159.2386 63.0942 0.0000 -2.8070 0.0000
# 3 20.9520 63.0942 94.8348 0.0000 2.2826 0.0000
# 4 0.0000 0.0000 0.0000 40.5642 0.0000 2.7791
# 5 -2.6786 -2.8070 2.2826 0.0000 38.1338 0.0000
# 6 0.0000 0.0000 0.0000 2.7791 0.0000 32.6676
#
#
#
# Elastic Compliance Matrix: (Units=1/GPa)
#
#
# Indices 1 2 3 4 5 6 
#
# 1 0.015585 -0.003668 -0.001024 0.000000 0.000886 0.000000
# 2 -0.003668 0.009427 -0.005480 0.000000 0.000764 0.000000
# 3 -0.001024 -0.005480 0.014449 0.000000 -0.001340 0.000000
# 4 0.000000 0.000000 0.000000 0.024797 0.000000 -0.002109
# 5 0.000886 0.000764 -0.001340 0.000000 0.026422 0.000000
# 6 0.000000 0.000000 0.000000 -0.002109 0.000000 0.030791
#
#
# Mechanical properties :
#
#
# Convention : Reuss Voigt Hill
#
# Bulk Modulus (GPa) = 52.30915 64.58414 58.44665
# Shear Modulus (GPa) = 33.74087 35.85776 34.79932
#
# Velocity S-wave (km/s) = 3.88724 4.00732 3.94774
# Velocity P-wave (km/s) = 6.60104 7.09472 6.85233
#
# Compressibility (1/GPa) = 0.01911711
#
# Stress axis : x y z
#
# Youngs Moduli (GPa) = 64.16230 106.07700 69.20883
#
# Poissons Ratio (x) = 0.38910 0.07089
# Poissons Ratio (y) = 0.23535 0.37926
# Poissons Ratio (z) = 0.06572 0.58129
#
# Static dielectric constant tensor:
#      x y z
#    x 3.995880 0.000000 0.192960 
#    y 0.000000 4.275950 0.000000 
#    z 0.192960 0.000000 3.901560 
# 
# 
# High freq. dielectric constant tensor:
#      x y z
#    x 1.886260 0.000000 0.013960 
#    y 0.000000 1.898030 0.000000 
#    z 0.013960 0.000000 1.870910 
# 
# From -- ./inp_files/9219.got.cif
#   From: 2010.06.25/outbox.cif.g09.slc.cpg/sg9_5_cif.got.tgz:9219.got - 2010.06.27 21:40:51.
