data_PCOD8055197
_publ_section_title
;
Structure prediction by ZEFSAII (Michael W. Deem and Ramdas Pophale) SiO2 
 PCOD8055197
Probable space group: C C
;
_chemical_formula_sum "Si O2"
_cell_formula_units_Z 28
_cell_length_a 11.021170
_cell_length_b 11.373790
_cell_length_c 13.682845
_cell_angle_alpha 90.000000
_cell_angle_beta 51.944088
_cell_angle_gamma 90.000000
_cell_volume 1350.547962
_symmetry_space_group_name_H-M "C C"
_symmetry_group_IT_number 9
_symmetry_cell_setting 'monoclinic'
loop_
_space_group_symop_operation_xyz
x,y,z
x,-y,1/2+z
1/2+x,1/2+y,z
1/2+x,1/2-y,1/2+z
loop_
_atom_site_type_symbol
_atom_site_label
_atom_site_fract_x
_atom_site_fract_y
_atom_site_fract_z
Si Si1 0.303180 0.525072 0.009410
Si Si2 0.149842 0.925719 0.327262
Si Si3 0.250761 0.318977 0.707605
Si Si4 0.362110 0.633731 0.657553
Si Si5 0.318462 0.106776 0.123500
Si Si6 0.073099 0.924427 0.581891
Si Si7 0.127954 0.489484 0.401753
O O1 0.237640 0.638274 0.101369
O O2 0.308653 0.415280 0.079663
O O3 0.473810 0.550180 0.883132
O O4 0.190209 0.488849 0.979560
O O5 0.208708 0.816445 0.234393
O O6 0.165737 0.903860 0.435137
O O7 0.261074 0.033837 0.245448
O O8 0.424104 0.341011 0.658698
O O9 0.135868 0.391786 0.834638
O O10 0.387916 0.771943 0.631165
O O11 0.515635 0.561668 0.615767
O O12 0.225680 0.615120 0.803545
O O13 0.174687 0.117497 0.121723
O O14 0.449979 0.043291 0.996148
#
# Coordination Sequence:
#
# PCOD8055197 Si02
#       7
#     4   4   4   4   4   4   4
#     4   9  21  42  63  85 127 165 198 266 329 356
#     4  10  22  39  65  93 117 161 215 251 315 389
#     4   9  21  41  63  89 122 161 212 257 316 381
#     4   9  23  44  60  91 129 161 211 267 313 375
#     4  12  25  37  67  96 122 167 216 251 322 395
#     4   9  23  44  61  90 128 166 201 268 323 360
#     4  10  23  39  61  92 123 163 207 258 318 378
#
# _framework density 20.732327000000002
#
# number of rings (size 3 to 8) (size 9 to 14) (size 15 to 20)
#    0.000    2.857    0.000    1.714   10.000    5.714 
#    0.000    0.000    0.000    0.000    0.000    0.000 
#    0.000    0.000    0.000    0.000    0.000    0.000 
#
# Total GULP energy -173582.037161 kJ/mol
# GULP energy per Si atom -12398.716940 kJ/mol
# Density = 2.068514 g / cm^3
# Si number density = 20.732327 Si / 1000 Ang^3
#
#
#
# Elastic Constant Matrix: (Units=GPa)
#
#
# Indices 1 2 3 4 5 6 
#
# 1 47.0781 -3.1907 3.8258 0.0000 -4.2396 0.0000
# 2 -3.1907 102.6624 29.9427 0.0000 -4.9345 0.0000
# 3 3.8258 29.9427 107.3340 0.0000 -11.1532 0.0000
# 4 0.0000 0.0000 0.0000 25.7050 0.0000 -1.9561
# 5 -4.2396 -4.9345 -11.1532 0.0000 22.0084 0.0000
# 6 0.0000 0.0000 0.0000 -1.9561 0.0000 14.0195
#
#
#
# Elastic Compliance Matrix: (Units=1/GPa)
#
#
# Indices 1 2 3 4 5 6 
#
# 1 0.021735 0.001061 -0.000645 0.000000 0.004098 0.000000
# 2 0.001061 0.010673 -0.002898 0.000000 0.001129 0.000000
# 3 -0.000645 -0.002898 0.010627 0.000000 0.004612 0.000000
# 4 0.000000 0.000000 0.000000 0.039320 0.000000 0.005486
# 5 0.004098 0.001129 0.004612 0.000000 0.048817 0.000000
# 6 0.000000 0.000000 0.000000 0.005486 0.000000 0.072095
#
#
# Mechanical properties :
#
#
# Convention : Reuss Voigt Hill
#
# Bulk Modulus (GPa) = 26.26693 35.35891 30.81292
# Shear Modulus (GPa) = 22.63246 27.44635 25.03940
#
# Velocity S-wave (km/s) = 3.30760 3.64241 3.47904
# Velocity P-wave (km/s) = 5.22341 5.89759 5.57071
#
# Compressibility (1/GPa) = 0.03807068
#
# Stress axis : x y z
#
# Youngs Moduli (GPa) = 46.00954 93.69344 94.09688
#
# Poissons Ratio (x) = -0.09936 0.06067
# Poissons Ratio (y) = -0.04879 0.27269
# Poissons Ratio (z) = 0.02966 0.27152
#
# Static dielectric constant tensor:
#      x y z
#    x 3.440640 0.000000 0.006070 
#    y 0.000000 3.565030 0.000000 
#    z 0.006070 0.000000 3.923810 
# 
# 
# High freq. dielectric constant tensor:
#      x y z
#    x 1.792420 0.000000 0.003210 
#    y 0.000000 1.797860 0.000000 
#    z 0.003210 0.000000 1.831190 
# 
# From -- ./inp_files/24475.got.cif
#   From: 2010.06.25/outbox.cif.g09.slc.cpg/sg9_13_cif.got.tgz:24475.got - 2010.06.27 21:40:51.
