data_PCOD8055799
_publ_section_title
;
Structure prediction by ZEFSAII (Michael W. Deem and Ramdas Pophale) SiO2 
 PCOD8055799
Probable space group: C C
;
_chemical_formula_sum "Si O2"
_cell_formula_units_Z 28
_cell_length_a 30.864685
_cell_length_b 5.034911
_cell_length_c 9.089248
_cell_angle_alpha 90.000000
_cell_angle_beta 123.978583
_cell_angle_gamma 90.000000
_cell_volume 1171.292246
_symmetry_space_group_name_H-M "C C"
_symmetry_group_IT_number 9
_symmetry_cell_setting 'monoclinic'
loop_
_space_group_symop_operation_xyz
x,y,z
x,-y,1/2+z
1/2+x,1/2+y,z
1/2+x,1/2-y,1/2+z
loop_
_atom_site_type_symbol
_atom_site_label
_atom_site_fract_x
_atom_site_fract_y
_atom_site_fract_z
Si Si1 0.438760 0.780625 0.949910
Si Si2 0.280494 0.257821 0.489675
Si Si3 0.818959 0.734091 0.230728
Si Si4 0.663671 0.185407 0.681023
Si Si5 0.580982 0.541812 0.431983
Si Si6 0.607545 0.950258 0.821194
Si Si7 0.476338 0.282272 0.853535
O O1 0.378295 0.861850 0.825315
O O2 0.442848 0.498506 0.877210
O O3 0.473852 0.003001 0.935463
O O4 0.454646 0.754519 0.148886
O O5 0.305644 0.243176 0.377178
O O6 0.309127 0.479844 0.640164
O O7 0.219064 0.313208 0.361730
O O8 0.283779 0.979117 0.579501
O O9 0.634456 0.475916 0.626530
O O10 0.664119 0.083825 0.513613
O O11 0.623245 0.969771 0.680139
O O12 0.583227 0.769086 0.315640
O O13 0.535606 0.611062 0.461539
O O14 0.568570 0.282073 0.303960
#
# Coordination Sequence:
#
# PCOD8055799 Si02
#       7
#     4   4   4   4   4   4   4
#     4  12  26  48  76 104 149 185 252 303 371 425
#     4  12  27  44  78 104 151 188 249 289 382 426
#     4  12  26  47  72 111 142 194 241 312 359 439
#     4  10  26  43  71 100 146 183 238 286 353 431
#     4  10  26  42  70 101 144 181 237 287 351 432
#     4  10  24  40  68  94 146 178 232 286 342 412
#     4  12  27  48  77 108 142 197 239 303 370 439
#
# _framework density 23.905221999999998
#
# number of rings (size 3 to 8) (size 9 to 14) (size 15 to 20)
#    0.857    0.000    0.000    6.000    8.000    0.000 
#    0.000    0.000    0.000    0.000    0.000    0.000 
#    0.000    0.000    0.000    0.000    0.000    0.000 
#
# Total GULP energy -173513.303989 kJ/mol
# GULP energy per Si atom -12393.807428 kJ/mol
# Density = 2.385081 g / cm^3
# Si number density = 23.905222 Si / 1000 Ang^3
#
#
#
# Elastic Constant Matrix: (Units=GPa)
#
#
# Indices 1 2 3 4 5 6 
#
# 1 85.1881 23.5120 14.2650 0.0000 -2.7411 0.0000
# 2 23.5120 136.9582 26.9455 0.0000 -21.6006 0.0000
# 3 14.2650 26.9455 79.4950 0.0000 -30.2252 0.0000
# 4 0.0000 0.0000 0.0000 44.1561 0.0000 -0.2424
# 5 -2.7411 -21.6006 -30.2252 0.0000 45.3043 0.0000
# 6 0.0000 0.0000 0.0000 -0.2424 0.0000 45.4312
#
#
#
# Elastic Compliance Matrix: (Units=1/GPa)
#
#
# Indices 1 2 3 4 5 6 
#
# 1 0.012606 -0.001990 -0.002222 0.000000 -0.001669 0.000000
# 2 -0.001990 0.008378 -0.001353 0.000000 0.002972 0.000000
# 3 -0.002222 -0.001353 0.017606 0.000000 0.010967 0.000000
# 4 0.000000 0.000000 0.000000 0.022648 0.000000 0.000121
# 5 -0.001669 0.002972 0.010967 0.000000 0.030705 0.000000
# 6 0.000000 0.000000 0.000000 0.000121 0.000000 0.022012
#
#
# Mechanical properties :
#
#
# Convention : Reuss Voigt Hill
#
# Bulk Modulus (GPa) = 36.41546 47.89846 42.15696
# Shear Modulus (GPa) = 37.24684 42.77290 40.00987
#
# Velocity S-wave (km/s) = 3.95157 4.23457 4.09551
# Velocity P-wave (km/s) = 6.00718 6.63242 6.32753
#
# Compressibility (1/GPa) = 0.02746087
#
# Stress axis : x y z
#
# Youngs Moduli (GPa) = 79.32469 119.36050 56.79727
#
# Poissons Ratio (x) = 0.23755 0.12620
# Poissons Ratio (y) = 0.15787 0.07684
# Poissons Ratio (z) = 0.17626 0.16147
#
# Static dielectric constant tensor:
#      x y z
#    x 4.404000 0.000000 -0.020400 
#    y 0.000000 4.364770 0.000000 
#    z -0.020400 0.000000 4.348360 
# 
# 
# High freq. dielectric constant tensor:
#      x y z
#    x 1.943690 0.000000 -0.013190 
#    y 0.000000 1.964150 0.000000 
#    z -0.013190 0.000000 1.963690 
# 
# From -- ./inp_files/12604.got.cif
#   From: 2010.06.25/outbox.cif.g09.slc.cpg/sg9_7_cif.got.tgz:12604.got - 2010.06.27 21:40:51.
