data_PCOD8055075
_publ_section_title
;
Structure prediction by ZEFSAII (Michael W. Deem and Ramdas Pophale) SiO2 
 PCOD8055075
Probable space group: C C
;
_chemical_formula_sum "Si O2"
_cell_formula_units_Z 32
_cell_length_a 7.485758
_cell_length_b 14.129781
_cell_length_c 13.480913
_cell_angle_alpha 90.000000
_cell_angle_beta 103.387912
_cell_angle_gamma 90.000000
_cell_volume 1387.155444
_symmetry_space_group_name_H-M "C C"
_symmetry_group_IT_number 9
_symmetry_cell_setting 'monoclinic'
loop_
_space_group_symop_operation_xyz
x,y,z
x,-y,1/2+z
1/2+x,1/2+y,z
1/2+x,1/2-y,1/2+z
loop_
_atom_site_type_symbol
_atom_site_label
_atom_site_fract_x
_atom_site_fract_y
_atom_site_fract_z
Si Si1 0.737100 0.012014 0.089260
Si Si2 0.764762 0.141446 0.274504
Si Si3 0.642036 0.358626 0.909723
Si Si4 0.676821 0.140947 0.905532
Si Si5 0.796491 0.645522 0.774452
Si Si6 0.851269 0.640278 0.237364
Si Si7 0.335922 0.979470 0.093638
Si Si8 0.885439 0.857914 0.232855
O O1 0.807713 0.075748 0.187907
O O2 0.522643 0.991134 0.058341
O O3 0.842395 0.912963 0.123683
O O4 0.778356 0.068885 0.993468
O O5 0.778758 0.247327 0.234889
O O6 0.563857 0.116079 0.292724
O O7 0.921402 0.131024 0.378103
O O8 0.713835 0.251137 0.940141
O O9 0.728668 0.388604 0.815394
O O10 0.690573 0.433608 0.000681
O O11 0.454432 0.129560 0.877589
O O12 0.757809 0.112126 0.808645
O O13 0.865291 0.588975 0.689216
O O14 0.595772 0.618016 0.790785
O O15 0.777386 0.581159 0.132586
O O16 0.841623 0.749037 0.204084
#
# Coordination Sequence:
#
# PCOD8055075 Si02
#       8
#     4   4   4   4   4   4   4   4
#     4  11  23  40  68  96 135 167 216 272 326 383
#     4   9  21  42  67  95 131 170 216 268 324 382
#     4  10  22  43  71  94 127 176 220 262 327 388
#     4  10  22  45  68  95 130 173 218 271 323 384
#     4  10  21  43  68  92 132 172 215 270 323 389
#     4   9  22  44  68  92 135 171 215 273 321 381
#     4  11  23  40  68  98 132 171 214 270 330 381
#     4  10  22  45  68  94 130 176 218 268 324 386
#
# _framework density 23.068791999999998
#
# number of rings (size 3 to 8) (size 9 to 14) (size 15 to 20)
#    0.000    2.000    1.250    0.750    3.500    0.000 
#    6.750    0.000   11.000    0.000    0.000    0.000 
#    0.000    0.000    0.000    0.000    0.000    0.000 
#
# Total GULP energy -198307.634727 kJ/mol
# GULP energy per Si atom -12394.227170 kJ/mol
# Density = 2.301629 g / cm^3
# Si number density = 23.068792 Si / 1000 Ang^3
#
#
#
# Elastic Constant Matrix: (Units=GPa)
#
#
# Indices 1 2 3 4 5 6 
#
# 1 88.8238 45.9682 45.1664 0.0000 3.2237 0.0000
# 2 45.9682 108.7693 71.6696 0.0000 8.4862 0.0000
# 3 45.1664 71.6696 103.0480 0.0000 12.3544 0.0000
# 4 0.0000 0.0000 0.0000 47.1942 0.0000 5.6970
# 5 3.2237 8.4862 12.3544 0.0000 20.1556 0.0000
# 6 0.0000 0.0000 0.0000 5.6970 0.0000 29.5804
#
#
#
# Elastic Compliance Matrix: (Units=1/GPa)
#
#
# Indices 1 2 3 4 5 6 
#
# 1 0.015342 -0.003787 -0.004304 0.000000 0.001779 0.000000
# 2 -0.003787 0.017906 -0.010753 0.000000 -0.000342 0.000000
# 3 -0.004304 -0.010753 0.019907 0.000000 -0.006986 0.000000
# 4 0.000000 0.000000 0.000000 0.021693 0.000000 -0.004178
# 5 0.001779 -0.000342 -0.006986 0.000000 0.053756 0.000000
# 6 0.000000 0.000000 0.000000 -0.004178 0.000000 0.034611
#
#
# Mechanical properties :
#
#
# Convention : Reuss Voigt Hill
#
# Bulk Modulus (GPa) = 64.65076 69.58330 67.11703
# Shear Modulus (GPa) = 24.26501 28.57516 26.42008
#
# Velocity S-wave (km/s) = 3.24675 3.52333 3.38786
# Velocity P-wave (km/s) = 6.49163 6.83964 6.66790
#
# Compressibility (1/GPa) = 0.01546772
#
# Stress axis : x y z
#
# Youngs Moduli (GPa) = 65.18072 55.84742 50.23383
#
# Poissons Ratio (x) = 0.21147 0.21622
# Poissons Ratio (y) = 0.24681 0.54016
# Poissons Ratio (z) = 0.28055 0.60052
#
# Static dielectric constant tensor:
#      x y z
#    x 4.268700 0.000000 0.116190 
#    y 0.000000 4.501690 0.000000 
#    z 0.116190 0.000000 3.814980 
# 
# 
# High freq. dielectric constant tensor:
#      x y z
#    x 1.915170 0.000000 0.007050 
#    y 0.000000 1.931010 0.000000 
#    z 0.007050 0.000000 1.881720 
# 
# From -- ./inp_files/14782.got.cif
#   From: 2010.06.25/outbox.cif.g09.slc.cpg/sg9_8_cif.got.tgz:14782.got - 2010.06.27 21:40:51.
