data_PCOD8055540
_publ_section_title
;
Structure prediction by ZEFSAII (Michael W. Deem and Ramdas Pophale) SiO2 
 PCOD8055540
Probable space group: C C
;
_chemical_formula_sum "Si O2"
_cell_formula_units_Z 32
_cell_length_a 8.556136
_cell_length_b 20.001610
_cell_length_c 8.750104
_cell_angle_alpha 90.000000
_cell_angle_beta 89.999973
_cell_angle_gamma 90.000000
_cell_volume 1497.462133
_symmetry_space_group_name_H-M "C C"
_symmetry_group_IT_number 9
_symmetry_cell_setting 'monoclinic'
loop_
_space_group_symop_operation_xyz
x,y,z
x,-y,1/2+z
1/2+x,1/2+y,z
1/2+x,1/2-y,1/2+z
loop_
_atom_site_type_symbol
_atom_site_label
_atom_site_fract_x
_atom_site_fract_y
_atom_site_fract_z
Si Si1 0.469760 0.696066 0.586970
Si Si2 0.331098 0.952407 0.614890
Si Si3 0.832791 0.320623 0.434488
Si Si4 0.472635 0.547594 0.114890
Si Si5 0.970942 0.820623 0.434488
Si Si6 0.333973 0.196066 0.586970
Si Si7 0.471812 0.071390 0.436499
Si Si8 0.831921 0.928610 0.936499
O O1 0.434328 0.771924 0.540126
O O2 0.414100 0.684844 0.760363
O O3 0.651867 0.680530 0.568139
O O4 0.373316 0.647636 0.475904
O O5 0.363939 0.896068 0.488150
O O6 0.441078 0.940348 0.758730
O O7 0.151867 0.951370 0.670168
O O8 0.366495 0.023689 0.540785
O O9 0.651867 0.300487 0.450633
O O10 0.889633 0.315157 0.260362
O O11 0.362655 0.559652 0.258730
O O12 0.439795 0.603932 0.988150
O O13 0.437238 0.476311 0.040785
O O14 0.869406 0.771923 0.540127
O O15 0.430418 0.147636 0.475904
O O16 0.651867 0.056757 0.471143
#
# Coordination Sequence:
#
# PCOD8055540 Si02
#       8
#     4   4   4   4   4   4   4   4
#     4  11  23  40  63  90 123 163 206 253 308 370
#     4  11  23  42  66  91 124 165 208 253 309 372
#     4  10  23  41  62  90 122 159 205 256 307 365
#     4  11  23  42  66  91 124 165 208 253 309 372
#     4  10  23  41  62  90 122 159 205 256 307 365
#     4  11  23  40  63  90 123 163 206 253 308 370
#     4  12  25  41  63  93 127 161 205 258 310 365
#     4  12  25  41  63  93 127 161 205 258 310 365
#
# _framework density 21.369488
#
# number of rings (size 3 to 8) (size 9 to 14) (size 15 to 20)
#    0.000    1.000    0.000    6.750    0.000   10.000 
#    0.000    0.000    0.000    0.000    0.000    0.000 
#    0.000    0.000    0.000    0.000    0.000    0.000 
#
# Total GULP energy -198571.083600 kJ/mol
# GULP energy per Si atom -12410.692725 kJ/mol
# Density = 2.132085 g / cm^3
# Si number density = 21.369488 Si / 1000 Ang^3
#
#
#
# Elastic Constant Matrix: (Units=GPa)
#
#
# Indices 1 2 3 4 5 6 
#
# 1 71.7502 26.2782 26.3148 0.0000 -1.8756 0.0000
# 2 26.2782 75.4317 -1.7737 0.0000 2.4449 0.0000
# 3 26.3148 -1.7737 86.8857 0.0000 0.5567 0.0000
# 4 0.0000 0.0000 0.0000 43.4183 0.0000 -0.7541
# 5 -1.8756 2.4449 0.5567 0.0000 33.2665 0.0000
# 6 0.0000 0.0000 0.0000 -0.7541 0.0000 34.7660
#
#
#
# Elastic Compliance Matrix: (Units=1/GPa)
#
#
# Indices 1 2 3 4 5 6 
#
# 1 0.018523 -0.006641 -0.005756 0.000000 0.001629 0.000000
# 2 -0.006641 0.015676 0.002341 0.000000 -0.001566 0.000000
# 3 -0.005756 0.002341 0.013305 0.000000 -0.000719 0.000000
# 4 0.000000 0.000000 0.000000 0.023040 0.000000 0.000500
# 5 0.001629 -0.001566 -0.000719 0.000000 0.030279 0.000000
# 6 0.000000 0.000000 0.000000 0.000500 0.000000 0.028775
#
#
# Mechanical properties :
#
#
# Convention : Reuss Voigt Hill
#
# Bulk Modulus (GPa) = 36.50538 37.30068 36.90303
# Shear Modulus (GPa) = 31.47797 34.50673 32.99235
#
# Velocity S-wave (km/s) = 3.84218 4.02278 3.93351
# Velocity P-wave (km/s) = 6.06656 6.25060 6.15926
#
# Compressibility (1/GPa) = 0.02739322
#
# Stress axis : x y z
#
# Youngs Moduli (GPa) = 53.98657 63.79024 75.15920
#
# Poissons Ratio (x) = 0.42363 0.43262
# Poissons Ratio (y) = 0.35853 -0.17598
# Poissons Ratio (z) = 0.31075 -0.14936
#
# Static dielectric constant tensor:
#      x y z
#    x 3.755590 0.000000 -0.011930 
#    y 0.000000 3.852030 0.000000 
#    z -0.011930 0.000000 3.892440 
# 
# 
# High freq. dielectric constant tensor:
#      x y z
#    x 1.838150 0.000000 -0.000930 
#    y 0.000000 1.849980 0.000000 
#    z -0.000930 0.000000 1.848880 
# 
# From -- ./inp_files/5642.got.cif
#   From: 2010.06.25/outbox.cif.g09.slc.cpg/sg9_3_cif.got.tgz:5642.got - 2010.06.27 21:40:51.
