data_PCOD8055985
_publ_section_title
;
Structure prediction by ZEFSAII (Michael W. Deem and Ramdas Pophale) SiO2 
 PCOD8055985
Probable space group: C C
;
_chemical_formula_sum "Si O2"
_cell_formula_units_Z 28
_cell_length_a 29.042126
_cell_length_b 5.102336
_cell_length_c 8.828562
_cell_angle_alpha 90.000000
_cell_angle_beta 119.046538
_cell_angle_gamma 90.000000
_cell_volume 1143.696966
_symmetry_space_group_name_H-M "C C"
_symmetry_group_IT_number 9
_symmetry_cell_setting 'monoclinic'
loop_
_space_group_symop_operation_xyz
x,y,z
x,-y,1/2+z
1/2+x,1/2+y,z
1/2+x,1/2-y,1/2+z
loop_
_atom_site_type_symbol
_atom_site_label
_atom_site_fract_x
_atom_site_fract_y
_atom_site_fract_z
Si Si1 0.415280 0.303863 0.936680
Si Si2 0.293765 0.731480 0.269572
Si Si3 0.133463 0.296028 0.127553
Si Si4 0.254954 0.759491 0.875848
Si Si5 0.454095 0.805416 0.831805
Si Si6 0.045615 0.356156 0.484396
Si Si7 0.572334 0.489158 0.280828
O O1 0.353902 0.250218 0.814335
O O2 0.434338 0.595746 0.922161
O O3 0.441956 0.102301 0.864495
O O4 0.428179 0.256729 0.131591
O O5 0.290337 0.458644 0.352451
O O6 0.275465 0.959053 0.353998
O O7 0.258446 0.742182 0.062615
O O8 0.108948 0.591405 0.085726
O O9 0.115824 0.164660 0.944236
O O10 0.195780 0.302239 0.232746
O O11 0.108515 0.161888 0.232420
O O12 0.517892 0.851945 0.924432
O O13 0.032975 0.168538 0.320562
O O14 0.032892 0.201856 0.621309
#
# Coordination Sequence:
#
# PCOD8055985 Si02
#       7
#     4   4   4   4   4   4   4
#     4  12  27  52  78 111 150 197 255 322 379 448
#     4  12  26  50  76 112 152 195 254 318 381 451
#     4  11  25  42  71 103 151 192 250 304 370 452
#     4  12  27  44  79 112 151 200 251 307 387 448
#     4  12  29  48  80 110 148 200 258 308 386 450
#     4  11  27  44  72 105 152 200 258 306 378 451
#     4  10  25  46  68  99 156 198 244 307 371 440
#
# _framework density 24.482009000000001
#
# number of rings (size 3 to 8) (size 9 to 14) (size 15 to 20)
#    0.000    0.571    0.000    6.000   16.000    0.000 
#    0.000    0.000    0.000    0.000    0.000    0.000 
#    0.000    0.000    0.000    0.000    0.000    0.000 
#
# Total GULP energy -173638.893735 kJ/mol
# GULP energy per Si atom -12402.778124 kJ/mol
# Density = 2.442629 g / cm^3
# Si number density = 24.482009 Si / 1000 Ang^3
#
#
#
# Elastic Constant Matrix: (Units=GPa)
#
#
# Indices 1 2 3 4 5 6 
#
# 1 54.8793 23.0252 39.3937 0.0000 13.2048 0.0000
# 2 23.0252 108.4452 53.0857 0.0000 -4.9025 0.0000
# 3 39.3937 53.0857 127.7274 0.0000 -24.9563 0.0000
# 4 0.0000 0.0000 0.0000 20.1797 0.0000 6.3931
# 5 13.2048 -4.9025 -24.9563 0.0000 45.4653 0.0000
# 6 0.0000 0.0000 0.0000 6.3931 0.0000 22.0694
#
#
#
# Elastic Compliance Matrix: (Units=1/GPa)
#
#
# Indices 1 2 3 4 5 6 
#
# 1 0.031452 -0.001409 -0.012243 0.000000 -0.016007 0.000000
# 2 -0.001409 0.011739 -0.004612 0.000000 -0.000857 0.000000
# 3 -0.012243 -0.004612 0.015816 0.000000 0.011740 0.000000
# 4 0.000000 0.000000 0.000000 0.054562 0.000000 -0.015806
# 5 -0.016007 -0.000857 0.011740 0.000000 0.032995 0.000000
# 6 0.000000 0.000000 0.000000 -0.015806 0.000000 0.049890
#
#
# Mechanical properties :
#
#
# Convention : Reuss Voigt Hill
#
# Bulk Modulus (GPa) = 44.48237 58.00679 51.24458
# Shear Modulus (GPa) = 20.79217 29.24604 25.01911
#
# Velocity S-wave (km/s) = 2.91741 3.46004 3.20025
# Velocity P-wave (km/s) = 5.43666 6.30139 5.88493
#
# Compressibility (1/GPa) = 0.02248082
#
# Stress axis : x y z
#
# Youngs Moduli (GPa) = 31.79411 85.18451 63.22857
#
# Poissons Ratio (x) = 0.12000 0.77408
# Poissons Ratio (y) = 0.04479 0.29161
# Poissons Ratio (z) = 0.38924 0.39287
#
# Static dielectric constant tensor:
#      x y z
#    x 4.452370 0.000000 0.053390 
#    y 0.000000 4.769570 0.000000 
#    z 0.053390 0.000000 4.646190 
# 
# 
# High freq. dielectric constant tensor:
#      x y z
#    x 1.979450 0.000000 -0.007040 
#    y 0.000000 1.991090 0.000000 
#    z -0.007040 0.000000 1.992340 
# 
# From -- ./inp_files/12643.got.cif
#   From: 2010.06.25/outbox.cif.g09.slc.cpg/sg9_7_cif.got.tgz:12643.got - 2010.06.27 21:40:51.
