data_PCOD8055694
_publ_section_title
;
Structure prediction by ZEFSAII (Michael W. Deem and Ramdas Pophale) SiO2 
 PCOD8055694
Probable space group: C C
;
_chemical_formula_sum "Si O2"
_cell_formula_units_Z 32
_cell_length_a 17.804320
_cell_length_b 13.635404
_cell_length_c 12.281048
_cell_angle_alpha 90.000000
_cell_angle_beta 28.695066
_cell_angle_gamma 90.000000
_cell_volume 1431.541421
_symmetry_space_group_name_H-M "C C"
_symmetry_group_IT_number 9
_symmetry_cell_setting 'monoclinic'
loop_
_space_group_symop_operation_xyz
x,y,z
x,-y,1/2+z
1/2+x,1/2+y,z
1/2+x,1/2-y,1/2+z
loop_
_atom_site_type_symbol
_atom_site_label
_atom_site_fract_x
_atom_site_fract_y
_atom_site_fract_z
Si Si1 0.143320 0.685458 0.978410
Si Si2 0.805302 0.025554 0.889345
Si Si3 0.151624 0.913443 0.990272
Si Si4 0.630689 0.282124 0.599547
Si Si5 0.294100 0.644501 0.561376
Si Si6 0.345304 0.081595 0.676056
Si Si7 0.075575 0.585843 0.557214
Si Si8 0.861431 0.420842 0.910314
O O1 0.222158 0.632515 0.984846
O O2 0.164159 0.800313 0.946961
O O3 0.221991 0.639432 0.772230
O O4 0.959365 0.659988 0.216546
O O5 0.989418 0.039490 0.660179
O O6 0.751757 0.960515 0.060790
O O7 0.748690 0.961214 0.855337
O O8 0.191356 0.929217 0.068509
O O9 0.282164 0.970115 0.754175
O O10 0.721107 0.235293 0.586767
O O11 0.741154 0.352925 0.389211
O O12 0.569538 0.198633 0.596746
O O13 0.481456 0.343047 0.831857
O O14 0.521918 0.079628 0.499285
O O15 0.342627 0.120034 0.556363
O O16 0.952773 0.524600 0.789511
#
# Coordination Sequence:
#
# PCOD8055694 Si02
#       8
#     4   4   4   4   4   4   4   4
#     4  11  26  45  69 102 142 192 231 292 358 422
#     4  10  23  45  65 105 140 175 239 295 355 410
#     4  11  24  42  67 104 136 184 246 285 361 418
#     4  11  22  42  69 107 130 184 243 295 345 410
#     4  11  25  43  75 102 140 183 247 294 346 422
#     4  11  23  43  69  98 142 185 238 293 351 427
#     4   9  22  42  68  94 135 185 236 289 355 412
#     4  10  25  44  64  98 139 190 228 293 363 415
#
# _framework density 22.353527
#
# number of rings (size 3 to 8) (size 9 to 14) (size 15 to 20)
#    0.000    1.500    2.500    0.750    5.250   10.000 
#    0.000    3.750    0.000    0.000    0.000    0.000 
#    0.000    0.000    0.000    0.000    0.000    0.000 
#
# Total GULP energy -198303.478018 kJ/mol
# GULP energy per Si atom -12393.967376 kJ/mol
# Density = 2.230265 g / cm^3
# Si number density = 22.353527 Si / 1000 Ang^3
#
#
#
# Elastic Constant Matrix: (Units=GPa)
#
#
# Indices 1 2 3 4 5 6 
#
# 1 145.8803 31.2051 71.8831 0.0002 -14.4138 -0.0002
# 2 31.2051 133.2679 35.6653 0.0001 4.0038 -0.0001
# 3 71.8831 35.6653 91.7239 0.0002 3.8193 -0.0002
# 4 0.0002 0.0001 0.0002 24.2253 -0.0001 -3.1295
# 5 -14.4138 4.0038 3.8193 -0.0001 40.5408 0.0002
# 6 -0.0002 -0.0001 -0.0002 -3.1295 0.0002 29.1995
#
#
#
# Elastic Compliance Matrix: (Units=1/GPa)
#
#
# Indices 1 2 3 4 5 6 
#
# 1 0.012212 -0.000445 -0.009618 0.000000 0.005292 0.000000
# 2 -0.000445 0.008402 -0.002889 0.000000 -0.000716 0.000000
# 3 -0.009618 -0.002889 0.019771 0.000000 -0.004997 0.000000
# 4 0.000000 0.000000 0.000000 0.041859 0.000000 0.004486
# 5 0.005292 -0.000716 -0.004997 0.000000 0.027089 0.000000
# 6 0.000000 0.000000 0.000000 0.004486 0.000000 0.034728
#
#
# Mechanical properties :
#
#
# Convention : Reuss Voigt Hill
#
# Bulk Modulus (GPa) = 69.04769 72.04213 70.54491
# Shear Modulus (GPa) = 28.60524 34.26769 31.43646
#
# Velocity S-wave (km/s) = 3.58113 3.91959 3.75418
# Velocity P-wave (km/s) = 6.93220 7.26517 7.10064
#
# Compressibility (1/GPa) = 0.01448274
#
# Stress axis : x y z
#
# Youngs Moduli (GPa) = 81.88476 119.01331 50.57827
#
# Poissons Ratio (x) = 0.05290 0.48647
# Poissons Ratio (y) = 0.03640 0.14612
# Poissons Ratio (z) = 0.78758 0.34383
#
# Static dielectric constant tensor:
#      x y z
#    x 4.332580 0.000000 -0.331570 
#    y 0.000000 4.148790 0.000000 
#    z -0.331570 0.000000 3.682710 
# 
# 
# High freq. dielectric constant tensor:
#      x y z
#    x 1.894240 0.000000 -0.024040 
#    y 0.000000 1.890990 0.000000 
#    z -0.024040 0.000000 1.848900 
# 
# From -- ./inp_files/19399.got.cif
#   From: 2010.06.25/outbox.cif.g09.slc.cpg/sg9_10_cif.got.tgz:19399.got - 2010.06.27 21:40:51.
