data_PCOD8055706
_publ_section_title
;
Structure prediction by ZEFSAII (Michael W. Deem and Ramdas Pophale) SiO2 
 PCOD8055706
Probable space group: C C
;
_chemical_formula_sum "Si O2"
_cell_formula_units_Z 32
_cell_length_a 19.287309
_cell_length_b 11.811105
_cell_length_c 10.739119
_cell_angle_alpha 90.000000
_cell_angle_beta 146.173736
_cell_angle_gamma 90.000000
_cell_volume 1361.863850
_symmetry_space_group_name_H-M "C C"
_symmetry_group_IT_number 9
_symmetry_cell_setting 'monoclinic'
loop_
_space_group_symop_operation_xyz
x,y,z
x,-y,1/2+z
1/2+x,1/2+y,z
1/2+x,1/2-y,1/2+z
loop_
_atom_site_type_symbol
_atom_site_label
_atom_site_fract_x
_atom_site_fract_y
_atom_site_fract_z
Si Si1 0.193790 0.569325 0.301580
Si Si2 0.103813 0.066934 0.945157
Si Si3 0.594493 0.927190 0.387173
Si Si4 0.718496 0.249368 0.930281
Si Si5 0.753740 0.316196 0.475840
Si Si6 0.974550 0.783366 0.438589
Si Si7 0.311428 0.043150 0.451105
Si Si8 0.409241 0.594346 0.088250
O O1 0.146454 0.517855 0.363177
O O2 0.208936 0.703832 0.338908
O O3 0.326300 0.518141 0.462609
O O4 0.106040 0.539066 0.050543
O O5 0.131942 0.126751 0.855461
O O6 0.233257 0.066067 0.211411
O O7 0.997897 0.140533 0.853132
O O8 0.045920 0.940791 0.843507
O O9 0.670658 0.807139 0.487621
O O10 0.450015 0.909324 0.138520
O O11 0.603206 0.218152 0.664654
O O12 0.745908 0.384980 0.968263
O O13 0.846345 0.191203 0.077450
O O14 0.861103 0.299030 0.738637
O O15 0.812742 0.408855 0.471505
O O16 0.927568 0.864817 0.476561
#
# Coordination Sequence:
#
# PCOD8055706 Si02
#       8
#     4   4   4   4   4   4   4   4
#     4  11  27  47  76 113 145 200 241 317 360 446
#     4  11  24  44  70 104 145 191 248 299 367 439
#     4  11  26  49  77 107 152 191 258 295 375 436
#     4  10  23  45  70 105 139 197 240 298 365 436
#     4  12  26  44  70 109 148 189 247 305 375 434
#     4  11  22  43  72 102 146 193 248 298 369 439
#     4  11  27  44  73 107 147 198 238 311 367 444
#     4  11  23  44  74 101 144 193 248 295 370 436
#
# _framework density 23.497209000000002
#
# number of rings (size 3 to 8) (size 9 to 14) (size 15 to 20)
#    0.000    1.000    1.250    5.250    8.750    4.000 
#    2.250    0.000    0.000    0.000    0.000    0.000 
#    0.000    0.000    0.000    0.000    0.000    0.000 
#
# Total GULP energy -198295.208235 kJ/mol
# GULP energy per Si atom -12393.450515 kJ/mol
# Density = 2.344373 g / cm^3
# Si number density = 23.497209 Si / 1000 Ang^3
#
#
#
# Elastic Constant Matrix: (Units=GPa)
#
#
# Indices 1 2 3 4 5 6 
#
# 1 98.4012 32.2288 30.8818 0.0000 9.6849 0.0000
# 2 32.2288 125.4699 30.9474 0.0000 3.8762 0.0000
# 3 30.8818 30.9474 103.2364 0.0000 9.6358 0.0000
# 4 0.0000 0.0000 0.0000 40.0279 0.0000 -3.8693
# 5 9.6849 3.8762 9.6358 0.0000 36.1196 0.0000
# 6 0.0000 0.0000 0.0000 -3.8693 0.0000 29.6867
#
#
#
# Elastic Compliance Matrix: (Units=1/GPa)
#
#
# Indices 1 2 3 4 5 6 
#
# 1 0.011993 -0.002352 -0.002672 0.000000 -0.002250 0.000000
# 2 -0.002352 0.009070 -0.002034 0.000000 0.000200 0.000000
# 3 -0.002672 -0.002034 0.011290 0.000000 -0.002077 0.000000
# 4 0.000000 0.000000 0.000000 0.025301 0.000000 0.003298
# 5 -0.002250 0.000200 -0.002077 0.000000 0.028822 0.000000
# 6 0.000000 0.000000 0.000000 0.003298 0.000000 0.034115
#
#
# Mechanical properties :
#
#
# Convention : Reuss Voigt Hill
#
# Bulk Modulus (GPa) = 54.83797 57.24706 56.04252
# Shear Modulus (GPa) = 35.51506 36.70348 36.10927
#
# Velocity S-wave (km/s) = 3.89197 3.95655 3.92439
# Velocity P-wave (km/s) = 6.60191 6.72968 6.66610
#
# Compressibility (1/GPa) = 0.01823554
#
# Stress axis : x y z
#
# Youngs Moduli (GPa) = 83.38207 110.25776 88.57779
#
# Poissons Ratio (x) = 0.25931 0.23672
# Poissons Ratio (y) = 0.19611 0.18016
# Poissons Ratio (z) = 0.22284 0.22426
#
# Static dielectric constant tensor:
#      x y z
#    x 4.215900 0.000000 0.170260 
#    y 0.000000 4.389000 0.000000 
#    z 0.170260 0.000000 4.281240 
# 
# 
# High freq. dielectric constant tensor:
#      x y z
#    x 1.931820 0.000000 0.019390 
#    y 0.000000 1.936350 0.000000 
#    z 0.019390 0.000000 1.924420 
# 
# From -- ./inp_files/20275.got.cif
#   From: 2010.06.25/outbox.cif.g09.slc.cpg/sg9_11_cif.got.tgz:20275.got - 2010.06.27 21:40:51.
