data_PCOD8055251
_publ_section_title
;
Structure prediction by ZEFSAII (Michael W. Deem and Ramdas Pophale) SiO2 
 PCOD8055251
Probable space group: C C
;
_chemical_formula_sum "Si O2"
_cell_formula_units_Z 32
_cell_length_a 9.740410
_cell_length_b 9.589141
_cell_length_c 27.599728
_cell_angle_alpha 90.000000
_cell_angle_beta 145.609923
_cell_angle_gamma 90.000000
_cell_volume 1456.045543
_symmetry_space_group_name_H-M "C C"
_symmetry_group_IT_number 9
_symmetry_cell_setting 'monoclinic'
loop_
_space_group_symop_operation_xyz
x,y,z
x,-y,1/2+z
1/2+x,1/2+y,z
1/2+x,1/2-y,1/2+z
loop_
_atom_site_type_symbol
_atom_site_label
_atom_site_fract_x
_atom_site_fract_y
_atom_site_fract_z
Si Si1 0.666450 0.964717 0.882340
Si Si2 0.067160 0.816057 0.514922
Si Si3 0.946985 0.477254 0.140038
Si Si4 0.855973 0.594099 0.383342
Si Si5 0.846038 0.808941 0.769621
Si Si6 0.193527 0.240901 0.158940
Si Si7 0.787513 0.555182 0.698719
Si Si8 0.755932 0.283124 0.347201
O O1 0.818532 0.831965 0.906354
O O2 0.547748 0.037165 0.800894
O O3 0.463251 0.904227 0.860203
O O4 0.833987 0.083399 0.954999
O O5 0.156077 0.751571 0.590985
O O6 0.032725 0.685719 0.468835
O O7 0.283563 0.918401 0.559878
O O8 0.808265 0.425691 0.147408
O O9 0.195005 0.549811 0.229901
O O10 0.996839 0.342132 0.123643
O O11 0.589469 0.662450 0.309522
O O12 0.469192 0.283905 0.251268
O O13 0.838651 0.431402 0.393594
O O14 0.679741 0.695042 0.691776
O O15 0.903841 0.750255 0.840467
O O16 0.133890 0.086364 0.162857
#
# Coordination Sequence:
#
# PCOD8055251 Si02
#       8
#     4   4   4   4   4   4   4   4
#     4  11  24  42  65 100 136 175 221 281 339 403
#     4  11  25  45  62 100 146 178 217 290 352 397
#     4  11  24  44  69  98 136 183 223 285 343 405
#     4  12  25  40  72 100 137 179 230 281 338 399
#     4  12  22  41  70 103 130 175 225 283 330 400
#     4  10  23  45  67  97 139 178 224 278 338 412
#     4  10  22  40  69  96 134 170 225 279 329 403
#     4  11  23  43  70 100 130 176 235 275 329 411
#
# _framework density 21.977335
#
# number of rings (size 3 to 8) (size 9 to 14) (size 15 to 20)
#    0.000    1.000    7.500    0.000    3.500    6.000 
#    0.000    0.000    0.000    0.000    0.000    0.000 
#    0.000    0.000    0.000    0.000    0.000    0.000 
#
# Total GULP energy -198298.044942 kJ/mol
# GULP energy per Si atom -12393.627809 kJ/mol
# Density = 2.192731 g / cm^3
# Si number density = 21.977335 Si / 1000 Ang^3
#
#
#
# Elastic Constant Matrix: (Units=GPa)
#
#
# Indices 1 2 3 4 5 6 
#
# 1 87.9935 45.6786 -1.1928 0.0000 2.3431 0.0000
# 2 45.6786 129.7512 3.8254 0.0000 -7.9671 0.0000
# 3 -1.1928 3.8254 40.8801 0.0000 0.9140 0.0000
# 4 0.0000 0.0000 0.0000 35.1891 0.0000 5.6417
# 5 2.3431 -7.9671 0.9140 0.0000 19.2313 0.0000
# 6 0.0000 0.0000 0.0000 5.6417 0.0000 38.2734
#
#
#
# Elastic Compliance Matrix: (Units=1/GPa)
#
#
# Indices 1 2 3 4 5 6 
#
# 1 0.014225 -0.005281 0.000998 0.000000 -0.003968 0.000000
# 2 -0.005281 0.009896 -0.001187 0.000000 0.004800 0.000000
# 3 0.000998 -0.001187 0.024642 0.000000 -0.001785 0.000000
# 4 0.000000 0.000000 0.000000 0.029106 0.000000 -0.004290
# 5 -0.003968 0.004800 -0.001785 0.000000 0.054555 0.000000
# 6 0.000000 0.000000 0.000000 -0.004290 0.000000 0.026760
#
#
# Mechanical properties :
#
#
# Convention : Reuss Voigt Hill
#
# Bulk Modulus (GPa) = 26.43959 39.47189 32.95574
# Shear Modulus (GPa) = 27.36239 32.55966 29.96102
#
# Velocity S-wave (km/s) = 3.53232 3.85322 3.69625
# Velocity P-wave (km/s) = 5.35658 6.14781 5.76578
#
# Compressibility (1/GPa) = 0.03782206
#
# Stress axis : x y z
#
# Youngs Moduli (GPa) = 70.29812 101.05151 40.58125
#
# Poissons Ratio (x) = 0.53365 -0.04050
# Poissons Ratio (y) = 0.37125 0.04819
# Poissons Ratio (z) = -0.07016 0.11999
#
# Static dielectric constant tensor:
#      x y z
#    x 3.835580 0.000000 0.018380 
#    y 0.000000 4.449470 0.000000 
#    z 0.018380 0.000000 3.816510 
# 
# 
# High freq. dielectric constant tensor:
#      x y z
#    x 1.850790 0.000000 -0.003160 
#    y 0.000000 1.886870 0.000000 
#    z -0.003160 0.000000 1.843620 
# 
# From -- ./inp_files/37291.got.cif
#   From: 2010.06.25/outbox.cif.g09.slc.cpg/sg9_19_cif.got.tgz:37291.got - 2010.06.27 21:40:51.
