data_PCOD8055894
_publ_section_title
;
Structure prediction by ZEFSAII (Michael W. Deem and Ramdas Pophale) SiO2 
 PCOD8055894
Probable space group: C C
;
_chemical_formula_sum "Si O2"
_cell_formula_units_Z 32
_cell_length_a 22.405218
_cell_length_b 14.969288
_cell_length_c 8.585759
_cell_angle_alpha 90.000000
_cell_angle_beta 30.073823
_cell_angle_gamma 90.000000
_cell_volume 1443.001483
_symmetry_space_group_name_H-M "C C"
_symmetry_group_IT_number 9
_symmetry_cell_setting 'monoclinic'
loop_
_space_group_symop_operation_xyz
x,y,z
x,-y,1/2+z
1/2+x,1/2+y,z
1/2+x,1/2-y,1/2+z
loop_
_atom_site_type_symbol
_atom_site_label
_atom_site_fract_x
_atom_site_fract_y
_atom_site_fract_z
Si Si1 0.389390 0.559434 0.242420
Si Si2 0.651083 0.664776 0.342694
Si Si3 0.139633 0.124987 0.727903
Si Si4 0.328388 0.984441 0.392310
Si Si5 0.007109 0.481278 0.238798
Si Si6 0.658494 0.818956 0.777458
Si Si7 0.178811 0.359595 0.369922
Si Si8 0.885994 0.881755 0.396171
O O1 0.315435 0.618759 0.529300
O O2 0.350200 0.457795 0.353120
O O3 0.523619 0.564109 0.000707
O O4 0.366956 0.588637 0.116828
O O5 0.667071 0.639906 0.485914
O O6 0.660478 0.770955 0.308047
O O7 0.521359 0.646535 0.563931
O O8 0.752368 0.606328 0.022433
O O9 0.111336 0.217236 0.882760
O O10 0.247229 0.072075 0.563829
O O11 0.374501 0.978542 0.464259
O O12 0.460043 0.996137 0.018151
O O13 0.073592 0.385564 0.068773
O O14 0.094262 0.562206 0.991695
O O15 0.660330 0.850815 0.595117
O O16 0.787806 0.808477 0.569354
#
# Coordination Sequence:
#
# PCOD8055894 Si02
#       8
#     4   4   4   4   4   4   4   4
#     4  11  23  41  68  95 131 172 222 276 334 398
#     4  10  24  45  69  98 134 178 223 280 339 403
#     4  10  24  45  69  98 134 176 226 278 339 403
#     4  12  24  45  68  98 135 179 227 275 341 405
#     4  12  26  42  69  97 138 178 225 279 339 403
#     4  11  25  45  68  98 135 180 224 280 340 404
#     4  11  25  45  68  97 135 179 226 279 339 402
#     4  11  23  42  67  97 130 172 225 273 335 400
#
# _framework density 22.175998
#
# number of rings (size 3 to 8) (size 9 to 14) (size 15 to 20)
#    0.000    1.000    5.000    0.750    5.250    1.000 
#    2.250    0.000    0.000    0.000    0.000    0.000 
#    0.000    0.000    0.000    0.000    0.000    0.000 
#
# Total GULP energy -198276.567024 kJ/mol
# GULP energy per Si atom -12392.285439 kJ/mol
# Density = 2.212552 g / cm^3
# Si number density = 22.175998 Si / 1000 Ang^3
#
#
#
# Elastic Constant Matrix: (Units=GPa)
#
#
# Indices 1 2 3 4 5 6 
#
# 1 76.6460 18.4462 7.1385 0.0000 -30.0533 0.0000
# 2 18.4462 122.3148 37.0643 0.0000 -6.5419 0.0000
# 3 7.1385 37.0643 94.4317 0.0000 -9.7400 0.0000
# 4 0.0000 0.0000 0.0000 -35.2547 0.0000 9.2100
# 5 -30.0533 -6.5419 -9.7400 0.0000 27.0860 0.0000
# 6 0.0000 0.0000 0.0000 9.2100 0.0000 28.4758
#
#
#
# Elastic Compliance Matrix: (Units=1/GPa)
#
#
# Indices 1 2 3 4 5 6 
#
# 1 0.023993 -0.002810 0.002041 0.000000 0.026677 0.000000
# 2 -0.002810 0.009633 -0.003791 0.000000 -0.002154 0.000000
# 3 0.002041 -0.003791 0.012527 0.000000 0.005853 0.000000
# 4 0.000000 0.000000 0.000000 -0.026155 0.000000 0.008459
# 5 0.026677 -0.002154 0.005853 0.000000 0.068103 0.000000
# 6 0.000000 0.000000 0.000000 0.008459 0.000000 0.032381
#
#
# Mechanical properties :
#
#
# Convention : Reuss Voigt Hill
#
# Bulk Modulus (GPa) = 27.00271 46.52115 36.76193
# Shear Modulus (GPa) = 35.22428 19.44433 27.33431
#
# Velocity S-wave (km/s) = 3.98979 2.96432 3.51466
# Velocity P-wave (km/s) = 5.78166 5.72189 5.75185
#
# Compressibility (1/GPa) = 0.03703332
#
# Stress axis : x y z
#
# Youngs Moduli (GPa) = 41.67805 103.81156 79.82777
#
# Poissons Ratio (x) = 0.29171 -0.16291
# Poissons Ratio (y) = 0.11712 0.30260
# Poissons Ratio (z) = -0.08505 0.39351
#
# Static dielectric constant tensor:
#      x y z
#    x 3.840810 0.000000 -0.104240 
#    y 0.000000 4.824090 0.000000 
#    z -0.104240 0.000000 3.975820 
# 
# 
# High freq. dielectric constant tensor:
#      x y z
#    x 1.875800 0.000000 -0.014010 
#    y 0.000000 1.872940 0.000000 
#    z -0.014010 0.000000 1.875780 
# 
# From -- ./inp_files/7395.got.cif
#   From: 2010.06.25/outbox.cif.g09.slc.cpg/sg9_4_cif.got.tgz:7395.got - 2010.06.27 21:40:51.
