data_PCOD8055594
_publ_section_title
;
Structure prediction by ZEFSAII (Michael W. Deem and Ramdas Pophale) SiO2 
 PCOD8055594
Probable space group: C C
;
_chemical_formula_sum "Si O2"
_cell_formula_units_Z 24
_cell_length_a 8.933443
_cell_length_b 14.919274
_cell_length_c 12.481592
_cell_angle_alpha 90.000000
_cell_angle_beta 36.774505
_cell_angle_gamma 90.000000
_cell_volume 995.914450
_symmetry_space_group_name_H-M "C C"
_symmetry_group_IT_number 9
_symmetry_cell_setting 'monoclinic'
loop_
_space_group_symop_operation_xyz
x,y,z
x,-y,1/2+z
1/2+x,1/2+y,z
1/2+x,1/2-y,1/2+z
loop_
_atom_site_type_symbol
_atom_site_label
_atom_site_fract_x
_atom_site_fract_y
_atom_site_fract_z
Si Si1 0.206770 0.400693 0.241520
Si Si2 0.031943 0.831523 0.643324
Si Si3 0.866038 0.289467 0.644045
Si Si4 0.863886 0.367861 0.259683
Si Si5 0.538504 0.066509 0.449926
Si Si6 0.239897 0.858295 0.926479
O O1 0.171958 0.293390 0.282799
O O2 0.072195 0.460451 0.409406
O O3 0.085866 0.419700 0.195041
O O4 0.502331 0.425702 0.069418
O O5 0.935014 0.731645 0.683598
O O6 0.810504 0.891707 0.819436
O O7 0.271321 0.833690 0.586413
O O8 0.119034 0.868304 0.476378
O O9 0.860686 0.365638 0.738978
O O10 0.144020 0.245635 0.488354
O O11 0.840858 0.421626 0.160586
O O12 0.439442 0.118012 0.401816
#
# Coordination Sequence:
#
# PCOD8055594 Si02
#       6
#     4   4   4   4   4   4
#     4   9  24  46  65 101 138 191 231 283 367 414
#     4  11  22  42  76 100 131 193 238 279 350 432
#     4   9  20  45  73  97 137 183 244 277 349 439
#     4  11  23  44  72 100 134 188 238 283 351 430
#     4  12  26  45  68 108 152 171 241 306 348 415
#     4  10  23  42  70 104 136 184 236 292 351 408
#
# _framework density 24.098455000000001
#
# number of rings (size 3 to 8) (size 9 to 14) (size 15 to 20)
#    1.000    0.667    1.667    3.000    4.667    0.000 
#    9.000    0.000    0.000    0.000    0.000    0.000 
#    0.000    0.000    0.000    0.000    0.000    0.000 
#
# Total GULP energy -148658.354215 kJ/mol
# GULP energy per Si atom -12388.196185 kJ/mol
# Density = 2.404361 g / cm^3
# Si number density = 24.098455 Si / 1000 Ang^3
#
#
#
# Elastic Constant Matrix: (Units=GPa)
#
#
# Indices 1 2 3 4 5 6 
#
# 1 61.5495 11.0436 8.3487 0.0537 14.0597 -0.0149
# 2 11.0436 59.3579 27.5489 0.1100 17.8777 -0.0777
# 3 8.3487 27.5489 107.8905 0.1373 28.7104 -0.0685
# 4 0.0537 0.1100 0.1373 40.7611 -0.0897 1.7325
# 5 14.0597 17.8777 28.7104 -0.0897 50.1371 0.0435
# 6 -0.0149 -0.0777 -0.0685 1.7325 0.0435 21.9171
#
#
#
# Elastic Compliance Matrix: (Units=1/GPa)
#
#
# Indices 1 2 3 4 5 6 
#
# 1 0.017578 -0.002113 0.000343 -0.000029 -0.004373 0.000016
# 2 -0.002113 0.020372 -0.003849 -0.000052 -0.004468 0.000072
# 3 0.000343 -0.003849 0.011663 -0.000043 -0.005402 0.000037
# 4 -0.000029 -0.000052 -0.000043 0.024616 0.000097 -0.001946
# 5 -0.004373 -0.004468 -0.005402 0.000097 0.025858 -0.000095
# 6 0.000016 0.000072 0.000037 -0.001946 -0.000095 0.045781
#
#
# Mechanical properties :
#
#
# Convention : Reuss Voigt Hill
#
# Bulk Modulus (GPa) = 26.05857 35.85337 30.95597
# Shear Modulus (GPa) = 29.42919 34.68685 32.05802
#
# Velocity S-wave (km/s) = 3.49837 3.79803 3.65128
# Velocity P-wave (km/s) = 5.21104 5.84325 5.53618
#
# Compressibility (1/GPa) = 0.03837509
#
# Stress axis : x y z
#
# Youngs Moduli (GPa) = 56.88772 49.08601 85.74370
#
# Poissons Ratio (x) = 0.10370 -0.02939
# Poissons Ratio (y) = 0.12018 0.33006
# Poissons Ratio (z) = -0.01950 0.18895
#
# Static dielectric constant tensor:
#      x y z
#    x 4.040620 -0.000070 0.067750 
#    y -0.000070 4.081890 0.000120 
#    z 0.067750 0.000120 4.199580 
# 
# 
# High freq. dielectric constant tensor:
#      x y z
#    x 1.936380 0.000000 0.008460 
#    y 0.000000 1.940440 0.000000 
#    z 0.008460 0.000000 1.963600 
# 
# From -- ./inp_files/15007.got.cif
#   From: 2010.06.25/outbox.cif.g09.slc.cpg/sg9_8_cif.got.tgz:15007.got - 2010.06.27 21:40:51.
