data_PCOD8055211
_publ_section_title
;
Structure prediction by ZEFSAII (Michael W. Deem and Ramdas Pophale) SiO2 
 PCOD8055211
Probable space group: C C
;
_chemical_formula_sum "Si O2"
_cell_formula_units_Z 32
_cell_length_a 14.826482
_cell_length_b 16.504089
_cell_length_c 10.366022
_cell_angle_alpha 90.000000
_cell_angle_beta 151.975835
_cell_angle_gamma 90.000000
_cell_volume 1191.778103
_symmetry_space_group_name_H-M "C C"
_symmetry_group_IT_number 9
_symmetry_cell_setting 'monoclinic'
loop_
_space_group_symop_operation_xyz
x,y,z
x,-y,1/2+z
1/2+x,1/2+y,z
1/2+x,1/2-y,1/2+z
loop_
_atom_site_type_symbol
_atom_site_label
_atom_site_fract_x
_atom_site_fract_y
_atom_site_fract_z
Si Si1 0.199640 0.951468 0.905730
Si Si2 0.978753 0.651628 0.596712
Si Si3 0.247492 0.115392 0.067760
Si Si4 0.894227 0.048531 0.348614
Si Si5 0.346339 0.615389 0.686499
Si Si6 0.886725 0.169558 0.027782
Si Si7 0.115071 0.651622 0.157545
Si Si8 0.207111 0.169563 0.726492
O O1 0.082840 0.875680 0.818151
O O2 0.046929 0.000008 0.627178
O O3 0.379994 0.921496 0.049208
O O4 0.271870 0.016943 0.101454
O O5 0.916870 0.651832 0.368699
O O6 0.917112 0.735187 0.586075
O O7 0.209345 0.640311 0.894209
O O8 0.260543 0.152272 0.942398
O O9 0.046898 0.141791 0.877085
O O10 0.713830 0.078499 0.205051
O O11 0.010993 0.124324 0.436139
O O12 0.822011 0.983060 0.152894
O O13 0.333334 0.652272 0.811921
O O14 0.176923 0.651815 0.385527
O O15 0.176721 0.735182 0.168203
O O16 0.884473 0.640314 0.860023
#
# Coordination Sequence:
#
# PCOD8055211 Si02
#       8
#     4   4   4   4   4   4   4   4
#     4  10  22  40  59  93 132 171 198 269 320 376
#     4  12  21  40  65  95 125 165 213 266 316 376
#     4  11  21  39  60  93 132 164 203 265 317 373
#     4  10  22  40  59  93 132 171 198 269 320 376
#     4  11  21  39  60  93 132 164 203 265 317 373
#     4  11  22  38  66  94 128 163 212 266 324 365
#     4  12  21  40  65  95 125 165 213 266 316 376
#     4  11  22  38  66  94 128 163 212 266 324 365
#
# _framework density 26.850636000000002
#
# number of rings (size 3 to 8) (size 9 to 14) (size 15 to 20)
#    0.000    1.000    7.500    1.500    0.000    4.000 
#    4.500    0.000    0.000    1.500    0.000    0.000 
#    0.000    0.000    0.000    0.000    0.000    0.000 
#
# Total GULP energy -198456.878419 kJ/mol
# GULP energy per Si atom -12403.554901 kJ/mol
# Density = 2.678952 g / cm^3
# Si number density = 26.850636 Si / 1000 Ang^3
#
#
#
# Elastic Constant Matrix: (Units=GPa)
#
#
# Indices 1 2 3 4 5 6 
#
# 1 113.7106 10.9887 37.1761 0.0000 43.1227 0.0000
# 2 10.9887 122.3168 20.2172 0.0000 20.1543 0.0000
# 3 37.1761 20.2172 110.8764 0.0000 44.4047 0.0000
# 4 0.0000 0.0000 0.0000 23.1368 0.0000 8.7786
# 5 43.1227 20.1543 44.4047 0.0000 56.5401 0.0000
# 6 0.0000 0.0000 0.0000 8.7786 0.0000 53.1126
#
#
#
# Elastic Compliance Matrix: (Units=1/GPa)
#
#
# Indices 1 2 3 4 5 6 
#
# 1 0.012423 0.000495 -0.000569 0.000000 -0.009204 0.000000
# 2 0.000495 0.008724 -0.000525 0.000000 -0.003075 0.000000
# 3 -0.000569 -0.000525 0.013213 0.000000 -0.009755 0.000000
# 4 0.000000 0.000000 0.000000 0.046113 0.000000 -0.007622
# 5 -0.009204 -0.003075 -0.009755 0.000000 0.033464 0.000000
# 6 0.000000 0.000000 0.000000 -0.007622 0.000000 0.020088
#
#
# Mechanical properties :
#
#
# Convention : Reuss Voigt Hill
#
# Bulk Modulus (GPa) = 30.15687 53.74087 41.94887
# Shear Modulus (GPa) = 34.18141 45.12601 39.65371
#
# Velocity S-wave (km/s) = 3.57181 4.10400 3.84712
# Velocity P-wave (km/s) = 5.31660 6.52037 5.94901
#
# Compressibility (1/GPa) = 0.03315994
#
# Stress axis : x y z
#
# Youngs Moduli (GPa) = 80.49510 114.61983 75.68530
#
# Poissons Ratio (x) = -0.05669 0.04310
# Poissons Ratio (y) = -0.03982 0.03976
# Poissons Ratio (z) = 0.04584 0.06021
#
# Static dielectric constant tensor:
#      x y z
#    x 4.775950 0.000000 -0.000900 
#    y 0.000000 5.694410 0.000000 
#    z -0.000900 0.000000 5.059240 
# 
# 
# High freq. dielectric constant tensor:
#      x y z
#    x 2.089180 0.000000 0.002460 
#    y 0.000000 2.084520 0.000000 
#    z 0.002460 0.000000 2.079230 
# 
# From -- ./inp_files/18582.got.cif
#   From: 2010.06.25/outbox.cif.g09.slc.cpg/sg9_10_cif.got.tgz:18582.got - 2010.06.27 21:40:51.
