data_PCOD8055269
_publ_section_title
;
Structure prediction by ZEFSAII (Michael W. Deem and Ramdas Pophale) SiO2 
 PCOD8055269
Probable space group: C C
;
_chemical_formula_sum "Si O2"
_cell_formula_units_Z 32
_cell_length_a 9.847247
_cell_length_b 10.420604
_cell_length_c 14.155573
_cell_angle_alpha 90.000000
_cell_angle_beta 96.311669
_cell_angle_gamma 90.000000
_cell_volume 1443.759080
_symmetry_space_group_name_H-M "C C"
_symmetry_group_IT_number 9
_symmetry_cell_setting 'monoclinic'
loop_
_space_group_symop_operation_xyz
x,y,z
x,-y,1/2+z
1/2+x,1/2+y,z
1/2+x,1/2-y,1/2+z
loop_
_atom_site_type_symbol
_atom_site_label
_atom_site_fract_x
_atom_site_fract_y
_atom_site_fract_z
Si Si1 0.683810 0.893504 0.383130
Si Si2 0.948018 0.825520 0.329608
Si Si3 0.420097 0.214487 0.856889
Si Si4 0.348393 0.344957 0.118190
Si Si5 0.318606 0.925557 0.525785
Si Si6 0.538201 0.552161 0.471866
Si Si7 0.610738 0.026697 0.082039
Si Si8 0.173437 0.646985 0.279431
O O1 0.536102 0.875318 0.318809
O O2 0.666397 0.897142 0.494725
O O3 0.798508 0.787880 0.361680
O O4 0.734229 0.029215 0.344642
O O5 0.054957 0.708360 0.336154
O O6 0.928138 0.872924 0.220979
O O7 0.004267 0.934779 0.401739
O O8 0.526759 0.316668 0.912142
O O9 0.310031 0.267010 0.774562
O O10 0.325871 0.137837 0.923288
O O11 0.326030 0.193727 0.099564
O O12 0.195117 0.399754 0.111322
O O13 0.430489 0.428810 0.047958
O O14 0.452961 0.012653 0.554178
O O15 0.188405 0.019688 0.526174
O O16 0.618138 0.123751 0.170851
#
# Coordination Sequence:
#
# PCOD8055269 Si02
#       8
#     4   4   4   4   4   4   4   4
#     4  11  24  44  67  99 130 176 221 265 331 395
#     4  12  23  43  71  97 130 178 220 272 329 392
#     4  10  22  42  68  94 133 171 213 270 322 389
#     4  11  22  44  65  95 135 168 219 273 327 391
#     4  10  22  41  63  98 133 169 214 268 328 384
#     4  11  22  44  69  97 133 174 217 270 332 392
#     4  11  22  42  68  94 133 172 214 275 330 382
#     4  12  23  46  67  94 137 172 218 275 329 385
#
# _framework density 22.164363000000002
#
# number of rings (size 3 to 8) (size 9 to 14) (size 15 to 20)
#    0.000    1.000    6.250    0.750    0.000    2.000 
#    6.750    1.250    0.000    0.000    0.000    0.000 
#    0.000    0.000    0.000    0.000    0.000    0.000 
#
# Total GULP energy -198267.390726 kJ/mol
# GULP energy per Si atom -12391.711920 kJ/mol
# Density = 2.211392 g / cm^3
# Si number density = 22.164363 Si / 1000 Ang^3
#
#
#
# Elastic Constant Matrix: (Units=GPa)
#
#
# Indices 1 2 3 4 5 6 
#
# 1 137.3121 33.0154 11.0284 0.0000 12.4242 0.0000
# 2 33.0154 43.1779 6.0785 0.0000 -5.0463 0.0000
# 3 11.0284 6.0785 72.5544 0.0000 8.5760 0.0000
# 4 0.0000 0.0000 0.0000 15.3461 0.0000 4.0132
# 5 12.4242 -5.0463 8.5760 0.0000 30.8611 0.0000
# 6 0.0000 0.0000 0.0000 4.0132 0.0000 42.5257
#
#
#
# Elastic Compliance Matrix: (Units=1/GPa)
#
#
# Indices 1 2 3 4 5 6 
#
# 1 0.009682 -0.007978 -0.000195 0.000000 -0.005148 0.000000
# 2 -0.007978 0.030638 -0.002405 0.000000 0.008890 0.000000
# 3 -0.000195 -0.002405 0.014528 0.000000 -0.004352 0.000000
# 4 0.000000 0.000000 0.000000 0.066812 0.000000 -0.006305
# 5 -0.005148 0.008890 -0.004352 0.000000 0.037139 0.000000
# 6 0.000000 0.000000 0.000000 -0.006305 0.000000 0.024110
#
#
# Mechanical properties :
#
#
# Convention : Reuss Voigt Hill
#
# Bulk Modulus (GPa) = 29.67957 39.25432 34.46695
# Shear Modulus (GPa) = 23.22393 31.27473 27.24933
#
# Velocity S-wave (km/s) = 3.24049 3.76045 3.51011
# Velocity P-wave (km/s) = 5.23649 6.05010 5.65794
#
# Compressibility (1/GPa) = 0.03369321
#
# Stress axis : x y z
#
# Youngs Moduli (GPa) = 103.28119 32.63971 68.83124
#
# Poissons Ratio (x) = 0.26039 0.01341
# Poissons Ratio (y) = 0.82395 0.16553
# Poissons Ratio (z) = 0.02012 0.07850
#
# Static dielectric constant tensor:
#      x y z
#    x 4.378060 0.000000 -0.014740 
#    y 0.000000 3.860370 0.000000 
#    z -0.014740 0.000000 3.880250 
# 
# 
# High freq. dielectric constant tensor:
#      x y z
#    x 1.897330 0.000000 0.008060 
#    y 0.000000 1.851210 0.000000 
#    z 0.008060 0.000000 1.862790 
# 
# From -- ./inp_files/22699.got.cif
#   From: 2010.06.25/outbox.cif.g09.slc.cpg/sg9_12_cif.got.tgz:22699.got - 2010.06.27 21:40:51.
