data_PCOD8055901
_publ_section_title
;
Structure prediction by ZEFSAII (Michael W. Deem and Ramdas Pophale) SiO2 
 PCOD8055901
Probable space group: C C
;
_chemical_formula_sum "Si O2"
_cell_formula_units_Z 32
_cell_length_a 6.497593
_cell_length_b 13.953118
_cell_length_c 14.966419
_cell_angle_alpha 90.000000
_cell_angle_beta 111.062662
_cell_angle_gamma 90.000000
_cell_volume 1266.224717
_symmetry_space_group_name_H-M "C C"
_symmetry_group_IT_number 9
_symmetry_cell_setting 'monoclinic'
loop_
_space_group_symop_operation_xyz
x,y,z
x,-y,1/2+z
1/2+x,1/2+y,z
1/2+x,1/2-y,1/2+z
loop_
_atom_site_type_symbol
_atom_site_label
_atom_site_fract_x
_atom_site_fract_y
_atom_site_fract_z
Si Si1 0.775470 0.270996 0.691860
Si Si2 0.278961 0.480684 0.802962
Si Si3 0.664829 0.498855 0.996216
Si Si4 0.688782 0.768174 0.855486
Si Si5 0.941482 0.320959 0.536037
Si Si6 0.049217 0.959128 0.682952
Si Si7 0.371809 0.111257 0.770401
Si Si8 0.330670 0.807013 0.080037
O O1 0.937172 0.312760 0.642113
O O2 0.625607 0.351462 0.714389
O O3 0.596982 0.199702 0.619822
O O4 0.942945 0.227318 0.792666
O O5 0.196768 0.378657 0.828108
O O6 0.318153 0.470955 0.700936
O O7 0.110665 0.567730 0.789279
O O8 0.487742 0.514590 0.892072
O O9 0.869890 0.569605 0.004230
O O10 0.554071 0.519358 0.077086
O O11 0.755912 0.390616 0.000702
O O12 0.876618 0.695986 0.844080
O O13 0.752905 0.754130 0.969463
O O14 0.188958 0.291477 0.539961
O O15 0.211970 0.023793 0.768082
O O16 0.260298 0.159161 0.666824
#
# Coordination Sequence:
#
# PCOD8055901 Si02
#       8
#     4   4   4   4   4   4   4   4
#     4  11  25  46  73 109 145 197 246 309 385 446
#     4  12  25  49  73 108 152 192 257 319 377 464
#     4  10  25  48  73 110 144 196 253 309 386 450
#     4  12  25  48  74 106 155 191 257 319 377 459
#     4  11  25  49  68 103 153 188 250 318 366 461
#     4  10  24  45  72 104 146 194 245 302 383 445
#     4  11  25  44  71 108 139 196 245 305 386 447
#     4  11  24  45  72 102 146 194 247 305 382 450
#
# _framework density 25.271975000000001
#
# number of rings (size 3 to 8) (size 9 to 14) (size 15 to 20)
#    0.000    1.000    3.750    1.500    3.500    3.000 
#    2.250    1.250    0.000    0.000    0.000    0.000 
#    0.000    0.000    0.000    0.000    0.000    0.000 
#
# Total GULP energy -198214.757080 kJ/mol
# GULP energy per Si atom -12388.422318 kJ/mol
# Density = 2.521446 g / cm^3
# Si number density = 25.271975 Si / 1000 Ang^3
#
#
#
# Elastic Constant Matrix: (Units=GPa)
#
#
# Indices 1 2 3 4 5 6 
#
# 1 94.8483 39.1935 18.8923 0.0000 15.3676 0.0000
# 2 39.1935 109.4906 13.9161 0.0000 0.8325 0.0000
# 3 18.8923 13.9161 78.7181 0.0000 11.8251 0.0000
# 4 0.0000 0.0000 0.0000 29.9079 0.0000 7.1872
# 5 15.3676 0.8325 11.8251 0.0000 31.1995 0.0000
# 6 0.0000 0.0000 0.0000 7.1872 0.0000 49.4062
#
#
#
# Elastic Compliance Matrix: (Units=1/GPa)
#
#
# Indices 1 2 3 4 5 6 
#
# 1 0.013774 -0.004685 -0.001566 0.000000 -0.006066 0.000000
# 2 -0.004685 0.010942 -0.001180 0.000000 0.002463 0.000000
# 3 -0.001566 -0.001180 0.013962 0.000000 -0.004489 0.000000
# 4 0.000000 0.000000 0.000000 0.034647 0.000000 -0.005040
# 5 -0.006066 0.002463 -0.004489 0.000000 0.036675 0.000000
# 6 0.000000 0.000000 0.000000 -0.005040 0.000000 0.020974
#
#
# Mechanical properties :
#
#
# Convention : Reuss Voigt Hill
#
# Bulk Modulus (GPa) = 41.99007 47.45118 44.72063
# Shear Modulus (GPa) = 32.51495 36.17306 34.34401
#
# Velocity S-wave (km/s) = 3.59081 3.78742 3.69043
# Velocity P-wave (km/s) = 5.81750 6.15980 5.99109
#
# Compressibility (1/GPa) = 0.02381515
#
# Stress axis : x y z
#
# Youngs Moduli (GPa) = 72.60025 91.39413 71.62111
#
# Poissons Ratio (x) = 0.42822 0.11218
# Poissons Ratio (y) = 0.34016 0.08450
# Poissons Ratio (z) = 0.11371 0.10783
#
# Static dielectric constant tensor:
#      x y z
#    x 4.256300 0.000000 0.064030 
#    y 0.000000 4.702890 0.000000 
#    z 0.064030 0.000000 4.678850 
# 
# 
# High freq. dielectric constant tensor:
#      x y z
#    x 1.987690 0.000000 0.012430 
#    y 0.000000 2.015690 0.000000 
#    z 0.012430 0.000000 2.012790 
# 
# From -- ./inp_files/28639.got.cif
#   From: 2010.06.25/outbox.cif.g09.slc.cpg/sg9_15_cif.got.tgz:28639.got - 2010.06.27 21:40:51.
