data_PCOD8055607
_publ_section_title
;
Structure prediction by ZEFSAII (Michael W. Deem and Ramdas Pophale) SiO2 
 PCOD8055607
Probable space group: C C
;
_chemical_formula_sum "Si O2"
_cell_formula_units_Z 32
_cell_length_a 10.005100
_cell_length_b 9.619847
_cell_length_c 21.606817
_cell_angle_alpha 90.000000
_cell_angle_beta 48.254918
_cell_angle_gamma 90.000000
_cell_volume 1551.621858
_symmetry_space_group_name_H-M "C C"
_symmetry_group_IT_number 9
_symmetry_cell_setting 'monoclinic'
loop_
_space_group_symop_operation_xyz
x,y,z
x,-y,1/2+z
1/2+x,1/2+y,z
1/2+x,1/2-y,1/2+z
loop_
_atom_site_type_symbol
_atom_site_label
_atom_site_fract_x
_atom_site_fract_y
_atom_site_fract_z
Si Si1 0.428340 0.445649 0.008090
Si Si2 0.691950 0.843436 0.192352
Si Si3 0.915308 0.396792 0.674958
Si Si4 0.517014 0.746177 0.947188
Si Si5 0.820321 0.684293 0.753973
Si Si6 0.105035 0.639743 0.234966
Si Si7 0.642521 0.985643 0.996341
Si Si8 0.772169 0.736454 0.412390
O O1 0.337023 0.395282 0.098720
O O2 0.300211 0.418569 0.988821
O O3 0.475400 0.607958 0.998773
O O4 0.608435 0.359611 0.943899
O O5 0.779787 0.731674 0.210789
O O6 0.521644 0.773800 0.211036
O O7 0.626650 0.979226 0.251046
O O8 0.807215 0.521217 0.741574
O O9 0.085960 0.356582 0.665870
O O10 0.990661 0.442853 0.585571
O O11 0.686033 0.720348 0.850535
O O12 0.345671 0.792848 0.959127
O O13 0.552596 0.865797 0.984849
O O14 0.774373 0.772178 0.706407
O O15 0.925076 0.708578 0.315723
O O16 0.718434 0.101123 0.925761
#
# Coordination Sequence:
#
# PCOD8055607 Si02
#       8
#     4   4   4   4   4   4   4   4
#     4  11  21  41  64  95 129 164 208 271 318 374
#     4  11  23  39  64  95 128 164 217 262 322 381
#     4  11  23  42  65  96 130 166 213 271 320 379
#     4  10  25  42  66  92 131 170 217 265 323 386
#     4  10  23  44  63  93 128 170 215 265 323 385
#     4  10  23  43  65  92 132 170 212 263 324 384
#     4  11  23  42  66  97 129 167 216 267 318 383
#     4  10  23  43  65  94 131 169 214 262 322 384
#
# _framework density 20.623581999999999
#
# number of rings (size 3 to 8) (size 9 to 14) (size 15 to 20)
#    0.000    1.500    3.750    1.500    1.750    8.000 
#    2.250    0.000    0.000    0.000    0.000    0.000 
#    0.000    0.000    0.000    0.000    0.000    0.000 
#
# Total GULP energy -198422.361437 kJ/mol
# GULP energy per Si atom -12401.397590 kJ/mol
# Density = 2.057664 g / cm^3
# Si number density = 20.623582 Si / 1000 Ang^3
#
#
#
# Elastic Constant Matrix: (Units=GPa)
#
#
# Indices 1 2 3 4 5 6 
#
# 1 116.4315 72.9148 -1.0011 0.0000 -5.2634 0.0000
# 2 72.9148 103.6015 7.1997 0.0000 6.2315 0.0000
# 3 -1.0011 7.1997 49.6007 0.0000 0.4775 0.0000
# 4 0.0000 0.0000 0.0000 40.2466 0.0000 0.2528
# 5 -5.2634 6.2315 0.4775 0.0000 29.5065 0.0000
# 6 0.0000 0.0000 0.0000 0.2528 0.0000 41.4322
#
#
#
# Elastic Compliance Matrix: (Units=1/GPa)
#
#
# Indices 1 2 3 4 5 6 
#
# 1 0.016347 -0.011971 0.002015 0.000000 0.005412 0.000000
# 2 -0.011971 0.018641 -0.002889 0.000000 -0.006025 0.000000
# 3 0.002015 -0.002889 0.020615 0.000000 0.000636 0.000000
# 4 0.000000 0.000000 0.000000 0.024848 0.000000 -0.000152
# 5 0.005412 -0.006025 0.000636 0.000000 0.036118 0.000000
# 6 0.000000 0.000000 0.000000 -0.000152 0.000000 0.024137
#
#
# Mechanical properties :
#
#
# Convention : Reuss Voigt Hill
#
# Bulk Modulus (GPa) = 33.42972 47.54006 40.48489
# Shear Modulus (GPa) = 28.35003 34.93843 31.64423
#
# Velocity S-wave (km/s) = 3.71164 4.12041 3.92135
# Velocity P-wave (km/s) = 5.88328 6.76302 6.33843
#
# Compressibility (1/GPa) = 0.02991350
#
# Stress axis : x y z
#
# Youngs Moduli (GPa) = 61.17171 53.64608 48.50847
#
# Poissons Ratio (x) = 0.64219 -0.09777
# Poissons Ratio (y) = 0.73228 0.14016
# Poissons Ratio (z) = -0.12329 0.15500
#
# Static dielectric constant tensor:
#      x y z
#    x 3.925330 0.000000 -0.095310 
#    y 0.000000 3.948430 0.000000 
#    z -0.095310 0.000000 3.641050 
# 
# 
# High freq. dielectric constant tensor:
#      x y z
#    x 1.812570 0.000000 -0.009240 
#    y 0.000000 1.809010 0.000000 
#    z -0.009240 0.000000 1.804210 
# 
# From -- ./inp_files/29853.got.cif
#   From: 2010.06.25/outbox.cif.g09.slc.cpg/sg9_15_cif.got.tgz:29853.got - 2010.06.27 21:40:51.
