data_PCOD8055352
_publ_section_title
;
Structure prediction by ZEFSAII (Michael W. Deem and Ramdas Pophale) SiO2 
 PCOD8055352
Probable space group: C C
;
_chemical_formula_sum "Si O2"
_cell_formula_units_Z 32
_cell_length_a 5.320191
_cell_length_b 21.914326
_cell_length_c 13.905028
_cell_angle_alpha 90.000000
_cell_angle_beta 64.099886
_cell_angle_gamma 90.000000
_cell_volume 1458.330147
_symmetry_space_group_name_H-M "C C"
_symmetry_group_IT_number 9
_symmetry_cell_setting 'monoclinic'
loop_
_space_group_symop_operation_xyz
x,y,z
x,-y,1/2+z
1/2+x,1/2+y,z
1/2+x,1/2-y,1/2+z
loop_
_atom_site_type_symbol
_atom_site_label
_atom_site_fract_x
_atom_site_fract_y
_atom_site_fract_z
Si Si1 0.821290 0.322134 0.727510
Si Si2 0.539497 0.141607 0.492278
Si Si3 0.147904 0.913518 0.913732
Si Si4 0.151830 0.792066 0.196100
Si Si5 0.816317 0.351211 0.510750
Si Si6 0.294197 0.391765 0.314969
Si Si7 0.294913 0.750530 0.369183
Si Si8 0.733547 0.445261 0.372846
O O1 0.821921 0.379917 0.799371
O O2 0.747171 0.349689 0.635211
O O3 0.608857 0.272166 0.803089
O O4 0.101907 0.279537 0.674411
O O5 0.301700 0.097649 0.489834
O O6 0.423171 0.180519 0.600159
O O7 0.600761 0.190696 0.397910
O O8 0.824790 0.107173 0.473554
O O9 0.157047 0.985114 0.900265
O O10 0.214752 0.797129 0.299047
O O11 0.886396 0.837609 0.226022
O O12 0.752203 0.284595 0.477593
O O13 0.644536 0.404925 0.482442
O O14 0.144862 0.363689 0.435369
O O15 0.568109 0.427647 0.303742
O O16 0.067710 0.435322 0.298322
#
# Coordination Sequence:
#
# PCOD8055352 Si02
#       8
#     4   4   4   4   4   4   4   4
#     4  11  24  40  68 101 136 178 227 281 351 413
#     4  11  27  40  72  96 141 175 223 283 346 407
#     4  11  25  50  63 102 135 182 228 284 336 400
#     4  12  23  40  69 102 136 176 224 282 355 410
#     4  10  23  40  70 100 133 181 226 281 343 409
#     4  10  22  42  69  99 128 177 223 281 332 399
#     4  11  22  43  65 100 137 177 220 287 342 415
#     4  10  22  45  72  86 140 176 225 281 325 397
#
# _framework density 21.942905
#
# number of rings (size 3 to 8) (size 9 to 14) (size 15 to 20)
#    0.750    0.500    3.750    1.500    7.000    1.000 
#    2.250    1.250    0.000    0.000    0.000    0.000 
#    0.000    0.000    0.000    0.000    0.000    0.000 
#
# Total GULP energy -198234.906077 kJ/mol
# GULP energy per Si atom -12389.681630 kJ/mol
# Density = 2.189296 g / cm^3
# Si number density = 21.942905 Si / 1000 Ang^3
#
#
#
# Elastic Constant Matrix: (Units=GPa)
#
#
# Indices 1 2 3 4 5 6 
#
# 1 123.6234 44.2481 13.8235 0.0000 -1.6601 0.0000
# 2 44.2481 141.1342 32.9067 0.0000 -11.9316 0.0000
# 3 13.8235 32.9067 56.8398 0.0000 3.1797 0.0000
# 4 0.0000 0.0000 0.0000 17.8871 0.0000 2.0558
# 5 -1.6601 -11.9316 3.1797 0.0000 20.7666 0.0000
# 6 0.0000 0.0000 0.0000 2.0558 0.0000 31.8195
#
#
#
# Elastic Compliance Matrix: (Units=1/GPa)
#
#
# Indices 1 2 3 4 5 6 
#
# 1 0.009144 -0.002805 -0.000556 0.000000 -0.000795 0.000000
# 2 -0.002805 0.009720 -0.005290 0.000000 0.006170 0.000000
# 3 -0.000556 -0.005290 0.021145 0.000000 -0.006322 0.000000
# 4 0.000000 0.000000 0.000000 0.056325 0.000000 -0.003639
# 5 -0.000795 0.006170 -0.006322 0.000000 0.052604 0.000000
# 6 0.000000 0.000000 0.000000 -0.003639 0.000000 0.031662
#
#
# Mechanical properties :
#
#
# Convention : Reuss Voigt Hill
#
# Bulk Modulus (GPa) = 44.03769 55.95045 49.99407
# Shear Modulus (GPa) = 24.33440 29.46925 26.90183
#
# Velocity S-wave (km/s) = 3.33376 3.66867 3.50522
# Velocity P-wave (km/s) = 5.91028 6.59538 6.26221
#
# Compressibility (1/GPa) = 0.02270782
#
# Stress axis : x y z
#
# Youngs Moduli (GPa) = 109.35676 102.88197 47.29281
#
# Poissons Ratio (x) = 0.28854 0.02628
# Poissons Ratio (y) = 0.30670 0.25019
# Poissons Ratio (z) = 0.06078 0.54428
#
# Static dielectric constant tensor:
#      x y z
#    x 3.884820 0.000000 -0.101920 
#    y 0.000000 3.899980 0.000000 
#    z -0.101920 0.000000 3.694870 
# 
# 
# High freq. dielectric constant tensor:
#      x y z
#    x 1.865590 0.000000 -0.003840 
#    y 0.000000 1.861240 0.000000 
#    z -0.003840 0.000000 1.840920 
# 
# From -- ./inp_files/22219.got.cif
#   From: 2010.06.25/outbox.cif.g09.slc.cpg/sg9_12_cif.got.tgz:22219.got - 2010.06.27 21:40:51.
