data_PCOD8055166
_publ_section_title
;
Structure prediction by ZEFSAII (Michael W. Deem and Ramdas Pophale) SiO2 
 PCOD8055166
Probable space group: C C
;
_chemical_formula_sum "Si O2"
_cell_formula_units_Z 28
_cell_length_a 14.338993
_cell_length_b 8.463885
_cell_length_c 14.680635
_cell_angle_alpha 90.000000
_cell_angle_beta 48.163277
_cell_angle_gamma 90.000000
_cell_volume 1327.449092
_symmetry_space_group_name_H-M "C C"
_symmetry_group_IT_number 9
_symmetry_cell_setting 'monoclinic'
loop_
_space_group_symop_operation_xyz
x,y,z
x,-y,1/2+z
1/2+x,1/2+y,z
1/2+x,1/2-y,1/2+z
loop_
_atom_site_type_symbol
_atom_site_label
_atom_site_fract_x
_atom_site_fract_y
_atom_site_fract_z
Si Si1 0.429850 0.474508 0.847230
Si Si2 0.689556 0.334683 0.711212
Si Si3 0.440792 0.334682 0.649566
Si Si4 0.565173 0.761005 0.680390
Si Si5 0.700497 0.474510 0.513549
Si Si6 0.262357 0.509407 0.123887
Si Si7 0.367990 0.990592 0.736892
O O1 0.541542 0.367030 0.814708
O O2 0.384909 0.403696 0.780046
O O3 0.478751 0.653339 0.801681
O O4 0.311836 0.471691 0.990405
O O5 0.745437 0.403695 0.580733
O O6 0.711030 0.148143 0.704235
O O7 0.755458 0.419629 0.752213
O O8 0.588805 0.367035 0.546071
O O9 0.374888 0.419622 0.608566
O O10 0.419322 0.148142 0.656543
O O11 0.651599 0.653341 0.559098
O O12 0.648845 0.867592 0.692459
O O13 0.481498 0.867585 0.668323
O O14 0.818511 0.471693 0.370374
#
# Coordination Sequence:
#
# PCOD8055166 Si02
#       7
#     4   4   4   4   4   4   4
#     4  10  22  42  60  85 118 151 191 244 286 334
#     4  10  22  38  60  88 114 152 198 232 284 350
#     4  10  22  38  60  88 114 152 198 232 284 350
#     4  10  22  38  60  88 114 152 198 232 284 350
#     4  10  22  42  60  85 118 151 191 244 286 334
#     4  12  22  40  61  85 120 154 188 241 288 337
#     4  12  22  40  61  85 120 154 188 241 288 337
#
# _framework density 21.093088000000002
#
# number of rings (size 3 to 8) (size 9 to 14) (size 15 to 20)
#    0.000    1.714    0.000    7.714    0.000    0.000 
#    0.000    4.286    0.000    0.000    0.000    0.000 
#    0.000    0.000    0.000    0.000    0.000    0.000 
#
# Total GULP energy -173682.166950 kJ/mol
# GULP energy per Si atom -12405.869068 kJ/mol
# Density = 2.104508 g / cm^3
# Si number density = 21.093088 Si / 1000 Ang^3
#
#
#
# Elastic Constant Matrix: (Units=GPa)
#
#
# Indices 1 2 3 4 5 6 
#
# 1 63.8962 5.7531 2.7627 0.0000 6.1393 0.0000
# 2 5.7531 131.1291 17.8141 0.0000 -10.4955 0.0000
# 3 2.7627 17.8141 34.1356 0.0000 0.3684 0.0000
# 4 0.0000 0.0000 0.0000 11.9775 0.0000 -3.0460
# 5 6.1393 -10.4955 0.3684 0.0000 18.8970 0.0000
# 6 0.0000 0.0000 0.0000 -3.0460 0.0000 37.8000
#
#
#
# Elastic Compliance Matrix: (Units=1/GPa)
#
#
# Indices 1 2 3 4 5 6 
#
# 1 0.016346 -0.001097 -0.000687 0.000000 -0.005906 0.000000
# 2 -0.001097 0.008710 -0.004514 0.000000 0.005282 0.000000
# 3 -0.000687 -0.004514 0.031737 0.000000 -0.002902 0.000000
# 4 0.000000 0.000000 0.000000 0.085237 0.000000 0.006869
# 5 -0.005906 0.005282 -0.002902 0.000000 0.057828 0.000000
# 6 0.000000 0.000000 0.000000 0.006869 0.000000 0.027008
#
#
# Mechanical properties :
#
#
# Convention : Reuss Voigt Hill
#
# Bulk Modulus (GPa) = 22.62481 31.31341 26.96911
# Shear Modulus (GPa) = 19.66999 27.25697 23.46348
#
# Velocity S-wave (km/s) = 3.05705 3.59865 3.33885
# Velocity P-wave (km/s) = 4.81770 5.66962 5.26093
#
# Compressibility (1/GPa) = 0.04419928
#
# Stress axis : x y z
#
# Youngs Moduli (GPa) = 61.17588 114.80867 31.50856
#
# Poissons Ratio (x) = 0.12590 0.02165
# Poissons Ratio (y) = 0.06708 0.14222
# Poissons Ratio (z) = 0.04203 0.51822
#
# Static dielectric constant tensor:
#      x y z
#    x 3.774770 0.000000 0.039810 
#    y 0.000000 3.999710 0.000000 
#    z 0.039810 0.000000 3.548740 
# 
# 
# High freq. dielectric constant tensor:
#      x y z
#    x 1.831870 0.000000 0.000430 
#    y 0.000000 1.844860 0.000000 
#    z 0.000430 0.000000 1.805450 
# 
# From -- ./inp_files/17599.got.cif
#   From: 2010.06.25/outbox.cif.g09.slc.cpg/sg9_9_cif.got.tgz:17599.got - 2010.06.27 21:40:51.
