data_PCOD8055895
_publ_section_title
;
Structure prediction by ZEFSAII (Michael W. Deem and Ramdas Pophale) SiO2 
 PCOD8055895
Probable space group: C C
;
_chemical_formula_sum "Si O2"
_cell_formula_units_Z 32
_cell_length_a 7.250396
_cell_length_b 29.011547
_cell_length_c 8.904165
_cell_angle_alpha 90.000000
_cell_angle_beta 54.199786
_cell_angle_gamma 90.000000
_cell_volume 1519.076595
_symmetry_space_group_name_H-M "C C"
_symmetry_group_IT_number 9
_symmetry_cell_setting 'monoclinic'
loop_
_space_group_symop_operation_xyz
x,y,z
x,-y,1/2+z
1/2+x,1/2+y,z
1/2+x,1/2-y,1/2+z
loop_
_atom_site_type_symbol
_atom_site_label
_atom_site_fract_x
_atom_site_fract_y
_atom_site_fract_z
Si Si1 0.118620 0.502557 0.615060
Si Si2 0.394713 0.713449 0.243370
Si Si3 0.159069 0.219246 0.623750
Si Si4 0.398580 0.775298 0.507698
Si Si5 0.749860 0.841836 0.376639
Si Si6 0.878894 0.445843 0.968635
Si Si7 0.019935 0.654839 0.305654
Si Si8 0.358437 0.443597 0.260695
O O1 0.257490 0.462747 0.463887
O O2 0.279439 0.529884 0.651158
O O3 0.917913 0.478411 0.805420
O O4 0.029459 0.538818 0.537269
O O5 0.325170 0.753336 0.156858
O O6 0.348874 0.731213 0.431092
O O7 0.245422 0.667940 0.291394
O O8 0.658387 0.698106 0.122759
O O9 0.317327 0.191745 0.430333
O O10 0.998423 0.256873 0.618970
O O11 0.991017 0.184034 0.793874
O O12 0.590151 0.809707 0.345805
O O13 0.591449 0.847870 0.598392
O O14 0.792385 0.890095 0.275774
O O15 0.937464 0.394007 0.901217
O O16 0.624673 0.450056 0.145171
#
# Coordination Sequence:
#
# PCOD8055895 Si02
#       8
#     4   4   4   4   4   4   4   4
#     4  10  24  45  70 102 126 168 216 265 338 410
#     4  12  24  42  66  93 130 181 227 268 325 383
#     4  12  24  45  66  90 140 176 224 281 318 382
#     4  12  24  42  66  93 130 181 227 268 325 383
#     4  12  24  43  67  98 133 176 223 271 327 389
#     4  11  23  45  71  97 134 168 214 272 334 395
#     4  12  24  43  67  98 133 176 223 271 327 389
#     4  11  23  45  71  97 134 168 214 272 334 395
#
# _framework density 21.065429999999999
#
# number of rings (size 3 to 8) (size 9 to 14) (size 15 to 20)
#    0.000    0.500    6.250    3.000    0.000    2.000 
#    4.500    1.250    0.000    0.000    0.000    0.000 
#    0.000    0.000    0.000    0.000    0.000    0.000 
#
# Total GULP energy -198353.633131 kJ/mol
# GULP energy per Si atom -12397.102071 kJ/mol
# Density = 2.101748 g / cm^3
# Si number density = 21.065430 Si / 1000 Ang^3
#
#
#
# Elastic Constant Matrix: (Units=GPa)
#
#
# Indices 1 2 3 4 5 6 
#
# 1 100.8509 27.9930 32.8587 0.0000 -15.6734 0.0000
# 2 27.9930 85.9867 6.9124 0.0000 -1.5330 0.0000
# 3 32.8587 6.9124 80.4072 0.0000 -11.2204 0.0000
# 4 0.0000 0.0000 0.0000 34.3836 0.0000 -5.4094
# 5 -15.6734 -1.5330 -11.2204 0.0000 40.9773 0.0000
# 6 0.0000 0.0000 0.0000 -5.4094 0.0000 25.9523
#
#
#
# Elastic Compliance Matrix: (Units=1/GPa)
#
#
# Indices 1 2 3 4 5 6 
#
# 1 0.012991 -0.003805 -0.004479 0.000000 0.003600 0.000000
# 2 -0.003805 0.012826 0.000329 0.000000 -0.000885 0.000000
# 3 -0.004479 0.000329 0.014558 0.000000 0.002285 0.000000
# 4 0.000000 0.000000 0.000000 0.030070 0.000000 0.006268
# 5 0.003600 -0.000885 0.002285 0.000000 0.026373 0.000000
# 6 0.000000 0.000000 0.000000 0.006268 0.000000 0.039839
#
#
# Mechanical properties :
#
#
# Convention : Reuss Voigt Hill
#
# Bulk Modulus (GPa) = 40.87676 44.75256 42.81466
# Shear Modulus (GPa) = 31.10970 33.56133 32.33551
#
# Velocity S-wave (km/s) = 3.84710 3.99581 3.92216
# Velocity P-wave (km/s) = 6.25942 6.52529 6.39374
#
# Compressibility (1/GPa) = 0.02446378
#
# Stress axis : x y z
#
# Youngs Moduli (GPa) = 76.97878 77.96566 68.69175
#
# Poissons Ratio (x) = 0.29665 0.30768
# Poissons Ratio (y) = 0.29289 -0.02258
# Poissons Ratio (z) = 0.34480 -0.02562
#
# Static dielectric constant tensor:
#      x y z
#    x 3.960350 0.000000 -0.232040 
#    y 0.000000 3.924310 0.000000 
#    z -0.232040 0.000000 4.025130 
# 
# 
# High freq. dielectric constant tensor:
#      x y z
#    x 1.825850 0.000000 -0.012540 
#    y 0.000000 1.822720 0.000000 
#    z -0.012540 0.000000 1.842370 
# 
# From -- ./inp_files/4452.got.cif
#   From: 2010.06.25/outbox.cif.g09.slc.cpg/sg9_3_cif.got.tgz:4452.got - 2010.06.27 21:40:51.
