data_PCOD8055318
_publ_section_title
;
Structure prediction by ZEFSAII (Michael W. Deem and Ramdas Pophale) SiO2 
 PCOD8055318
Probable space group: C C
;
_chemical_formula_sum "Si O2"
_cell_formula_units_Z 32
_cell_length_a 7.664899
_cell_length_b 10.861462
_cell_length_c 17.544327
_cell_angle_alpha 90.000000
_cell_angle_beta 60.183800
_cell_angle_gamma 90.000000
_cell_volume 1267.253343
_symmetry_space_group_name_H-M "C C"
_symmetry_group_IT_number 9
_symmetry_cell_setting 'monoclinic'
loop_
_space_group_symop_operation_xyz
x,y,z
x,-y,1/2+z
1/2+x,1/2+y,z
1/2+x,1/2-y,1/2+z
loop_
_atom_site_type_symbol
_atom_site_label
_atom_site_fract_x
_atom_site_fract_y
_atom_site_fract_z
Si Si1 0.111840 0.645103 0.543110
Si Si2 0.239972 0.499200 0.886425
Si Si3 0.096753 0.401365 0.706456
Si Si4 0.650710 0.396304 0.791139
Si Si5 0.540532 0.848751 0.235273
Si Si6 0.617856 0.258902 0.341036
Si Si7 0.789751 0.212168 0.025847
Si Si8 0.524034 0.241690 0.951802
O O1 0.200845 0.517258 0.487400
O O2 0.058821 0.630884 0.641437
O O3 0.282406 0.752759 0.496147
O O4 0.908457 0.679691 0.542221
O O5 0.479640 0.501298 0.810904
O O6 0.151658 0.370849 0.874968
O O7 0.109577 0.618407 0.890570
O O8 0.874009 0.443294 0.726672
O O9 0.156643 0.526587 0.741830
O O10 0.087930 0.276982 0.758350
O O11 0.241180 0.387165 0.602113
O O12 0.634207 0.279328 0.738659
O O13 0.623704 0.354579 0.884508
O O14 0.305855 0.849169 0.310859
O O15 0.426609 0.330292 0.421441
O O16 0.584790 0.256069 0.028165
#
# Coordination Sequence:
#
# PCOD8055318 Si02
#       8
#     4   4   4   4   4   4   4   4
#     4  10  22  42  63  95 139 175 221 289 335 401
#     4   9  21  40  65  95 129 178 225 276 346 400
#     4  12  23  41  69  99 132 186 229 273 356 405
#     4  10  23  40  64  97 134 176 226 281 332 405
#     4  11  23  43  66  94 139 181 225 285 339 403
#     4  10  22  43  65  94 140 173 231 291 328 406
#     4  11  23  41  69 100 134 177 227 284 338 407
#     4  11  21  42  67  96 135 174 226 283 340 405
#
# _framework density 25.251460999999999
#
# number of rings (size 3 to 8) (size 9 to 14) (size 15 to 20)
#    0.000    1.500    2.500    3.000    1.750    0.000 
#    0.000    5.000    0.000    0.000    0.000    0.000 
#    0.000    0.000    0.000    0.000    0.000    0.000 
#
# Total GULP energy -198217.238425 kJ/mol
# GULP energy per Si atom -12388.577402 kJ/mol
# Density = 2.519399 g / cm^3
# Si number density = 25.251461 Si / 1000 Ang^3
#
#
#
# Elastic Constant Matrix: (Units=GPa)
#
#
# Indices 1 2 3 4 5 6 
#
# 1 51.2610 4.9815 -3.4925 0.0000 -9.8045 0.0000
# 2 4.9815 81.3595 35.4561 0.0000 -13.8585 0.0000
# 3 -3.4925 35.4561 117.0204 0.0000 -8.7527 0.0000
# 4 0.0000 0.0000 0.0000 42.0350 0.0000 -0.5982
# 5 -9.8045 -13.8585 -8.7527 0.0000 31.8084 0.0000
# 6 0.0000 0.0000 0.0000 -0.5982 0.0000 25.0830
#
#
#
# Elastic Compliance Matrix: (Units=1/GPa)
#
#
# Indices 1 2 3 4 5 6 
#
# 1 0.020913 -0.000760 0.001339 0.000000 0.006484 0.000000
# 2 -0.000760 0.015046 -0.004195 0.000000 0.005167 0.000000
# 3 0.001339 -0.004195 0.009956 0.000000 0.001325 0.000000
# 4 0.000000 0.000000 0.000000 0.023798 0.000000 0.000568
# 5 0.006484 0.005167 0.001325 0.000000 0.036052 0.000000
# 6 0.000000 0.000000 0.000000 0.000568 0.000000 0.039881
#
#
# Mechanical properties :
#
#
# Convention : Reuss Voigt Hill
#
# Bulk Modulus (GPa) = 25.85052 35.94788 30.89920
# Shear Modulus (GPa) = 30.16203 33.96502 32.06352
#
# Velocity S-wave (km/s) = 3.45986 3.67150 3.56725
# Velocity P-wave (km/s) = 5.12057 5.67804 5.40649
#
# Compressibility (1/GPa) = 0.03868394
#
# Stress axis : x y z
#
# Youngs Moduli (GPa) = 47.81666 66.46334 100.44595
#
# Poissons Ratio (x) = 0.05049 -0.13453
# Poissons Ratio (y) = 0.03633 0.42137
# Poissons Ratio (z) = -0.06404 0.27881
#
# Static dielectric constant tensor:
#      x y z
#    x 4.651100 0.000000 0.110330 
#    y 0.000000 4.730030 0.000000 
#    z 0.110330 0.000000 4.852600 
# 
# 
# High freq. dielectric constant tensor:
#      x y z
#    x 2.001460 0.000000 0.005940 
#    y 0.000000 2.009290 0.000000 
#    z 0.005940 0.000000 2.021110 
# 
# From -- ./inp_files/22722.got.cif
#   From: 2010.06.25/outbox.cif.g09.slc.cpg/sg9_12_cif.got.tgz:22722.got - 2010.06.27 21:40:51.
