data_PCOD8055614
_publ_section_title
;
Structure prediction by ZEFSAII (Michael W. Deem and Ramdas Pophale) SiO2 
 PCOD8055614
Probable space group: C C
;
_chemical_formula_sum "Si O2"
_cell_formula_units_Z 24
_cell_length_a 18.104407
_cell_length_b 12.225670
_cell_length_c 11.550219
_cell_angle_alpha 90.000000
_cell_angle_beta 155.271927
_cell_angle_gamma 90.000000
_cell_volume 1069.418477
_symmetry_space_group_name_H-M "C C"
_symmetry_group_IT_number 9
_symmetry_cell_setting 'monoclinic'
loop_
_space_group_symop_operation_xyz
x,y,z
x,-y,1/2+z
1/2+x,1/2+y,z
1/2+x,1/2-y,1/2+z
loop_
_atom_site_type_symbol
_atom_site_label
_atom_site_fract_x
_atom_site_fract_y
_atom_site_fract_z
Si Si1 0.992190 0.927227 0.684090
Si Si2 0.514366 0.208571 0.821142
Si Si3 0.113824 0.204891 0.160949
Si Si4 0.615147 0.922812 0.262503
Si Si5 0.501114 0.336239 0.252939
Si Si6 0.090936 0.339710 0.692689
O O1 0.089351 0.829761 0.894645
O O2 0.797343 0.939711 0.455622
O O3 0.999741 0.892290 0.558994
O O4 0.078649 0.047141 0.819139
O O5 0.311932 0.199172 0.492652
O O6 0.629421 0.115287 0.917959
O O7 0.532098 0.192988 0.981577
O O8 0.020728 0.320888 0.062406
O O9 0.118977 0.194992 0.030818
O O10 0.512973 0.038649 0.109559
O O11 0.509603 0.246670 0.165009
O O12 0.299945 0.341850 0.007766
#
# Coordination Sequence:
#
# PCOD8055614 Si02
#       6
#     4   4   4   4   4   4
#     4   9  22  42  67  89 128 172 209 250 323 380
#     4  10  23  43  66  95 126 170 210 256 319 378
#     4  10  23  43  66  95 126 170 210 256 319 378
#     4   9  22  42  67  89 128 172 209 250 323 380
#     4  11  27  42  65  96 130 165 213 265 313 372
#     4  11  27  42  65  96 130 165 213 265 313 372
#
# _framework density 22.442102999999999
#
# number of rings (size 3 to 8) (size 9 to 14) (size 15 to 20)
#    0.000    2.000    0.000    0.000   18.667    5.333 
#    0.000    0.000    0.000    0.000    0.000    0.000 
#    0.000    0.000    0.000    0.000    0.000    0.000 
#
# Total GULP energy -148702.801738 kJ/mol
# GULP energy per Si atom -12391.900145 kJ/mol
# Density = 2.239102 g / cm^3
# Si number density = 22.442103 Si / 1000 Ang^3
#
#
#
# Elastic Constant Matrix: (Units=GPa)
#
#
# Indices 1 2 3 4 5 6 
#
# 1 138.5840 67.7898 21.1921 0.0000 -34.8233 0.0000
# 2 67.7898 202.0202 15.1137 0.0000 -21.7996 0.0000
# 3 21.1921 15.1137 63.9081 0.0000 -21.2241 0.0000
# 4 0.0000 0.0000 0.0000 16.8341 0.0000 3.6599
# 5 -34.8233 -21.7996 -21.2241 0.0000 45.0965 0.0000
# 6 0.0000 0.0000 0.0000 3.6599 0.0000 30.5198
#
#
#
# Elastic Compliance Matrix: (Units=1/GPa)
#
#
# Indices 1 2 3 4 5 6 
#
# 1 0.010214 -0.002701 -0.000667 0.000000 0.006268 0.000000
# 2 -0.002701 0.005949 -0.000295 0.000000 0.000651 0.000000
# 3 -0.000667 -0.000295 0.018632 0.000000 0.008112 0.000000
# 4 0.000000 0.000000 0.000000 0.060994 0.000000 -0.007314
# 5 0.006268 0.000651 0.008112 0.000000 0.031147 0.000000
# 6 0.000000 0.000000 0.000000 -0.007314 0.000000 0.033643
#
#
# Mechanical properties :
#
#
# Convention : Reuss Voigt Hill
#
# Bulk Modulus (GPa) = 36.40413 68.07816 52.24115
# Shear Modulus (GPa) = 28.23900 38.51787 33.37843
#
# Velocity S-wave (km/s) = 3.55111 4.14735 3.86075
# Velocity P-wave (km/s) = 5.75069 7.30307 6.57287
#
# Compressibility (1/GPa) = 0.02746941
#
# Stress axis : x y z
#
# Youngs Moduli (GPa) = 97.90420 168.10330 53.67060
#
# Poissons Ratio (x) = 0.45408 0.03578
# Poissons Ratio (y) = 0.26446 0.01583
# Poissons Ratio (z) = 0.06527 0.04958
#
# Static dielectric constant tensor:
#      x y z
#    x 4.162450 0.000000 0.073990 
#    y 0.000000 4.959620 0.000000 
#    z 0.073990 0.000000 3.571540 
# 
# 
# High freq. dielectric constant tensor:
#      x y z
#    x 1.898840 0.000000 0.003620 
#    y 0.000000 1.905750 0.000000 
#    z 0.003620 0.000000 1.843720 
# 
# From -- ./inp_files/6937.got.cif
#   From: 2010.06.25/outbox.cif.g09.slc.cpg/sg9_4_cif.got.tgz:6937.got - 2010.06.27 21:40:51.
