data_PCOD8055080
_publ_section_title
;
Structure prediction by ZEFSAII (Michael W. Deem and Ramdas Pophale) SiO2 
 PCOD8055080
Probable space group: C C
;
_chemical_formula_sum "Si O2"
_cell_formula_units_Z 32
_cell_length_a 10.752990
_cell_length_b 10.322224
_cell_length_c 17.735708
_cell_angle_alpha 90.000000
_cell_angle_beta 41.500378
_cell_angle_gamma 90.000000
_cell_volume 1304.424242
_symmetry_space_group_name_H-M "C C"
_symmetry_group_IT_number 9
_symmetry_cell_setting 'monoclinic'
loop_
_space_group_symop_operation_xyz
x,y,z
x,-y,1/2+z
1/2+x,1/2+y,z
1/2+x,1/2-y,1/2+z
loop_
_atom_site_type_symbol
_atom_site_label
_atom_site_fract_x
_atom_site_fract_y
_atom_site_fract_z
Si Si1 0.926100 0.238972 0.957940
Si Si2 0.233127 0.907203 0.849455
Si Si3 0.959856 0.529217 0.965488
Si Si4 0.827382 0.868374 0.349250
Si Si5 0.863193 0.748341 0.720407
Si Si6 0.719434 0.476439 0.198751
Si Si7 0.528298 0.904407 0.272144
Si Si8 0.914164 0.965734 0.588428
O O1 0.869613 0.387656 0.993232
O O2 0.807811 0.179612 0.943434
O O3 0.147089 0.239980 0.842579
O O4 0.864467 0.150577 0.054990
O O5 0.266862 0.754731 0.826070
O O6 0.150366 0.951733 0.806283
O O7 0.432983 0.971093 0.776531
O O8 0.092818 0.952528 0.980010
O O9 0.947380 0.613650 0.894265
O O10 0.174838 0.521424 0.897913
O O11 0.824953 0.579065 0.094808
O O12 0.036778 0.919149 0.238808
O O13 0.873228 0.635902 0.651394
O O14 0.985988 0.720568 0.739820
O O15 0.935944 0.888338 0.658100
O O16 0.748889 0.931115 0.173955
#
# Coordination Sequence:
#
# PCOD8055080 Si02
#       8
#     4   4   4   4   4   4   4   4
#     4  11  22  44  70 102 140 188 238 288 360 430
#     4  11  24  47  72 106 146 187 244 299 367 427
#     4  12  25  44  71 109 141 195 249 285 371 441
#     4  11  25  48  69 103 153 182 237 307 349 434
#     4  10  21  43  70 106 142 188 238 300 361 430
#     4  10  23  43  75 106 139 198 241 293 366 435
#     4  11  24  45  68 107 150 186 242 303 359 434
#     4  12  22  42  77 107 141 190 243 297 371 427
#
# _framework density 24.531896
#
# number of rings (size 3 to 8) (size 9 to 14) (size 15 to 20)
#    0.000    1.000    7.500    0.750    3.500    1.000 
#    6.750    0.000    0.000    0.000    0.000    0.000 
#    0.000    0.000    0.000    0.000    0.000    0.000 
#
# Total GULP energy -198307.106618 kJ/mol
# GULP energy per Si atom -12394.194164 kJ/mol
# Density = 2.447606 g / cm^3
# Si number density = 24.531896 Si / 1000 Ang^3
#
#
#
# Elastic Constant Matrix: (Units=GPa)
#
#
# Indices 1 2 3 4 5 6 
#
# 1 114.3475 39.5236 50.1594 0.0000 8.2940 0.0000
# 2 39.5236 47.9979 31.0672 0.0000 4.8480 0.0000
# 3 50.1594 31.0672 138.0441 -0.0001 11.1565 0.0000
# 4 0.0000 0.0000 -0.0001 23.8217 0.0000 -0.7096
# 5 8.2940 4.8480 11.1565 0.0000 27.9902 0.0000
# 6 0.0000 0.0000 0.0000 -0.7096 0.0000 42.7748
#
#
#
# Elastic Compliance Matrix: (Units=1/GPa)
#
#
# Indices 1 2 3 4 5 6 
#
# 1 0.013085 -0.008937 -0.002640 0.000000 -0.001277 0.000000
# 2 -0.008937 0.030611 -0.003541 0.000000 -0.001242 0.000000
# 3 -0.002640 -0.003541 0.009183 0.000000 -0.002265 0.000000
# 4 0.000000 0.000000 0.000000 0.041999 0.000000 0.000697
# 5 -0.001277 -0.001242 -0.002265 0.000000 0.037223 0.000000
# 6 0.000000 0.000000 0.000000 0.000697 0.000000 0.023390
#
#
# Mechanical properties :
#
#
# Convention : Reuss Voigt Hill
#
# Bulk Modulus (GPa) = 44.16452 60.20999 52.18725
# Shear Modulus (GPa) = 25.86977 30.89331 28.38154
#
# Velocity S-wave (km/s) = 3.25089 3.55253 3.40505
# Velocity P-wave (km/s) = 5.66860 6.43616 6.06453
#
# Compressibility (1/GPa) = 0.02264261
#
# Stress axis : x y z
#
# Youngs Moduli (GPa) = 76.42342 32.66796 108.89260
#
# Poissons Ratio (x) = 0.29195 0.28748
# Poissons Ratio (y) = 0.68300 0.38563
# Poissons Ratio (z) = 0.20176 0.11569
#
# Static dielectric constant tensor:
#      x y z
#    x 4.445030 0.000000 0.326610 
#    y 0.000000 4.312130 0.000000 
#    z 0.326610 0.000000 4.519690 
# 
# 
# High freq. dielectric constant tensor:
#      x y z
#    x 1.975730 0.000000 0.015640 
#    y 0.000000 1.957000 0.000000 
#    z 0.015640 0.000000 1.975720 
# 
# From -- ./inp_files/30065.got.cif
#   From: 2010.06.25/outbox.cif.g09.slc.cpg/sg9_16_cif.got.tgz:30065.got - 2010.06.27 21:40:51.
