data_PCOD8055593
_publ_section_title
;
Structure prediction by ZEFSAII (Michael W. Deem and Ramdas Pophale) SiO2 
 PCOD8055593
Probable space group: C C
;
_chemical_formula_sum "Si O2"
_cell_formula_units_Z 24
_cell_length_a 5.182505
_cell_length_b 19.891086
_cell_length_c 10.945089
_cell_angle_alpha 90.000000
_cell_angle_beta 68.428513
_cell_angle_gamma 90.000000
_cell_volume 1049.256307
_symmetry_space_group_name_H-M "C C"
_symmetry_group_IT_number 9
_symmetry_cell_setting 'monoclinic'
loop_
_space_group_symop_operation_xyz
x,y,z
x,-y,1/2+z
1/2+x,1/2+y,z
1/2+x,1/2-y,1/2+z
loop_
_atom_site_type_symbol
_atom_site_label
_atom_site_fract_x
_atom_site_fract_y
_atom_site_fract_z
Si Si1 0.872310 0.615990 0.462890
Si Si2 0.788997 0.127131 0.197767
Si Si3 0.903964 0.902771 0.421109
Si Si4 0.556521 0.235637 0.587959
Si Si5 0.447875 0.182406 0.861204
Si Si6 0.913086 0.052866 0.402574
O O1 0.868245 0.683356 0.544037
O O2 0.574866 0.580903 0.494360
O O3 0.979614 0.632693 0.306419
O O4 0.085489 0.563179 0.489480
O O5 0.871433 0.199129 0.132525
O O6 0.989849 0.097540 0.269043
O O7 0.806766 0.079869 0.076080
O O8 0.650506 0.866680 0.397823
O O9 0.178230 0.857887 0.362495
O O10 0.974253 0.976054 0.354743
O O11 0.617308 0.208639 0.713751
O O12 0.842287 0.254811 0.465359
#
# Coordination Sequence:
#
# PCOD8055593 Si02
#       6
#     4   4   4   4   4   4
#     4  10  23  42  69  98 132 186 220 292 349 413
#     4   9  24  41  69  97 138 174 231 288 352 396
#     4  11  25  44  69 102 135 189 238 289 342 429
#     4  11  23  48  68 108 142 181 236 295 353 427
#     4  11  26  42  72 104 141 184 235 292 353 415
#     4  10  23  45  63 101 136 184 230 286 353 408
#
# _framework density 22.873346000000002
#
# number of rings (size 3 to 8) (size 9 to 14) (size 15 to 20)
#    1.000    0.667    1.667    1.000    4.667   12.000 
#    0.000    0.000    0.000    0.000    0.000    0.000 
#    0.000    0.000    0.000    0.000    0.000    0.000 
#
# Total GULP energy -148683.072370 kJ/mol
# GULP energy per Si atom -12390.256031 kJ/mol
# Density = 2.282129 g / cm^3
# Si number density = 22.873346 Si / 1000 Ang^3
#
#
#
# Elastic Constant Matrix: (Units=GPa)
#
#
# Indices 1 2 3 4 5 6 
#
# 1 139.0129 50.0435 33.8588 0.0000 21.2205 0.0000
# 2 50.0435 126.8448 50.3316 0.0000 14.9942 0.0000
# 3 33.8588 50.3316 104.9059 0.0000 5.4330 0.0000
# 4 0.0000 0.0000 0.0000 28.4672 0.0000 6.8541
# 5 21.2205 14.9942 5.4330 0.0000 19.6262 0.0000
# 6 0.0000 0.0000 0.0000 6.8541 0.0000 34.2050
#
#
#
# Elastic Compliance Matrix: (Units=1/GPa)
#
#
# Indices 1 2 3 4 5 6 
#
# 1 0.009644 -0.002171 -0.001640 0.000000 -0.008315 0.000000
# 2 -0.002171 0.011041 -0.004344 0.000000 -0.004886 0.000000
# 3 -0.001640 -0.004344 0.012055 0.000000 0.001755 0.000000
# 4 0.000000 0.000000 0.000000 0.036909 0.000000 -0.007396
# 5 -0.008315 -0.004886 0.001755 0.000000 0.063189 0.000000
# 6 0.000000 0.000000 0.000000 -0.007396 0.000000 0.030717
#
#
# Mechanical properties :
#
#
# Convention : Reuss Voigt Hill
#
# Bulk Modulus (GPa) = 60.86440 71.02573 65.94506
# Shear Modulus (GPa) = 26.97711 32.22831 29.60271
#
# Velocity S-wave (km/s) = 3.43798 3.75772 3.60140
# Velocity P-wave (km/s) = 6.51358 7.06728 6.79607
#
# Compressibility (1/GPa) = 0.01642997
#
# Stress axis : x y z
#
# Youngs Moduli (GPa) = 103.69250 90.56967 82.95396
#
# Poissons Ratio (x) = 0.19663 0.13608
# Poissons Ratio (y) = 0.22512 0.36032
# Poissons Ratio (z) = 0.17010 0.39340
#
# Static dielectric constant tensor:
#      x y z
#    x 3.806770 0.000000 0.025020 
#    y 0.000000 4.121540 0.000000 
#    z 0.025020 0.000000 4.469750 
# 
# 
# High freq. dielectric constant tensor:
#      x y z
#    x 1.889630 0.000000 0.011950 
#    y 0.000000 1.904590 0.000000 
#    z 0.011950 0.000000 1.899980 
# 
# From -- ./inp_files/13150.got.cif
#   From: 2010.06.25/outbox.cif.g09.slc.cpg/sg9_7_cif.got.tgz:13150.got - 2010.06.27 21:40:51.
