data_PCOD8055716
_publ_section_title
;
Structure prediction by ZEFSAII (Michael W. Deem and Ramdas Pophale) SiO2 
 PCOD8055716
Probable space group: C C
;
_chemical_formula_sum "Si O2"
_cell_formula_units_Z 32
_cell_length_a 19.521337
_cell_length_b 8.506158
_cell_length_c 16.297748
_cell_angle_alpha 90.000000
_cell_angle_beta 149.628200
_cell_angle_gamma 90.000000
_cell_volume 1368.313338
_symmetry_space_group_name_H-M "C C"
_symmetry_group_IT_number 9
_symmetry_cell_setting 'monoclinic'
loop_
_space_group_symop_operation_xyz
x,y,z
x,-y,1/2+z
1/2+x,1/2+y,z
1/2+x,1/2-y,1/2+z
loop_
_atom_site_type_symbol
_atom_site_label
_atom_site_fract_x
_atom_site_fract_y
_atom_site_fract_z
Si Si1 0.082630 0.598141 0.183180
Si Si2 0.603513 0.620383 0.269218
Si Si3 0.173075 0.969871 0.585199
Si Si4 0.930913 0.395456 0.779272
Si Si5 0.071057 0.697679 0.577801
Si Si6 0.644231 0.927122 0.407930
Si Si7 0.939059 0.944425 0.227032
Si Si8 0.769090 0.617365 0.843580
O O1 0.136680 0.466586 0.175027
O O2 0.079424 0.527916 0.269511
O O3 0.191476 0.734856 0.299587
O O4 0.929007 0.649754 0.003591
O O5 0.526065 0.705136 0.112926
O O6 0.498327 0.497518 0.200255
O O7 0.735370 0.531622 0.367966
O O8 0.649156 0.743946 0.386996
O O9 0.279869 0.967775 0.619804
O O10 0.174572 0.797083 0.629129
O O11 0.028332 0.009357 0.395292
O O12 0.209833 0.099162 0.690609
O O13 0.040934 0.532413 0.875358
O O14 0.940357 0.245858 0.728094
O O15 0.942928 0.341723 0.887459
O O16 0.791723 0.983337 0.587557
#
# Coordination Sequence:
#
# PCOD8055716 Si02
#       8
#     4   4   4   4   4   4   4   4
#     4  11  25  45  72 101 142 184 239 302 356 425
#     4  10  25  44  72 103 139 186 238 297 355 423
#     4  10  23  45  72  99 142 188 230 294 353 436
#     4  11  22  45  72 105 140 189 232 292 358 428
#     4   9  21  44  71 101 136 182 239 282 352 426
#     4  11  27  42  71 104 141 185 235 296 361 428
#     4  11  24  43  68 106 137 187 234 289 358 430
#     4  11  25  48  70 103 139 189 239 300 361 424
#
# _framework density 23.386458000000001
#
# number of rings (size 3 to 8) (size 9 to 14) (size 15 to 20)
#    0.000    1.500    1.250    2.250    8.750    2.000 
#    9.000    0.000    0.000    0.000    0.000    0.000 
#    0.000    0.000    0.000    0.000    0.000    0.000 
#
# Total GULP energy -198355.680844 kJ/mol
# GULP energy per Si atom -12397.230053 kJ/mol
# Density = 2.333323 g / cm^3
# Si number density = 23.386458 Si / 1000 Ang^3
#
#
#
# Elastic Constant Matrix: (Units=GPa)
#
#
# Indices 1 2 3 4 5 6 
#
# 1 98.7310 32.9289 33.0637 0.0000 10.5274 0.0000
# 2 32.9289 93.1700 15.5728 0.0000 -0.2029 0.0000
# 3 33.0637 15.5728 105.0923 0.0000 10.1318 0.0000
# 4 0.0000 0.0000 0.0000 24.1308 0.0000 -1.9790
# 5 10.5274 -0.2029 10.1318 0.0000 34.1003 0.0000
# 6 0.0000 0.0000 0.0000 -1.9790 0.0000 32.8813
#
#
#
# Elastic Compliance Matrix: (Units=1/GPa)
#
#
# Indices 1 2 3 4 5 6 
#
# 1 0.012851 -0.004022 -0.003153 0.000000 -0.003055 0.000000
# 2 -0.004022 0.012275 -0.000700 0.000000 0.001523 0.000000
# 3 -0.003153 -0.000700 0.010828 0.000000 -0.002248 0.000000
# 4 0.000000 0.000000 0.000000 0.041646 0.000000 0.002507
# 5 -0.003055 0.001523 -0.002248 0.000000 0.030945 0.000000
# 6 0.000000 0.000000 0.000000 0.002507 0.000000 0.030563
#
#
# Mechanical properties :
#
#
# Convention : Reuss Voigt Hill
#
# Bulk Modulus (GPa) = 49.49460 51.12490 50.30975
# Shear Modulus (GPa) = 30.94179 32.58433 31.76306
#
# Velocity S-wave (km/s) = 3.64134 3.73674 3.68935
# Velocity P-wave (km/s) = 6.23610 6.36600 6.30138
#
# Compressibility (1/GPa) = 0.02020422
#
# Stress axis : x y z
#
# Youngs Moduli (GPa) = 77.81246 81.46736 92.35410
#
# Poissons Ratio (x) = 0.32764 0.29117
# Poissons Ratio (y) = 0.31294 0.06469
# Poissons Ratio (z) = 0.24533 0.05706
#
# Static dielectric constant tensor:
#      x y z
#    x 4.188030 0.000000 -0.208910 
#    y 0.000000 4.287940 0.000000 
#    z -0.208910 0.000000 4.096650 
# 
# 
# High freq. dielectric constant tensor:
#      x y z
#    x 1.926410 0.000000 -0.010670 
#    y 0.000000 1.921000 0.000000 
#    z -0.010670 0.000000 1.922830 
# 
# From -- ./inp_files/31236.got.cif
#   From: 2010.06.25/outbox.cif.g09.slc.cpg/sg9_16_cif.got.tgz:31236.got - 2010.06.27 21:40:51.
