data_PCOD8055649
_publ_section_title
;
Structure prediction by ZEFSAII (Michael W. Deem and Ramdas Pophale) SiO2 
 PCOD8055649
Probable space group: C C
;
_chemical_formula_sum "Si O2"
_cell_formula_units_Z 32
_cell_length_a 23.657054
_cell_length_b 10.567875
_cell_length_c 8.968821
_cell_angle_alpha 90.000000
_cell_angle_beta 141.324028
_cell_angle_gamma 90.000000
_cell_volume 1401.215242
_symmetry_space_group_name_H-M "C C"
_symmetry_group_IT_number 9
_symmetry_cell_setting 'monoclinic'
loop_
_space_group_symop_operation_xyz
x,y,z
x,-y,1/2+z
1/2+x,1/2+y,z
1/2+x,1/2-y,1/2+z
loop_
_atom_site_type_symbol
_atom_site_label
_atom_site_fract_x
_atom_site_fract_y
_atom_site_fract_z
Si Si1 0.601030 0.353570 0.094200
Si Si2 0.183448 0.704397 0.032744
Si Si3 0.866478 0.881834 0.802200
Si Si4 0.907820 0.878057 0.559116
Si Si5 0.718968 0.436187 0.900860
Si Si6 0.828889 0.379865 0.839282
Si Si7 0.012613 0.678911 0.105764
Si Si8 0.522229 0.954843 0.306699
O O1 0.685096 0.277941 0.194070
O O2 0.626401 0.500957 0.148368
O O3 0.582984 0.294714 0.221536
O O4 0.508729 0.327680 0.808526
O O5 0.270603 0.617432 0.188658
O O6 0.182804 0.812771 0.907349
O O7 0.094465 0.618022 0.851739
O O8 0.855780 0.911503 0.605279
O O9 0.913978 0.744486 0.922719
O O10 0.921386 0.998334 0.986340
O O11 0.849912 0.769595 0.353292
O O12 0.789103 0.392058 0.922488
O O13 0.763090 0.550162 0.088663
O O14 0.924793 0.448280 0.028159
O O15 0.042518 0.604989 0.317614
O O16 0.019249 0.585468 0.973321
#
# Coordination Sequence:
#
# PCOD8055649 Si02
#       8
#     4   4   4   4   4   4   4   4
#     4  10  24  45  66 100 135 176 231 287 331 415
#     4  11  22  42  65  96 136 173 223 287 333 396
#     4  11  24  46  67  96 140 177 226 286 343 412
#     4  11  25  46  69  98 140 180 229 281 350 410
#     4  12  25  42  75  97 139 181 235 282 346 404
#     4  12  23  44  70 104 133 183 232 282 340 420
#     4  10  23  44  66  95 136 176 225 279 345 404
#     4  11  22  43  68  94 139 174 221 284 340 401
#
# _framework density 22.837319999999998
#
# number of rings (size 3 to 8) (size 9 to 14) (size 15 to 20)
#    0.000    1.000    6.250    1.500    3.500    4.000 
#    6.750    0.000    0.000    0.000    0.000    0.000 
#    0.000    0.000    0.000    0.000    0.000    0.000 
#
# Total GULP energy -198237.848807 kJ/mol
# GULP energy per Si atom -12389.865550 kJ/mol
# Density = 2.278534 g / cm^3
# Si number density = 22.837320 Si / 1000 Ang^3
#
#
#
# Elastic Constant Matrix: (Units=GPa)
#
#
# Indices 1 2 3 4 5 6 
#
# 1 110.7132 25.5340 13.8319 0.0000 23.2119 0.0000
# 2 25.5340 120.5937 21.8283 0.0000 -2.4618 0.0000
# 3 13.8319 21.8283 29.7758 0.0000 5.0028 0.0000
# 4 0.0000 0.0000 0.0000 43.2234 0.0000 -6.7792
# 5 23.2119 -2.4618 5.0028 0.0000 27.0287 0.0000
# 6 0.0000 0.0000 0.0000 -6.7792 0.0000 40.4838
#
#
#
# Elastic Compliance Matrix: (Units=1/GPa)
#
#
# Indices 1 2 3 4 5 6 
#
# 1 0.011956 -0.002351 -0.002136 0.000000 -0.010087 0.000000
# 2 -0.002351 0.010156 -0.007068 0.000000 0.004252 0.000000
# 3 -0.002136 -0.007068 0.040827 0.000000 -0.006366 0.000000
# 4 0.000000 0.000000 0.000000 0.023760 0.000000 0.003979
# 5 -0.010087 0.004252 -0.006366 0.000000 0.047226 0.000000
# 6 0.000000 0.000000 0.000000 0.003979 0.000000 0.025368
#
#
# Mechanical properties :
#
#
# Convention : Reuss Voigt Hill
#
# Bulk Modulus (GPa) = 25.10634 42.60789 33.85711
# Shear Modulus (GPa) = 25.55215 35.47307 30.51261
#
# Velocity S-wave (km/s) = 3.34859 3.94546 3.65922
# Velocity P-wave (km/s) = 5.09590 6.28118 5.71932
#
# Compressibility (1/GPa) = 0.03983058
#
# Stress axis : x y z
#
# Youngs Moduli (GPa) = 83.63935 98.46240 24.49335
#
# Poissons Ratio (x) = 0.23147 0.05232
# Poissons Ratio (y) = 0.19662 0.17311
# Poissons Ratio (z) = 0.17865 0.69591
#
# Static dielectric constant tensor:
#      x y z
#    x 4.396840 0.000000 0.192770 
#    y 0.000000 4.254260 0.000000 
#    z 0.192770 0.000000 3.716450 
# 
# 
# High freq. dielectric constant tensor:
#      x y z
#    x 1.920990 0.000000 0.015750 
#    y 0.000000 1.916390 0.000000 
#    z 0.015750 0.000000 1.858810 
# 
# From -- ./inp_files/12202.got.cif
#   From: 2010.06.25/outbox.cif.g09.slc.cpg/sg9_7_cif.got.tgz:12202.got - 2010.06.27 21:40:51.
