data_PCOD8055487
_publ_section_title
;
Structure prediction by ZEFSAII (Michael W. Deem and Ramdas Pophale) SiO2 
 PCOD8055487
Probable space group: C C
;
_chemical_formula_sum "Si O2"
_cell_formula_units_Z 32
_cell_length_a 8.646508
_cell_length_b 16.157329
_cell_length_c 12.398526
_cell_angle_alpha 90.000000
_cell_angle_beta 126.176511
_cell_angle_gamma 90.000000
_cell_volume 1398.179084
_symmetry_space_group_name_H-M "C C"
_symmetry_group_IT_number 9
_symmetry_cell_setting 'monoclinic'
loop_
_space_group_symop_operation_xyz
x,y,z
x,-y,1/2+z
1/2+x,1/2+y,z
1/2+x,1/2-y,1/2+z
loop_
_atom_site_type_symbol
_atom_site_label
_atom_site_fract_x
_atom_site_fract_y
_atom_site_fract_z
Si Si1 0.806220 0.161698 0.649080
Si Si2 0.117709 0.430010 0.875867
Si Si3 0.929045 0.685188 0.913239
Si Si4 0.594634 0.796688 0.702991
Si Si5 0.640561 0.555888 0.883467
Si Si6 0.427665 0.424213 0.501526
Si Si7 0.212106 0.902104 0.799297
Si Si8 0.182447 0.290286 0.319123
O O1 0.700702 0.134094 0.497764
O O2 0.654351 0.176690 0.684505
O O3 0.905493 0.250580 0.669693
O O4 0.958751 0.090785 0.742330
O O5 0.107881 0.390472 0.751986
O O6 0.896534 0.441457 0.816269
O O7 0.244174 0.513606 0.922294
O O8 0.778041 0.757004 0.834105
O O9 0.829411 0.603834 0.920724
O O10 0.017532 0.674770 0.830451
O O11 0.090900 0.708230 0.070268
O O12 0.678357 0.458487 0.888750
O O13 0.603426 0.556055 0.994982
O O14 0.516274 0.420042 0.654968
O O15 0.373502 0.331421 0.444298
O O16 0.219905 0.807358 0.838952
#
# Coordination Sequence:
#
# PCOD8055487 Si02
#       8
#     4   4   4   4   4   4   4   4
#     4  10  22  46  70 104 149 192 243 309 376 444
#     4  12  24  45  78 106 148 201 249 310 386 445
#     4  11  25  44  71 110 151 193 251 308 376 452
#     4  11  23  43  75 106 146 196 246 304 377 443
#     4  10  24  48  69 102 149 195 240 314 369 445
#     4  11  27  50  70 107 154 191 254 316 373 460
#     4  12  26  45  74 108 143 199 251 310 382 447
#     4  11  27  45  75 107 152 191 252 313 379 454
#
# _framework density 22.886911999999999
#
# number of rings (size 3 to 8) (size 9 to 14) (size 15 to 20)
#    0.000    1.000    3.750    1.500    5.250    0.000 
#   11.250    0.000    0.000    0.000    0.000    0.000 
#    0.000    0.000    0.000    0.000    0.000    0.000 
#
# Total GULP energy -198244.594811 kJ/mol
# GULP energy per Si atom -12390.287176 kJ/mol
# Density = 2.283482 g / cm^3
# Si number density = 22.886912 Si / 1000 Ang^3
#
#
#
# Elastic Constant Matrix: (Units=GPa)
#
#
# Indices 1 2 3 4 5 6 
#
# 1 114.0589 47.8555 27.7923 0.0000 -25.2637 0.0000
# 2 47.8555 149.4319 35.5061 0.0000 -1.3091 0.0000
# 3 27.7923 35.5061 99.1744 0.0000 0.9925 0.0000
# 4 0.0000 0.0000 0.0000 19.3368 0.0000 0.2606
# 5 -25.2637 -1.3091 0.9925 0.0000 33.0591 0.0000
# 6 0.0000 0.0000 0.0000 0.2606 0.0000 20.9305
#
#
#
# Elastic Compliance Matrix: (Units=1/GPa)
#
#
# Indices 1 2 3 4 5 6 
#
# 1 0.013035 -0.003493 -0.002501 0.000000 0.009898 0.000000
# 2 -0.003493 0.008255 -0.001954 0.000000 -0.002284 0.000000
# 3 -0.002501 -0.001954 0.011507 0.000000 -0.002334 0.000000
# 4 0.000000 0.000000 0.000000 0.051724 0.000000 -0.000644
# 5 0.009898 -0.002284 -0.002334 0.000000 0.037793 0.000000
# 6 0.000000 0.000000 0.000000 -0.000644 0.000000 0.047785
#
#
# Mechanical properties :
#
#
# Convention : Reuss Voigt Hill
#
# Bulk Modulus (GPa) = 59.17005 64.99701 62.08353
# Shear Modulus (GPa) = 26.09220 31.43269 28.76245
#
# Velocity S-wave (km/s) = 3.38012 3.70995 3.54887
# Velocity P-wave (km/s) = 6.41428 6.84197 6.63157
#
# Compressibility (1/GPa) = 0.01690044
#
# Stress axis : x y z
#
# Youngs Moduli (GPa) = 76.71656 121.13944 86.90393
#
# Poissons Ratio (x) = 0.42319 0.21737
# Poissons Ratio (y) = 0.26800 0.16977
# Poissons Ratio (z) = 0.19189 0.23665
#
# Static dielectric constant tensor:
#      x y z
#    x 4.351840 0.000000 -0.073270 
#    y 0.000000 4.106250 0.000000 
#    z -0.073270 0.000000 4.099820 
# 
# 
# High freq. dielectric constant tensor:
#      x y z
#    x 1.905320 0.000000 -0.005110 
#    y 0.000000 1.904430 0.000000 
#    z -0.005110 0.000000 1.903690 
# 
# From -- ./inp_files/14819.got.cif
#   From: 2010.06.25/outbox.cif.g09.slc.cpg/sg9_8_cif.got.tgz:14819.got - 2010.06.27 21:40:51.
