data_PCOD8055317
_publ_section_title
;
Structure prediction by ZEFSAII (Michael W. Deem and Ramdas Pophale) SiO2 
 PCOD8055317
Probable space group: C C
;
_chemical_formula_sum "Si O2"
_cell_formula_units_Z 28
_cell_length_a 5.195506
_cell_length_b 23.094540
_cell_length_c 12.040387
_cell_angle_alpha 90.000000
_cell_angle_beta 108.316234
_cell_angle_gamma 90.000000
_cell_volume 1371.506216
_symmetry_space_group_name_H-M "C C"
_symmetry_group_IT_number 9
_symmetry_cell_setting 'monoclinic'
loop_
_space_group_symop_operation_xyz
x,y,z
x,-y,1/2+z
1/2+x,1/2+y,z
1/2+x,1/2-y,1/2+z
loop_
_atom_site_type_symbol
_atom_site_label
_atom_site_fract_x
_atom_site_fract_y
_atom_site_fract_z
Si Si1 0.367290 0.328401 0.650880
Si Si2 0.569623 0.134126 0.449343
Si Si3 0.998271 0.919361 0.849149
Si Si4 0.155531 0.395110 0.422993
Si Si5 0.798027 0.852797 0.220766
Si Si6 0.102287 0.948955 0.362324
Si Si7 0.944766 0.275077 0.749610
O O1 0.404543 0.387187 0.725418
O O2 0.211671 0.343809 0.516895
O O3 0.655086 0.298228 0.666265
O O4 0.174157 0.284020 0.688476
O O5 0.287173 0.102329 0.430445
O O6 0.664668 0.153234 0.583265
O O7 0.529828 0.192703 0.374168
O O8 0.779902 0.091028 0.417160
O O9 0.029097 0.985999 0.819126
O O10 0.085445 0.366840 0.292358
O O11 0.432422 0.432779 0.450309
O O12 0.918799 0.438505 0.430418
O O13 0.941854 0.792869 0.273221
O O14 0.016067 0.905532 0.250220
#
# Coordination Sequence:
#
# PCOD8055317 Si02
#       7
#     4   4   4   4   4   4   4
#     4  10  22  42  63  90 120 166 207 256 304 373
#     4  10  23  41  64  90 127 164 205 258 304 377
#     4  10  22  42  63  90 123 162 213 246 315 367
#     4  10  23  40  59  95 122 158 208 250 315 362
#     4  10  26  40  63  96 129 159 210 253 319 367
#     4  10  23  39  61  95 122 164 203 258 313 366
#     4  10  23  40  65  90 121 167 204 253 312 364
#
# _framework density 20.415509
#
# number of rings (size 3 to 8) (size 9 to 14) (size 15 to 20)
#    0.857    1.143    0.000    1.714    6.000    2.286 
#    2.571    0.000    0.000    0.000    0.000    0.000 
#    0.000    0.000    0.000    0.000    0.000    0.000 
#
# Total GULP energy -173545.306179 kJ/mol
# GULP energy per Si atom -12396.093299 kJ/mol
# Density = 2.036904 g / cm^3
# Si number density = 20.415509 Si / 1000 Ang^3
#
#
#
# Elastic Constant Matrix: (Units=GPa)
#
#
# Indices 1 2 3 4 5 6 
#
# 1 129.1293 28.5889 27.2840 0.0000 6.8894 0.0000
# 2 28.5889 139.3686 30.4752 0.0000 3.1440 0.0000
# 3 27.2840 30.4752 98.9020 0.0000 -0.2580 0.0000
# 4 0.0000 0.0000 0.0000 16.9123 0.0000 3.7030
# 5 6.8894 3.1440 -0.2580 0.0000 17.7121 0.0000
# 6 0.0000 0.0000 0.0000 3.7030 0.0000 21.0185
#
#
#
# Elastic Compliance Matrix: (Units=1/GPa)
#
#
# Indices 1 2 3 4 5 6 
#
# 1 0.008613 -0.001259 -0.001996 0.000000 -0.003156 0.000000
# 2 -0.001259 0.007913 -0.002093 0.000000 -0.000945 0.000000
# 3 -0.001996 -0.002093 0.011310 0.000000 0.001313 0.000000
# 4 0.000000 0.000000 0.000000 0.061501 0.000000 -0.010835
# 5 -0.003156 -0.000945 0.001313 0.000000 0.057873 0.000000
# 6 0.000000 0.000000 0.000000 -0.010835 0.000000 0.049486
#
#
# Mechanical properties :
#
#
# Convention : Reuss Voigt Hill
#
# Bulk Modulus (GPa) = 58.34839 60.01070 59.17954
# Shear Modulus (GPa) = 23.46253 29.86538 26.66395
#
# Velocity S-wave (km/s) = 3.39374 3.82891 3.61787
# Velocity P-wave (km/s) = 6.63318 7.00042 6.81927
#
# Compressibility (1/GPa) = 0.01713843
#
# Stress axis : x y z
#
# Youngs Moduli (GPa) = 116.10191 126.38158 88.41584
#
# Poissons Ratio (x) = 0.15913 0.17651
# Poissons Ratio (y) = 0.14618 0.18508
# Poissons Ratio (z) = 0.23178 0.26455
#
# Static dielectric constant tensor:
#      x y z
#    x 3.878210 0.000000 -0.059510 
#    y 0.000000 3.583420 0.000000 
#    z -0.059510 0.000000 3.407830 
# 
# 
# High freq. dielectric constant tensor:
#      x y z
#    x 1.810290 0.000000 -0.003440 
#    y 0.000000 1.797790 0.000000 
#    z -0.003440 0.000000 1.780220 
# 
# From -- ./inp_files/13181.got.cif
#   From: 2010.06.25/outbox.cif.g09.slc.cpg/sg9_7_cif.got.tgz:13181.got - 2010.06.27 21:40:51.
