data_PCOD8055196
_publ_section_title
;
Structure prediction by ZEFSAII (Michael W. Deem and Ramdas Pophale) SiO2 
 PCOD8055196
Probable space group: C C
;
_chemical_formula_sum "Si O2"
_cell_formula_units_Z 28
_cell_length_a 18.007282
_cell_length_b 8.131953
_cell_length_c 8.892285
_cell_angle_alpha 90.000000
_cell_angle_beta 123.018611
_cell_angle_gamma 90.000000
_cell_volume 1091.832852
_symmetry_space_group_name_H-M "C C"
_symmetry_group_IT_number 9
_symmetry_cell_setting 'monoclinic'
loop_
_space_group_symop_operation_xyz
x,y,z
x,-y,1/2+z
1/2+x,1/2+y,z
1/2+x,1/2-y,1/2+z
loop_
_atom_site_type_symbol
_atom_site_label
_atom_site_fract_x
_atom_site_fract_y
_atom_site_fract_z
Si Si1 0.750000 0.333408 0.894840
Si Si2 0.089739 0.471551 0.872015
Si Si3 0.553571 0.666764 0.656280
Si Si4 0.465115 0.475427 0.329125
Si Si5 0.251373 0.840776 0.254065
Si Si6 0.286377 0.477467 0.966354
Si Si7 0.563124 0.222999 0.623505
O O1 0.798097 0.492737 0.872773
O O2 0.650137 0.337388 0.718052
O O3 0.794403 0.158398 0.896675
O O4 0.752703 0.349429 0.077262
O O5 0.034165 0.335880 0.719765
O O6 0.194191 0.469249 0.952993
O O7 0.048591 0.647930 0.775301
O O8 0.079889 0.441561 0.038684
O O9 0.486067 0.643983 0.442320
O O10 0.531699 0.527416 0.759349
O O11 0.653403 0.659244 0.712732
O O12 0.483000 0.327762 0.468823
O O13 0.363659 0.461537 0.173365
O O14 0.298284 0.671738 0.360510
#
# Coordination Sequence:
#
# PCOD8055196 Si02
#       7
#     4   4   4   4   4   4   4
#     4  11  25  41  74 101 134 185 236 282 340 410
#     4   9  22  39  65  94 130 174 233 271 327 417
#     4  10  22  39  65  90 130 173 221 275 332 408
#     4  11  23  41  64  97 136 168 221 283 348 398
#     4  11  24  46  70 102 136 184 239 281 334 424
#     4  10  26  42  70 101 142 177 225 291 351 403
#     4  10  22  40  68  97 130 179 233 277 342 406
#
# _framework density 25.644952
#
# number of rings (size 3 to 8) (size 9 to 14) (size 15 to 20)
#    0.000    1.714    1.429    0.857   18.000    0.000 
#    2.571    0.000    0.000    0.000    0.000    0.000 
#    0.000    0.000    0.000    0.000    0.000    0.000 
#
# Total GULP energy -173497.910203 kJ/mol
# GULP energy per Si atom -12392.707872 kJ/mol
# Density = 2.558658 g / cm^3
# Si number density = 25.644952 Si / 1000 Ang^3
#
#
#
# Elastic Constant Matrix: (Units=GPa)
#
#
# Indices 1 2 3 4 5 6 
#
# 1 38.7022 12.3456 30.7040 0.0000 -4.7523 0.0000
# 2 12.3456 161.8007 65.3526 0.0000 -2.8282 0.0000
# 3 30.7040 65.3526 161.1945 0.0000 12.6582 0.0000
# 4 0.0000 0.0000 0.0000 59.7838 0.0000 -11.5071
# 5 -4.7523 -2.8282 12.6582 0.0000 39.4804 0.0000
# 6 0.0000 0.0000 0.0000 -11.5071 0.0000 15.5716
#
#
#
# Elastic Compliance Matrix: (Units=1/GPa)
#
#
# Indices 1 2 3 4 5 6 
#
# 1 0.031744 0.000376 -0.006669 0.000000 0.005986 0.000000
# 2 0.000376 0.007486 -0.003234 0.000000 0.001618 0.000000
# 3 -0.006669 -0.003234 0.009095 0.000000 -0.003951 0.000000
# 4 0.000000 0.000000 0.000000 0.019501 0.000000 0.014411
# 5 0.005986 0.001618 -0.003951 0.000000 0.027432 0.000000
# 6 0.000000 0.000000 0.000000 0.014411 0.000000 0.074869
#
#
# Mechanical properties :
#
#
# Convention : Reuss Voigt Hill
#
# Bulk Modulus (GPa) = 34.16209 64.27799 49.22004
# Shear Modulus (GPa) = 25.13340 39.85351 32.49345
#
# Velocity S-wave (km/s) = 3.13398 3.94642 3.56343
# Velocity P-wave (km/s) = 5.14255 6.77382 6.01375
#
# Compressibility (1/GPa) = 0.02927221
#
# Stress axis : x y z
#
# Youngs Moduli (GPa) = 31.50168 133.57894 109.94622
#
# Poissons Ratio (x) = -0.05026 0.73326
# Poissons Ratio (y) = -0.01185 0.35555
# Poissons Ratio (z) = 0.21009 0.43198
#
# Static dielectric constant tensor:
#      x y z
#    x 4.102150 0.000000 -0.247410 
#    y 0.000000 5.425210 0.000000 
#    z -0.247410 0.000000 4.772450 
# 
# 
# High freq. dielectric constant tensor:
#      x y z
#    x 1.979860 0.000000 -0.019260 
#    y 0.000000 2.044780 0.000000 
#    z -0.019260 0.000000 2.039230 
# 
# From -- ./inp_files/11400.got.cif
#   From: 2010.06.25/outbox.cif.g09.slc.cpg/sg9_6_cif.got.tgz:11400.got - 2010.06.27 21:40:51.
