data_PCOD8055243
_publ_section_title
;
Structure prediction by ZEFSAII (Michael W. Deem and Ramdas Pophale) SiO2 
 PCOD8055243
Probable space group: C C
;
_chemical_formula_sum "Si O2"
_cell_formula_units_Z 28
_cell_length_a 9.750675
_cell_length_b 15.590926
_cell_length_c 11.584837
_cell_angle_alpha 90.000000
_cell_angle_beta 49.602431
_cell_angle_gamma 90.000000
_cell_volume 1341.232150
_symmetry_space_group_name_H-M "C C"
_symmetry_group_IT_number 9
_symmetry_cell_setting 'monoclinic'
loop_
_space_group_symop_operation_xyz
x,y,z
x,-y,1/2+z
1/2+x,1/2+y,z
1/2+x,1/2-y,1/2+z
loop_
_atom_site_type_symbol
_atom_site_label
_atom_site_fract_x
_atom_site_fract_y
_atom_site_fract_z
Si Si1 0.898170 0.067780 0.158140
Si Si2 0.090121 0.505110 0.710901
Si Si3 0.229317 0.687921 0.629141
Si Si4 0.494619 0.688804 0.687216
Si Si5 0.691005 0.442935 0.929968
Si Si6 0.043966 0.148546 0.296420
Si Si7 0.761311 0.154665 0.033110
O O1 0.714848 0.009827 0.257528
O O2 0.964719 0.078388 0.252156
O O3 0.855162 0.155743 0.110027
O O4 0.048850 0.019413 0.000132
O O5 0.102898 0.605611 0.671323
O O6 0.173183 0.441392 0.566367
O O7 0.886079 0.480715 0.849363
O O8 0.314248 0.685086 0.709889
O O9 0.385428 0.693270 0.451473
O O10 0.126623 0.777223 0.672189
O O11 0.637449 0.617590 0.567138
O O12 0.596213 0.779142 0.620971
O O13 0.420848 0.673242 0.855935
O O14 0.684511 0.393541 0.810128
#
# Coordination Sequence:
#
# PCOD8055243 Si02
#       7
#     4   4   4   4   4   4   4
#     4  10  25  45  66  98 142 167 225 292 334 401
#     4  10  23  46  65 102 130 177 237 268 345 398
#     4  11  24  41  70  97 138 178 224 278 343 399
#     4  11  20  41  72  97 136 182 233 279 328 418
#     4  11  24  45  71 100 129 192 228 275 347 402
#     4  11  24  46  65  99 141 173 228 280 343 407
#     4  10  22  40  67  97 136 171 231 282 330 399
#
# _framework density 20.876327
#
# number of rings (size 3 to 8) (size 9 to 14) (size 15 to 20)
#    0.857    0.571    2.857    3.429    6.000    1.143 
#    2.571    0.000    0.000    0.000    0.000    0.000 
#    0.000    0.000    0.000    0.000    0.000    0.000 
#
# Total GULP energy -173467.975321 kJ/mol
# GULP energy per Si atom -12390.569666 kJ/mol
# Density = 2.082881 g / cm^3
# Si number density = 20.876327 Si / 1000 Ang^3
#
#
#
# Elastic Constant Matrix: (Units=GPa)
#
#
# Indices 1 2 3 4 5 6 
#
# 1 93.6296 41.8408 44.8136 0.0000 -23.9635 0.0000
# 2 41.8408 80.4958 8.0164 0.0000 -9.2518 0.0000
# 3 44.8136 8.0164 49.9281 -0.0001 -0.7320 0.0000
# 4 0.0000 0.0000 -0.0001 39.5346 0.0000 -7.9993
# 5 -23.9635 -9.2518 -0.7320 0.0000 35.6737 0.0000
# 6 0.0000 0.0000 0.0000 -7.9993 0.0000 31.7032
#
#
#
# Elastic Compliance Matrix: (Units=1/GPa)
#
#
# Indices 1 2 3 4 5 6 
#
# 1 0.036393 -0.013577 -0.030188 0.000000 0.020306 0.000000
# 2 -0.013577 0.018074 0.009222 0.000000 -0.004243 0.000000
# 3 -0.030188 0.009222 0.045395 0.000000 -0.016955 0.000000
# 4 0.000000 0.000000 0.000000 0.026655 0.000000 0.006726
# 5 0.020306 -0.004243 -0.016955 0.000000 0.040224 0.000000
# 6 0.000000 0.000000 0.000000 0.006726 0.000000 0.033240
#
#
# Mechanical properties :
#
#
# Convention : Reuss Voigt Hill
#
# Bulk Modulus (GPa) = 32.49187 45.93280 39.21234
# Shear Modulus (GPa) = 17.90032 30.00782 23.95407
#
# Velocity S-wave (km/s) = 2.93139 3.79543 3.39104
# Velocity P-wave (km/s) = 5.20146 6.42317 5.84433
#
# Compressibility (1/GPa) = 0.03077693
#
# Stress axis : x y z
#
# Youngs Moduli (GPa) = 27.47769 55.32853 22.02892
#
# Poissons Ratio (x) = 0.75117 0.66500
# Poissons Ratio (y) = 0.37305 -0.20314
# Poissons Ratio (z) = 0.82949 -0.51022
#
# Static dielectric constant tensor:
#      x y z
#    x 3.776480 0.000000 -0.030590 
#    y 0.000000 3.832700 0.000000 
#    z -0.030590 0.000000 3.620490 
# 
# 
# High freq. dielectric constant tensor:
#      x y z
#    x 1.806760 0.000000 -0.012740 
#    y 0.000000 1.822670 0.000000 
#    z -0.012740 0.000000 1.807890 
# 
# From -- ./inp_files/14523.got.cif
#   From: 2010.06.25/outbox.cif.g09.slc.cpg/sg9_8_cif.got.tgz:14523.got - 2010.06.27 21:40:51.
