data_PCOD8055969
_publ_section_title
;
Structure prediction by ZEFSAII (Michael W. Deem and Ramdas Pophale) SiO2 
 PCOD8055969
Probable space group: C C
;
_chemical_formula_sum "Si O2"
_cell_formula_units_Z 20
_cell_length_a 19.624413
_cell_length_b 4.748706
_cell_length_c 9.407785
_cell_angle_alpha 90.000000
_cell_angle_beta 60.709673
_cell_angle_gamma 90.000000
_cell_volume 764.630228
_symmetry_space_group_name_H-M "C C"
_symmetry_group_IT_number 9
_symmetry_cell_setting 'monoclinic'
loop_
_space_group_symop_operation_xyz
x,y,z
x,-y,1/2+z
1/2+x,1/2+y,z
1/2+x,1/2-y,1/2+z
loop_
_atom_site_type_symbol
_atom_site_label
_atom_site_fract_x
_atom_site_fract_y
_atom_site_fract_z
Si Si1 0.034920 0.952673 0.260740
Si Si2 0.312021 0.194905 0.678057
Si Si3 0.121187 0.425090 0.077603
Si Si4 0.864217 0.187317 0.447177
Si Si5 0.166541 0.180267 0.294224
O O1 0.073192 0.137534 0.089960
O O2 0.079777 0.050289 0.359153
O O3 0.944501 0.013943 0.370958
O O4 0.053504 0.626789 0.213224
O O5 0.305231 0.483797 0.595181
O O6 0.343296 0.251752 0.804826
O O7 0.367557 0.976779 0.534280
O O8 0.225177 0.065782 0.779152
O O9 0.188746 0.335727 0.122509
O O10 0.168508 0.570131 0.905653
#
# Coordination Sequence:
#
# PCOD8055969 Si02
#       5
#     4   4   4   4   4
#     4  10  26  45  81 111 159 201 270 324 396 476
#     4  12  30  52  78 118 165 214 261 337 400 493
#     4  10  25  44  79 110 153 203 265 328 379 472
#     4  12  29  50  83 117 165 210 270 326 419 468
#     4  10  28  47  79 114 158 206 268 321 402 465
#
# _framework density 26.156434999999998
#
# number of rings (size 3 to 8) (size 9 to 14) (size 15 to 20)
#    1.200    0.000    0.000    2.400   14.000    1.600 
#    0.000    2.000    0.000    0.000    0.000    0.000 
#    0.000    0.000    0.000    0.000    0.000    0.000 
#
# Total GULP energy -123882.224783 kJ/mol
# GULP energy per Si atom -12388.222478 kJ/mol
# Density = 2.609690 g / cm^3
# Si number density = 26.156435 Si / 1000 Ang^3
#
#
#
# Elastic Constant Matrix: (Units=GPa)
#
#
# Indices 1 2 3 4 5 6 
#
# 1 133.2579 15.3833 37.7359 0.0000 15.7960 0.0000
# 2 15.3833 116.2452 26.8832 0.0000 25.8264 0.0000
# 3 37.7359 26.8832 119.7114 0.0000 36.8581 0.0000
# 4 0.0000 0.0000 0.0000 60.5043 0.0000 -5.4189
# 5 15.7960 25.8264 36.8581 0.0000 37.9978 0.0000
# 6 0.0000 0.0000 0.0000 -5.4189 0.0000 40.6426
#
#
#
# Elastic Compliance Matrix: (Units=1/GPa)
#
#
# Indices 1 2 3 4 5 6 
#
# 1 0.008297 -0.000350 -0.002207 0.000000 -0.001070 0.000000
# 2 -0.000350 0.010151 -0.000128 0.000000 -0.006630 0.000000
# 3 -0.002207 -0.000128 0.012503 0.000000 -0.011123 0.000000
# 4 0.000000 0.000000 0.000000 0.016727 0.000000 0.002230
# 5 -0.001070 -0.006630 -0.011123 0.000000 0.042058 0.000000
# 6 0.000000 0.000000 0.000000 0.002230 0.000000 0.024902
#
#
# Mechanical properties :
#
#
# Convention : Reuss Voigt Hill
#
# Bulk Modulus (GPa) = 39.09214 58.80212 48.94713
# Shear Modulus (GPa) = 38.89990 47.10975 43.00483
#
# Velocity S-wave (km/s) = 3.86061 4.24851 4.05920
# Velocity P-wave (km/s) = 5.90342 6.82614 6.38148
#
# Compressibility (1/GPa) = 0.02558059
#
# Stress axis : x y z
#
# Youngs Moduli (GPa) = 120.53256 98.50829 79.98316
#
# Poissons Ratio (x) = 0.03445 0.17654
# Poissons Ratio (y) = 0.04215 0.01024
# Poissons Ratio (z) = 0.26604 0.01262
#
# Static dielectric constant tensor:
#      x y z
#    x 4.441110 0.000000 0.041180 
#    y 0.000000 4.998130 0.000000 
#    z 0.041180 0.000000 4.700700 
# 
# 
# High freq. dielectric constant tensor:
#      x y z
#    x 2.039910 0.000000 0.001610 
#    y 0.000000 2.077670 0.000000 
#    z 0.001610 0.000000 2.056150 
# 
# From -- ./inp_files/11087.got.cif
#   From: 2010.06.25/outbox.cif.g09.slc.cpg/sg9_6_cif.got.tgz:11087.got - 2010.06.27 21:40:51.
