data_PCOD8055926
_publ_section_title
;
Structure prediction by ZEFSAII (Michael W. Deem and Ramdas Pophale) SiO2 
 PCOD8055926
Probable space group: C C
;
_chemical_formula_sum "Si O2"
_cell_formula_units_Z 28
_cell_length_a 7.791174
_cell_length_b 16.382902
_cell_length_c 12.814623
_cell_angle_alpha 90.000000
_cell_angle_beta 137.429871
_cell_angle_gamma 90.000000
_cell_volume 1106.527751
_symmetry_space_group_name_H-M "C C"
_symmetry_group_IT_number 9
_symmetry_cell_setting 'monoclinic'
loop_
_space_group_symop_operation_xyz
x,y,z
x,-y,1/2+z
1/2+x,1/2+y,z
1/2+x,1/2-y,1/2+z
loop_
_atom_site_type_symbol
_atom_site_label
_atom_site_fract_x
_atom_site_fract_y
_atom_site_fract_z
Si Si1 0.086530 0.538209 0.227940
Si Si2 0.021932 0.178372 0.753138
Si Si3 0.197879 0.843636 0.917861
Si Si4 0.609880 0.273732 0.664779
Si Si5 0.524007 0.447813 0.535956
Si Si6 0.974416 0.003999 0.241878
Si Si7 0.337259 0.685019 0.436432
O O1 0.274186 0.467482 0.356726
O O2 0.204421 0.542235 0.162538
O O3 0.110535 0.622966 0.302618
O O4 0.785633 0.518044 0.098684
O O5 0.897843 0.245175 0.777148
O O6 0.030418 0.088333 0.807245
O O7 0.890994 0.179149 0.582464
O O8 0.298177 0.221020 0.878571
O O9 0.054409 0.792259 0.761867
O O10 0.074827 0.844470 0.976148
O O11 0.473858 0.807131 0.059056
O O12 0.207598 0.937595 0.883279
O O13 0.532771 0.351450 0.560578
O O14 0.478718 0.500251 0.619725
#
# Coordination Sequence:
#
# PCOD8055926 Si02
#       7
#     4   4   4   4   4   4   4
#     4  11  25  47  73 109 150 198 256 309 383 456
#     4  12  24  44  73 106 141 197 243 312 384 448
#     4  10  24  47  70 107 142 195 247 311 375 457
#     4  11  24  43  75 102 146 192 252 307 379 449
#     4  11  25  48  73 108 151 198 253 315 378 456
#     4  10  26  44  74 106 150 196 249 314 382 454
#     4  11  24  45  72 102 152 190 252 308 381 454
#
# _framework density 25.304383000000001
#
# number of rings (size 3 to 8) (size 9 to 14) (size 15 to 20)
#    0.000    1.143    2.857    1.714    6.000    4.571 
#    0.000    2.857    0.000    0.000    0.000    0.000 
#    0.000    0.000    0.000    0.000    0.000    0.000 
#
# Total GULP energy -173476.181871 kJ/mol
# GULP energy per Si atom -12391.155848 kJ/mol
# Density = 2.524679 g / cm^3
# Si number density = 25.304383 Si / 1000 Ang^3
#
#
#
# Elastic Constant Matrix: (Units=GPa)
#
#
# Indices 1 2 3 4 5 6 
#
# 1 92.9836 13.3044 13.3610 0.0004 -18.6079 0.0002
# 2 13.3044 157.5774 31.2292 -0.0002 -4.0257 -0.0001
# 3 13.3610 31.2292 60.3235 0.0005 -3.9671 0.0004
# 4 0.0004 -0.0002 0.0005 44.7448 0.0003 3.3537
# 5 -18.6079 -4.0257 -3.9671 0.0003 26.3883 0.0002
# 6 0.0002 -0.0001 0.0004 3.3537 0.0002 37.6339
#
#
#
# Elastic Compliance Matrix: (Units=1/GPa)
#
#
# Indices 1 2 3 4 5 6 
#
# 1 0.012851 -0.000459 -0.002037 0.000000 0.008686 0.000000
# 2 -0.000459 0.007095 -0.003557 0.000000 0.000224 0.000000
# 3 -0.002037 -0.003557 0.018927 0.000000 0.000866 0.000000
# 4 0.000000 0.000000 0.000000 0.022499 0.000000 -0.002005
# 5 0.008686 0.000224 0.000866 0.000000 0.044185 0.000000
# 6 0.000000 0.000000 0.000000 -0.002005 0.000000 0.026750
#
#
# Mechanical properties :
#
#
# Convention : Reuss Voigt Hill
#
# Bulk Modulus (GPa) = 37.36026 47.40820 42.38423
# Shear Modulus (GPa) = 32.60782 38.61939 35.61361
#
# Velocity S-wave (km/s) = 3.59363 3.91089 3.75561
# Velocity P-wave (km/s) = 5.65821 6.25854 5.96593
#
# Compressibility (1/GPa) = 0.02676641
#
# Stress axis : x y z
#
# Youngs Moduli (GPa) = 77.81332 140.93445 52.83490
#
# Poissons Ratio (x) = 0.06474 0.10765
# Poissons Ratio (y) = 0.03574 0.18793
# Poissons Ratio (z) = 0.15854 0.50128
#
# Static dielectric constant tensor:
#      x y z
#    x 4.706340 0.000000 -0.182060 
#    y 0.000000 4.860760 0.000000 
#    z -0.182060 0.000000 4.227750 
# 
# 
# High freq. dielectric constant tensor:
#      x y z
#    x 2.017220 0.000000 -0.017810 
#    y 0.000000 2.024980 0.000000 
#    z -0.017810 0.000000 1.990710 
# 
# From -- ./inp_files/15025.got.cif
#   From: 2010.06.25/outbox.cif.g09.slc.cpg/sg9_8_cif.got.tgz:15025.got - 2010.06.27 21:40:51.
