data_PCOD8055474
_publ_section_title
;
Structure prediction by ZEFSAII (Michael W. Deem and Ramdas Pophale) SiO2 
 PCOD8055474
Probable space group: C C
;
_chemical_formula_sum "Si O2"
_cell_formula_units_Z 32
_cell_length_a 13.206017
_cell_length_b 9.807338
_cell_length_c 11.128498
_cell_angle_alpha 90.000000
_cell_angle_beta 106.447511
_cell_angle_gamma 90.000000
_cell_volume 1382.337739
_symmetry_space_group_name_H-M "C C"
_symmetry_group_IT_number 9
_symmetry_cell_setting 'monoclinic'
loop_
_space_group_symop_operation_xyz
x,y,z
x,-y,1/2+z
1/2+x,1/2+y,z
1/2+x,1/2-y,1/2+z
loop_
_atom_site_type_symbol
_atom_site_label
_atom_site_fract_x
_atom_site_fract_y
_atom_site_fract_z
Si Si1 0.506970 0.971138 0.370950
Si Si2 0.308957 0.146195 0.347249
Si Si3 0.612927 0.348364 0.620231
Si Si4 0.407300 0.720237 0.437034
Si Si5 0.023558 0.106779 0.686060
Si Si6 0.209434 0.893451 0.411820
Si Si7 0.112194 0.456102 0.152137
Si Si8 0.841911 0.935437 0.306410
O O1 0.450668 0.821400 0.347124
O O2 0.571053 0.005012 0.270328
O O3 0.422409 0.091175 0.347320
O O4 0.573198 0.967541 0.518394
O O5 0.231914 0.135345 0.207749
O O6 0.316480 0.306722 0.388470
O O7 0.258509 0.047142 0.431924
O O8 0.526564 0.447674 0.649255
O O9 0.620709 0.383905 0.483145
O O10 0.570018 0.197484 0.626260
O O11 0.497666 0.708578 0.568444
O O12 0.300949 0.782529 0.457924
O O13 0.382587 0.568188 0.386885
O O14 0.931325 0.123632 0.750634
O O15 0.142117 0.142768 0.769794
O O16 0.238302 0.471329 0.194268
#
# Coordination Sequence:
#
# PCOD8055474 Si02
#       8
#     4   4   4   4   4   4   4   4
#     4  11  27  46  70 104 141 194 232 297 358 428
#     4   9  23  44  69  99 135 184 235 285 354 429
#     4  10  22  45  70  99 139 187 235 296 346 435
#     4  11  25  43  67 104 140 178 243 293 352 431
#     4  11  24  41  70  99 138 190 232 291 358 418
#     4  10  23  44  70  99 137 189 240 287 358 426
#     4  11  27  44  72 103 147 183 243 294 361 418
#     4  11  25  43  68 101 141 181 234 299 351 427
#
# _framework density 23.149190000000001
#
# number of rings (size 3 to 8) (size 9 to 14) (size 15 to 20)
#    0.000    1.500    0.000    3.000   14.000    2.000 
#    0.000    0.000    0.000    0.000    0.000    0.000 
#    0.000    0.000    0.000    0.000    0.000    0.000 
#
# Total GULP energy -198304.581795 kJ/mol
# GULP energy per Si atom -12394.036362 kJ/mol
# Density = 2.309650 g / cm^3
# Si number density = 23.149190 Si / 1000 Ang^3
#
#
#
# Elastic Constant Matrix: (Units=GPa)
#
#
# Indices 1 2 3 4 5 6 
#
# 1 83.1847 23.8370 24.2037 0.0000 6.6414 0.0000
# 2 23.8370 104.4829 44.4691 0.0000 17.1719 0.0000
# 3 24.2037 44.4691 92.3326 0.0000 -1.5464 0.0000
# 4 0.0000 0.0000 0.0000 31.4149 0.0000 4.4374
# 5 6.6414 17.1719 -1.5464 0.0000 34.4326 0.0000
# 6 0.0000 0.0000 0.0000 4.4374 0.0000 30.2656
#
#
#
# Elastic Compliance Matrix: (Units=1/GPa)
#
#
# Indices 1 2 3 4 5 6 
#
# 1 0.013438 -0.001551 -0.002808 0.000000 -0.001945 0.000000
# 2 -0.001551 0.013741 -0.006326 0.000000 -0.006838 0.000000
# 3 -0.002808 -0.006326 0.014686 0.000000 0.004356 0.000000
# 4 0.000000 0.000000 0.000000 0.032505 0.000000 -0.004766
# 5 -0.001945 -0.006838 0.004356 0.000000 0.033023 0.000000
# 6 0.000000 0.000000 0.000000 -0.004766 0.000000 0.033739
#
#
# Mechanical properties :
#
#
# Convention : Reuss Voigt Hill
#
# Bulk Modulus (GPa) = 48.79198 51.66886 50.23042
# Shear Modulus (GPa) = 29.52731 31.72198 30.62465
#
# Velocity S-wave (km/s) = 3.57532 3.70581 3.64115
# Velocity P-wave (km/s) = 6.17793 6.37802 6.27877
#
# Compressibility (1/GPa) = 0.02049517
#
# Stress axis : x y z
#
# Youngs Moduli (GPa) = 74.41446 72.77538 68.09145
#
# Poissons Ratio (x) = 0.11288 0.19122
# Poissons Ratio (y) = 0.11542 0.43073
# Poissons Ratio (z) = 0.20897 0.46036
#
# Static dielectric constant tensor:
#      x y z
#    x 4.076360 0.000000 0.188600 
#    y 0.000000 4.354970 0.000000 
#    z 0.188600 0.000000 4.114680 
# 
# 
# High freq. dielectric constant tensor:
#      x y z
#    x 1.914680 0.000000 0.019690 
#    y 0.000000 1.927410 0.000000 
#    z 0.019690 0.000000 1.901540 
# 
# From -- ./inp_files/17947.got.cif
#   From: 2010.06.25/outbox.cif.g09.slc.cpg/sg9_9_cif.got.tgz:17947.got - 2010.06.27 21:40:51.
