data_PCOD8055850
_publ_section_title
;
Structure prediction by ZEFSAII (Michael W. Deem and Ramdas Pophale) SiO2 
 PCOD8055850
Probable space group: C C
;
_chemical_formula_sum "Si O2"
_cell_formula_units_Z 32
_cell_length_a 10.445904
_cell_length_b 16.431751
_cell_length_c 8.341524
_cell_angle_alpha 90.000000
_cell_angle_beta 82.008596
_cell_angle_gamma 90.000000
_cell_volume 1417.872589
_symmetry_space_group_name_H-M "C C"
_symmetry_group_IT_number 9
_symmetry_cell_setting 'monoclinic'
loop_
_space_group_symop_operation_xyz
x,y,z
x,-y,1/2+z
1/2+x,1/2+y,z
1/2+x,1/2-y,1/2+z
loop_
_atom_site_type_symbol
_atom_site_label
_atom_site_fract_x
_atom_site_fract_y
_atom_site_fract_z
Si Si1 0.610880 0.411876 0.803380
Si Si2 0.935127 0.173242 0.594339
Si Si3 0.999115 0.226281 0.931366
Si Si4 0.323489 0.033684 0.808021
Si Si5 0.766254 0.681097 0.034088
Si Si6 0.871986 0.910751 0.641543
Si Si7 0.463464 0.086296 0.482403
Si Si8 0.249021 0.444051 0.993407
O O1 0.681481 0.493899 0.846332
O O2 0.715738 0.348503 0.715846
O O3 0.510417 0.441675 0.683764
O O4 0.542786 0.366269 0.961733
O O5 0.993556 0.184640 0.759023
O O6 0.885952 0.258200 0.531438
O O7 0.811035 0.113457 0.619269
O O8 0.898130 0.179425 0.065944
O O9 0.147379 0.221771 0.960529
O O10 0.959042 0.319885 0.933376
O O11 0.348255 0.068688 0.627298
O O12 0.329257 0.105733 0.933158
O O13 0.434418 0.967490 0.830656
O O14 0.775427 0.909249 0.809994
O O15 0.812290 0.966926 0.511159
O O16 0.596005 0.057378 0.542896
#
# Coordination Sequence:
#
# PCOD8055850 Si02
#       8
#     4   4   4   4   4   4   4   4
#     4  10  25  46  72 109 141 188 251 303 362 437
#     4  11  25  45  74 106 148 192 243 312 362 436
#     4  11  26  45  75 108 145 191 245 298 375 429
#     4  12  27  45  74 101 147 194 241 298 368 443
#     4  11  25  47  67 109 145 184 243 305 363 440
#     4  10  24  43  76 104 139 188 245 305 354 437
#     4  12  27  48  70 106 150 192 239 301 371 438
#     4  11  23  45  72 105 149 187 247 296 371 434
#
# _framework density 22.569025
#
# number of rings (size 3 to 8) (size 9 to 14) (size 15 to 20)
#    0.000    1.000    2.500    2.250   15.750    0.000 
#    2.250    0.000    0.000    0.000    0.000    0.000 
#    0.000    0.000    0.000    0.000    0.000    0.000 
#
# Total GULP energy -198435.734891 kJ/mol
# GULP energy per Si atom -12402.233431 kJ/mol
# Density = 2.251766 g / cm^3
# Si number density = 22.569025 Si / 1000 Ang^3
#
#
#
# Elastic Constant Matrix: (Units=GPa)
#
#
# Indices 1 2 3 4 5 6 
#
# 1 61.9355 7.0463 6.1306 0.0000 -11.8211 0.0000
# 2 7.0463 81.6532 1.8759 0.0000 -9.4527 0.0000
# 3 6.1306 1.8759 90.6138 0.0000 -11.1170 0.0000
# 4 0.0000 0.0000 0.0000 39.3156 0.0000 1.6046
# 5 -11.8211 -9.4527 -11.1170 0.0000 27.7947 0.0000
# 6 0.0000 0.0000 0.0000 1.6046 0.0000 46.7095
#
#
#
# Elastic Compliance Matrix: (Units=1/GPa)
#
#
# Indices 1 2 3 4 5 6 
#
# 1 0.017616 -0.000687 -0.000302 0.000000 0.007138 0.000000
# 2 -0.000687 0.012782 0.000294 0.000000 0.004173 0.000000
# 3 -0.000302 0.000294 0.011617 0.000000 0.004618 0.000000
# 4 0.000000 0.000000 0.000000 0.025471 0.000000 -0.000875
# 5 0.007138 0.004173 0.004618 0.000000 0.042280 0.000000
# 6 0.000000 0.000000 0.000000 -0.000875 0.000000 0.021439
#
#
# Mechanical properties :
#
#
# Convention : Reuss Voigt Hill
#
# Bulk Modulus (GPa) = 24.61526 29.36757 26.99142
# Shear Modulus (GPa) = 34.21444 37.37394 35.79419
#
# Velocity S-wave (km/s) = 3.89780 4.07379 3.98677
# Velocity P-wave (km/s) = 5.58457 5.93029 5.76002
#
# Compressibility (1/GPa) = 0.04062520
#
# Stress axis : x y z
#
# Youngs Moduli (GPa) = 56.76596 78.23200 86.08270
#
# Poissons Ratio (x) = 0.05374 0.02599
# Poissons Ratio (y) = 0.03900 -0.02529
# Poissons Ratio (z) = 0.01714 -0.02298
#
# Static dielectric constant tensor:
#      x y z
#    x 4.066640 0.000000 0.062390 
#    y 0.000000 4.114530 0.000000 
#    z 0.062390 0.000000 4.052010 
# 
# 
# High freq. dielectric constant tensor:
#      x y z
#    x 1.890440 0.000000 0.007120 
#    y 0.000000 1.896890 0.000000 
#    z 0.007120 0.000000 1.890630 
# 
# From -- ./inp_files/7437.got.cif
#   From: 2010.06.25/outbox.cif.g09.slc.cpg/sg9_4_cif.got.tgz:7437.got - 2010.06.27 21:40:51.
