data_PCOD8055158
_publ_section_title
;
Structure prediction by ZEFSAII (Michael W. Deem and Ramdas Pophale) SiO2 
 PCOD8055158
Probable space group: C C
;
_chemical_formula_sum "Si O2"
_cell_formula_units_Z 20
_cell_length_a 9.612698
_cell_length_b 20.216563
_cell_length_c 9.910668
_cell_angle_alpha 90.000000
_cell_angle_beta 29.190313
_cell_angle_gamma 90.000000
_cell_volume 939.331856
_symmetry_space_group_name_H-M "C C"
_symmetry_group_IT_number 9
_symmetry_cell_setting 'monoclinic'
loop_
_space_group_symop_operation_xyz
x,y,z
x,-y,1/2+z
1/2+x,1/2+y,z
1/2+x,1/2-y,1/2+z
loop_
_atom_site_type_symbol
_atom_site_label
_atom_site_fract_x
_atom_site_fract_y
_atom_site_fract_z
Si Si1 0.323850 0.794047 0.515900
Si Si2 0.418303 0.485568 0.107183
Si Si3 0.170251 0.882977 0.399122
Si Si4 0.441657 0.900428 0.628582
Si Si5 0.593737 0.899235 0.793093
O O1 0.514738 0.729639 0.326390
O O2 0.306054 0.835735 0.394288
O O3 0.469983 0.837189 0.508808
O O4 0.599709 0.544796 0.026976
O O5 0.225090 0.555371 0.874141
O O6 0.646612 0.437724 0.840755
O O7 0.205001 0.523843 0.183745
O O8 0.872065 0.853631 0.590784
O O9 0.382411 0.892591 0.096215
O O10 0.435499 0.877572 0.790210
#
# Coordination Sequence:
#
# PCOD8055158 Si02
#       5
#     4   4   4   4   4
#     4  12  28  48  66  96 137 194 230 264 327 401
#     4  10  22  36  67 104 130 165 212 281 360 378
#     4  10  22  42  67  92 136 165 233 271 327 408
#     4  12  24  40  69  96 143 168 220 283 334 406
#     4  10  22  40  63 104 126 164 219 273 350 391
#
# _framework density 21.291730000000001
#
# number of rings (size 3 to 8) (size 9 to 14) (size 15 to 20)
#    1.200    0.000    2.000    3.600    5.600    0.000 
#    0.000    6.000    0.000    0.000    0.000    0.000 
#    0.000    0.000    0.000    0.000    0.000    0.000 
#
# Total GULP energy -123908.795382 kJ/mol
# GULP energy per Si atom -12390.879538 kJ/mol
# Density = 2.124327 g / cm^3
# Si number density = 21.291730 Si / 1000 Ang^3
#
#
#
# Elastic Constant Matrix: (Units=GPa)
#
#
# Indices 1 2 3 4 5 6 
#
# 1 126.0481 56.8088 51.8287 -0.0008 14.0889 -0.0005
# 2 56.8088 76.0571 39.3614 0.0000 13.3279 -0.0001
# 3 51.8287 39.3614 150.4426 -0.0009 -3.8210 -0.0009
# 4 -0.0008 0.0000 -0.0009 26.8045 0.0008 -1.4216
# 5 14.0889 13.3279 -3.8210 0.0008 28.2870 0.0007
# 6 -0.0005 -0.0001 -0.0009 -1.4216 0.0007 20.0497
#
#
#
# Elastic Compliance Matrix: (Units=1/GPa)
#
#
# Indices 1 2 3 4 5 6 
#
# 1 0.012768 -0.007733 -0.002453 0.000000 -0.003047 0.000000
# 2 -0.007733 0.021785 -0.003209 0.000000 -0.006846 0.000000
# 3 -0.002453 -0.003209 0.008430 0.000000 0.003873 0.000000
# 4 0.000000 0.000000 0.000000 0.037448 -0.000001 0.002655
# 5 -0.003047 -0.006846 0.003873 -0.000001 0.040618 -0.000002
# 6 0.000000 0.000000 0.000000 0.002655 -0.000002 0.050064
#
#
# Mechanical properties :
#
#
# Convention : Reuss Voigt Hill
#
# Bulk Modulus (GPa) = 61.75930 72.06063 66.90996
# Shear Modulus (GPa) = 24.59397 28.66481 26.62939
#
# Velocity S-wave (km/s) = 3.40236 3.67316 3.54035
# Velocity P-wave (km/s) = 6.67112 7.20468 6.94303
#
# Compressibility (1/GPa) = 0.01619189
#
# Stress axis : x y z
#
# Youngs Moduli (GPa) = 78.32115 45.90339 118.62281
#
# Poissons Ratio (x) = 0.35499 0.29095
# Poissons Ratio (y) = 0.60569 0.38071
# Poissons Ratio (z) = 0.19210 0.14732
#
# Static dielectric constant tensor:
#      x y z
#    x 3.639120 0.000000 -0.220920 
#    y 0.000000 3.578560 0.000000 
#    z -0.220920 0.000000 3.919190 
# 
# 
# High freq. dielectric constant tensor:
#      x y z
#    x 1.817820 0.000000 -0.010970 
#    y 0.000000 1.804880 0.000000 
#    z -0.010970 0.000000 1.859170 
# 
# From -- ./inp_files/6136.got.cif
#   From: 2010.06.25/outbox.cif.g09.slc.cpg/sg9_4_cif.got.tgz:6136.got - 2010.06.27 21:40:51.
