data_PCOD8055938
_publ_section_title
;
Structure prediction by ZEFSAII (Michael W. Deem and Ramdas Pophale) SiO2 
 PCOD8055938
Probable space group: C C
;
_chemical_formula_sum "Si O2"
_cell_formula_units_Z 20
_cell_length_a 9.582934
_cell_length_b 7.385973
_cell_length_c 11.434653
_cell_angle_alpha 90.000000
_cell_angle_beta 89.940782
_cell_angle_gamma 90.000000
_cell_volume 809.336209
_symmetry_space_group_name_H-M "C C"
_symmetry_group_IT_number 9
_symmetry_cell_setting 'monoclinic'
loop_
_space_group_symop_operation_xyz
x,y,z
x,-y,1/2+z
1/2+x,1/2+y,z
1/2+x,1/2-y,1/2+z
loop_
_atom_site_type_symbol
_atom_site_label
_atom_site_fract_x
_atom_site_fract_y
_atom_site_fract_z
Si Si1 0.642900 0.689692 0.276220
Si Si2 0.366744 0.890830 0.595119
Si Si3 0.872276 0.881648 0.887073
Si Si4 0.873499 0.725836 0.457042
Si Si5 0.087267 0.398225 0.785990
O O1 0.714960 0.656903 0.150231
O O2 0.507798 0.567911 0.307429
O O3 0.758963 0.641438 0.370908
O O4 0.578022 0.887081 0.285831
O O5 0.388849 0.789444 0.472065
O O6 0.498822 0.828341 0.674228
O O7 0.365628 0.109832 0.576820
O O8 0.750444 0.843637 0.791604
O O9 0.844292 0.058809 0.969723
O O10 0.025259 0.686405 0.403989
#
# Coordination Sequence:
#
# PCOD8055938 Si02
#       5
#     4   4   4   4   4
#     4  10  24  48  69 108 140 186 242 291 351 426
#     4  11  25  49  73 103 148 194 228 294 368 408
#     4  11  25  49  73 104 147 185 240 297 350 423
#     4  10  24  48  70 100 146 185 236 298 347 422
#     4  10  24  48  69 105 147 178 244 298 338 433
#
# _framework density 24.711608999999999
#
# number of rings (size 3 to 8) (size 9 to 14) (size 15 to 20)
#    0.000    1.600    2.000    0.000    5.600    0.000 
#   28.800    0.000    0.000    0.000    0.000    0.000 
#    0.000    0.000    0.000    0.000    0.000    0.000 
#
# Total GULP energy -123937.406209 kJ/mol
# GULP energy per Si atom -12393.740621 kJ/mol
# Density = 2.465536 g / cm^3
# Si number density = 24.711609 Si / 1000 Ang^3
#
#
#
# Elastic Constant Matrix: (Units=GPa)
#
#
# Indices 1 2 3 4 5 6 
#
# 1 168.9128 22.5406 50.5332 0.0000 -10.5503 0.0000
# 2 22.5406 87.2457 21.2529 0.0000 1.6009 0.0000
# 3 50.5332 21.2529 88.3246 0.0000 -3.1531 0.0000
# 4 0.0000 0.0000 0.0000 36.1171 0.0000 0.8986
# 5 -10.5503 1.6009 -3.1531 0.0000 33.6999 0.0000
# 6 0.0000 0.0000 0.0000 0.8986 0.0000 34.3875
#
#
#
# Elastic Compliance Matrix: (Units=1/GPa)
#
#
# Indices 1 2 3 4 5 6 
#
# 1 0.007340 -0.000985 -0.003892 0.000000 0.001980 0.000000
# 2 -0.000985 0.012332 -0.002444 0.000000 -0.001123 0.000000
# 3 -0.003892 -0.002444 0.014144 0.000000 0.000221 0.000000
# 4 0.000000 0.000000 0.000000 0.027706 0.000000 -0.000724
# 5 0.001980 -0.001123 0.000221 0.000000 0.030368 0.000000
# 6 0.000000 0.000000 0.000000 -0.000724 0.000000 0.029099
#
#
# Mechanical properties :
#
#
# Convention : Reuss Voigt Hill
#
# Bulk Modulus (GPa) = 52.14989 59.23739 55.69364
# Shear Modulus (GPa) = 35.20600 37.51802 36.36201
#
# Velocity S-wave (km/s) = 3.77858 3.90068 3.84012
# Velocity P-wave (km/s) = 6.33925 6.65662 6.49987
#
# Compressibility (1/GPa) = 0.01917550
#
# Stress axis : x y z
#
# Youngs Moduli (GPa) = 136.24856 81.08817 70.69949
#
# Poissons Ratio (x) = 0.07984 0.27513
# Poissons Ratio (y) = 0.13415 0.17280
# Poissons Ratio (z) = 0.53022 0.19819
#
# Static dielectric constant tensor:
#      x y z
#    x 4.640440 0.000000 0.028390 
#    y 0.000000 4.293540 0.000000 
#    z 0.028390 0.000000 4.099230 
# 
# 
# High freq. dielectric constant tensor:
#      x y z
#    x 1.999130 0.000000 0.002870 
#    y 0.000000 1.983560 0.000000 
#    z 0.002870 0.000000 1.956790 
# 
# From -- ./inp_files/13962.got.cif
#   From: 2010.06.25/outbox.cif.g09.slc.cpg/sg9_7_cif.got.tgz:13962.got - 2010.06.27 21:40:51.
