data_PCOD8055006
_publ_section_title
;
Structure prediction by ZEFSAII (Michael W. Deem and Ramdas Pophale) SiO2 
 PCOD8055006
Probable space group: C C
;
_chemical_formula_sum "Si O2"
_cell_formula_units_Z 32
_cell_length_a 11.826649
_cell_length_b 12.002828
_cell_length_c 10.190318
_cell_angle_alpha 90.000000
_cell_angle_beta 113.518958
_cell_angle_gamma 90.000000
_cell_volume 1326.381033
_symmetry_space_group_name_H-M "C C"
_symmetry_group_IT_number 9
_symmetry_cell_setting 'monoclinic'
loop_
_space_group_symop_operation_xyz
x,y,z
x,-y,1/2+z
1/2+x,1/2+y,z
1/2+x,1/2-y,1/2+z
loop_
_atom_site_type_symbol
_atom_site_label
_atom_site_fract_x
_atom_site_fract_y
_atom_site_fract_z
Si Si1 0.404440 0.827758 0.717510
Si Si2 0.030701 0.384831 0.251424
Si Si3 0.287867 0.828318 0.267585
Si Si4 0.688175 0.327464 0.795639
Si Si5 0.346366 0.651161 0.492448
Si Si6 0.080312 0.981171 0.088519
Si Si7 0.595654 0.925029 0.981277
Si Si8 0.780113 0.508258 0.995549
O O1 0.275265 0.786127 0.718625
O O2 0.427840 0.742383 0.609588
O O3 0.381166 0.958024 0.656711
O O4 0.515938 0.827330 0.872596
O O5 0.112053 0.274941 0.314119
O O6 0.054694 0.434788 0.115121
O O7 0.073890 0.462161 0.391064
O O8 0.889068 0.343956 0.199928
O O9 0.290546 0.704078 0.331956
O O10 0.155407 0.865171 0.149600
O O11 0.320535 0.914201 0.396941
O O12 0.595037 0.428273 0.711077
O O13 0.780865 0.379559 0.948710
O O14 0.437719 0.549249 0.498419
O O15 0.238861 0.604961 0.535383
O O16 0.142208 0.035544 0.986943
#
# Coordination Sequence:
#
# PCOD8055006 Si02
#       8
#     4   4   4   4   4   4   4   4
#     4  10  22  42  76  99 142 190 242 285 365 433
#     4  12  27  49  72 109 147 192 242 302 376 432
#     4  10  23  41  75 105 134 186 247 291 351 434
#     4  10  21  44  68 107 134 189 246 294 348 436
#     4  11  23  48  67 109 147 189 230 304 378 425
#     4  10  21  41  72 101 142 185 242 298 348 429
#     4  12  28  48  70 105 152 190 235 308 370 437
#     4   9  19  39  72 105 130 175 242 300 336 410
#
# _framework density 24.125796999999999
#
# number of rings (size 3 to 8) (size 9 to 14) (size 15 to 20)
#    0.000    1.500    1.250    3.750    8.750    0.000 
#   11.250    0.000    0.000    0.000    0.000    0.000 
#    0.000    0.000    0.000    0.000    0.000    0.000 
#
# Total GULP energy -198239.851297 kJ/mol
# GULP energy per Si atom -12389.990706 kJ/mol
# Density = 2.407089 g / cm^3
# Si number density = 24.125797 Si / 1000 Ang^3
#
#
#
# Elastic Constant Matrix: (Units=GPa)
#
#
# Indices 1 2 3 4 5 6 
#
# 1 143.5085 34.0138 40.1917 0.0000 -11.3976 0.0000
# 2 34.0138 79.5759 24.3513 0.0000 -1.4398 0.0000
# 3 40.1917 24.3513 75.3131 0.0000 -15.3837 0.0000
# 4 0.0000 0.0000 0.0000 36.7494 0.0000 0.6945
# 5 -11.3976 -1.4398 -15.3837 0.0000 39.2485 0.0000
# 6 0.0000 0.0000 0.0000 0.6945 0.0000 37.1565
#
#
#
# Elastic Compliance Matrix: (Units=1/GPa)
#
#
# Indices 1 2 3 4 5 6 
#
# 1 0.008665 -0.002590 -0.003579 0.000000 0.001019 0.000000
# 2 -0.002590 0.014788 -0.003742 0.000000 -0.001676 0.000000
# 3 -0.003579 -0.003742 0.017563 0.000000 0.005708 0.000000
# 4 0.000000 0.000000 0.000000 0.027221 0.000000 -0.000509
# 5 0.001019 -0.001676 0.005708 0.000000 0.027950 0.000000
# 6 0.000000 0.000000 0.000000 -0.000509 0.000000 0.026923
#
#
# Mechanical properties :
#
#
# Convention : Reuss Voigt Hill
#
# Bulk Modulus (GPa) = 47.17928 55.05679 51.11803
# Shear Modulus (GPa) = 33.33383 35.95359 34.64371
#
# Velocity S-wave (km/s) = 3.72111 3.86457 3.79352
# Velocity P-wave (km/s) = 6.16930 6.54091 6.35782
#
# Compressibility (1/GPa) = 0.02119575
#
# Stress axis : x y z
#
# Youngs Moduli (GPa) = 115.40193 67.62012 56.93662
#
# Poissons Ratio (x) = 0.17516 0.20376
# Poissons Ratio (y) = 0.29893 0.21304
# Poissons Ratio (z) = 0.41299 0.25301
#
# Static dielectric constant tensor:
#      x y z
#    x 4.338490 0.000000 -0.248550 
#    y 0.000000 4.197800 0.000000 
#    z -0.248550 0.000000 4.446000 
# 
# 
# High freq. dielectric constant tensor:
#      x y z
#    x 1.962400 0.000000 -0.017160 
#    y 0.000000 1.938730 0.000000 
#    z -0.017160 0.000000 1.956680 
# 
# From -- ./inp_files/16580.got.cif
#   From: 2010.06.25/outbox.cif.g09.slc.cpg/sg9_9_cif.got.tgz:16580.got - 2010.06.27 21:40:51.
