data_PCOD8055282
_publ_section_title
;
Structure prediction by ZEFSAII (Michael W. Deem and Ramdas Pophale) SiO2 
 PCOD8055282
Probable space group: C C
;
_chemical_formula_sum "Si O2"
_cell_formula_units_Z 32
_cell_length_a 16.598250
_cell_length_b 7.632668
_cell_length_c 13.005661
_cell_angle_alpha 90.000000
_cell_angle_beta 118.542577
_cell_angle_gamma 90.000000
_cell_volume 1447.418856
_symmetry_space_group_name_H-M "C C"
_symmetry_group_IT_number 9
_symmetry_cell_setting 'monoclinic'
loop_
_space_group_symop_operation_xyz
x,y,z
x,-y,1/2+z
1/2+x,1/2+y,z
1/2+x,1/2-y,1/2+z
loop_
_atom_site_type_symbol
_atom_site_label
_atom_site_fract_x
_atom_site_fract_y
_atom_site_fract_z
Si Si1 0.288160 0.870227 0.261450
Si Si2 0.724165 0.278083 0.778621
Si Si3 0.104589 0.510517 0.829757
Si Si4 0.610185 0.807880 0.649123
Si Si5 0.904932 0.187021 0.972661
Si Si6 0.403660 0.025235 0.643847
Si Si7 0.093448 0.657157 0.537892
Si Si8 0.918399 0.203757 0.506945
O O1 0.210003 0.741413 0.166764
O O2 0.329642 0.969179 0.189202
O O3 0.366068 0.767742 0.372623
O O4 0.235632 0.011732 0.303235
O O5 0.826919 0.199476 0.837542
O O6 0.677769 0.264688 0.637600
O O7 0.667179 0.178051 0.833845
O O8 0.123504 0.327379 0.780430
O O9 0.999433 0.568944 0.757021
O O10 0.125937 0.449266 0.958042
O O11 0.528891 0.686557 0.556839
O O12 0.572111 0.004799 0.606413
O O13 0.893639 0.996177 0.017364
O O14 0.882372 0.327693 0.046388
O O15 0.002143 0.223074 0.974498
O O16 0.398676 0.831258 0.590798
#
# Coordination Sequence:
#
# PCOD8055282 Si02
#       8
#     4   4   4   4   4   4   4   4
#     4  12  25  44  68 104 144 185 235 293 358 419
#     4  11  23  42  68 100 144 183 232 292 353 422
#     4  10  22  43  71  99 140 184 232 286 352 414
#     4  10  22  41  65  99 137 178 228 288 340 423
#     4  12  23  46  70 101 142 188 233 298 350 421
#     4  11  24  47  70 103 141 191 234 296 347 422
#     4  11  22  45  69 101 143 183 231 295 357 418
#     4  11  23  46  69  99 145 180 237 292 349 421
#
# _framework density 22.108319999999999
#
# number of rings (size 3 to 8) (size 9 to 14) (size 15 to 20)
#    0.000    1.000    5.000    3.750    1.750    2.000 
#    9.000    1.250    0.000    0.000    0.000    0.000 
#    0.000    0.000    0.000    0.000    0.000    0.000 
#
# Total GULP energy -198235.144589 kJ/mol
# GULP energy per Si atom -12389.696537 kJ/mol
# Density = 2.205800 g / cm^3
# Si number density = 22.108320 Si / 1000 Ang^3
#
#
#
# Elastic Constant Matrix: (Units=GPa)
#
#
# Indices 1 2 3 4 5 6 
#
# 1 112.5631 40.4358 59.9576 0.0000 17.2204 0.0000
# 2 40.4358 118.3965 26.1575 0.0000 2.3460 0.0000
# 3 59.9576 26.1575 108.0914 0.0000 25.0754 0.0000
# 4 0.0000 0.0000 0.0000 26.4140 0.0000 7.2634
# 5 17.2204 2.3460 25.0754 0.0000 38.6311 0.0000
# 6 0.0000 0.0000 0.0000 7.2634 0.0000 31.8640
#
#
#
# Elastic Compliance Matrix: (Units=1/GPa)
#
#
# Indices 1 2 3 4 5 6 
#
# 1 0.013741 -0.003237 -0.006432 0.000000 -0.001754 0.000000
# 2 -0.003237 0.009720 -0.000888 0.000000 0.001429 0.000000
# 3 -0.006432 -0.000888 0.014547 0.000000 -0.006521 0.000000
# 4 0.000000 0.000000 0.000000 0.040390 0.000000 -0.009207
# 5 -0.001754 0.001429 -0.006521 0.000000 0.030814 0.000000
# 6 0.000000 0.000000 0.000000 -0.009207 0.000000 0.033482
#
#
# Mechanical properties :
#
#
# Convention : Reuss Voigt Hill
#
# Bulk Modulus (GPa) = 59.19437 65.79477 62.49457
# Shear Modulus (GPa) = 29.50909 33.54849 31.52879
#
# Velocity S-wave (km/s) = 3.65739 3.89968 3.78048
# Velocity P-wave (km/s) = 6.68342 7.07824 6.88366
#
# Compressibility (1/GPa) = 0.01689350
#
# Stress axis : x y z
#
# Youngs Moduli (GPa) = 72.77443 102.88418 68.74339
#
# Poissons Ratio (x) = 0.33306 0.44215
# Poissons Ratio (y) = 0.23559 0.06104
# Poissons Ratio (z) = 0.46807 0.09136
#
# Static dielectric constant tensor:
#      x y z
#    x 3.884880 0.000000 0.296570 
#    y 0.000000 4.036270 0.000000 
#    z 0.296570 0.000000 4.191520 
# 
# 
# High freq. dielectric constant tensor:
#      x y z
#    x 1.855550 0.000000 0.026340 
#    y 0.000000 1.868550 0.000000 
#    z 0.026340 0.000000 1.880150 
# 
# From -- ./inp_files/25625.got.cif
#   From: 2010.06.25/outbox.cif.g09.slc.cpg/sg9_13_cif.got.tgz:25625.got - 2010.06.27 21:40:51.
