data_PCOD8055247
_publ_section_title
;
Structure prediction by ZEFSAII (Michael W. Deem and Ramdas Pophale) SiO2 
 PCOD8055247
Probable space group: C C
;
_chemical_formula_sum "Si O2"
_cell_formula_units_Z 28
_cell_length_a 9.693780
_cell_length_b 10.809281
_cell_length_c 14.420956
_cell_angle_alpha 90.000000
_cell_angle_beta 119.291191
_cell_angle_gamma 90.000000
_cell_volume 1317.869678
_symmetry_space_group_name_H-M "C C"
_symmetry_group_IT_number 9
_symmetry_cell_setting 'monoclinic'
loop_
_space_group_symop_operation_xyz
x,y,z
x,-y,1/2+z
1/2+x,1/2+y,z
1/2+x,1/2-y,1/2+z
loop_
_atom_site_type_symbol
_atom_site_label
_atom_site_fract_x
_atom_site_fract_y
_atom_site_fract_z
Si Si1 0.301630 0.762480 0.932450
Si Si2 0.553264 0.056704 0.547498
Si Si3 0.368528 0.545218 0.082463
Si Si4 0.375649 0.135659 0.871912
Si Si5 0.587295 0.519077 0.318288
Si Si6 0.867650 0.923622 0.897870
Si Si7 0.089860 0.421995 0.271470
O O1 0.193184 0.882594 0.909264
O O2 0.226607 0.684588 0.823024
O O3 0.478832 0.818913 0.974571
O O4 0.295657 0.675141 0.021982
O O5 0.520265 0.069688 0.646037
O O6 0.738663 0.043294 0.588246
O O7 0.470623 0.932388 0.484277
O O8 0.507788 0.576457 0.199785
O O9 0.438290 0.467104 0.019467
O O10 0.398544 0.280640 0.891067
O O11 0.444198 0.098955 0.793728
O O12 0.190794 0.098826 0.820326
O O13 0.449748 0.489022 0.346624
O O14 0.678829 0.950789 0.830382
#
# Coordination Sequence:
#
# PCOD8055247 Si02
#       7
#     4   4   4   4   4   4   4
#     4  10  22  40  68  95 132 172 218 270 327 393
#     4  11  22  41  71  97 133 176 221 273 332 390
#     4  11  23  43  66 102 133 174 227 270 330 399
#     4  11  25  45  65 102 136 170 227 274 325 404
#     4  11  23  43  69  98 134 173 223 273 332 389
#     4  11  23  43  67  94 137 176 216 276 325 395
#     4  11  22  43  70  96 133 177 218 274 335 384
#
# _framework density 21.246410999999998
#
# number of rings (size 3 to 8) (size 9 to 14) (size 15 to 20)
#    0.000    1.143    5.714    0.857    0.000    5.714 
#    0.000    2.857    0.000    0.000    0.000    0.000 
#    0.000    0.000    0.000    0.000    0.000    0.000 
#
# Total GULP energy -173501.107025 kJ/mol
# GULP energy per Si atom -12392.936216 kJ/mol
# Density = 2.119805 g / cm^3
# Si number density = 21.246411 Si / 1000 Ang^3
#
#
#
# Elastic Constant Matrix: (Units=GPa)
#
#
# Indices 1 2 3 4 5 6 
#
# 1 114.5297 61.3474 44.7811 0.0000 -15.7480 0.0000
# 2 61.3474 90.3446 29.7411 0.0000 -7.1303 0.0000
# 3 44.7811 29.7411 108.3630 0.0000 -14.6345 0.0000
# 4 0.0000 0.0000 0.0000 26.2132 0.0000 6.6695
# 5 -15.7480 -7.1303 -14.6345 0.0000 33.4331 0.0000
# 6 0.0000 0.0000 0.0000 6.6695 0.0000 32.8394
#
#
#
# Elastic Compliance Matrix: (Units=1/GPa)
#
#
# Indices 1 2 3 4 5 6 
#
# 1 0.015437 -0.009069 -0.003369 0.000000 0.003863 0.000000
# 2 -0.009069 0.017541 -0.001210 0.000000 -0.001060 0.000000
# 3 -0.003369 -0.001210 0.011376 0.000000 0.003135 0.000000
# 4 0.000000 0.000000 0.000000 0.040227 0.000000 -0.008170
# 5 0.003863 -0.001060 0.003135 0.000000 0.032876 0.000000
# 6 0.000000 0.000000 0.000000 -0.008170 0.000000 0.032110
#
#
# Mechanical properties :
#
#
# Convention : Reuss Voigt Hill
#
# Bulk Modulus (GPa) = 58.61793 64.99740 61.80766
# Shear Modulus (GPa) = 27.38984 30.32167 28.85576
#
# Velocity S-wave (km/s) = 3.59437 3.78185 3.68930
# Velocity P-wave (km/s) = 6.69891 7.05184 6.87764
#
# Compressibility (1/GPa) = 0.01705963
#
# Stress axis : x y z
#
# Youngs Moduli (GPa) = 64.77827 57.00840 87.90574
#
# Poissons Ratio (x) = 0.51699 0.29614
# Poissons Ratio (y) = 0.58745 0.10636
# Poissons Ratio (z) = 0.21823 0.06897
#
# Static dielectric constant tensor:
#      x y z
#    x 3.994080 0.000000 0.123110 
#    y 0.000000 3.857350 0.000000 
#    z 0.123110 0.000000 3.885300 
# 
# 
# High freq. dielectric constant tensor:
#      x y z
#    x 1.827890 0.000000 0.005230 
#    y 0.000000 1.825970 0.000000 
#    z 0.005230 0.000000 1.836390 
# 
# From -- ./inp_files/22566.got.cif
#   From: 2010.06.25/outbox.cif.g09.slc.cpg/sg9_12_cif.got.tgz:22566.got - 2010.06.27 21:40:51.
