data_PCOD8055508
_publ_section_title
;
Structure prediction by ZEFSAII (Michael W. Deem and Ramdas Pophale) SiO2 
 PCOD8055508
Probable space group: C C
;
_chemical_formula_sum "Si O2"
_cell_formula_units_Z 32
_cell_length_a 15.598106
_cell_length_b 8.403931
_cell_length_c 11.133610
_cell_angle_alpha 90.000000
_cell_angle_beta 63.258291
_cell_angle_gamma 90.000000
_cell_volume 1303.356549
_symmetry_space_group_name_H-M "C C"
_symmetry_group_IT_number 9
_symmetry_cell_setting 'monoclinic'
loop_
_space_group_symop_operation_xyz
x,y,z
x,-y,1/2+z
1/2+x,1/2+y,z
1/2+x,1/2-y,1/2+z
loop_
_atom_site_type_symbol
_atom_site_label
_atom_site_fract_x
_atom_site_fract_y
_atom_site_fract_z
Si Si1 0.704170 0.373083 0.954130
Si Si2 0.000846 0.801463 0.188018
Si Si3 0.785245 0.717649 0.951997
Si Si4 0.099487 0.391561 0.071810
Si Si5 0.299443 0.241782 0.618844
Si Si6 0.940900 0.143789 0.184491
Si Si7 0.601898 0.116419 0.301414
Si Si8 0.337564 0.883478 0.666735
O O1 0.724423 0.557601 0.967548
O O2 0.740235 0.329354 0.798314
O O3 0.593322 0.325911 0.041828
O O4 0.771355 0.265500 0.997820
O O5 0.934189 0.658892 0.179466
O O6 0.033941 0.764455 0.304330
O O7 0.943421 0.965811 0.231692
O O8 0.712632 0.864091 0.002365
O O9 0.866434 0.745304 0.803245
O O10 0.840990 0.713464 0.042300
O O11 0.072245 0.455669 0.951709
O O12 0.081163 0.505904 0.196826
O O13 0.044647 0.224900 0.124993
O O14 0.392768 0.354666 0.580994
O O15 0.209297 0.315634 0.749282
O O16 0.330734 0.070232 0.649629
#
# Coordination Sequence:
#
# PCOD8055508 Si02
#       8
#     4   4   4   4   4   4   4   4
#     4  10  22  48  72 103 153 198 245 307 389 452
#     4  11  27  46  74 119 143 201 253 317 383 465
#     4  11  25  46  73 113 146 201 244 321 387 449
#     4  12  27  49  79 110 159 203 258 323 385 463
#     4  10  23  45  75 101 150 195 246 314 372 459
#     4  12  25  45  75 111 150 195 257 314 374 463
#     4  11  27  50  77 111 157 203 257 317 398 455
#     4  11  24  45  79 106 150 194 258 305 386 460
#
# _framework density 24.551993
#
# number of rings (size 3 to 8) (size 9 to 14) (size 15 to 20)
#    0.000    1.000    3.750    0.750    3.500    8.000 
#    0.000    0.000    0.000    0.000    0.000    0.000 
#    0.000    0.000    0.000    0.000    0.000    0.000 
#
# Total GULP energy -198264.590608 kJ/mol
# GULP energy per Si atom -12391.536913 kJ/mol
# Density = 2.449611 g / cm^3
# Si number density = 24.551993 Si / 1000 Ang^3
#
#
#
# Elastic Constant Matrix: (Units=GPa)
#
#
# Indices 1 2 3 4 5 6 
#
# 1 119.5224 37.7512 21.8466 0.0000 0.1874 0.0000
# 2 37.7512 80.6813 22.7054 0.0000 17.6557 0.0000
# 3 21.8466 22.7054 83.5022 0.0000 9.2158 0.0000
# 4 0.0000 0.0000 0.0000 25.2727 0.0000 -9.8913
# 5 0.1874 17.6557 9.2158 0.0000 29.9116 0.0000
# 6 0.0000 0.0000 0.0000 -9.8913 0.0000 42.3088
#
#
#
# Elastic Compliance Matrix: (Units=1/GPa)
#
#
# Indices 1 2 3 4 5 6 
#
# 1 0.010278 -0.005092 -0.001686 0.000000 0.003461 0.000000
# 2 -0.005092 0.017546 -0.002380 0.000000 -0.009591 0.000000
# 3 -0.001686 -0.002380 0.013362 0.000000 -0.002701 0.000000
# 4 0.000000 0.000000 0.000000 0.043554 0.000000 0.010182
# 5 0.003461 -0.009591 -0.002701 0.000000 0.039904 0.000000
# 6 0.000000 0.000000 0.000000 0.010182 0.000000 0.026016
#
#
# Mechanical properties :
#
#
# Convention : Reuss Voigt Hill
#
# Bulk Modulus (GPa) = 43.72728 49.81248 46.76988
# Shear Modulus (GPa) = 28.31276 32.92545 30.61910
#
# Velocity S-wave (km/s) = 3.39953 3.66601 3.53528
# Velocity P-wave (km/s) = 5.76696 6.18483 5.97954
#
# Compressibility (1/GPa) = 0.02286902
#
# Stress axis : x y z
#
# Youngs Moduli (GPa) = 97.29836 56.99428 74.83752
#
# Poissons Ratio (x) = 0.29020 0.12620
# Poissons Ratio (y) = 0.49541 0.17813
# Poissons Ratio (z) = 0.16408 0.13566
#
# Static dielectric constant tensor:
#      x y z
#    x 4.718230 0.000000 0.157710 
#    y 0.000000 4.240250 0.000000 
#    z 0.157710 0.000000 4.461560 
# 
# 
# High freq. dielectric constant tensor:
#      x y z
#    x 1.993950 0.000000 0.003580 
#    y 0.000000 1.963740 0.000000 
#    z 0.003580 0.000000 1.974950 
# 
# From -- ./inp_files/17908.got.cif
#   From: 2010.06.25/outbox.cif.g09.slc.cpg/sg9_9_cif.got.tgz:17908.got - 2010.06.27 21:40:51.
