data_PCOD8055781
_publ_section_title
;
Structure prediction by ZEFSAII (Michael W. Deem and Ramdas Pophale) SiO2 
 PCOD8055781
Probable space group: C C
;
_chemical_formula_sum "Si O2"
_cell_formula_units_Z 28
_cell_length_a 5.223573
_cell_length_b 8.814040
_cell_length_c 27.553487
_cell_angle_alpha 90.000000
_cell_angle_beta 101.557202
_cell_angle_gamma 90.000000
_cell_volume 1242.863750
_symmetry_space_group_name_H-M "C C"
_symmetry_group_IT_number 9
_symmetry_cell_setting 'monoclinic'
loop_
_space_group_symop_operation_xyz
x,y,z
x,-y,1/2+z
1/2+x,1/2+y,z
1/2+x,1/2-y,1/2+z
loop_
_atom_site_type_symbol
_atom_site_label
_atom_site_fract_x
_atom_site_fract_y
_atom_site_fract_z
Si Si1 0.809760 0.264474 0.437850
Si Si2 0.529553 0.225674 0.127636
Si Si3 0.594092 0.260991 0.326530
Si Si4 0.495659 0.439404 0.590670
Si Si5 0.852643 0.071307 0.975087
Si Si6 0.310204 0.760796 0.236483
Si Si7 0.701047 0.452857 0.780638
O O1 0.789726 0.251968 0.379066
O O2 0.572221 0.370227 0.446405
O O3 0.089504 0.331901 0.461661
O O4 0.780715 0.101526 0.461364
O O5 0.452191 0.384007 0.100123
O O6 0.286178 0.111551 0.116553
O O7 0.597529 0.254021 0.186224
O O8 0.779430 0.157120 0.110377
O O9 0.712840 0.181005 0.282818
O O10 0.527633 0.435455 0.308760
O O11 0.340764 0.156436 0.325620
O O12 0.467519 0.410752 0.532793
O O13 0.559903 0.655199 0.235102
O O14 0.376849 0.936731 0.252398
#
# Coordination Sequence:
#
# PCOD8055781 Si02
#       7
#     4   4   4   4   4   4   4
#     4  12  27  44  76 101 139 182 229 278 353 404
#     4  12  27  44  76 101 139 182 229 278 353 404
#     4  10  26  41  68  98 139 173 224 271 335 406
#     4  12  26  48  69 102 135 180 232 290 340 404
#     4  12  26  47  71 100 137 178 234 289 340 404
#     4  10  26  41  68  98 139 173 224 271 335 406
#     4  10  24  39  66  90 142 170 224 265 334 384
#
# _framework density 22.528614000000001
#
# number of rings (size 3 to 8) (size 9 to 14) (size 15 to 20)
#    0.857    0.000    0.000    6.000   10.000    0.000 
#    0.000    0.000    0.000    0.000    0.000    0.000 
#    0.000    0.000    0.000    0.000    0.000    0.000 
#
# Total GULP energy -173479.709182 kJ/mol
# GULP energy per Si atom -12391.407799 kJ/mol
# Density = 2.247734 g / cm^3
# Si number density = 22.528614 Si / 1000 Ang^3
#
#
#
# Elastic Constant Matrix: (Units=GPa)
#
#
# Indices 1 2 3 4 5 6 
#
# 1 -370.6246 94.0237 -57.9300 0.0000 -184.8434 0.0000
# 2 94.0237 108.2270 24.0332 0.0000 23.1200 0.0000
# 3 -57.9300 24.0332 52.6454 0.0000 -58.7968 0.0000
# 4 0.0000 0.0000 0.0000 35.0477 0.0000 25.6412
# 5 -184.8434 23.1200 -58.7968 0.0000 -63.0289 0.0000
# 6 0.0000 0.0000 0.0000 25.6412 0.0000 84.3787
#
#
#
# Elastic Compliance Matrix: (Units=1/GPa)
#
#
# Indices 1 2 3 4 5 6 
#
# 1 0.022360 -0.004523 -0.023714 0.000000 -0.045112 0.000000
# 2 -0.004523 0.009487 0.004600 0.000000 0.012452 0.000000
# 3 -0.023714 0.004600 0.034457 0.000000 0.039089 0.000000
# 4 0.000000 0.000000 0.000000 0.036689 0.000000 -0.011149
# 5 -0.045112 0.012452 0.039089 0.000000 0.084537 0.000000
# 6 0.000000 0.000000 0.000000 -0.011149 0.000000 0.015239
#
#
# Mechanical properties :
#
#
# Convention : Reuss Voigt Hill
#
# Bulk Modulus (GPa) = 52.54568 -9.94424 21.30072
# Shear Modulus (GPa) = 19.50169 -6.71244 6.39463
#
# Velocity S-wave (km/s) = 2.94537 -1.72800 1.68660
# Velocity P-wave (km/s) = 5.91114 2.89913 3.64257
#
# Compressibility (1/GPa) = 0.01903106
#
# Stress axis : x y z
#
# Youngs Moduli (GPa) = 44.72241 105.40401 29.02134
#
# Poissons Ratio (x) = 0.47670 0.68822
# Poissons Ratio (y) = 0.20226 -0.13349
# Poissons Ratio (z) = 1.06055 -0.48484
#
# Static dielectric constant tensor:
#      x y z
#    x 4.137530 0.000000 0.168860 
#    y 0.000000 4.086950 0.000000 
#    z 0.168860 0.000000 4.290460 
# 
# 
# High freq. dielectric constant tensor:
#      x y z
#    x 1.873020 0.000000 0.006450 
#    y 0.000000 1.910850 0.000000 
#    z 0.006450 0.000000 1.899160 
# 
# From -- ./inp_files/36237.got.cif
#   From: 2010.06.25/outbox.cif.g09.slc.cpg/sg9_19_cif.got.tgz:36237.got - 2010.06.27 21:40:51.
