data_PCOD8055092
_publ_section_title
;
Structure prediction by ZEFSAII (Michael W. Deem and Ramdas Pophale) SiO2 
 PCOD8055092
Probable space group: C C
;
_chemical_formula_sum "Si O2"
_cell_formula_units_Z 32
_cell_length_a 12.462035
_cell_length_b 7.515838
_cell_length_c 32.242417
_cell_angle_alpha 90.000000
_cell_angle_beta 150.636526
_cell_angle_gamma 90.000000
_cell_volume 1480.807491
_symmetry_space_group_name_H-M "C C"
_symmetry_group_IT_number 9
_symmetry_cell_setting 'monoclinic'
loop_
_space_group_symop_operation_xyz
x,y,z
x,-y,1/2+z
1/2+x,1/2+y,z
1/2+x,1/2-y,1/2+z
loop_
_atom_site_type_symbol
_atom_site_label
_atom_site_fract_x
_atom_site_fract_y
_atom_site_fract_z
Si Si1 0.091330 0.456866 0.682800
Si Si2 0.490539 0.426259 0.163298
Si Si3 0.202171 0.528076 0.921369
Si Si4 0.724708 0.681060 0.357489
Si Si5 0.116072 0.431677 0.485953
Si Si6 0.828165 0.731127 0.300785
Si Si7 0.292444 0.435502 0.670971
Si Si8 0.662084 0.632867 0.565855
O O1 0.139571 0.247978 0.708049
O O2 0.285734 0.575240 0.767386
O O3 0.090380 0.489093 0.632612
O O4 0.853336 0.494031 0.620646
O O5 0.335747 0.457744 0.071412
O O6 0.637146 0.599752 0.220858
O O7 0.337368 0.408284 0.152852
O O8 0.181222 0.673062 0.878181
O O9 0.058270 0.351319 0.862751
O O10 0.112004 0.602321 0.935075
O O11 0.453680 0.476517 0.010316
O O12 0.823321 0.764774 0.348471
O O13 0.495251 0.588023 0.270661
O O14 0.903055 0.535110 0.431536
O O15 0.112787 0.242717 0.507650
O O16 0.240969 0.252788 0.630293
#
# Coordination Sequence:
#
# PCOD8055092 Si02
#       8
#     4   4   4   4   4   4   4   4
#     4  12  22  40  71  94 121 178 214 259 337 386
#     4  10  21  44  67  93 135 169 215 277 319 386
#     4  11  24  40  66  92 130 182 206 271 342 373
#     4  10  21  44  63  95 136 168 218 274 321 387
#     4  10  22  42  62  94 137 165 217 277 317 387
#     4  10  23  45  62  99 135 162 227 274 310 404
#     4  10  23  43  66  96 131 171 221 275 317 393
#     4  11  24  44  63  99 133 163 228 273 313 404
#
# _framework density 21.609829999999999
#
# number of rings (size 3 to 8) (size 9 to 14) (size 15 to 20)
#    0.000    1.500    3.750    2.250    1.750    5.000 
#    9.000    0.000    0.000    0.000    0.000    0.000 
#    0.000    0.000    0.000    0.000    0.000    0.000 
#
# Total GULP energy -198366.470639 kJ/mol
# GULP energy per Si atom -12397.904415 kJ/mol
# Density = 2.156065 g / cm^3
# Si number density = 21.609830 Si / 1000 Ang^3
#
#
#
# Elastic Constant Matrix: (Units=GPa)
#
#
# Indices 1 2 3 4 5 6 
#
# 1 107.6943 9.9102 15.5295 -0.0005 -11.8995 0.0006
# 2 9.9102 54.5037 8.4235 -0.0011 -23.2685 0.0008
# 3 15.5295 8.4235 90.9043 -0.0007 -6.1781 0.0007
# 4 -0.0005 -0.0011 -0.0007 16.9351 -0.0001 0.3298
# 5 -11.8995 -23.2685 -6.1781 -0.0001 29.6133 0.0002
# 6 0.0006 0.0008 0.0007 0.3298 0.0002 32.7573
#
#
#
# Elastic Compliance Matrix: (Units=1/GPa)
#
#
# Indices 1 2 3 4 5 6 
#
# 1 0.009900 -0.000011 -0.001441 0.000000 0.003669 0.000000
# 2 -0.000011 0.027717 -0.001102 0.000002 0.021544 -0.000001
# 3 -0.001441 -0.001102 0.011412 0.000000 0.000936 0.000000
# 4 0.000000 0.000002 0.000000 0.059061 0.000002 -0.000595
# 5 0.003669 0.021544 0.000936 0.000002 0.052367 -0.000001
# 6 0.000000 -0.000001 0.000000 -0.000595 -0.000001 0.030534
#
#
# Mechanical properties :
#
#
# Convention : Reuss Voigt Hill
#
# Bulk Modulus (GPa) = 22.76808 35.64764 29.20786
# Shear Modulus (GPa) = 23.72601 30.47707 27.10154
#
# Velocity S-wave (km/s) = 3.31709 3.75952 3.54521
# Velocity P-wave (km/s) = 5.02291 5.94787 5.50485
#
# Compressibility (1/GPa) = 0.04392114
#
# Stress axis : x y z
#
# Youngs Moduli (GPa) = 101.01320 36.07834 87.62351
#
# Poissons Ratio (x) = 0.00040 0.12625
# Poissons Ratio (y) = 0.00112 0.09658
# Poissons Ratio (z) = 0.14554 0.03977
#
# Static dielectric constant tensor:
#      x y z
#    x 4.162730 0.000000 0.068740 
#    y 0.000000 3.653630 0.000000 
#    z 0.068740 0.000000 3.939300 
# 
# 
# High freq. dielectric constant tensor:
#      x y z
#    x 1.863020 0.000000 0.003220 
#    y 0.000000 1.831260 0.000000 
#    z 0.003220 0.000000 1.850380 
# 
# From -- ./inp_files/37290.got.cif
#   From: 2010.06.25/outbox.cif.g09.slc.cpg/sg9_19_cif.got.tgz:37290.got - 2010.06.27 21:40:51.
