data_PCOD8055422
_publ_section_title
;
Structure prediction by ZEFSAII (Michael W. Deem and Ramdas Pophale) SiO2 
 PCOD8055422
Probable space group: C C
;
_chemical_formula_sum "Si O2"
_cell_formula_units_Z 24
_cell_length_a 11.997824
_cell_length_b 9.494504
_cell_length_c 12.765931
_cell_angle_alpha 90.000000
_cell_angle_beta 52.111255
_cell_angle_gamma 90.000000
_cell_volume 1147.669777
_symmetry_space_group_name_H-M "C C"
_symmetry_group_IT_number 9
_symmetry_cell_setting 'monoclinic'
loop_
_space_group_symop_operation_xyz
x,y,z
x,-y,1/2+z
1/2+x,1/2+y,z
1/2+x,1/2-y,1/2+z
loop_
_atom_site_type_symbol
_atom_site_label
_atom_site_fract_x
_atom_site_fract_y
_atom_site_fract_z
Si Si1 0.150890 0.664017 0.360250
Si Si2 0.223389 0.034457 0.846072
Si Si3 0.521082 0.658318 0.585498
Si Si4 0.786548 0.991734 0.111311
Si Si5 0.041352 0.521211 0.108259
Si Si6 0.996800 0.880329 0.334228
O O1 0.220622 0.798958 0.380004
O O2 0.271686 0.581242 0.226803
O O3 0.068261 0.567773 0.489032
O O4 0.036455 0.718361 0.340360
O O5 0.127356 0.019310 0.796161
O O6 0.379722 0.983115 0.735288
O O7 0.153429 0.938207 0.975895
O O8 0.386716 0.640758 0.583978
O O9 0.576453 0.817466 0.558904
O O10 0.468929 0.603291 0.728238
O O11 0.633889 0.954433 0.150330
O O12 0.856293 0.082258 0.978575
#
# Coordination Sequence:
#
# PCOD8055422 Si02
#       6
#     4   4   4   4   4   4
#     4  10  22  44  68  92 134 179 230 272 346 407
#     4   9  24  42  65 100 128 184 229 272 347 411
#     4  11  24  44  70  97 140 175 234 283 340 410
#     4  11  23  42  68 101 134 181 227 282 345 405
#     4  12  24  42  68 103 137 178 228 286 346 405
#     4   9  21  44  69  89 129 185 222 277 340 408
#
# _framework density 20.911939
#
# number of rings (size 3 to 8) (size 9 to 14) (size 15 to 20)
#    1.000    0.667    1.667    2.000    4.667    1.333 
#    6.000    0.000    0.000    0.000    0.000    0.000 
#    0.000    0.000    0.000    0.000    0.000    0.000 
#
# Total GULP energy -148708.058568 kJ/mol
# GULP energy per Si atom -12392.338214 kJ/mol
# Density = 2.086434 g / cm^3
# Si number density = 20.911939 Si / 1000 Ang^3
#
#
#
# Elastic Constant Matrix: (Units=GPa)
#
#
# Indices 1 2 3 4 5 6 
#
# 1 106.4482 27.3776 46.3935 0.0000 -4.1597 0.0000
# 2 27.3776 78.5238 48.6355 0.0000 6.7501 0.0000
# 3 46.3935 48.6355 145.3897 0.0000 -0.4734 0.0000
# 4 0.0000 0.0000 0.0000 39.4958 0.0000 2.8109
# 5 -4.1597 6.7501 -0.4734 0.0000 30.7115 0.0000
# 6 0.0000 0.0000 0.0000 2.8109 0.0000 25.1041
#
#
#
# Elastic Compliance Matrix: (Units=1/GPa)
#
#
# Indices 1 2 3 4 5 6 
#
# 1 0.011307 -0.002377 -0.002806 0.000000 0.002011 0.000000
# 2 -0.002377 0.016974 -0.004933 0.000000 -0.004129 0.000000
# 3 -0.002806 -0.004933 0.009427 0.000000 0.000849 0.000000
# 4 0.000000 0.000000 0.000000 0.025523 0.000000 -0.002858
# 5 0.002011 -0.004129 0.000849 0.000000 0.033754 0.000000
# 6 0.000000 0.000000 0.000000 -0.002858 0.000000 0.040154
#
#
# Mechanical properties :
#
#
# Convention : Reuss Voigt Hill
#
# Bulk Modulus (GPa) = 57.22476 63.90832 60.56654
# Shear Modulus (GPa) = 30.63790 32.92594 31.78192
#
# Velocity S-wave (km/s) = 3.83180 3.97231 3.90269
# Velocity P-wave (km/s) = 6.85573 7.18791 7.02378
#
# Compressibility (1/GPa) = 0.01747495
#
# Stress axis : x y z
#
# Youngs Moduli (GPa) = 88.43856 58.91339 106.08297
#
# Poissons Ratio (x) = 0.14003 0.29772
# Poissons Ratio (y) = 0.21021 0.52332
# Poissons Ratio (z) = 0.24820 0.29063
#
# Static dielectric constant tensor:
#      x y z
#    x 3.683950 0.000000 -0.018910 
#    y 0.000000 3.642910 0.000000 
#    z -0.018910 0.000000 3.654330 
# 
# 
# High freq. dielectric constant tensor:
#      x y z
#    x 1.813540 0.000000 -0.006930 
#    y 0.000000 1.803930 0.000000 
#    z -0.006930 0.000000 1.826350 
# 
# From -- ./inp_files/15978.got.cif
#   From: 2010.06.25/outbox.cif.g09.slc.cpg/sg9_8_cif.got.tgz:15978.got - 2010.06.27 21:40:51.
