data_PCOD8055849
_publ_section_title
;
Structure prediction by ZEFSAII (Michael W. Deem and Ramdas Pophale) SiO2 
 PCOD8055849
Probable space group: C C
;
_chemical_formula_sum "Si O2"
_cell_formula_units_Z 32
_cell_length_a 15.824440
_cell_length_b 14.528318
_cell_length_c 8.795075
_cell_angle_alpha 90.000000
_cell_angle_beta 137.531507
_cell_angle_gamma 90.000000
_cell_volume 1365.229964
_symmetry_space_group_name_H-M "C C"
_symmetry_group_IT_number 9
_symmetry_cell_setting 'monoclinic'
loop_
_space_group_symop_operation_xyz
x,y,z
x,-y,1/2+z
1/2+x,1/2+y,z
1/2+x,1/2-y,1/2+z
loop_
_atom_site_type_symbol
_atom_site_label
_atom_site_fract_x
_atom_site_fract_y
_atom_site_fract_z
Si Si1 0.646000 0.969434 0.866480
Si Si2 0.513006 0.095809 0.484915
Si Si3 0.314442 0.661188 0.428296
Si Si4 0.629404 0.589944 0.522964
Si Si5 0.776153 0.349342 0.502949
Si Si6 0.017894 0.797388 0.634410
Si Si7 0.056327 0.896850 0.381226
Si Si8 0.355309 0.624776 0.162347
O O1 0.617259 0.930250 0.996098
O O2 0.684670 0.883174 0.812889
O O3 0.523543 0.018337 0.630569
O O4 0.758340 0.042917 0.005485
O O5 0.537953 0.194520 0.599189
O O6 0.376538 0.089722 0.228351
O O7 0.346349 0.754241 0.560750
O O8 0.429935 0.593062 0.616423
O O9 0.301045 0.683978 0.231378
O O10 0.734088 0.604590 0.788890
O O11 0.632266 0.671703 0.399055
O O12 0.643875 0.487634 0.474309
O O13 0.487088 0.583850 0.399723
O O14 0.652989 0.322701 0.437805
O O15 0.018809 0.871395 0.501528
O O16 0.885424 0.812010 0.552031
#
# Coordination Sequence:
#
# PCOD8055849 Si02
#       8
#     4   4   4   4   4   4   4   4
#     4  12  27  48  81 111 161 203 263 325 391 480
#     4  12  29  50  69 117 163 212 248 319 414 468
#     4  12  24  47  76 109 148 199 260 327 382 456
#     4  10  24  44  76 106 142 191 254 313 376 450
#     4  12  28  47  71 110 155 198 248 319 391 469
#     4  10  24  45  75 114 146 195 263 324 387 452
#     4  12  22  46  75 110 146 197 263 317 380 460
#     4  10  24  43  75 115 139 197 259 320 375 449
#
# _framework density 23.439274999999999
#
# number of rings (size 3 to 8) (size 9 to 14) (size 15 to 20)
#    0.750    0.000    5.000    1.500    7.000    1.000 
#    2.250    0.000    0.000    0.000    0.000    0.000 
#    0.000    0.000    0.000    0.000    0.000    0.000 
#
# Total GULP energy -198222.534346 kJ/mol
# GULP energy per Si atom -12388.908397 kJ/mol
# Density = 2.338593 g / cm^3
# Si number density = 23.439275 Si / 1000 Ang^3
#
#
#
# Elastic Constant Matrix: (Units=GPa)
#
#
# Indices 1 2 3 4 5 6 
#
# 1 122.0694 47.0542 25.7481 0.0000 -28.7704 0.0000
# 2 47.0542 103.5633 53.5249 0.0000 -7.9232 0.0000
# 3 25.7481 53.5249 132.1822 0.0000 -6.8982 0.0000
# 4 0.0000 0.0000 0.0000 32.8435 0.0000 -2.3230
# 5 -28.7704 -7.9232 -6.8982 0.0000 39.5284 0.0000
# 6 0.0000 0.0000 0.0000 -2.3230 0.0000 37.4233
#
#
#
# Elastic Compliance Matrix: (Units=1/GPa)
#
#
# Indices 1 2 3 4 5 6 
#
# 1 0.011847 -0.004819 0.000044 0.000000 0.007664 0.000000
# 2 -0.004819 0.014273 -0.004919 0.000000 -0.001505 0.000000
# 3 0.000044 -0.004919 0.009586 0.000000 0.000719 0.000000
# 4 0.000000 0.000000 0.000000 0.030582 0.000000 0.001898
# 5 0.007664 -0.001505 0.000719 0.000000 0.030700 0.000000
# 6 0.000000 0.000000 0.000000 0.001898 0.000000 0.026839
#
#
# Mechanical properties :
#
#
# Convention : Reuss Voigt Hill
#
# Bulk Modulus (GPa) = 61.28685 67.82994 64.55839
# Shear Modulus (GPa) = 33.63494 37.39157 35.51325
#
# Velocity S-wave (km/s) = 3.79223 3.99839 3.89667
# Velocity P-wave (km/s) = 6.73635 7.09349 6.91723
#
# Compressibility (1/GPa) = 0.01631671
#
# Stress axis : x y z
#
# Youngs Moduli (GPa) = 84.41141 70.06385 104.31511
#
# Poissons Ratio (x) = 0.33762 -0.00455
# Poissons Ratio (y) = 0.40676 0.51316
# Poissons Ratio (z) = -0.00368 0.34467
#
# Static dielectric constant tensor:
#      x y z
#    x 4.196060 0.000000 -0.203810 
#    y 0.000000 4.008850 0.000000 
#    z -0.203810 0.000000 4.078980 
# 
# 
# High freq. dielectric constant tensor:
#      x y z
#    x 1.926170 0.000000 -0.013330 
#    y 0.000000 1.916340 0.000000 
#    z -0.013330 0.000000 1.928970 
# 
# From -- ./inp_files/10911.got.cif
#   From: 2010.06.25/outbox.cif.g09.slc.cpg/sg9_6_cif.got.tgz:10911.got - 2010.06.27 21:40:51.
