data_PCOD8055684
_publ_section_title
;
Structure prediction by ZEFSAII (Michael W. Deem and Ramdas Pophale) SiO2 
 PCOD8055684
Probable space group: C C
;
_chemical_formula_sum "Si O2"
_cell_formula_units_Z 32
_cell_length_a 5.582962
_cell_length_b 19.700334
_cell_length_c 12.748314
_cell_angle_alpha 90.000000
_cell_angle_beta 93.470687
_cell_angle_gamma 90.000000
_cell_volume 1399.567157
_symmetry_space_group_name_H-M "C C"
_symmetry_group_IT_number 9
_symmetry_cell_setting 'monoclinic'
loop_
_space_group_symop_operation_xyz
x,y,z
x,-y,1/2+z
1/2+x,1/2+y,z
1/2+x,1/2-y,1/2+z
loop_
_atom_site_type_symbol
_atom_site_label
_atom_site_fract_x
_atom_site_fract_y
_atom_site_fract_z
Si Si1 0.131170 0.919455 0.493830
Si Si2 0.977309 0.438292 0.678544
Si Si3 0.111183 0.204506 0.441556
Si Si4 0.605815 0.132570 0.379889
Si Si5 0.801446 0.835094 0.358086
Si Si6 0.914991 0.569844 0.793045
Si Si7 0.554398 0.653132 0.661156
Si Si8 0.791811 0.032556 0.542387
O O1 0.265451 0.903343 0.606424
O O2 0.315174 0.922551 0.405225
O O3 0.958083 0.855894 0.463864
O O4 0.012946 0.994070 0.494738
O O5 0.098133 0.381516 0.754959
O O6 0.162450 0.474851 0.606513
O O7 0.870823 0.493736 0.754795
O O8 0.359779 0.170084 0.408060
O O9 0.109953 0.280322 0.394312
O O10 0.113111 0.205397 0.568631
O O11 0.858094 0.172126 0.400394
O O12 0.619376 0.062508 0.446937
O O13 0.688338 0.905581 0.312518
O O14 0.948429 0.807217 0.260466
O O15 0.801175 0.618895 0.702811
O O16 0.374157 0.594679 0.616682
#
# Coordination Sequence:
#
# PCOD8055684 Si02
#       8
#     4   4   4   4   4   4   4   4
#     4  11  25  41  70 107 145 186 237 307 368 446
#     4  12  23  41  70 106 148 184 236 312 377 436
#     4  11  28  52  73 106 147 195 256 300 350 442
#     4  11  28  46  74 106 147 194 246 307 362 435
#     4  11  25  50  71 105 143 199 251 297 362 437
#     4  11  23  43  71 105 141 188 241 301 373 448
#     4  10  23  44  78  99 143 194 237 297 381 429
#     4  11  23  43  69 106 140 190 238 299 385 443
#
# _framework density 22.864211999999998
#
# number of rings (size 3 to 8) (size 9 to 14) (size 15 to 20)
#    0.000    1.000    2.500    3.000   14.000    0.000 
#    6.750    0.000    0.000    0.000    0.000    0.000 
#    0.000    0.000    0.000    0.000    0.000    0.000 
#
# Total GULP energy -198305.329306 kJ/mol
# GULP energy per Si atom -12394.083082 kJ/mol
# Density = 2.281217 g / cm^3
# Si number density = 22.864212 Si / 1000 Ang^3
#
#
#
# Elastic Constant Matrix: (Units=GPa)
#
#
# Indices 1 2 3 4 5 6 
#
# 1 116.2089 30.9123 52.8890 0.0000 14.0746 0.0000
# 2 30.9123 65.8850 57.9735 0.0000 -2.5986 0.0000
# 3 52.8890 57.9735 149.6865 0.0000 34.9066 0.0000
# 4 0.0000 0.0000 0.0000 26.2287 0.0000 -9.7704
# 5 14.0746 -2.5986 34.9066 0.0000 26.1904 0.0000
# 6 0.0000 0.0000 0.0000 -9.7704 0.0000 38.1860
#
#
#
# Elastic Compliance Matrix: (Units=1/GPa)
#
#
# Indices 1 2 3 4 5 6 
#
# 1 0.010821 -0.004465 -0.000921 0.000000 -0.005031 0.000000
# 2 -0.004465 0.036279 -0.020128 0.000000 0.032825 0.000000
# 3 -0.000921 -0.020128 0.021985 0.000000 -0.030804 0.000000
# 4 0.000000 0.000000 0.000000 0.042143 0.000000 0.010783
# 5 -0.005031 0.032825 -0.030804 0.000000 0.085198 0.000000
# 6 0.000000 0.000000 0.000000 0.010783 0.000000 0.028946
#
#
# Mechanical properties :
#
#
# Convention : Reuss Voigt Hill
#
# Bulk Modulus (GPa) = 55.38091 68.37000 61.87545
# Shear Modulus (GPa) = 17.70422 30.78807 24.24615
#
# Velocity S-wave (km/s) = 2.78568 3.67353 3.25997
# Velocity P-wave (km/s) = 5.88395 6.92536 6.42579
#
# Compressibility (1/GPa) = 0.01805676
#
# Stress axis : x y z
#
# Youngs Moduli (GPa) = 92.40889 27.56450 45.48604
#
# Poissons Ratio (x) = 0.12309 0.04189
# Poissons Ratio (y) = 0.41265 0.91553
# Poissons Ratio (z) = 0.08509 0.55481
#
# Static dielectric constant tensor:
#      x y z
#    x 4.237700 0.000000 0.191500 
#    y 0.000000 4.148110 0.000000 
#    z 0.191500 0.000000 4.468990 
# 
# 
# High freq. dielectric constant tensor:
#      x y z
#    x 1.908640 0.000000 0.005360 
#    y 0.000000 1.876840 0.000000 
#    z 0.005360 0.000000 1.924980 
# 
# From -- ./inp_files/13352.got.cif
#   From: 2010.06.25/outbox.cif.g09.slc.cpg/sg9_7_cif.got.tgz:13352.got - 2010.06.27 21:40:51.
