data_PCOD8055084
_publ_section_title
;
Structure prediction by ZEFSAII (Michael W. Deem and Ramdas Pophale) SiO2 
 PCOD8055084
Probable space group: C C
;
_chemical_formula_sum "Si O2"
_cell_formula_units_Z 32
_cell_length_a 22.762436
_cell_length_b 7.176617
_cell_length_c 18.511817
_cell_angle_alpha 90.000000
_cell_angle_beta 22.779277
_cell_angle_gamma 90.000000
_cell_volume 1170.854336
_symmetry_space_group_name_H-M "C C"
_symmetry_group_IT_number 9
_symmetry_cell_setting 'monoclinic'
loop_
_space_group_symop_operation_xyz
x,y,z
x,-y,1/2+z
1/2+x,1/2+y,z
1/2+x,1/2-y,1/2+z
loop_
_atom_site_type_symbol
_atom_site_label
_atom_site_fract_x
_atom_site_fract_y
_atom_site_fract_z
Si Si1 0.475700 0.281859 0.798270
Si Si2 0.509666 0.754015 0.424832
Si Si3 0.296980 0.946980 0.932364
Si Si4 0.640951 0.476292 0.370795
Si Si5 0.233278 0.537757 0.492136
Si Si6 0.385316 0.696767 0.710959
Si Si7 0.999772 0.763867 0.300742
Si Si8 0.968969 0.342399 0.992358
O O1 0.449054 0.284631 0.913971
O O2 0.388237 0.463494 0.865110
O O3 0.652175 0.244000 0.574747
O O4 0.369363 0.130910 0.879842
O O5 0.642798 0.605641 0.295116
O O6 0.368936 0.724847 0.642602
O O7 0.567163 0.968441 0.367566
O O8 0.358280 0.894286 0.782430
O O9 0.353174 0.765409 0.915394
O O10 0.110017 0.942849 0.154025
O O11 0.555364 0.602858 0.529541
O O12 0.806193 0.411269 0.206289
O O13 0.543033 0.288590 0.468266
O O14 0.263902 0.453225 0.378203
O O15 0.100162 0.422990 0.681243
O O16 0.946264 0.776640 0.444343
#
# Coordination Sequence:
#
# PCOD8055084 Si02
#       8
#     4   4   4   4   4   4   4   4
#     4  11  24  41  73 107 139 191 256 308 370 450
#     4  10  25  47  68 109 149 199 245 317 376 446
#     4  10  21  43  71 100 141 190 246 299 379 447
#     4  10  28  43  72 107 148 199 247 305 385 443
#     4  10  23  43  69 102 141 186 243 307 371 447
#     4   9  24  49  65 106 147 199 241 310 382 451
#     4  10  22  40  67 102 138 178 246 301 371 432
#     4  12  23  46  73 107 147 194 250 311 376 448
#
# _framework density 27.330468
#
# number of rings (size 3 to 8) (size 9 to 14) (size 15 to 20)
#    0.750    1.000    2.500    0.750    1.750   11.000 
#    0.000    0.000    0.000    0.000    0.000    0.000 
#    0.000    0.000    0.000    0.000    0.000    0.000 
#
# Total GULP energy -198230.728445 kJ/mol
# GULP energy per Si atom -12389.420528 kJ/mol
# Density = 2.726826 g / cm^3
# Si number density = 27.330468 Si / 1000 Ang^3
#
#
#
# Elastic Constant Matrix: (Units=GPa)
#
#
# Indices 1 2 3 4 5 6 
#
# 1 100.4103 24.8588 37.8041 -0.0011 4.3883 0.0000
# 2 24.8588 97.6069 9.4772 -0.0065 -1.0462 0.0000
# 3 37.8041 9.4772 116.3691 -0.0037 0.4932 0.0000
# 4 -0.0011 -0.0065 -0.0037 39.8426 0.0006 4.9766
# 5 4.3883 -1.0462 0.4932 0.0006 58.6386 0.0003
# 6 0.0000 0.0000 0.0000 4.9766 0.0003 31.4052
#
#
#
# Elastic Compliance Matrix: (Units=1/GPa)
#
#
# Indices 1 2 3 4 5 6 
#
# 1 0.012064 -0.002724 -0.003694 0.000000 -0.000920 0.000000
# 2 -0.002724 0.010944 -0.000008 0.000002 0.000399 0.000000
# 3 -0.003694 -0.000008 0.009793 0.000001 0.000194 0.000000
# 4 0.000000 0.000002 0.000001 0.025606 0.000000 -0.004058
# 5 -0.000920 0.000399 0.000194 0.000000 0.017128 0.000000
# 6 0.000000 0.000000 0.000000 -0.004058 0.000000 0.032485
#
#
# Mechanical properties :
#
#
# Convention : Reuss Voigt Hill
#
# Bulk Modulus (GPa) = 50.12421 50.96295 50.54358
# Shear Modulus (GPa) = 39.20929 42.12701 40.66815
#
# Velocity S-wave (km/s) = 3.79177 3.93032 3.86166
# Velocity P-wave (km/s) = 6.12780 6.26769 6.19814
#
# Compressibility (1/GPa) = 0.01995044
#
# Stress axis : x y z
#
# Youngs Moduli (GPa) = 82.88923 91.37464 102.11297
#
# Poissons Ratio (x) = 0.24889 0.37716
# Poissons Ratio (y) = 0.22577 0.00083
# Poissons Ratio (z) = 0.30615 0.00074
#
# Static dielectric constant tensor:
#      x y z
#    x 4.729160 0.000000 -0.276270 
#    y 0.000000 5.767510 0.000010 
#    z -0.276270 0.000010 4.998640 
# 
# 
# High freq. dielectric constant tensor:
#      x y z
#    x 2.079770 0.000000 -0.015380 
#    y 0.000000 2.149220 0.000000 
#    z -0.015380 0.000000 2.095540 
# 
# From -- ./inp_files/34597.got.cif
#   From: 2010.06.25/outbox.cif.g09.slc.cpg/sg9_18_cif.got.tgz:34597.got - 2010.06.27 21:40:51.
