data_PCOD8055554
_publ_section_title
;
Structure prediction by ZEFSAII (Michael W. Deem and Ramdas Pophale) SiO2 
 PCOD8055554
Probable space group: C C
;
_chemical_formula_sum "Si O2"
_cell_formula_units_Z 28
_cell_length_a 16.156642
_cell_length_b 17.989846
_cell_length_c 9.508675
_cell_angle_alpha 90.000000
_cell_angle_beta 152.742779
_cell_angle_gamma 90.000000
_cell_volume 1265.758087
_symmetry_space_group_name_H-M "C C"
_symmetry_group_IT_number 9
_symmetry_cell_setting 'monoclinic'
loop_
_space_group_symop_operation_xyz
x,y,z
x,-y,1/2+z
1/2+x,1/2+y,z
1/2+x,1/2-y,1/2+z
loop_
_atom_site_type_symbol
_atom_site_label
_atom_site_fract_x
_atom_site_fract_y
_atom_site_fract_z
Si Si1 0.431620 0.730169 0.402370
Si Si2 0.650843 0.591868 0.623139
Si Si3 0.611791 0.478508 0.343603
Si Si4 0.212351 0.550255 0.319127
Si Si5 0.987323 0.403453 0.983951
Si Si6 0.537742 0.152594 0.260920
Si Si7 0.057358 0.661529 0.881614
O O1 0.515663 0.655317 0.468191
O O2 0.550464 0.764041 0.713292
O O3 0.410292 0.791715 0.247168
O O4 0.233741 0.713149 0.159262
O O5 0.607886 0.561693 0.401761
O O6 0.629222 0.522449 0.700408
O O7 0.851790 0.620320 0.921434
O O8 0.784758 0.434352 0.665792
O O9 0.422918 0.441448 0.101743
O O10 0.191454 0.598840 0.429663
O O11 0.094200 0.582578 0.011736
O O12 0.140118 0.466790 0.233307
O O13 0.042758 0.350379 0.936970
O O14 0.990341 0.350338 0.123030
#
# Coordination Sequence:
#
# PCOD8055554 Si02
#       7
#     4   4   4   4   4   4   4
#     4  11  22  45  65  90 130 181 211 259 328 401
#     4  11  22  43  64  97 128 168 214 269 324 390
#     4  11  25  40  70  96 133 168 219 274 333 383
#     4  11  22  42  68  97 132 173 213 274 332 391
#     4  11  24  44  64 104 130 166 224 281 315 391
#     4  10  23  41  67  92 131 175 216 262 328 386
#     4  11  24  43  68  92 132 173 223 263 330 388
#
# _framework density 22.121129
#
# number of rings (size 3 to 8) (size 9 to 14) (size 15 to 20)
#    0.000    1.143    4.286    1.714    4.000    0.000 
#    5.143    0.000    0.000    0.000    0.000    0.000 
#    0.000    0.000    0.000    0.000    0.000    0.000 
#
# Total GULP energy -173563.568569 kJ/mol
# GULP energy per Si atom -12397.397755 kJ/mol
# Density = 2.207078 g / cm^3
# Si number density = 22.121129 Si / 1000 Ang^3
#
#
#
# Elastic Constant Matrix: (Units=GPa)
#
#
# Indices 1 2 3 4 5 6 
#
# 1 92.9727 26.4206 11.4386 0.0000 -21.5354 0.0000
# 2 26.4206 82.5550 3.6303 0.0000 -23.0860 0.0000
# 3 11.4386 3.6303 40.1837 0.0000 -2.6909 0.0000
# 4 0.0000 0.0000 0.0000 16.5230 0.0000 4.4493
# 5 -21.5354 -23.0860 -2.6909 0.0000 45.5342 0.0000
# 6 0.0000 0.0000 0.0000 4.4493 0.0000 43.4850
#
#
#
# Elastic Compliance Matrix: (Units=1/GPa)
#
#
# Indices 1 2 3 4 5 6 
#
# 1 0.012978 -0.002739 -0.003141 0.000000 0.004563 0.000000
# 2 -0.002739 0.014718 -0.000138 0.000000 0.006159 0.000000
# 3 -0.003141 -0.000138 0.025790 0.000000 -0.000031 0.000000
# 4 0.000000 0.000000 0.000000 0.062236 0.000000 -0.006368
# 5 0.004563 0.006159 -0.000031 0.000000 0.027240 0.000000
# 6 0.000000 0.000000 0.000000 -0.006368 0.000000 0.023648
#
#
# Mechanical properties :
#
#
# Convention : Reuss Voigt Hill
#
# Bulk Modulus (GPa) = 24.12527 33.18783 28.65655
# Shear Modulus (GPa) = 25.97903 32.72324 29.35113
#
# Velocity S-wave (km/s) = 3.43067 3.85031 3.64653
# Velocity P-wave (km/s) = 5.15968 5.89931 5.54185
#
# Compressibility (1/GPa) = 0.04145031
#
# Stress axis : x y z
#
# Youngs Moduli (GPa) = 77.05515 67.94407 38.77438
#
# Poissons Ratio (x) = 0.18610 0.12180
# Poissons Ratio (y) = 0.21106 0.00533
# Poissons Ratio (z) = 0.24204 0.00935
#
# Static dielectric constant tensor:
#      x y z
#    x 4.394640 0.000000 0.135710 
#    y 0.000000 4.060660 0.000000 
#    z 0.135710 0.000000 3.789360 
# 
# 
# High freq. dielectric constant tensor:
#      x y z
#    x 1.899560 0.000000 0.013130 
#    y 0.000000 1.859860 0.000000 
#    z 0.013130 0.000000 1.843940 
# 
# From -- ./inp_files/5540.got.cif
#   From: 2010.06.25/outbox.cif.g09.slc.cpg/sg9_3_cif.got.tgz:5540.got - 2010.06.27 21:40:51.
