data_PCOD8055910
_publ_section_title
;
Structure prediction by ZEFSAII (Michael W. Deem and Ramdas Pophale) SiO2 
 PCOD8055910
Probable space group: C C
;
_chemical_formula_sum "Si O2"
_cell_formula_units_Z 28
_cell_length_a 14.887202
_cell_length_b 16.843447
_cell_length_c 6.402031
_cell_angle_alpha 90.000000
_cell_angle_beta 140.720353
_cell_angle_gamma 90.000000
_cell_volume 1016.338130
_symmetry_space_group_name_H-M "C C"
_symmetry_group_IT_number 9
_symmetry_cell_setting 'monoclinic'
loop_
_space_group_symop_operation_xyz
x,y,z
x,-y,1/2+z
1/2+x,1/2+y,z
1/2+x,1/2-y,1/2+z
loop_
_atom_site_type_symbol
_atom_site_label
_atom_site_fract_x
_atom_site_fract_y
_atom_site_fract_z
Si Si1 0.532460 0.440156 0.182090
Si Si2 0.008301 0.470663 0.498966
Si Si3 0.752950 0.131402 0.302277
Si Si4 0.937782 0.257536 0.828204
Si Si5 0.827637 0.396186 0.894990
Si Si6 0.158933 0.619983 0.653936
Si Si7 0.980080 0.887043 0.638879
O O1 0.669335 0.418296 0.559233
O O2 0.533515 0.532730 0.122006
O O3 0.393182 0.424071 0.070197
O O4 0.530105 0.387372 0.968535
O O5 0.138333 0.405167 0.765592
O O6 0.083695 0.534061 0.463644
O O7 0.946450 0.537982 0.540723
O O8 0.868444 0.412623 0.209742
O O9 0.810780 0.220368 0.458128
O O10 0.683455 0.127711 0.949062
O O11 0.864212 0.309744 0.876794
O O12 0.037856 0.189578 0.118107
O O13 0.047519 0.310129 0.890072
O O14 0.310114 0.626814 0.810845
#
# Coordination Sequence:
#
# PCOD8055910 Si02
#       7
#     4   4   4   4   4   4   4
#     4  11  24  44  72 106 136 190 243 291 351 425
#     4  11  21  45  70  99 136 191 241 280 349 441
#     4  11  23  44  76  99 141 191 244 286 353 438
#     4  11  26  42  69 106 148 177 235 299 368 409
#     4  11  26  44  69 105 145 179 237 301 361 414
#     4  10  24  46  69 105 136 190 236 292 348 429
#     4  11  24  43  73 100 142 184 236 291 348 432
#
# _framework density 27.549889
#
# number of rings (size 3 to 8) (size 9 to 14) (size 15 to 20)
#    0.000    1.143    4.286    1.714    8.000    0.000 
#    0.000    2.857    0.000    0.000    0.000    0.000 
#    0.000    0.000    0.000    0.000    0.000    0.000 
#
# Total GULP energy -173442.343243 kJ/mol
# GULP energy per Si atom -12388.738803 kJ/mol
# Density = 2.748718 g / cm^3
# Si number density = 27.549889 Si / 1000 Ang^3
#
#
#
# Elastic Constant Matrix: (Units=GPa)
#
#
# Indices 1 2 3 4 5 6 
#
# 1 61.0039 20.0666 9.5558 0.0000 12.8905 0.0000
# 2 20.0666 177.9663 69.1961 0.0000 4.3184 0.0000
# 3 9.5558 69.1961 180.7383 0.0000 14.4767 0.0000
# 4 0.0000 0.0000 0.0000 60.8785 0.0000 0.6719
# 5 12.8905 4.3184 14.4767 0.0000 28.8810 0.0000
# 6 0.0000 0.0000 0.0000 0.6719 0.0000 38.4372
#
#
#
# Elastic Compliance Matrix: (Units=1/GPa)
#
#
# Indices 1 2 3 4 5 6 
#
# 1 0.018762 -0.002099 0.000477 0.000000 -0.008299 0.000000
# 2 -0.002099 0.006839 -0.002605 0.000000 0.001220 0.000000
# 3 0.000477 -0.002605 0.006762 0.000000 -0.003213 0.000000
# 4 0.000000 0.000000 0.000000 0.016429 0.000000 -0.000287
# 5 -0.008299 0.001220 -0.003213 0.000000 0.039757 0.000000
# 6 0.000000 0.000000 0.000000 -0.000287 0.000000 0.026021
#
#
# Mechanical properties :
#
#
# Convention : Reuss Voigt Hill
#
# Bulk Modulus (GPa) = 41.82796 68.59393 55.21094
# Shear Modulus (GPa) = 38.16905 47.03202 42.60054
#
# Velocity S-wave (km/s) = 3.72620 4.13626 3.93657
# Velocity P-wave (km/s) = 5.80761 6.91113 6.38326
#
# Compressibility (1/GPa) = 0.02390746
#
# Stress axis : x y z
#
# Youngs Moduli (GPa) = 53.29935 146.21908 147.87707
#
# Poissons Ratio (x) = 0.30697 -0.07047
# Poissons Ratio (y) = 0.11190 0.38523
# Poissons Ratio (z) = -0.02540 0.38091
#
# Static dielectric constant tensor:
#      x y z
#    x 5.285470 0.000000 -0.116670 
#    y 0.000000 5.299160 0.000000 
#    z -0.116670 0.000000 5.140980 
# 
# 
# High freq. dielectric constant tensor:
#      x y z
#    x 2.124180 0.000000 -0.014240 
#    y 0.000000 2.111720 0.000000 
#    z -0.014240 0.000000 2.142350 
# 
# From -- ./inp_files/11786.got.cif
#   From: 2010.06.25/outbox.cif.g09.slc.cpg/sg9_6_cif.got.tgz:11786.got - 2010.06.27 21:40:51.
