data_PCOD8055102
_publ_section_title
;
Structure prediction by ZEFSAII (Michael W. Deem and Ramdas Pophale) SiO2 
 PCOD8055102
Probable space group: C C
;
_chemical_formula_sum "Si O2"
_cell_formula_units_Z 28
_cell_length_a 9.640938
_cell_length_b 10.431752
_cell_length_c 14.088445
_cell_angle_alpha 90.000000
_cell_angle_beta 65.156472
_cell_angle_gamma 90.000000
_cell_volume 1285.779225
_symmetry_space_group_name_H-M "C C"
_symmetry_group_IT_number 9
_symmetry_cell_setting 'monoclinic'
loop_
_space_group_symop_operation_xyz
x,y,z
x,-y,1/2+z
1/2+x,1/2+y,z
1/2+x,1/2-y,1/2+z
loop_
_atom_site_type_symbol
_atom_site_label
_atom_site_fract_x
_atom_site_fract_y
_atom_site_fract_z
Si Si1 0.502160 0.649961 0.512450
Si Si2 0.673747 0.906621 0.083311
Si Si3 0.014132 0.151339 0.723243
Si Si4 0.676862 0.552571 0.847111
Si Si5 0.010268 0.560720 0.279980
Si Si6 0.027194 0.703784 0.456630
Si Si7 0.756958 0.848042 0.441402
O O1 0.322252 0.683501 0.553135
O O2 0.526420 0.600705 0.613177
O O3 0.544016 0.535121 0.429947
O O4 0.600518 0.775255 0.460240
O O5 0.614952 0.950970 0.203187
O O6 0.539380 0.834195 0.063807
O O7 0.719948 0.024058 0.005327
O O8 0.849125 0.123319 0.818157
O O9 0.143599 0.073409 0.744659
O O10 0.038186 0.305472 0.716923
O O11 0.661598 0.692851 0.898885
O O12 0.836275 0.484609 0.819560
O O13 0.052415 0.580791 0.378933
O O14 0.859842 0.759003 0.481563
#
# Coordination Sequence:
#
# PCOD8055102 Si02
#       7
#     4   4   4   4   4   4   4
#     4  12  22  42  70  96 130 174 218 268 327 384
#     4  12  25  40  65 100 126 171 219 267 326 389
#     4  10  22  41  67  95 129 174 215 268 322 385
#     4  10  21  44  67  95 131 172 219 266 331 387
#     4  10  22  41  67  93 130 174 215 264 331 385
#     4  10  24  43  66  91 131 171 209 272 322 385
#     4  10  22  45  64  88 137 166 211 269 329 379
#
# _framework density 21.776679000000001
#
# number of rings (size 3 to 8) (size 9 to 14) (size 15 to 20)
#    0.000    1.714    7.143    0.000    4.000    1.143 
#    2.571    0.000    0.000    0.000    0.000    0.000 
#    0.000    0.000    0.000    0.000    0.000    0.000 
#
# Total GULP energy -173537.431007 kJ/mol
# GULP energy per Si atom -12395.530786 kJ/mol
# Density = 2.172711 g / cm^3
# Si number density = 21.776679 Si / 1000 Ang^3
#
#
#
# Elastic Constant Matrix: (Units=GPa)
#
#
# Indices 1 2 3 4 5 6 
#
# 1 95.1090 27.0952 11.5469 0.0000 -2.7113 0.0000
# 2 27.0952 42.0662 -0.4094 0.0000 0.6076 0.0000
# 3 11.5469 -0.4094 24.4840 0.0000 2.1466 0.0000
# 4 0.0000 0.0000 0.0000 29.2685 0.0000 -2.4062
# 5 -2.7113 0.6076 2.1466 0.0000 37.7949 0.0000
# 6 0.0000 0.0000 0.0000 -2.4062 0.0000 34.7738
#
#
#
# Elastic Compliance Matrix: (Units=1/GPa)
#
#
# Indices 1 2 3 4 5 6 
#
# 1 0.013986 -0.009097 -0.006883 0.000000 0.001540 0.000000
# 2 -0.009097 0.029700 0.004911 0.000000 -0.001409 0.000000
# 3 -0.006883 0.004911 0.044443 0.000000 -0.003097 0.000000
# 4 0.000000 0.000000 0.000000 0.034362 0.000000 0.002378
# 5 0.001540 -0.001409 -0.003097 0.000000 0.026768 0.000000
# 6 0.000000 0.000000 0.000000 0.002378 0.000000 0.028922
#
#
# Mechanical properties :
#
#
# Convention : Reuss Voigt Hill
#
# Bulk Modulus (GPa) = 15.15413 26.45829 20.80621
# Shear Modulus (GPa) = 22.49058 28.59586 25.54322
#
# Velocity S-wave (km/s) = 3.21718 3.62766 3.42857
# Velocity P-wave (km/s) = 4.55789 5.45186 5.02479
#
# Compressibility (1/GPa) = 0.06598863
#
# Stress axis : x y z
#
# Youngs Moduli (GPa) = 71.50243 33.67010 22.50089
#
# Poissons Ratio (x) = 0.30631 0.15487
# Poissons Ratio (y) = 0.65049 -0.11049
# Poissons Ratio (z) = 0.49214 -0.16534
#
# Static dielectric constant tensor:
#      x y z
#    x 4.128000 0.000000 -0.015760 
#    y 0.000000 3.850460 0.000000 
#    z -0.015760 0.000000 4.025310 
# 
# 
# High freq. dielectric constant tensor:
#      x y z
#    x 1.854610 0.000000 -0.001440 
#    y 0.000000 1.842010 0.000000 
#    z -0.001440 0.000000 1.854880 
# 
# From -- ./inp_files/22588.got.cif
#   From: 2010.06.25/outbox.cif.g09.slc.cpg/sg9_12_cif.got.tgz:22588.got - 2010.06.27 21:40:51.
