data_PCOD8055900
_publ_section_title
;
Structure prediction by ZEFSAII (Michael W. Deem and Ramdas Pophale) SiO2 
 PCOD8055900
Probable space group: C C
;
_chemical_formula_sum "Si O2"
_cell_formula_units_Z 24
_cell_length_a 21.755120
_cell_length_b 8.911794
_cell_length_c 9.943264
_cell_angle_alpha 90.000000
_cell_angle_beta 30.170595
_cell_angle_gamma 90.000000
_cell_volume 968.852394
_symmetry_space_group_name_H-M "C C"
_symmetry_group_IT_number 9
_symmetry_cell_setting 'monoclinic'
loop_
_space_group_symop_operation_xyz
x,y,z
x,-y,1/2+z
1/2+x,1/2+y,z
1/2+x,1/2-y,1/2+z
loop_
_atom_site_type_symbol
_atom_site_label
_atom_site_fract_x
_atom_site_fract_y
_atom_site_fract_z
Si Si1 0.887850 0.655154 0.790000
Si Si2 0.341090 0.468320 0.823347
Si Si3 0.541501 0.588941 0.607312
Si Si4 0.678692 0.457702 0.107088
Si Si5 0.567521 0.888967 0.418035
Si Si6 0.362446 0.750384 0.637533
O O1 0.002502 0.543485 0.586369
O O2 0.919995 0.813218 0.656466
O O3 0.780547 0.588146 0.900477
O O4 0.836496 0.694103 0.036115
O O5 0.399185 0.562069 0.838839
O O6 0.355883 0.569166 0.660861
O O7 0.201756 0.428300 0.115548
O O8 0.619216 0.476831 0.364689
O O9 0.572077 0.530061 0.697819
O O10 0.572859 0.766481 0.529020
O O11 0.754614 0.304660 0.942525
O O12 0.495061 0.810763 0.432458
#
# Coordination Sequence:
#
# PCOD8055900 Si02
#       6
#     4   4   4   4   4   4
#     4  11  24  48  75 107 149 202 247 318 372 448
#     4  11  25  44  71 109 143 194 251 309 368 449
#     4  11  25  46  74 109 153 195 255 308 376 450
#     4  11  22  49  74 105 154 198 244 316 370 446
#     4  10  24  48  71 107 148 198 246 307 383 454
#     4  10  24  45  71 107 151 191 251 312 377 447
#
# _framework density 24.771574999999999
#
# number of rings (size 3 to 8) (size 9 to 14) (size 15 to 20)
#    0.000    1.333    3.333    0.000    7.000    2.667 
#    6.000    0.000    0.000    0.000    0.000    0.000 
#    0.000    0.000    0.000    0.000    0.000    0.000 
#
# Total GULP energy -148728.161707 kJ/mol
# GULP energy per Si atom -12394.013476 kJ/mol
# Density = 2.471519 g / cm^3
# Si number density = 24.771575 Si / 1000 Ang^3
#
#
#
# Elastic Constant Matrix: (Units=GPa)
#
#
# Indices 1 2 3 4 5 6 
#
# 1 97.9570 35.2697 16.0958 0.0000 -12.6603 0.0000
# 2 35.2697 181.7857 48.9360 0.0000 1.6693 0.0000
# 3 16.0958 48.9360 97.4888 0.0000 -23.7330 0.0000
# 4 0.0000 0.0000 0.0000 37.2111 0.0000 2.2851
# 5 -12.6603 1.6693 -23.7330 0.0000 36.2354 0.0000
# 6 0.0000 0.0000 0.0000 2.2851 0.0000 32.0072
#
#
#
# Elastic Compliance Matrix: (Units=1/GPa)
#
#
# Indices 1 2 3 4 5 6 
#
# 1 0.011575 -0.002380 0.000351 0.000000 0.004384 0.000000
# 2 -0.002380 0.007105 -0.004111 0.000000 -0.003852 0.000000
# 3 0.000351 -0.004111 0.014680 0.000000 0.009927 0.000000
# 4 0.000000 0.000000 0.000000 0.026992 0.000000 -0.001927
# 5 0.004384 -0.003852 0.009927 0.000000 0.035808 0.000000
# 6 0.000000 0.000000 0.000000 -0.001927 0.000000 0.031381
#
#
# Mechanical properties :
#
#
# Convention : Reuss Voigt Hill
#
# Bulk Modulus (GPa) = 47.44183 64.20383 55.82283
# Shear Modulus (GPa) = 34.04905 39.55273 36.80089
#
# Velocity S-wave (km/s) = 3.71148 4.00021 3.85854
# Velocity P-wave (km/s) = 6.12862 6.87824 6.51422
#
# Compressibility (1/GPa) = 0.02107845
#
# Stress axis : x y z
#
# Youngs Moduli (GPa) = 86.39678 140.74848 68.12051
#
# Poissons Ratio (x) = 0.33504 -0.02391
# Poissons Ratio (y) = 0.20566 0.28005
# Poissons Ratio (z) = -0.03033 0.57862
#
# Static dielectric constant tensor:
#      x y z
#    x 4.455090 0.000000 -0.395240 
#    y 0.000000 4.961640 0.000000 
#    z -0.395240 0.000000 4.369630 
# 
# 
# High freq. dielectric constant tensor:
#      x y z
#    x 1.977830 0.000000 -0.029830 
#    y 0.000000 1.999140 0.000000 
#    z -0.029830 0.000000 1.985300 
# 
# From -- ./inp_files/11282.got.cif
#   From: 2010.06.25/outbox.cif.g09.slc.cpg/sg9_6_cif.got.tgz:11282.got - 2010.06.27 21:40:51.
