data_PCOD8055467
_publ_section_title
;
Structure prediction by ZEFSAII (Michael W. Deem and Ramdas Pophale) SiO2 
 PCOD8055467
Probable space group: C C
;
_chemical_formula_sum "Si O2"
_cell_formula_units_Z 32
_cell_length_a 27.537739
_cell_length_b 11.678960
_cell_length_c 14.607197
_cell_angle_alpha 90.000000
_cell_angle_beta 162.139754
_cell_angle_gamma 90.000000
_cell_volume 1440.813806
_symmetry_space_group_name_H-M "C C"
_symmetry_group_IT_number 9
_symmetry_cell_setting 'monoclinic'
loop_
_space_group_symop_operation_xyz
x,y,z
x,-y,1/2+z
1/2+x,1/2+y,z
1/2+x,1/2-y,1/2+z
loop_
_atom_site_type_symbol
_atom_site_label
_atom_site_fract_x
_atom_site_fract_y
_atom_site_fract_z
Si Si1 0.487110 0.788734 0.145160
Si Si2 0.701652 0.748412 0.777547
Si Si3 0.660537 0.993670 0.184630
Si Si4 0.503130 0.847514 0.748081
Si Si5 0.647405 0.000942 0.363170
Si Si6 0.401146 0.676420 0.801199
Si Si7 0.509772 0.399654 0.824656
Si Si8 0.156635 0.860321 0.610166
O O1 0.626449 0.881977 0.380030
O O2 0.559344 0.682093 0.329026
O O3 0.419806 0.745416 0.927477
O O4 0.346678 0.846840 0.954301
O O5 0.542220 0.671906 0.478224
O O6 0.682730 0.873641 0.699038
O O7 0.771414 0.756993 0.005143
O O8 0.818062 0.675673 0.921302
O O9 0.579725 0.984346 0.139409
O O10 0.825906 0.927258 0.486984
O O11 0.550528 0.935755 0.913089
O O12 0.542239 0.899563 0.719943
O O13 0.595024 0.728166 0.923799
O O14 0.830131 0.047535 0.690591
O O15 0.569871 0.666515 0.051821
O O16 0.614560 0.512723 0.003198
#
# Coordination Sequence:
#
# PCOD8055467 Si02
#       8
#     4   4   4   4   4   4   4   4
#     4  12  25  41  72 100 134 181 230 278 337 409
#     4  10  23  41  67  98 132 173 221 277 336 393
#     4  11  22  43  68  94 132 178 220 275 342 405
#     4  11  20  42  68  91 139 178 214 283 339 394
#     4  11  21  40  69  95 127 173 226 271 332 406
#     4  10  22  45  68  97 136 186 216 275 350 401
#     4  12  23  42  67 102 131 176 228 279 332 398
#     4  11  22  42  69  97 139 177 225 274 342 402
#
# _framework density 22.209672000000001
#
# number of rings (size 3 to 8) (size 9 to 14) (size 15 to 20)
#    0.000    1.000    6.250    3.000    0.000    0.000 
#    2.250    7.500    2.750    0.000    0.000    0.000 
#    0.000    0.000    0.000    0.000    0.000    0.000 
#
# Total GULP energy -198324.945113 kJ/mol
# GULP energy per Si atom -12395.309070 kJ/mol
# Density = 2.215912 g / cm^3
# Si number density = 22.209672 Si / 1000 Ang^3
#
#
#
# Elastic Constant Matrix: (Units=GPa)
#
#
# Indices 1 2 3 4 5 6 
#
# 1 107.9455 59.0018 18.1076 0.0000 8.2845 0.0000
# 2 59.0018 144.1602 37.7700 0.0000 -9.2082 0.0000
# 3 18.1076 37.7700 38.4709 0.0000 4.2600 0.0000
# 4 0.0000 0.0000 0.0000 32.6957 0.0000 6.4181
# 5 8.2845 -9.2082 4.2600 0.0000 29.2485 0.0000
# 6 0.0000 0.0000 0.0000 6.4181 0.0000 32.7024
#
#
#
# Elastic Compliance Matrix: (Units=1/GPa)
#
#
# Indices 1 2 3 4 5 6 
#
# 1 0.012702 -0.005560 0.000074 0.000000 -0.005359 0.000000
# 2 -0.005560 0.012350 -0.010279 0.000000 0.006960 0.000000
# 3 0.000074 -0.010279 0.037008 0.000000 -0.008647 0.000000
# 4 0.000000 0.000000 0.000000 0.031811 0.000000 -0.006243
# 5 -0.005359 0.006960 -0.008647 0.000000 0.039158 0.000000
# 6 0.000000 0.000000 0.000000 -0.006243 0.000000 0.031804
#
#
# Mechanical properties :
#
#
# Convention : Reuss Voigt Hill
#
# Bulk Modulus (GPa) = 32.75508 57.81502 45.28505
# Shear Modulus (GPa) = 24.20847 30.64248 27.42547
#
# Velocity S-wave (km/s) = 3.30509 3.71845 3.51785
# Velocity P-wave (km/s) = 5.41710 6.67261 6.07737
#
# Compressibility (1/GPa) = 0.03052961
#
# Stress axis : x y z
#
# Youngs Moduli (GPa) = 78.72734 80.97154 27.02144
#
# Poissons Ratio (x) = 0.45023 -0.00200
# Poissons Ratio (y) = 0.43775 0.27774
# Poissons Ratio (z) = -0.00581 0.83227
#
# Static dielectric constant tensor:
#      x y z
#    x 4.103270 0.000000 0.132720 
#    y 0.000000 4.380330 0.000000 
#    z 0.132720 0.000000 3.932000 
# 
# 
# High freq. dielectric constant tensor:
#      x y z
#    x 1.865360 0.000000 0.000650 
#    y 0.000000 1.895680 0.000000 
#    z 0.000650 0.000000 1.857530 
# 
# From -- ./inp_files/22876.got.cif
#   From: 2010.06.25/outbox.cif.g09.slc.cpg/sg9_12_cif.got.tgz:22876.got - 2010.06.27 21:40:51.
