data_PCOD8055309
_publ_section_title
;
Structure prediction by ZEFSAII (Michael W. Deem and Ramdas Pophale) SiO2 
 PCOD8055309
Probable space group: C C
;
_chemical_formula_sum "Si O2"
_cell_formula_units_Z 32
_cell_length_a 24.665094
_cell_length_b 5.612046
_cell_length_c 18.453082
_cell_angle_alpha 90.000000
_cell_angle_beta 148.596736
_cell_angle_gamma 90.000000
_cell_volume 1330.942183
_symmetry_space_group_name_H-M "C C"
_symmetry_group_IT_number 9
_symmetry_cell_setting 'monoclinic'
loop_
_space_group_symop_operation_xyz
x,y,z
x,-y,1/2+z
1/2+x,1/2+y,z
1/2+x,1/2-y,1/2+z
loop_
_atom_site_type_symbol
_atom_site_label
_atom_site_fract_x
_atom_site_fract_y
_atom_site_fract_z
Si Si1 0.641900 0.521978 0.163100
Si Si2 0.423672 0.665512 0.441404
Si Si3 0.990114 0.800423 0.729942
Si Si4 0.364910 0.685997 0.633745
Si Si5 0.706109 0.840834 0.512369
Si Si6 0.199928 0.488326 0.657604
Si Si7 0.346362 0.010869 0.980741
Si Si8 0.397444 0.928853 0.267526
O O1 0.663634 0.269862 0.147482
O O2 0.733708 0.570145 0.325151
O O3 0.642503 0.771582 0.119568
O O4 0.527493 0.495422 0.068615
O O5 0.325304 0.492884 0.312208
O O6 0.442255 0.856877 0.396941
O O7 0.403353 0.806921 0.492033
O O8 0.925988 0.705666 0.587056
O O9 0.960197 0.699720 0.775221
O O10 0.967096 0.081184 0.710182
O O11 0.111735 0.757266 0.856444
O O12 0.276546 0.487886 0.537272
O O13 0.321744 0.889993 0.532630
O O14 0.399002 0.787114 0.752027
O O15 0.668172 0.999592 0.536885
O O16 0.774589 0.631302 0.625814
#
# Coordination Sequence:
#
# PCOD8055309 Si02
#       8
#     4   4   4   4   4   4   4   4
#     4  11  25  47  72 106 149 189 242 301 364 431
#     4  10  23  47  73 103 141 195 239 301 373 420
#     4  10  22  44  65 102 140 187 235 292 363 425
#     4  10  23  44  66  99 145 182 238 301 349 441
#     4  10  22  41  72  99 139 185 238 295 368 419
#     4  10  25  46  71 111 143 182 247 308 352 439
#     4  10  25  43  67 103 148 185 246 291 353 444
#     4   9  21  44  66 103 133 179 241 299 356 425
#
# _framework density 24.043116000000001
#
# number of rings (size 3 to 8) (size 9 to 14) (size 15 to 20)
#    0.000    2.000    0.000    0.750   10.500    4.000 
#   24.750    0.000    0.000    0.000    0.000    0.000 
#    0.000    0.000    0.000    0.000    0.000    0.000 
#
# Total GULP energy -198229.270328 kJ/mol
# GULP energy per Si atom -12389.329395 kJ/mol
# Density = 2.398839 g / cm^3
# Si number density = 24.043116 Si / 1000 Ang^3
#
#
#
# Elastic Constant Matrix: (Units=GPa)
#
#
# Indices 1 2 3 4 5 6 
#
# 1 60.6230 14.5297 16.9727 0.0000 -5.2373 0.0000
# 2 14.5297 110.8704 26.7207 -0.0003 6.0135 0.0002
# 3 16.9727 26.7207 140.7015 0.0000 11.2445 0.0000
# 4 0.0000 -0.0003 0.0000 16.4142 0.0000 -3.4001
# 5 -5.2373 6.0135 11.2445 0.0000 33.9669 -0.0001
# 6 0.0000 0.0002 0.0000 -3.4001 -0.0001 38.1416
#
#
#
# Elastic Compliance Matrix: (Units=1/GPa)
#
#
# Indices 1 2 3 4 5 6 
#
# 1 0.017897 -0.002052 -0.002074 0.000000 0.003809 0.000000
# 2 -0.002052 0.009728 -0.001476 0.000000 -0.001550 0.000000
# 3 -0.002074 -0.001476 0.007850 0.000000 -0.002657 0.000000
# 4 0.000000 0.000000 0.000000 0.062069 0.000000 0.005533
# 5 0.003809 -0.001550 -0.002657 0.000000 0.031182 0.000000
# 6 0.000000 0.000000 0.000000 0.005533 0.000000 0.026711
#
#
# Mechanical properties :
#
#
# Convention : Reuss Voigt Hill
#
# Bulk Modulus (GPa) = 41.20070 47.62681 44.41375
# Shear Modulus (GPa) = 28.61529 34.63599 31.62564
#
# Velocity S-wave (km/s) = 3.45362 3.79961 3.63074
# Velocity P-wave (km/s) = 5.75123 6.25311 6.00741
#
# Compressibility (1/GPa) = 0.02427144
#
# Stress axis : x y z
#
# Youngs Moduli (GPa) = 55.87562 102.79276 127.38784
#
# Poissons Ratio (x) = 0.21096 0.26415
# Poissons Ratio (y) = 0.11467 0.18803
# Poissons Ratio (z) = 0.11586 0.15173
#
# Static dielectric constant tensor:
#      x y z
#    x 4.294190 0.000000 0.105910 
#    y 0.000000 4.473340 0.000000 
#    z 0.105910 0.000000 4.484980 
# 
# 
# High freq. dielectric constant tensor:
#      x y z
#    x 1.950180 0.000000 0.004540 
#    y 0.000000 1.947210 0.000000 
#    z 0.004540 0.000000 1.955260 
# 
# From -- ./inp_files/34571.got.cif
#   From: 2010.06.25/outbox.cif.g09.slc.cpg/sg9_18_cif.got.tgz:34571.got - 2010.06.27 21:40:51.
