data_PCOD8055390
_publ_section_title
;
Structure prediction by ZEFSAII (Michael W. Deem and Ramdas Pophale) SiO2 
 PCOD8055390
Probable space group: C C
;
_chemical_formula_sum "Si O2"
_cell_formula_units_Z 28
_cell_length_a 6.642997
_cell_length_b 15.507015
_cell_length_c 13.210706
_cell_angle_alpha 90.000000
_cell_angle_beta 114.458789
_cell_angle_gamma 90.000000
_cell_volume 1238.749296
_symmetry_space_group_name_H-M "C C"
_symmetry_group_IT_number 9
_symmetry_cell_setting 'monoclinic'
loop_
_space_group_symop_operation_xyz
x,y,z
x,-y,1/2+z
1/2+x,1/2+y,z
1/2+x,1/2-y,1/2+z
loop_
_atom_site_type_symbol
_atom_site_label
_atom_site_fract_x
_atom_site_fract_y
_atom_site_fract_z
Si Si1 0.577960 0.526004 0.407630
Si Si2 0.827100 0.633713 0.310820
Si Si3 0.617572 0.837716 0.514828
Si Si4 0.448744 0.246668 0.711329
Si Si5 0.663334 0.079870 0.805106
Si Si6 0.889677 0.446865 0.630647
Si Si7 0.299858 0.303027 0.880581
O O1 0.763923 0.547046 0.361418
O O2 0.421773 0.445284 0.339182
O O3 0.701789 0.501169 0.536768
O O4 0.430446 0.607531 0.403688
O O5 0.652036 0.705045 0.308287
O O6 0.779799 0.624696 0.180104
O O7 0.067880 0.672585 0.384509
O O8 0.847194 0.788285 0.588651
O O9 0.637086 0.889241 0.414688
O O10 0.566378 0.908538 0.589398
O O11 0.423074 0.766875 0.476175
O O12 0.551619 0.152441 0.709108
O O13 0.264560 0.256858 0.762798
O O14 0.522859 0.995961 0.747912
#
# Coordination Sequence:
#
# PCOD8055390 Si02
#       7
#     4   4   4   4   4   4   4
#     4  11  24  42  67 100 140 183 229 298 357 413
#     4  11  22  45  67  94 141 180 235 285 351 433
#     4  11  23  44  73 100 143 190 234 292 356 424
#     4  10  22  43  68  97 136 185 232 288 350 421
#     4  11  24  44  70 103 141 179 238 294 348 424
#     4  12  23  42  68 102 134 184 229 291 357 411
#     4  10  22  44  65  94 139 181 231 288 345 432
#
# _framework density 22.603445000000001
#
# number of rings (size 3 to 8) (size 9 to 14) (size 15 to 20)
#    0.000    1.143    2.857    3.429    2.000    0.000 
#    5.143    0.000    0.000    0.000    0.000    0.000 
#    0.000    0.000    0.000    0.000    0.000    0.000 
#
# Total GULP energy -173477.339845 kJ/mol
# GULP energy per Si atom -12391.238560 kJ/mol
# Density = 2.255200 g / cm^3
# Si number density = 22.603445 Si / 1000 Ang^3
#
#
#
# Elastic Constant Matrix: (Units=GPa)
#
#
# Indices 1 2 3 4 5 6 
#
# 1 116.9075 50.7527 43.3877 0.0000 20.7932 0.0000
# 2 50.7527 103.0987 48.4899 0.0000 8.3784 0.0000
# 3 43.3877 48.4899 117.0736 0.0000 18.5631 0.0000
# 4 0.0000 0.0000 0.0000 47.2248 0.0000 9.0113
# 5 20.7932 8.3784 18.5631 0.0000 31.4848 0.0000
# 6 0.0000 0.0000 0.0000 9.0113 0.0000 37.4032
#
#
#
# Elastic Compliance Matrix: (Units=1/GPa)
#
#
# Indices 1 2 3 4 5 6 
#
# 1 0.012291 -0.004805 -0.001633 0.000000 -0.005876 0.000000
# 2 -0.004805 0.013927 -0.004306 0.000000 0.002006 0.000000
# 3 -0.001633 -0.004306 0.011668 0.000000 -0.004655 0.000000
# 4 0.000000 0.000000 0.000000 0.022196 0.000000 -0.005347
# 5 -0.005876 0.002006 -0.004655 0.000000 0.037853 0.000000
# 6 0.000000 0.000000 0.000000 -0.005347 0.000000 0.028024
#
#
# Mechanical properties :
#
#
# Convention : Reuss Voigt Hill
#
# Bulk Modulus (GPa) = 60.98090 69.14892 65.06491
# Shear Modulus (GPa) = 32.69862 36.18589 34.44225
#
# Velocity S-wave (km/s) = 3.80757 4.00547 3.90777
# Velocity P-wave (km/s) = 6.80935 7.21459 7.01490
#
# Compressibility (1/GPa) = 0.01639858
#
# Stress axis : x y z
#
# Youngs Moduli (GPa) = 81.36131 71.80435 85.70195
#
# Poissons Ratio (x) = 0.34500 0.13998
# Poissons Ratio (y) = 0.39092 0.36900
# Poissons Ratio (z) = 0.13289 0.30916
#
# Static dielectric constant tensor:
#      x y z
#    x 4.060550 0.000000 0.124950 
#    y 0.000000 4.298810 0.000000 
#    z 0.124950 0.000000 3.992940 
# 
# 
# High freq. dielectric constant tensor:
#      x y z
#    x 1.883420 0.000000 0.009750 
#    y 0.000000 1.898450 0.000000 
#    z 0.009750 0.000000 1.891900 
# 
# From -- ./inp_files/13107.got.cif
#   From: 2010.06.25/outbox.cif.g09.slc.cpg/sg9_7_cif.got.tgz:13107.got - 2010.06.27 21:40:51.
