data_PCOD8055915
_publ_section_title
;
Structure prediction by ZEFSAII (Michael W. Deem and Ramdas Pophale) SiO2 
 PCOD8055915
Probable space group: C C
;
_chemical_formula_sum "Si O2"
_cell_formula_units_Z 32
_cell_length_a 12.260206
_cell_length_b 8.139678
_cell_length_c 12.992109
_cell_angle_alpha 90.000000
_cell_angle_beta 85.789444
_cell_angle_gamma 90.000000
_cell_volume 1293.036808
_symmetry_space_group_name_H-M "C C"
_symmetry_group_IT_number 9
_symmetry_cell_setting 'monoclinic'
loop_
_space_group_symop_operation_xyz
x,y,z
x,-y,1/2+z
1/2+x,1/2+y,z
1/2+x,1/2-y,1/2+z
loop_
_atom_site_type_symbol
_atom_site_label
_atom_site_fract_x
_atom_site_fract_y
_atom_site_fract_z
Si Si1 0.602010 0.825011 0.140540
Si Si2 0.823857 0.332879 0.602501
Si Si3 0.063922 0.961052 0.779481
Si Si4 0.522901 0.900226 0.933794
Si Si5 0.875664 0.197582 0.808459
Si Si6 0.206731 0.570826 0.280646
Si Si7 0.225979 0.848302 0.137289
Si Si8 0.542707 0.736548 0.481654
O O1 0.711634 0.755763 0.078119
O O2 0.535191 0.698587 0.215001
O O3 0.625172 0.983912 0.206630
O O4 0.520615 0.871533 0.055080
O O5 0.833015 0.318733 0.724729
O O6 0.816833 0.530607 0.576888
O O7 0.922394 0.235115 0.541173
O O8 0.061119 0.915209 0.901429
O O9 0.177152 0.029063 0.727471
O O10 0.978068 0.100134 0.758432
O O11 0.410816 0.813770 0.901609
O O12 0.628659 0.826787 0.864909
O O13 0.541526 0.095524 0.915434
O O14 0.781913 0.059935 0.838564
O O15 0.275044 0.697619 0.202396
O O16 0.138955 0.779261 0.059587
#
# Coordination Sequence:
#
# PCOD8055915 Si02
#       8
#     4   4   4   4   4   4   4   4
#     4  10  24  46  71 102 148 192 239 308 370 440
#     4  10  25  47  71 108 144 187 258 300 366 454
#     4  11  24  44  73 104 148 194 241 305 378 431
#     4  12  25  45  75 102 150 190 245 307 377 439
#     4  11  26  45  72 106 145 190 248 303 371 442
#     4  11  23  48  71 109 147 193 243 306 369 449
#     4  11  24  48  78 103 156 199 244 312 377 439
#     4  12  25  45  75 110 146 197 252 309 376 442
#
# _framework density 24.747941999999998
#
# number of rings (size 3 to 8) (size 9 to 14) (size 15 to 20)
#    0.000    1.000    5.000    0.000    5.250    3.000 
#    2.250    0.000    0.000    0.000    0.000    0.000 
#    0.000    0.000    0.000    0.000    0.000    0.000 
#
# Total GULP energy -198214.285611 kJ/mol
# GULP energy per Si atom -12388.392851 kJ/mol
# Density = 2.469162 g / cm^3
# Si number density = 24.747942 Si / 1000 Ang^3
#
#
#
# Elastic Constant Matrix: (Units=GPa)
#
#
# Indices 1 2 3 4 5 6 
#
# 1 70.2356 19.9154 28.5749 0.0000 24.9025 0.0000
# 2 19.9154 104.4540 32.6281 0.0000 18.3306 0.0000
# 3 28.5749 32.6281 90.4155 0.0000 12.4458 0.0000
# 4 0.0000 0.0000 0.0000 41.7262 0.0000 -9.0062
# 5 24.9025 18.3306 12.4458 0.0000 24.2470 0.0000
# 6 0.0000 0.0000 0.0000 -9.0062 0.0000 40.3258
#
#
#
# Elastic Compliance Matrix: (Units=1/GPa)
#
#
# Indices 1 2 3 4 5 6 
#
# 1 0.024059 0.000936 -0.004780 0.000000 -0.022963 0.000000
# 2 0.000936 0.011916 -0.003469 0.000000 -0.008189 0.000000
# 3 -0.004780 -0.003469 0.013758 0.000000 0.000470 0.000000
# 4 0.000000 0.000000 0.000000 0.025180 0.000000 0.005623
# 5 -0.022963 -0.008189 0.000470 0.000000 0.070776 0.000000
# 6 0.000000 0.000000 0.000000 0.005623 0.000000 0.026054
#
#
# Mechanical properties :
#
#
# Convention : Reuss Voigt Hill
#
# Bulk Modulus (GPa) = 28.48479 47.48245 37.98362
# Shear Modulus (GPa) = 25.24355 33.52557 29.38456
#
# Velocity S-wave (km/s) = 3.19725 3.68459 3.44954
# Velocity P-wave (km/s) = 5.01646 6.10980 5.58993
#
# Compressibility (1/GPa) = 0.03510645
#
# Stress axis : x y z
#
# Youngs Moduli (GPa) = 41.56432 83.92286 72.68572
#
# Poissons Ratio (x) = -0.07855 0.34747
# Poissons Ratio (y) = -0.03890 0.25211
# Poissons Ratio (z) = 0.19870 0.29109
#
# Static dielectric constant tensor:
#      x y z
#    x 4.426880 0.000000 -0.038480 
#    y 0.000000 4.710640 0.000000 
#    z -0.038480 0.000000 4.292730 
# 
# 
# High freq. dielectric constant tensor:
#      x y z
#    x 1.973650 0.000000 -0.005240 
#    y 0.000000 1.996980 0.000000 
#    z -0.005240 0.000000 1.980280 
# 
# From -- ./inp_files/17928.got.cif
#   From: 2010.06.25/outbox.cif.g09.slc.cpg/sg9_9_cif.got.tgz:17928.got - 2010.06.27 21:40:51.
