data_PCOD8055140
_publ_section_title
;
Structure prediction by ZEFSAII (Michael W. Deem and Ramdas Pophale) SiO2 
 PCOD8055140
Probable space group: C C
;
_chemical_formula_sum "Si O2"
_cell_formula_units_Z 32
_cell_length_a 12.649836
_cell_length_b 12.666295
_cell_length_c 8.772963
_cell_angle_alpha 90.000000
_cell_angle_beta 91.898127
_cell_angle_gamma 90.000000
_cell_volume 1404.890346
_symmetry_space_group_name_H-M "C C"
_symmetry_group_IT_number 9
_symmetry_cell_setting 'monoclinic'
loop_
_space_group_symop_operation_xyz
x,y,z
x,-y,1/2+z
1/2+x,1/2+y,z
1/2+x,1/2-y,1/2+z
loop_
_atom_site_type_symbol
_atom_site_label
_atom_site_fract_x
_atom_site_fract_y
_atom_site_fract_z
Si Si1 0.531030 0.253977 0.274840
Si Si2 0.589901 0.461315 0.370683
Si Si3 0.242555 0.999292 0.124750
Si Si4 0.384643 0.927764 0.885289
Si Si5 0.678936 0.004873 0.593512
Si Si6 0.750687 0.854694 0.840293
Si Si7 0.047765 0.599903 0.840020
Si Si8 0.981690 0.812372 0.927632
O O1 0.509733 0.362161 0.369518
O O2 0.469209 0.163790 0.363984
O O3 0.655428 0.222736 0.285286
O O4 0.488948 0.271476 0.101811
O O5 0.642013 0.448108 0.205166
O O6 0.687562 0.435629 0.486732
O O7 0.530720 0.571677 0.400732
O O8 0.301196 0.078325 0.242536
O O9 0.322925 0.915936 0.045082
O O10 0.439424 0.043058 0.887654
O O11 0.736722 0.099368 0.509830
O O12 0.577989 0.052162 0.677981
O O13 0.758248 0.948386 0.715222
O O14 0.637808 0.920982 0.469330
O O15 0.863566 0.799943 0.856766
O O16 0.041463 0.726287 0.826850
#
# Coordination Sequence:
#
# PCOD8055140 Si02
#       8
#     4   4   4   4   4   4   4   4
#     4  12  25  47  71 104 152 184 251 307 358 434
#     4  11  26  49  65 102 154 189 231 303 359 449
#     4  10  24  45  73 103 139 186 245 290 372 425
#     4  11  22  43  78 107 133 188 243 314 351 432
#     4  10  21  46  71 105 140 180 238 306 361 418
#     4  11  26  44  77 105 144 193 237 306 362 440
#     4  11  21  44  73 100 138 180 242 299 362 415
#     4  12  27  46  72 104 150 200 231 297 375 443
#
# _framework density 22.777577000000001
#
# number of rings (size 3 to 8) (size 9 to 14) (size 15 to 20)
#    0.000    1.000    5.000    1.500    7.000    1.000 
#    2.250    1.250    0.000    0.000    0.000    0.000 
#    0.000    0.000    0.000    0.000    0.000    0.000 
#
# Total GULP energy -198296.786241 kJ/mol
# GULP energy per Si atom -12393.549140 kJ/mol
# Density = 2.272573 g / cm^3
# Si number density = 22.777577 Si / 1000 Ang^3
#
#
#
# Elastic Constant Matrix: (Units=GPa)
#
#
# Indices 1 2 3 4 5 6 
#
# 1 94.6469 29.9471 28.0838 0.0000 8.7039 0.0000
# 2 29.9471 130.5669 24.7597 0.0000 0.6015 0.0000
# 3 28.0838 24.7597 98.9972 0.0000 -9.0421 0.0000
# 4 0.0000 0.0000 0.0000 25.1860 0.0000 4.3341
# 5 8.7039 0.6015 -9.0421 0.0000 33.4734 0.0000
# 6 0.0000 0.0000 0.0000 4.3341 0.0000 16.4447
#
#
#
# Elastic Compliance Matrix: (Units=1/GPa)
#
#
# Indices 1 2 3 4 5 6 
#
# 1 0.012672 -0.002239 -0.003416 0.000000 -0.004178 0.000000
# 2 -0.002239 0.008452 -0.001476 0.000000 0.000032 0.000000
# 3 -0.003416 -0.001476 0.011815 0.000000 0.004106 0.000000
# 4 0.000000 0.000000 0.000000 0.041591 0.000000 -0.010961
# 5 -0.004178 0.000032 0.004106 0.000000 0.032069 0.000000
# 6 0.000000 0.000000 0.000000 -0.010961 0.000000 0.063699
#
#
# Mechanical properties :
#
#
# Convention : Reuss Voigt Hill
#
# Bulk Modulus (GPa) = 53.54495 54.42136 53.98315
# Shear Modulus (GPa) = 26.20733 31.11549 28.66141
#
# Velocity S-wave (km/s) = 3.39569 3.70003 3.55112
# Velocity P-wave (km/s) = 6.23964 6.49600 6.36911
#
# Compressibility (1/GPa) = 0.01867590
#
# Stress axis : x y z
#
# Youngs Moduli (GPa) = 78.91393 118.31167 84.64101
#
# Poissons Ratio (x) = 0.26495 0.28916
# Poissons Ratio (y) = 0.17672 0.12491
# Poissons Ratio (z) = 0.26960 0.17460
#
# Static dielectric constant tensor:
#      x y z
#    x 4.039140 0.000000 0.017110 
#    y 0.000000 3.972790 0.000000 
#    z 0.017110 0.000000 4.335890 
# 
# 
# High freq. dielectric constant tensor:
#      x y z
#    x 1.891500 0.000000 0.013940 
#    y 0.000000 1.884980 0.000000 
#    z 0.013940 0.000000 1.914760 
# 
# From -- ./inp_files/9140.got.cif
#   From: 2010.06.25/outbox.cif.g09.slc.cpg/sg9_5_cif.got.tgz:9140.got - 2010.06.27 21:40:51.
