data_PCOD8055245
_publ_section_title
;
Structure prediction by ZEFSAII (Michael W. Deem and Ramdas Pophale) SiO2 
 PCOD8055245
Probable space group: C C
;
_chemical_formula_sum "Si O2"
_cell_formula_units_Z 32
_cell_length_a 26.069621
_cell_length_b 5.573986
_cell_length_c 23.104853
_cell_angle_alpha 90.000000
_cell_angle_beta 157.004871
_cell_angle_gamma 90.000000
_cell_volume 1311.580105
_symmetry_space_group_name_H-M "C C"
_symmetry_group_IT_number 9
_symmetry_cell_setting 'monoclinic'
loop_
_space_group_symop_operation_xyz
x,y,z
x,-y,1/2+z
1/2+x,1/2+y,z
1/2+x,1/2-y,1/2+z
loop_
_atom_site_type_symbol
_atom_site_label
_atom_site_fract_x
_atom_site_fract_y
_atom_site_fract_z
Si Si1 0.859590 0.386337 0.234700
Si Si2 0.478621 0.721304 0.795723
Si Si3 0.050549 0.097503 0.087989
Si Si4 0.094865 0.906611 0.010287
Si Si5 0.339660 0.658292 0.088732
Si Si6 0.060606 0.491997 0.282779
Si Si7 0.941282 0.212905 0.565838
Si Si8 0.824939 0.718418 0.418864
O O1 0.876514 0.666479 0.236082
O O2 0.746447 0.327749 0.163902
O O3 0.831962 0.247654 0.146790
O O4 0.994429 0.313153 0.406890
O O5 0.399259 0.607540 0.658780
O O6 0.568666 0.922480 0.858199
O O7 0.574656 0.545599 0.928913
O O8 0.173365 0.238912 0.243799
O O9 0.921662 0.262651 0.963514
O O10 0.075172 0.068244 0.045961
O O11 0.024177 0.841237 0.092988
O O12 0.433334 0.818352 0.144852
O O13 0.194685 0.655026 0.909293
O O14 0.047359 0.717635 0.225546
O O15 0.847112 0.446720 0.465031
O O16 0.861501 0.958847 0.497322
#
# Coordination Sequence:
#
# PCOD8055245 Si02
#       8
#     4   4   4   4   4   4   4   4
#     4  10  22  41  63 105 147 189 248 302 381 449
#     4  10  22  40  68 109 147 194 249 310 380 456
#     4  10  27  47  78 106 148 197 258 315 388 442
#     4  11  24  42  71 103 147 197 242 319 371 463
#     4  10  22  41  70 105 148 196 245 312 374 464
#     4  11  24  45  72 105 151 199 253 312 386 449
#     4  10  27  47  77 108 148 195 252 316 377 451
#     4  10  26  51  73 113 144 193 251 320 379 452
#
# _framework density 24.398053000000001
#
# number of rings (size 3 to 8) (size 9 to 14) (size 15 to 20)
#    0.750    1.000    0.000    3.000    7.000    4.000 
#    0.000    0.000    0.000    0.000    0.000    0.000 
#    0.000    0.000    0.000    0.000    0.000    0.000 
#
# Total GULP energy -198229.980822 kJ/mol
# GULP energy per Si atom -12389.373801 kJ/mol
# Density = 2.434252 g / cm^3
# Si number density = 24.398053 Si / 1000 Ang^3
#
#
#
# Elastic Constant Matrix: (Units=GPa)
#
#
# Indices 1 2 3 4 5 6 
#
# 1 47.6462 23.0467 36.3503 0.0001 11.1121 0.0000
# 2 23.0467 120.2557 40.1371 0.0002 4.3826 0.0005
# 3 36.3503 40.1371 110.2961 -0.0006 22.1925 -0.0001
# 4 0.0001 0.0002 -0.0006 28.4335 0.0001 4.3892
# 5 11.1121 4.3826 22.1925 0.0001 40.6176 0.0000
# 6 0.0000 0.0005 -0.0001 4.3892 0.0000 39.5937
#
#
#
# Elastic Compliance Matrix: (Units=1/GPa)
#
#
# Indices 1 2 3 4 5 6 
#
# 1 0.029174 -0.002829 -0.007911 0.000000 -0.003354 0.000000
# 2 -0.002829 0.009773 -0.002885 0.000000 0.001296 0.000000
# 3 -0.007911 -0.002885 0.013735 0.000000 -0.005029 0.000000
# 4 0.000000 0.000000 0.000000 0.035782 0.000000 -0.003967
# 5 -0.003354 0.001296 -0.005029 0.000000 0.028146 0.000000
# 6 0.000000 0.000000 0.000000 -0.003967 0.000000 0.025696
#
#
# Mechanical properties :
#
#
# Convention : Reuss Voigt Hill
#
# Bulk Modulus (GPa) = 39.31741 53.02956 46.17349
# Shear Modulus (GPa) = 28.08473 33.63988 30.86231
#
# Velocity S-wave (km/s) = 3.39648 3.71724 3.56047
# Velocity P-wave (km/s) = 5.61528 6.34083 5.98905
#
# Compressibility (1/GPa) = 0.02543402
#
# Stress axis : x y z
#
# Youngs Moduli (GPa) = 34.27756 102.31838 72.80449
#
# Poissons Ratio (x) = 0.28941 0.57593
# Poissons Ratio (y) = 0.09696 0.21005
# Poissons Ratio (z) = 0.27116 0.29520
#
# Static dielectric constant tensor:
#      x y z
#    x 4.215230 0.000000 0.098560 
#    y 0.000000 4.533790 0.000000 
#    z 0.098560 0.000000 4.245930 
# 
# 
# High freq. dielectric constant tensor:
#      x y z
#    x 1.970370 0.000000 0.007060 
#    y 0.000000 1.965450 0.000000 
#    z 0.007060 0.000000 1.959380 
# 
# From -- ./inp_files/37065.got.cif
#   From: 2010.06.25/outbox.cif.g09.slc.cpg/sg9_19_cif.got.tgz:37065.got - 2010.06.27 21:40:51.
