data_PCOD8055256
_publ_section_title
;
Structure prediction by ZEFSAII (Michael W. Deem and Ramdas Pophale) SiO2 
 PCOD8055256
Probable space group: C C
;
_chemical_formula_sum "Si O2"
_cell_formula_units_Z 28
_cell_length_a 7.565099
_cell_length_b 22.027074
_cell_length_c 9.166054
_cell_angle_alpha 90.000000
_cell_angle_beta 58.173351
_cell_angle_gamma 90.000000
_cell_volume 1297.754745
_symmetry_space_group_name_H-M "C C"
_symmetry_group_IT_number 9
_symmetry_cell_setting 'monoclinic'
loop_
_space_group_symop_operation_xyz
x,y,z
x,-y,1/2+z
1/2+x,1/2+y,z
1/2+x,1/2-y,1/2+z
loop_
_atom_site_type_symbol
_atom_site_label
_atom_site_fract_x
_atom_site_fract_y
_atom_site_fract_z
Si Si1 0.193760 0.559876 0.480010
Si Si2 0.607387 0.821736 0.443381
Si Si3 0.913982 0.821893 0.792225
Si Si4 0.283362 0.196878 0.337937
Si Si5 0.260770 0.887332 0.118025
Si Si6 0.237903 0.802915 0.397793
Si Si7 0.827877 0.940063 0.255707
O O1 0.297986 0.614628 0.346403
O O2 0.259927 0.499892 0.368223
O O3 0.261579 0.556763 0.617379
O O4 0.946111 0.567877 0.582540
O O5 0.463998 0.818258 0.646907
O O6 0.782915 0.768889 0.373894
O O7 0.468569 0.817072 0.357973
O O8 0.723825 0.885125 0.388586
O O9 0.738123 0.769125 0.862225
O O10 0.052744 0.817306 0.877692
O O11 0.057304 0.818176 0.588735
O O12 0.328014 0.155979 0.457264
O O13 0.193373 0.843668 0.278150
O O14 0.075581 0.932319 0.154192
#
# Coordination Sequence:
#
# PCOD8055256 Si02
#       7
#     4   4   4   4   4   4   4
#     4  12  29  49  70 100 141 186 236 291 341 415
#     4  10  22  44  69 104 147 177 229 284 352 408
#     4  10  22  44  69 104 147 177 229 284 352 408
#     4  10  22  40  75 107 139 183 220 293 351 415
#     4  12  26  46  76 106 136 182 242 280 356 414
#     4  10  22  40  75 107 139 183 220 293 351 415
#     4  12  29  49  70 100 141 186 236 291 341 415
#
# _framework density 21.575727000000001
#
# number of rings (size 3 to 8) (size 9 to 14) (size 15 to 20)
#    0.000    1.143    2.857    1.714    8.000    8.000 
#    0.000    0.000    0.000    0.000    0.000    0.000 
#    0.000    0.000    0.000    0.000    0.000    0.000 
#
# Total GULP energy -173688.377350 kJ/mol
# GULP energy per Si atom -12406.312668 kJ/mol
# Density = 2.152662 g / cm^3
# Si number density = 21.575727 Si / 1000 Ang^3
#
#
#
# Elastic Constant Matrix: (Units=GPa)
#
#
# Indices 1 2 3 4 5 6 
#
# 1 118.4068 66.6494 61.9151 0.0000 -0.8408 0.0000
# 2 66.6494 179.2880 67.5553 0.0000 -9.8682 0.0000
# 3 61.9151 67.5553 115.8621 0.0000 6.7363 0.0000
# 4 0.0000 0.0000 0.0000 -10.3749 0.0000 -1.1676
# 5 -0.8408 -9.8682 6.7363 0.0000 35.3679 0.0000
# 6 0.0000 0.0000 0.0000 -1.1676 0.0000 20.0454
#
#
#
# Elastic Compliance Matrix: (Units=1/GPa)
#
#
# Indices 1 2 3 4 5 6 
#
# 1 0.012724 -0.002725 -0.005242 0.000000 0.000541 0.000000
# 2 -0.002725 0.008021 -0.003384 0.000000 0.002818 0.000000
# 3 -0.005242 -0.003384 0.013619 0.000000 -0.003663 0.000000
# 4 0.000000 0.000000 0.000000 -0.095759 0.000000 -0.005578
# 5 0.000541 0.002818 -0.003663 0.000000 0.029771 0.000000
# 6 0.000000 0.000000 0.000000 -0.005578 0.000000 0.049562
#
#
# Mechanical properties :
#
#
# Convention : Reuss Voigt Hill
#
# Bulk Modulus (GPa) = 85.75934 89.53293 87.64614
# Shear Modulus (GPa) = 112.28864 23.50349 67.89606
#
# Velocity S-wave (km/s) = 7.22198 3.30411 5.61579
# Velocity P-wave (km/s) = 10.45834 7.49289 9.09726
#
# Compressibility (1/GPa) = 0.01166054
#
# Stress axis : x y z
#
# Youngs Moduli (GPa) = 78.58885 124.67286 73.42946
#
# Poissons Ratio (x) = 0.33976 0.38493
# Poissons Ratio (y) = 0.21417 0.24850
# Poissons Ratio (z) = 0.41198 0.42193
#
# Static dielectric constant tensor:
#      x y z
#    x 4.106010 0.000000 0.042420 
#    y 0.000000 3.911600 0.000000 
#    z 0.042420 0.000000 3.842770 
# 
# 
# High freq. dielectric constant tensor:
#      x y z
#    x 1.859290 0.000000 -0.000050 
#    y 0.000000 1.846270 0.000000 
#    z -0.000050 0.000000 1.859310 
# 
# From -- ./inp_files/5672.got.cif
#   From: 2010.06.25/outbox.cif.g09.slc.cpg/sg9_3_cif.got.tgz:5672.got - 2010.06.27 21:40:51.
