data_PCOD8055122
_publ_section_title
;
Structure prediction by ZEFSAII (Michael W. Deem and Ramdas Pophale) SiO2 
 PCOD8055122
Probable space group: C C
;
_chemical_formula_sum "Si O2"
_cell_formula_units_Z 28
_cell_length_a 24.733445
_cell_length_b 11.151228
_cell_length_c 9.938337
_cell_angle_alpha 90.000000
_cell_angle_beta 25.658693
_cell_angle_gamma 90.000000
_cell_volume 1186.911388
_symmetry_space_group_name_H-M "C C"
_symmetry_group_IT_number 9
_symmetry_cell_setting 'monoclinic'
loop_
_space_group_symop_operation_xyz
x,y,z
x,-y,1/2+z
1/2+x,1/2+y,z
1/2+x,1/2-y,1/2+z
loop_
_atom_site_type_symbol
_atom_site_label
_atom_site_fract_x
_atom_site_fract_y
_atom_site_fract_z
Si Si1 0.056530 0.517067 0.962840
Si Si2 0.167657 0.781837 0.437468
Si Si3 0.692024 0.419830 0.644418
Si Si4 0.967163 0.072275 0.241853
Si Si5 0.699834 0.990685 0.890542
Si Si6 0.847762 0.353207 0.798952
Si Si7 0.861843 0.312358 0.467344
O O1 0.140873 0.565387 0.898006
O O2 0.148443 0.457065 0.646179
O O3 0.985257 0.631028 0.056311
O O4 0.960716 0.417537 0.228310
O O5 0.213677 0.823572 0.479264
O O6 0.142139 0.641686 0.501703
O O7 0.048082 0.866377 0.678647
O O8 0.264561 0.792101 0.098519
O O9 0.795807 0.517180 0.375681
O O10 0.729471 0.354043 0.700683
O O11 0.554935 0.481692 0.959509
O O12 0.910883 0.188179 0.287154
O O13 0.850371 0.994124 0.557160
O O14 0.846984 0.280091 0.660108
#
# Coordination Sequence:
#
# PCOD8055122 Si02
#       7
#     4   4   4   4   4   4   4
#     4  11  23  46  66 105 138 187 239 284 356 423
#     4  11  25  47  70 104 143 185 234 299 355 415
#     4  10  24  43  72 103 139 185 243 285 355 423
#     4  11  26  45  71 101 145 181 237 289 352 418
#     4  12  28  43  71 103 146 188 235 292 356 426
#     4  10  21  44  75  99 142 187 232 292 359 416
#     4  11  23  46  73 103 139 189 232 297 351 419
#
# _framework density 23.590641000000002
#
# number of rings (size 3 to 8) (size 9 to 14) (size 15 to 20)
#    0.000    1.143    2.857    2.571    8.000    1.143 
#    0.000    0.000    0.000    0.000    0.000    0.000 
#    0.000    0.000    0.000    0.000    0.000    0.000 
#
# Total GULP energy -173488.000244 kJ/mol
# GULP energy per Si atom -12392.000017 kJ/mol
# Density = 2.353695 g / cm^3
# Si number density = 23.590641 Si / 1000 Ang^3
#
#
#
# Elastic Constant Matrix: (Units=GPa)
#
#
# Indices 1 2 3 4 5 6 
#
# 1 103.6488 16.4219 67.4925 0.0000 9.4776 0.0000
# 2 16.4219 55.3813 13.6301 0.0000 0.4002 0.0000
# 3 67.4925 13.6301 138.2036 0.0000 2.3495 0.0000
# 4 0.0000 0.0000 0.0000 29.7968 0.0000 -4.7815
# 5 9.4776 0.4002 2.3495 0.0000 37.9110 0.0000
# 6 0.0000 0.0000 0.0000 -4.7815 0.0000 20.1850
#
#
#
# Elastic Compliance Matrix: (Units=1/GPa)
#
#
# Indices 1 2 3 4 5 6 
#
# 1 0.014902 -0.002683 -0.006957 0.000000 -0.003266 0.000000
# 2 -0.002683 0.018989 -0.000571 0.000000 0.000506 0.000000
# 3 -0.006957 -0.000571 0.010671 0.000000 0.001084 0.000000
# 4 0.000000 0.000000 0.000000 0.034887 0.000000 0.008264
# 5 -0.003266 0.000506 0.001084 0.000000 0.027122 0.000000
# 6 0.000000 0.000000 0.000000 0.008264 0.000000 0.051499
#
#
# Mechanical properties :
#
#
# Convention : Reuss Voigt Hill
#
# Bulk Modulus (GPa) = 41.42579 54.70251 48.06415
# Shear Modulus (GPa) = 26.80397 30.89120 28.84758
#
# Velocity S-wave (km/s) = 3.37443 3.62258 3.50071
# Velocity P-wave (km/s) = 5.72545 6.38248 6.06287
#
# Compressibility (1/GPa) = 0.02413955
#
# Stress axis : x y z
#
# Youngs Moduli (GPa) = 67.10471 52.66183 93.70949
#
# Poissons Ratio (x) = 0.14129 0.65197
# Poissons Ratio (y) = 0.18004 0.05352
# Poissons Ratio (z) = 0.46687 0.03008
#
# Static dielectric constant tensor:
#      x y z
#    x 4.600150 0.000000 -0.067790 
#    y 0.000000 4.127480 0.000000 
#    z -0.067790 0.000000 4.265040 
# 
# 
# High freq. dielectric constant tensor:
#      x y z
#    x 1.937000 0.000000 -0.008870 
#    y 0.000000 1.922380 0.000000 
#    z -0.008870 0.000000 1.939390 
# 
# From -- ./inp_files/12179.got.cif
#   From: 2010.06.25/outbox.cif.g09.slc.cpg/sg9_7_cif.got.tgz:12179.got - 2010.06.27 21:40:51.
