data_PCOD8055465
_publ_section_title
;
Structure prediction by ZEFSAII (Michael W. Deem and Ramdas Pophale) SiO2 
 PCOD8055465
Probable space group: C C
;
_chemical_formula_sum "Si O2"
_cell_formula_units_Z 32
_cell_length_a 7.851443
_cell_length_b 13.122193
_cell_length_c 14.457891
_cell_angle_alpha 90.000000
_cell_angle_beta 64.282997
_cell_angle_gamma 90.000000
_cell_volume 1342.025335
_symmetry_space_group_name_H-M "C C"
_symmetry_group_IT_number 9
_symmetry_cell_setting 'monoclinic'
loop_
_space_group_symop_operation_xyz
x,y,z
x,-y,1/2+z
1/2+x,1/2+y,z
1/2+x,1/2-y,1/2+z
loop_
_atom_site_type_symbol
_atom_site_label
_atom_site_fract_x
_atom_site_fract_y
_atom_site_fract_z
Si Si1 0.776400 0.008270 0.921810
Si Si2 0.926190 0.190973 0.569730
Si Si3 0.548587 0.163201 0.560011
Si Si4 0.714967 0.978448 0.228541
Si Si5 0.394468 0.174397 0.790673
Si Si6 0.977990 0.206536 0.905969
Si Si7 0.989678 0.661789 0.219711
Si Si8 0.581658 0.644930 0.355767
O O1 0.964791 0.953994 0.911621
O O2 0.786186 0.984692 0.810302
O O3 0.598205 0.953356 0.014662
O O4 0.803333 0.127109 0.940026
O O5 0.738647 0.219657 0.553342
O O6 0.874506 0.084719 0.635064
O O7 0.995951 0.274255 0.625093
O O8 0.100305 0.193244 0.455304
O O9 0.397901 0.164482 0.678096
O O10 0.444418 0.220441 0.501182
O O11 0.534420 0.910154 0.298358
O O12 0.653091 0.075969 0.181351
O O13 0.182325 0.153112 0.874625
O O14 0.471975 0.283498 0.808244
O O15 0.005005 0.266743 0.804766
O O16 0.783143 0.609865 0.270232
#
# Coordination Sequence:
#
# PCOD8055465 Si02
#       8
#     4   4   4   4   4   4   4   4
#     4  11  22  44  70 100 142 183 233 296 353 426
#     4  10  22  45  68 103 145 184 241 297 355 423
#     4  10  22  45  68 103 145 184 241 297 355 423
#     4  11  22  44  70 100 142 183 233 296 353 426
#     4  11  22  45  71  99 148 185 237 299 354 428
#     4  12  23  44  72 102 141 191 231 295 367 422
#     4  12  23  44  72 102 141 191 231 295 367 422
#     4  11  22  45  71  99 148 185 237 299 354 428
#
# _framework density 23.844557999999999
#
# number of rings (size 3 to 8) (size 9 to 14) (size 15 to 20)
#    0.000    1.000    7.500    0.750    0.000    1.000 
#   27.000    0.000    0.000    0.000    0.000    0.000 
#    0.000    0.000    0.000    0.000    0.000    0.000 
#
# Total GULP energy -198278.101292 kJ/mol
# GULP energy per Si atom -12392.381331 kJ/mol
# Density = 2.379029 g / cm^3
# Si number density = 23.844558 Si / 1000 Ang^3
#
#
#
# Elastic Constant Matrix: (Units=GPa)
#
#
# Indices 1 2 3 4 5 6 
#
# 1 34.0943 15.0145 8.7831 0.0000 10.4549 0.0000
# 2 15.0145 104.7124 13.0043 0.0000 -0.7949 0.0000
# 3 8.7831 13.0043 106.0750 0.0000 4.2880 0.0000
# 4 0.0000 0.0000 0.0000 35.7688 0.0000 10.3131
# 5 10.4549 -0.7949 4.2880 0.0000 36.9101 0.0000
# 6 0.0000 0.0000 0.0000 10.3131 0.0000 42.0625
#
#
#
# Elastic Compliance Matrix: (Units=1/GPa)
#
#
# Indices 1 2 3 4 5 6 
#
# 1 0.034957 -0.004850 -0.001904 0.000000 -0.009785 0.000000
# 2 -0.004850 0.010375 -0.000939 0.000000 0.001706 0.000000
# 3 -0.001904 -0.000939 0.009725 0.000000 -0.000611 0.000000
# 4 0.000000 0.000000 0.000000 0.030084 0.000000 -0.007376
# 5 -0.009785 0.001706 -0.000611 0.000000 0.029972 0.000000
# 6 0.000000 0.000000 0.000000 -0.007376 0.000000 0.025583
#
#
# Mechanical properties :
#
#
# Convention : Reuss Voigt Hill
#
# Bulk Modulus (GPa) = 25.20825 35.38728 30.29777
# Shear Modulus (GPa) = 29.53211 36.82029 33.17620
#
# Velocity S-wave (km/s) = 3.52309 3.93387 3.73413
# Velocity P-wave (km/s) = 5.21003 5.95876 5.59693
#
# Compressibility (1/GPa) = 0.03966955
#
# Stress axis : x y z
#
# Youngs Moduli (GPa) = 28.60617 96.38513 102.82978
#
# Poissons Ratio (x) = 0.46749 0.19582
# Poissons Ratio (y) = 0.13875 0.09659
# Poissons Ratio (z) = 0.05448 0.09054
#
# Static dielectric constant tensor:
#      x y z
#    x 4.298160 0.000000 0.072400 
#    y 0.000000 4.296880 0.000000 
#    z 0.072400 0.000000 4.585490 
# 
# 
# High freq. dielectric constant tensor:
#      x y z
#    x 1.937810 0.000000 0.013950 
#    y 0.000000 1.930580 0.000000 
#    z 0.013950 0.000000 1.960790 
# 
# From -- ./inp_files/22868.got.cif
#   From: 2010.06.25/outbox.cif.g09.slc.cpg/sg9_12_cif.got.tgz:22868.got - 2010.06.27 21:40:51.
