data_PCOD8055749
_publ_section_title
;
Structure prediction by ZEFSAII (Michael W. Deem and Ramdas Pophale) SiO2 
 PCOD8055749
Probable space group: C C
;
_chemical_formula_sum "Si O2"
_cell_formula_units_Z 28
_cell_length_a 16.648965
_cell_length_b 10.726969
_cell_length_c 8.942109
_cell_angle_alpha 90.000000
_cell_angle_beta 52.400308
_cell_angle_gamma 90.000000
_cell_volume 1265.289786
_symmetry_space_group_name_H-M "C C"
_symmetry_group_IT_number 9
_symmetry_cell_setting 'monoclinic'
loop_
_space_group_symop_operation_xyz
x,y,z
x,-y,1/2+z
1/2+x,1/2+y,z
1/2+x,1/2-y,1/2+z
loop_
_atom_site_type_symbol
_atom_site_label
_atom_site_fract_x
_atom_site_fract_y
_atom_site_fract_z
Si Si1 0.093590 0.422943 0.433030
Si Si2 0.633912 0.408636 0.370981
Si Si3 0.973040 0.608505 0.772971
Si Si4 0.423067 0.615107 0.230440
Si Si5 0.754436 0.488812 0.488995
Si Si6 0.187953 0.746627 0.056628
Si Si7 0.798951 0.039975 0.092909
O O1 0.107791 0.305416 0.527723
O O2 0.201298 0.457859 0.240650
O O3 0.049397 0.539503 0.574396
O O4 0.018976 0.381351 0.386080
O O5 0.525845 0.451843 0.557379
O O6 0.713455 0.387487 0.416882
O O7 0.627168 0.281571 0.279868
O O8 0.680869 0.520264 0.217012
O O9 0.949894 0.743050 0.733550
O O10 0.869464 0.531877 0.904781
O O11 0.339392 0.606618 0.195849
O O12 0.384785 0.548514 0.424254
O O13 0.744559 0.629647 0.431418
O O14 0.271898 0.642756 0.998947
#
# Coordination Sequence:
#
# PCOD8055749 Si02
#       7
#     4   4   4   4   4   4   4
#     4  12  25  48  74 110 144 190 246 291 363 432
#     4  10  23  46  71 104 148 188 236 297 360 423
#     4  12  27  46  77 109 143 194 245 294 365 429
#     4  12  27  45  78 106 147 189 245 298 362 431
#     4  10  24  46  73 107 144 186 244 296 360 418
#     4  10  24  45  76  98 155 185 238 300 358 426
#     4  12  24  48  71 112 143 192 238 302 362 425
#
# _framework density 22.129317
#
# number of rings (size 3 to 8) (size 9 to 14) (size 15 to 20)
#    0.857    0.000    2.857    3.429    2.000    5.714 
#    0.000    0.000    0.000    0.000    0.000    0.000 
#    0.000    0.000    0.000    0.000    0.000    0.000 
#
# Total GULP energy -173588.132277 kJ/mol
# GULP energy per Si atom -12399.152306 kJ/mol
# Density = 2.207895 g / cm^3
# Si number density = 22.129317 Si / 1000 Ang^3
#
#
#
# Elastic Constant Matrix: (Units=GPa)
#
#
# Indices 1 2 3 4 5 6 
#
# 1 176.7157 55.6444 57.8747 0.0000 18.2470 0.0000
# 2 55.6444 97.1289 60.0272 0.0000 3.2063 0.0000
# 3 57.8747 60.0272 138.5565 0.0000 -11.1017 0.0000
# 4 0.0000 0.0000 0.0000 36.7400 0.0000 7.3627
# 5 18.2470 3.2063 -11.1017 0.0000 41.1155 0.0000
# 6 0.0000 0.0000 0.0000 7.3627 0.0000 42.1927
#
#
#
# Elastic Compliance Matrix: (Units=1/GPa)
#
#
# Indices 1 2 3 4 5 6 
#
# 1 0.007705 -0.002882 -0.002275 0.000000 -0.003809 0.000000
# 2 -0.002882 0.015462 -0.005610 0.000000 -0.001441 0.000000
# 3 -0.002275 -0.005610 0.010951 0.000000 0.004404 0.000000
# 4 0.000000 0.000000 0.000000 0.028205 0.000000 -0.004922
# 5 -0.003809 -0.001441 0.004404 0.000000 0.027313 0.000000
# 6 0.000000 0.000000 0.000000 -0.004922 0.000000 0.024560
#
#
# Mechanical properties :
#
#
# Convention : Reuss Voigt Hill
#
# Bulk Modulus (GPa) = 79.47342 84.38819 81.93080
# Shear Modulus (GPa) = 35.73400 39.93330 37.83365
#
# Velocity S-wave (km/s) = 4.02279 4.25260 4.13929
# Velocity P-wave (km/s) = 7.58738 7.89492 7.74267
#
# Compressibility (1/GPa) = 0.01258282
#
# Stress axis : x y z
#
# Youngs Moduli (GPa) = 129.79178 64.67660 91.31904
#
# Poissons Ratio (x) = 0.18643 0.20771
# Poissons Ratio (y) = 0.37412 0.51229
# Poissons Ratio (z) = 0.29523 0.36283
#
# Static dielectric constant tensor:
#      x y z
#    x 4.106650 0.000000 0.077370 
#    y 0.000000 3.776230 0.000000 
#    z 0.077370 0.000000 4.033100 
# 
# 
# High freq. dielectric constant tensor:
#      x y z
#    x 1.883970 0.000000 0.007780 
#    y 0.000000 1.858400 0.000000 
#    z 0.007780 0.000000 1.876710 
# 
# From -- ./inp_files/9031.got.cif
#   From: 2010.06.25/outbox.cif.g09.slc.cpg/sg9_5_cif.got.tgz:9031.got - 2010.06.27 21:40:51.
