data_PCOD8055761
_publ_section_title
;
Structure prediction by ZEFSAII (Michael W. Deem and Ramdas Pophale) SiO2 
 PCOD8055761
Probable space group: C C
;
_chemical_formula_sum "Si O2"
_cell_formula_units_Z 28
_cell_length_a 11.634362
_cell_length_b 9.168144
_cell_length_c 13.857292
_cell_angle_alpha 90.000000
_cell_angle_beta 57.376016
_cell_angle_gamma 90.000000
_cell_volume 1244.891268
_symmetry_space_group_name_H-M "C C"
_symmetry_group_IT_number 9
_symmetry_cell_setting 'monoclinic'
loop_
_space_group_symop_operation_xyz
x,y,z
x,-y,1/2+z
1/2+x,1/2+y,z
1/2+x,1/2-y,1/2+z
loop_
_atom_site_type_symbol
_atom_site_label
_atom_site_fract_x
_atom_site_fract_y
_atom_site_fract_z
Si Si1 0.914050 0.728484 0.930300
Si Si2 0.674700 0.229241 0.407054
Si Si3 0.223940 0.815313 0.996329
Si Si4 0.537741 0.055846 0.034566
Si Si5 0.973429 0.469049 0.777843
Si Si6 0.259280 0.327353 0.671388
Si Si7 0.504058 0.491922 0.000698
O O1 0.757366 0.752959 0.969782
O O2 0.988797 0.631194 0.815136
O O3 0.988469 0.883315 0.915789
O O4 0.920252 0.638751 0.027495
O O5 0.784869 0.228032 0.269156
O O6 0.575446 0.363105 0.430734
O O7 0.582176 0.085947 0.454977
O O8 0.339825 0.883409 0.875861
O O9 0.175366 0.653631 0.985153
O O10 0.277460 0.800525 0.082698
O O11 0.091004 0.919112 0.048047
O O12 0.465346 0.012414 0.166657
O O13 0.102534 0.373464 0.745707
O O14 0.355291 0.466348 0.608413
#
# Coordination Sequence:
#
# PCOD8055761 Si02
#       7
#     4   4   4   4   4   4   4
#     4  11  24  46  67 104 139 186 240 291 356 433
#     4  12  25  45  71 106 141 190 239 293 367 429
#     4  10  23  47  71 103 141 190 239 288 366 430
#     4  10  25  45  70 105 148 185 238 304 357 433
#     4  11  22  47  75 102 143 196 238 299 366 429
#     4  11  25  44  73 104 144 185 233 304 356 428
#     4  11  26  46  67 104 148 182 243 293 354 428
#
# _framework density 22.491924999999998
#
# number of rings (size 3 to 8) (size 9 to 14) (size 15 to 20)
#    0.000    1.143    2.857    2.571    2.000    4.571 
#    5.143    0.000    0.000    0.000    0.000    0.000 
#    0.000    0.000    0.000    0.000    0.000    0.000 
#
# Total GULP energy -173569.026016 kJ/mol
# GULP energy per Si atom -12397.787573 kJ/mol
# Density = 2.244073 g / cm^3
# Si number density = 22.491925 Si / 1000 Ang^3
#
#
#
# Elastic Constant Matrix: (Units=GPa)
#
#
# Indices 1 2 3 4 5 6 
#
# 1 105.4949 39.0287 50.1849 0.0000 4.4880 0.0000
# 2 39.0287 148.7347 59.2824 0.0000 4.7852 0.0000
# 3 50.1849 59.2824 142.5883 0.0000 17.5372 0.0000
# 4 0.0000 0.0000 0.0000 28.4466 0.0000 -1.4768
# 5 4.4880 4.7852 17.5372 0.0000 36.0785 0.0000
# 6 0.0000 0.0000 0.0000 -1.4768 0.0000 34.2049
#
#
#
# Elastic Compliance Matrix: (Units=1/GPa)
#
#
# Indices 1 2 3 4 5 6 
#
# 1 0.011748 -0.001710 -0.003480 0.000000 0.000457 0.000000
# 2 -0.001710 0.008320 -0.002922 0.000000 0.000530 0.000000
# 3 -0.003480 -0.002922 0.009947 0.000000 -0.004014 0.000000
# 4 0.000000 0.000000 0.000000 0.035233 0.000000 0.001521
# 5 0.000457 0.000530 -0.004014 0.000000 0.029542 0.000000
# 6 0.000000 0.000000 0.000000 0.001521 0.000000 0.029301
#
#
# Mechanical properties :
#
#
# Convention : Reuss Voigt Hill
#
# Bulk Modulus (GPa) = 72.51921 77.09000 74.80460
# Shear Modulus (GPa) = 34.50387 36.30077 35.40232
#
# Velocity S-wave (km/s) = 3.92095 4.02175 3.97167
# Velocity P-wave (km/s) = 7.26710 7.47763 7.37312
#
# Compressibility (1/GPa) = 0.01378945
#
# Stress axis : x y z
#
# Youngs Moduli (GPa) = 85.12185 120.19373 100.53652
#
# Poissons Ratio (x) = 0.20558 0.34985
# Poissons Ratio (y) = 0.14559 0.29379
# Poissons Ratio (z) = 0.29621 0.35123
#
# Static dielectric constant tensor:
#      x y z
#    x 4.261690 0.000000 0.238580 
#    y 0.000000 4.228920 0.000000 
#    z 0.238580 0.000000 4.046320 
# 
# 
# High freq. dielectric constant tensor:
#      x y z
#    x 1.903900 0.000000 0.011640 
#    y 0.000000 1.897260 0.000000 
#    z 0.011640 0.000000 1.865770 
# 
# From -- ./inp_files/20779.got.cif
#   From: 2010.06.25/outbox.cif.g09.slc.cpg/sg9_11_cif.got.tgz:20779.got - 2010.06.27 21:40:51.
