data_PCOD8055620
_publ_section_title
;
Structure prediction by ZEFSAII (Michael W. Deem and Ramdas Pophale) SiO2 
 PCOD8055620
Probable space group: C C
;
_chemical_formula_sum "Si O2"
_cell_formula_units_Z 28
_cell_length_a 8.600190
_cell_length_b 27.176481
_cell_length_c 5.014321
_cell_angle_alpha 90.000000
_cell_angle_beta 80.249663
_cell_angle_gamma 90.000000
_cell_volume 1155.032734
_symmetry_space_group_name_H-M "C C"
_symmetry_group_IT_number 9
_symmetry_cell_setting 'monoclinic'
loop_
_space_group_symop_operation_xyz
x,y,z
x,-y,1/2+z
1/2+x,1/2+y,z
1/2+x,1/2-y,1/2+z
loop_
_atom_site_type_symbol
_atom_site_label
_atom_site_fract_x
_atom_site_fract_y
_atom_site_fract_z
Si Si1 0.665800 0.759878 0.506280
Si Si2 0.654544 0.532066 0.749127
Si Si3 0.491500 0.924677 0.083120
Si Si4 0.589078 0.870056 0.552157
Si Si5 0.016919 0.783968 0.526656
Si Si6 0.322818 0.530859 0.502830
Si Si7 0.436826 0.393115 0.583930
O O1 0.589466 0.812133 0.612116
O O2 0.602808 0.747253 0.230974
O O3 0.853328 0.762042 0.467024
O O4 0.622613 0.717976 0.731550
O O5 0.611864 0.512915 0.463752
O O6 0.839601 0.543374 0.698868
O O7 0.562788 0.581761 0.851477
O O8 0.513565 0.880947 0.288739
O O9 0.481497 0.897843 0.801006
O O10 0.635299 0.963161 0.043450
O O11 0.767208 0.891304 0.487571
O O12 0.999511 0.839200 0.638395
O O13 0.370473 0.515550 0.792761
O O14 0.412472 0.579759 0.376189
#
# Coordination Sequence:
#
# PCOD8055620 Si02
#       7
#     4   4   4   4   4   4   4
#     4  11  24  44  69 102 135 174 219 275 333 398
#     4  12  26  43  62  93 133 168 210 269 329 381
#     4  11  22  40  66  95 128 168 215 266 319 384
#     4  10  23  43  68  94 126 169 220 264 315 392
#     4  11  25  44  70 100 136 173 222 274 333 400
#     4  11  21  37  62  89 121 167 217 260 312 382
#     4  10  25  43  65  95 129 169 217 270 325 387
#
# _framework density 24.241737000000001
#
# number of rings (size 3 to 8) (size 9 to 14) (size 15 to 20)
#    0.000    1.143    0.000    6.000    0.000   13.714 
#    0.000    0.000    0.000    0.000    0.000    0.000 
#    0.000    0.000    0.000    0.000    0.000    0.000 
#
# Total GULP energy -173676.543608 kJ/mol
# GULP energy per Si atom -12405.467401 kJ/mol
# Density = 2.418656 g / cm^3
# Si number density = 24.241737 Si / 1000 Ang^3
#
#
#
# Elastic Constant Matrix: (Units=GPa)
#
#
# Indices 1 2 3 4 5 6 
#
# 1 113.5139 58.6846 54.6053 0.0000 6.8751 0.0000
# 2 58.6846 94.1992 30.7602 0.0000 -3.0357 0.0000
# 3 54.6053 30.7602 127.5574 0.0000 5.1227 0.0000
# 4 0.0000 0.0000 0.0000 36.8695 0.0000 -2.2760
# 5 6.8751 -3.0357 5.1227 0.0000 47.9360 0.0000
# 6 0.0000 0.0000 0.0000 -2.2760 0.0000 32.0878
#
#
#
# Elastic Compliance Matrix: (Units=1/GPa)
#
#
# Indices 1 2 3 4 5 6 
#
# 1 0.015324 -0.008147 -0.004506 0.000000 -0.002232 0.000000
# 2 -0.008147 0.015906 -0.000437 0.000000 0.002223 0.000000
# 3 -0.004506 -0.000437 0.009891 0.000000 -0.000439 0.000000
# 4 0.000000 0.000000 0.000000 0.027242 0.000000 0.001932
# 5 -0.002232 0.002223 -0.000439 0.000000 0.021369 0.000000
# 6 0.000000 0.000000 0.000000 0.001932 0.000000 0.031302
#
#
# Mechanical properties :
#
#
# Convention : Reuss Voigt Hill
#
# Bulk Modulus (GPa) = 66.92951 69.26340 68.09645
# Shear Modulus (GPa) = 32.85268 36.12668 34.48968
#
# Velocity S-wave (km/s) = 3.68531 3.86459 3.77601
# Velocity P-wave (km/s) = 6.76593 6.96759 6.86750
#
# Compressibility (1/GPa) = 0.01494109
#
# Stress axis : x y z
#
# Youngs Moduli (GPa) = 65.25649 62.86998 101.09746
#
# Poissons Ratio (x) = 0.51222 0.45551
# Poissons Ratio (y) = 0.53167 0.04420
# Poissons Ratio (z) = 0.29402 0.02748
#
# Static dielectric constant tensor:
#      x y z
#    x 4.638200 0.000000 -0.148670 
#    y 0.000000 4.276730 0.000000 
#    z -0.148670 0.000000 4.390310 
# 
# 
# High freq. dielectric constant tensor:
#      x y z
#    x 1.980690 0.000000 -0.004940 
#    y 0.000000 1.961400 0.000000 
#    z -0.004940 0.000000 1.976050 
# 
# From -- ./inp_files/1220.got.cif
#   From: 2010.06.25/outbox.cif.g09.slc.cpg/sg9_1_cif.got.tgz:1220.got - 2010.06.27 21:40:51.
