data_PCOD8055299
_publ_section_title
;
Structure prediction by ZEFSAII (Michael W. Deem and Ramdas Pophale) SiO2 
 PCOD8055299
Probable space group: C C
;
_chemical_formula_sum "Si O2"
_cell_formula_units_Z 28
_cell_length_a 5.102713
_cell_length_b 19.148921
_cell_length_c 16.887497
_cell_angle_alpha 90.000000
_cell_angle_beta 57.620933
_cell_angle_gamma 90.000000
_cell_volume 1393.549957
_symmetry_space_group_name_H-M "C C"
_symmetry_group_IT_number 9
_symmetry_cell_setting 'monoclinic'
loop_
_space_group_symop_operation_xyz
x,y,z
x,-y,1/2+z
1/2+x,1/2+y,z
1/2+x,1/2-y,1/2+z
loop_
_atom_site_type_symbol
_atom_site_label
_atom_site_fract_x
_atom_site_fract_y
_atom_site_fract_z
Si Si1 0.012220 0.283114 0.398550
Si Si2 0.644314 0.073758 0.144680
Si Si3 0.221287 0.869984 0.845711
Si Si4 0.061904 0.559857 0.426882
Si Si5 0.672920 0.515969 0.632923
Si Si6 0.825950 0.081046 0.829765
Si Si7 0.883605 0.162058 0.969021
O O1 0.170431 0.212295 0.344670
O O2 0.144093 0.350018 0.328333
O O3 0.086704 0.296870 0.480231
O O4 0.648283 0.279747 0.439473
O O5 0.506340 0.110630 0.243490
O O6 0.361653 0.049320 0.135802
O O7 0.831096 0.129876 0.063478
O O8 0.870640 0.010939 0.134573
O O9 0.333343 0.890564 0.914714
O O10 0.908439 0.910599 0.875247
O O11 0.087184 0.483211 0.382598
O O12 0.904179 0.558014 0.538497
O O13 0.581207 0.564046 0.722211
O O14 0.983280 0.100969 0.889583
#
# Coordination Sequence:
#
# PCOD8055299 Si02
#       7
#     4   4   4   4   4   4   4
#     4  10  24  43  63  91 135 174 209 265 326 395
#     4  12  22  40  69  99 126 172 218 266 327 399
#     4  12  25  45  64 100 135 169 215 279 329 378
#     4  12  24  42  69  95 133 167 218 282 323 378
#     4  12  24  38  68 102 125 165 224 269 329 381
#     4  10  23  41  67  92 129 172 214 267 319 394
#     4  10  22  41  68  87 131 173 218 250 325 401
#
# _framework density 20.092569999999998
#
# number of rings (size 3 to 8) (size 9 to 14) (size 15 to 20)
#    0.857    0.000    4.286    3.429    4.000    0.000 
#    5.143    0.000    0.000    0.000    0.000    0.000 
#    0.000    0.000    0.000    0.000    0.000    0.000 
#
# Total GULP energy -173546.372824 kJ/mol
# GULP energy per Si atom -12396.169487 kJ/mol
# Density = 2.004684 g / cm^3
# Si number density = 20.092570 Si / 1000 Ang^3
#
#
#
# Elastic Constant Matrix: (Units=GPa)
#
#
# Indices 1 2 3 4 5 6 
#
# 1 100.3811 25.0388 7.5796 0.0000 -4.0684 0.0000
# 2 25.0388 85.5534 42.1989 0.0000 -12.1961 0.0000
# 3 7.5796 42.1989 103.8777 0.0000 3.6512 0.0000
# 4 0.0000 0.0000 0.0000 16.0014 0.0000 -4.4887
# 5 -4.0684 -12.1961 3.6512 0.0000 22.3092 0.0000
# 6 0.0000 0.0000 0.0000 -4.4887 0.0000 31.1779
#
#
#
# Elastic Compliance Matrix: (Units=1/GPa)
#
#
# Indices 1 2 3 4 5 6 
#
# 1 0.010778 -0.003466 0.000623 0.000000 -0.000031 0.000000
# 2 -0.003466 0.017788 -0.007335 0.000000 0.010293 0.000000
# 3 0.000623 -0.007335 0.012772 0.000000 -0.005987 0.000000
# 4 0.000000 0.000000 0.000000 0.065125 0.000000 0.009376
# 5 -0.000031 0.010293 -0.005987 0.000000 0.051426 0.000000
# 6 0.000000 0.000000 0.000000 0.009376 0.000000 0.033424
#
#
# Mechanical properties :
#
#
# Convention : Reuss Voigt Hill
#
# Bulk Modulus (GPa) = 47.66192 48.82745 48.24468
# Shear Modulus (GPa) = 22.86620 28.23069 25.54845
#
# Velocity S-wave (km/s) = 3.37715 3.75244 3.56973
# Velocity P-wave (km/s) = 6.24336 6.56722 6.40734
#
# Compressibility (1/GPa) = 0.02098111
#
# Stress axis : x y z
#
# Youngs Moduli (GPa) = 92.77886 56.21636 78.29923
#
# Poissons Ratio (x) = 0.19485 -0.04875
# Poissons Ratio (y) = 0.32158 0.57434
# Poissons Ratio (z) = -0.05777 0.41236
#
# Static dielectric constant tensor:
#      x y z
#    x 3.654430 0.000000 0.026470 
#    y 0.000000 3.514820 0.000000 
#    z 0.026470 0.000000 3.654060 
# 
# 
# High freq. dielectric constant tensor:
#      x y z
#    x 1.795400 0.000000 0.001630 
#    y 0.000000 1.772090 0.000000 
#    z 0.001630 0.000000 1.776660 
# 
# From -- ./inp_files/28749.got.cif
#   From: 2010.06.25/outbox.cif.g09.slc.cpg/sg9_15_cif.got.tgz:28749.got - 2010.06.27 21:40:51.
