data_PCOD8055152
_publ_section_title
;
Structure prediction by ZEFSAII (Michael W. Deem and Ramdas Pophale) SiO2 
 PCOD8055152
Probable space group: C C
;
_chemical_formula_sum "Si O2"
_cell_formula_units_Z 28
_cell_length_a 13.290403
_cell_length_b 20.041908
_cell_length_c 13.739916
_cell_angle_alpha 90.000000
_cell_angle_beta 158.008786
_cell_angle_gamma 90.000000
_cell_volume 1370.477279
_symmetry_space_group_name_H-M "C C"
_symmetry_group_IT_number 9
_symmetry_cell_setting 'monoclinic'
loop_
_space_group_symop_operation_xyz
x,y,z
x,-y,1/2+z
1/2+x,1/2+y,z
1/2+x,1/2-y,1/2+z
loop_
_atom_site_type_symbol
_atom_site_label
_atom_site_fract_x
_atom_site_fract_y
_atom_site_fract_z
Si Si1 0.557240 0.657594 0.487800
Si Si2 0.565287 0.896880 0.643585
Si Si3 0.060819 0.501481 0.786749
Si Si4 0.139977 0.206977 0.348105
Si Si5 0.704532 0.714369 0.803995
Si Si6 0.314690 0.981138 0.263635
Si Si7 0.608694 0.434723 0.746523
O O1 0.269455 0.660492 0.287560
O O2 0.535074 0.680949 0.357948
O O3 0.753168 0.705927 0.728264
O O4 0.640714 0.580006 0.565128
O O5 0.277597 0.860407 0.407413
O O6 0.540086 0.953146 0.538535
O O7 0.666187 0.932627 0.832497
O O8 0.964988 0.483513 0.809164
O O9 0.812149 0.529576 0.502259
O O10 0.303302 0.554250 0.008435
O O11 0.432671 0.239447 0.619685
O O12 0.162461 0.144621 0.294727
O O13 0.395200 0.735832 0.537664
O O14 0.138080 0.036043 0.163282
#
# Coordination Sequence:
#
# PCOD8055152 Si02
#       7
#     4   4   4   4   4   4   4
#     4  11  20  37  57  90 119 158 201 248 306 366
#     4  10  22  36  59  89 123 155 200 254 313 368
#     4  11  22  40  62  91 121 156 205 262 317 366
#     4  12  26  38  59  90 127 168 203 246 309 382
#     4  11  21  33  53  79 116 157 191 236 298 369
#     4  10  22  37  64  90 123 161 204 261 312 360
#     4  11  23  41  62  91 127 161 206 257 309 375
#
# _framework density 20.430838999999999
#
# number of rings (size 3 to 8) (size 9 to 14) (size 15 to 20)
#    0.000    1.143    4.286    2.571    4.000    0.000 
#    0.000    0.000    0.000    1.714    0.000    0.000 
#    0.000    0.000    0.000    0.000    0.000    0.000 
#
# Total GULP energy -173488.281286 kJ/mol
# GULP energy per Si atom -12392.020092 kJ/mol
# Density = 2.038434 g / cm^3
# Si number density = 20.430839 Si / 1000 Ang^3
#
#
#
# Elastic Constant Matrix: (Units=GPa)
#
#
# Indices 1 2 3 4 5 6 
#
# 1 84.6624 26.5684 21.7159 0.0017 -0.2269 0.0009
# 2 26.5684 80.7925 24.3127 0.0009 -11.2318 0.0005
# 3 21.7159 24.3127 102.0802 0.0059 -0.6403 0.0031
# 4 0.0017 0.0009 0.0059 39.6613 0.0023 -4.6812
# 5 -0.2269 -11.2318 -0.6403 0.0023 17.3181 0.0012
# 6 0.0009 0.0005 0.0031 -4.6812 0.0012 32.1200
#
#
#
# Elastic Compliance Matrix: (Units=1/GPa)
#
#
# Indices 1 2 3 4 5 6 
#
# 1 0.013636 -0.004284 -0.001897 0.000000 -0.002670 0.000000
# 2 -0.004284 0.016071 -0.002852 0.000000 0.010261 0.000000
# 3 -0.001897 -0.002852 0.010870 -0.000002 -0.001473 -0.000001
# 4 0.000000 0.000000 -0.000002 0.025655 -0.000004 0.003739
# 5 -0.002670 0.010261 -0.001473 -0.000004 0.064309 -0.000003
# 6 0.000000 0.000000 -0.000001 0.003739 -0.000003 0.031678
#
#
# Mechanical properties :
#
#
# Convention : Reuss Voigt Hill
#
# Bulk Modulus (GPa) = 44.42514 45.85878 45.14196
# Shear Modulus (GPa) = 26.62578 30.81575 28.72077
#
# Velocity S-wave (km/s) = 3.61392 3.88789 3.75341
# Velocity P-wave (km/s) = 6.26141 6.53061 6.39743
#
# Compressibility (1/GPa) = 0.02250978
#
# Stress axis : x y z
#
# Youngs Moduli (GPa) = 73.33774 62.22377 91.99797
#
# Poissons Ratio (x) = 0.26659 0.17453
# Poissons Ratio (y) = 0.31420 0.26237
# Poissons Ratio (z) = 0.13913 0.17746
#
# Static dielectric constant tensor:
#      x y z
#    x 3.483070 0.000000 -0.044930 
#    y 0.000000 3.926040 0.000000 
#    z -0.044930 0.000000 3.833770 
# 
# 
# High freq. dielectric constant tensor:
#      x y z
#    x 1.745300 0.000000 -0.003490 
#    y 0.000000 1.804460 0.000000 
#    z -0.003490 0.000000 1.815520 
# 
# From -- ./inp_files/1779.got.cif
#   From: 2010.06.25/outbox.cif.g09.slc.cpg/sg9_1_cif.got.tgz:1779.got - 2010.06.27 21:40:51.
