data_PCOD8055344
_publ_section_title
;
Structure prediction by ZEFSAII (Michael W. Deem and Ramdas Pophale) SiO2 
 PCOD8055344
Probable space group: C C
;
_chemical_formula_sum "Si O2"
_cell_formula_units_Z 32
_cell_length_a 16.925808
_cell_length_b 11.811557
_cell_length_c 13.780915
_cell_angle_alpha 90.000000
_cell_angle_beta 147.424080
_cell_angle_gamma 90.000000
_cell_volume 1483.382381
_symmetry_space_group_name_H-M "C C"
_symmetry_group_IT_number 9
_symmetry_cell_setting 'monoclinic'
loop_
_space_group_symop_operation_xyz
x,y,z
x,-y,1/2+z
1/2+x,1/2+y,z
1/2+x,1/2-y,1/2+z
loop_
_atom_site_type_symbol
_atom_site_label
_atom_site_fract_x
_atom_site_fract_y
_atom_site_fract_z
Si Si1 0.862480 0.875081 0.603220
Si Si2 0.197773 0.837806 0.383580
Si Si3 0.137309 0.774319 0.779661
Si Si4 0.400871 0.460836 0.852187
Si Si5 0.862268 0.629539 0.237134
Si Si6 0.868263 0.880258 0.024174
Si Si7 0.676714 0.161639 0.621041
Si Si8 0.711388 0.515978 0.242035
O O1 0.721300 0.793659 0.451373
O O2 0.911852 0.887382 0.765517
O O3 0.982762 0.814001 0.661379
O O4 0.824706 0.996754 0.518339
O O5 0.292846 0.905243 0.562202
O O6 0.245369 0.706977 0.432275
O O7 0.025976 0.845464 0.232078
O O8 0.231285 0.895115 0.314248
O O9 0.118449 0.689777 0.668698
O O10 0.226059 0.885973 0.838185
O O11 0.264875 0.545462 0.707856
O O12 0.375498 0.375691 0.915249
O O13 0.551986 0.528850 0.025778
O O14 0.781657 0.741936 0.189963
O O15 0.834017 0.529064 0.285742
O O16 0.035495 0.649336 0.405421
#
# Coordination Sequence:
#
# PCOD8055344 Si02
#       8
#     4   4   4   4   4   4   4   4
#     4  12  24  43  71 103 138 183 234 289 353 419
#     4  11  23  43  66  92 137 178 226 278 353 410
#     4  11  21  44  69  98 139 183 228 289 352 417
#     4  11  23  43  66  98 139 177 228 286 353 410
#     4  11  22  37  67  97 126 172 234 275 337 414
#     4  11  24  45  66  95 136 182 224 291 346 419
#     4  11  21  41  67  98 132 175 229 289 335 417
#     4  10  22  42  68  95 135 184 227 287 347 420
#
# _framework density 21.572320999999999
#
# number of rings (size 3 to 8) (size 9 to 14) (size 15 to 20)
#    0.000    1.000    3.750    5.250    0.000    3.000 
#    6.750    0.000    0.000    0.000    0.000    0.000 
#    0.000    0.000    0.000    0.000    0.000    0.000 
#
# Total GULP energy -198450.799300 kJ/mol
# GULP energy per Si atom -12403.174956 kJ/mol
# Density = 2.152322 g / cm^3
# Si number density = 21.572321 Si / 1000 Ang^3
#
#
#
# Elastic Constant Matrix: (Units=GPa)
#
#
# Indices 1 2 3 4 5 6 
#
# 1 58.5186 15.2745 24.2023 0.0000 -13.7903 0.0000
# 2 15.2745 88.9259 45.3714 0.0000 5.3106 0.0000
# 3 24.2023 45.3714 124.3364 0.0000 -5.1909 0.0000
# 4 0.0000 0.0000 0.0000 37.4535 0.0000 2.4735
# 5 -13.7903 5.3106 -5.1909 0.0000 37.7636 0.0000
# 6 0.0000 0.0000 0.0000 2.4735 0.0000 31.1975
#
#
#
# Elastic Compliance Matrix: (Units=1/GPa)
#
#
# Indices 1 2 3 4 5 6 
#
# 1 0.020686 -0.002592 -0.002766 0.000000 0.007538 0.000000
# 2 -0.002592 0.014412 -0.004907 0.000000 -0.003648 0.000000
# 3 -0.002766 -0.004907 0.010418 0.000000 0.001112 0.000000
# 4 0.000000 0.000000 0.000000 0.026840 0.000000 -0.002128
# 5 0.007538 -0.003648 0.001112 0.000000 0.029899 0.000000
# 6 0.000000 0.000000 0.000000 -0.002128 0.000000 0.032223
#
#
# Mechanical properties :
#
#
# Convention : Reuss Voigt Hill
#
# Bulk Modulus (GPa) = 40.02242 49.05305 44.53774
# Shear Modulus (GPa) = 30.61184 33.74510 32.17847
#
# Velocity S-wave (km/s) = 3.77109 3.95939 3.86639
# Velocity P-wave (km/s) = 6.12817 6.60988 6.37358
#
# Compressibility (1/GPa) = 0.02498599
#
# Stress axis : x y z
#
# Youngs Moduli (GPa) = 48.34303 69.38712 95.98736
#
# Poissons Ratio (x) = 0.17985 0.26549
# Poissons Ratio (y) = 0.12531 0.47099
# Poissons Ratio (z) = 0.13371 0.34047
#
# Static dielectric constant tensor:
#      x y z
#    x 4.017330 0.000000 -0.186870 
#    y 0.000000 3.737280 0.000000 
#    z -0.186870 0.000000 3.981250 
# 
# 
# High freq. dielectric constant tensor:
#      x y z
#    x 1.847890 0.000000 -0.007770 
#    y 0.000000 1.832740 0.000000 
#    z -0.007770 0.000000 1.850890 
# 
# From -- ./inp_files/9071.got.cif
#   From: 2010.06.25/outbox.cif.g09.slc.cpg/sg9_5_cif.got.tgz:9071.got - 2010.06.27 21:40:51.
