data_PCOD8055719
_publ_section_title
;
Structure prediction by ZEFSAII (Michael W. Deem and Ramdas Pophale) SiO2 
 PCOD8055719
Probable space group: C C
;
_chemical_formula_sum "Si O2"
_cell_formula_units_Z 28
_cell_length_a 8.989034
_cell_length_b 16.119595
_cell_length_c 9.245747
_cell_angle_alpha 90.000000
_cell_angle_beta 117.397153
_cell_angle_gamma 90.000000
_cell_volume 1189.441279
_symmetry_space_group_name_H-M "C C"
_symmetry_group_IT_number 9
_symmetry_cell_setting 'monoclinic'
loop_
_space_group_symop_operation_xyz
x,y,z
x,-y,1/2+z
1/2+x,1/2+y,z
1/2+x,1/2-y,1/2+z
loop_
_atom_site_type_symbol
_atom_site_label
_atom_site_fract_x
_atom_site_fract_y
_atom_site_fract_z
Si Si1 0.508710 0.771840 0.424830
Si Si2 0.408627 0.429726 0.582322
Si Si3 0.728307 0.947395 0.805179
Si Si4 0.340549 0.304232 0.301409
Si Si5 0.647472 0.229722 0.288525
Si Si6 0.203260 0.859963 0.852744
Si Si7 0.529874 0.897120 0.172223
O O1 0.635961 0.785314 0.612130
O O2 0.322140 0.773041 0.404748
O O3 0.554221 0.681522 0.380598
O O4 0.524895 0.844994 0.317244
O O5 0.293357 0.431848 0.672284
O O6 0.374845 0.510342 0.467807
O O7 0.375727 0.345452 0.474218
O O8 0.606471 0.429970 0.715554
O O9 0.656870 0.864840 0.852873
O O10 0.568544 0.008287 0.728003
O O11 0.508936 0.294763 0.283508
O O12 0.280914 0.210117 0.286776
O O13 0.190527 0.357035 0.155920
O O14 0.353886 0.898412 0.012171
#
# Coordination Sequence:
#
# PCOD8055719 Si02
#       7
#     4   4   4   4   4   4   4
#     4  11  23  45  75 107 147 195 246 305 365 443
#     4  11  25  49  72 106 148 196 242 304 375 437
#     4  11  25  48  74 102 152 193 243 302 377 441
#     4  10  24  42  74 105 145 189 250 305 361 435
#     4  12  25  43  73 113 146 189 255 305 366 440
#     4  11  21  44  71 103 141 194 248 302 356 442
#     4  10  23  45  73 102 145 200 236 301 372 438
#
# _framework density 23.540462999999999
#
# number of rings (size 3 to 8) (size 9 to 14) (size 15 to 20)
#    0.000    1.143    2.857    4.286    6.000    1.143 
#    2.571    1.429    0.000    0.000    0.000    0.000 
#    0.000    0.000    0.000    0.000    0.000    0.000 
#
# Total GULP energy -173490.299450 kJ/mol
# GULP energy per Si atom -12392.164246 kJ/mol
# Density = 2.348688 g / cm^3
# Si number density = 23.540463 Si / 1000 Ang^3
#
#
#
# Elastic Constant Matrix: (Units=GPa)
#
#
# Indices 1 2 3 4 5 6 
#
# 1 99.9053 33.8471 24.6515 0.0000 13.4230 0.0000
# 2 33.8471 90.9069 28.1187 0.0000 -1.7712 0.0000
# 3 24.6515 28.1187 145.2980 0.0000 12.5634 0.0000
# 4 0.0000 0.0000 0.0000 24.6381 0.0000 7.2952
# 5 13.4230 -1.7712 12.5634 0.0000 34.2201 0.0000
# 6 0.0000 0.0000 0.0000 7.2952 0.0000 19.5272
#
#
#
# Elastic Compliance Matrix: (Units=1/GPa)
#
#
# Indices 1 2 3 4 5 6 
#
# 1 0.012359 -0.004439 -0.000825 0.000000 -0.004775 0.000000
# 2 -0.004439 0.013369 -0.002111 0.000000 0.003208 0.000000
# 3 -0.000825 -0.002111 0.007655 0.000000 -0.002596 0.000000
# 4 0.000000 0.000000 0.000000 0.045636 0.000000 -0.017049
# 5 -0.004775 0.003208 -0.002596 0.000000 0.032215 0.000000
# 6 0.000000 0.000000 0.000000 -0.017049 0.000000 0.057580
#
#
# Mechanical properties :
#
#
# Convention : Reuss Voigt Hill
#
# Bulk Modulus (GPa) = 53.67218 56.59388 55.13303
# Shear Modulus (GPa) = 26.34700 32.30992 29.32846
#
# Velocity S-wave (km/s) = 3.34911 3.70878 3.53352
# Velocity P-wave (km/s) = 6.14856 6.51409 6.33396
#
# Compressibility (1/GPa) = 0.01863163
#
# Stress axis : x y z
#
# Youngs Moduli (GPa) = 80.91586 74.80132 130.62580
#
# Poissons Ratio (x) = 0.33207 0.10774
# Poissons Ratio (y) = 0.35921 0.27581
# Poissons Ratio (z) = 0.06674 0.15794
#
# Static dielectric constant tensor:
#      x y z
#    x 4.181670 0.000000 0.251060 
#    y 0.000000 4.193560 0.000000 
#    z 0.251060 0.000000 4.430520 
# 
# 
# High freq. dielectric constant tensor:
#      x y z
#    x 1.923240 0.000000 0.011060 
#    y 0.000000 1.920150 0.000000 
#    z 0.011060 0.000000 1.946170 
# 
# From -- ./inp_files/15141.got.cif
#   From: 2010.06.25/outbox.cif.g09.slc.cpg/sg9_8_cif.got.tgz:15141.got - 2010.06.27 21:40:51.
