data_PCOD8055956
_publ_section_title
;
Structure prediction by ZEFSAII (Michael W. Deem and Ramdas Pophale) SiO2 
 PCOD8055956
Probable space group: C C
;
_chemical_formula_sum "Si O2"
_cell_formula_units_Z 24
_cell_length_a 18.427612
_cell_length_b 9.693076
_cell_length_c 9.209748
_cell_angle_alpha 90.000000
_cell_angle_beta 146.216453
_cell_angle_gamma 90.000000
_cell_volume 914.740087
_symmetry_space_group_name_H-M "C C"
_symmetry_group_IT_number 9
_symmetry_cell_setting 'monoclinic'
loop_
_space_group_symop_operation_xyz
x,y,z
x,-y,1/2+z
1/2+x,1/2+y,z
1/2+x,1/2-y,1/2+z
loop_
_atom_site_type_symbol
_atom_site_label
_atom_site_fract_x
_atom_site_fract_y
_atom_site_fract_z
Si Si1 0.730100 0.115936 0.453690
Si Si2 0.168678 0.809956 0.857719
Si Si3 0.827480 0.481596 0.930720
Si Si4 0.327533 0.612865 0.310330
Si Si5 0.001020 0.427910 0.962924
Si Si6 0.614851 0.606495 0.736436
O O1 0.837743 0.120120 0.502414
O O2 0.688478 0.267616 0.440638
O O3 0.784219 0.038947 0.684767
O O4 0.609222 0.040568 0.176443
O O5 0.053018 0.725990 0.583296
O O6 0.115196 0.959884 0.824755
O O7 0.288804 0.836710 0.944555
O O8 0.220603 0.722717 0.079303
O O9 0.867936 0.458054 0.832444
O O10 0.953506 0.554311 0.218135
O O11 0.698710 0.580941 0.727036
O O12 0.465431 0.650430 0.464909
#
# Coordination Sequence:
#
# PCOD8055956 Si02
#       6
#     4   4   4   4   4   4
#     4  11  26  45  76 103 141 191 232 293 355 410
#     4   9  24  42  67 103 133 186 222 291 344 402
#     4  10  25  43  71  99 139 180 232 285 352 407
#     4  11  25  49  68 106 144 182 241 289 348 425
#     4  11  22  48  69  99 141 181 232 291 349 416
#     4  10  26  43  71 106 138 186 233 291 348 420
#
# _framework density 26.236961000000001
#
# number of rings (size 3 to 8) (size 9 to 14) (size 15 to 20)
#    1.000    0.667    0.000    3.000    7.000    5.333 
#    3.000    0.000    0.000    0.000    0.000    0.000 
#    0.000    0.000    0.000    0.000    0.000    0.000 
#
# Total GULP energy -148701.632336 kJ/mol
# GULP energy per Si atom -12391.802695 kJ/mol
# Density = 2.617724 g / cm^3
# Si number density = 26.236961 Si / 1000 Ang^3
#
#
#
# Elastic Constant Matrix: (Units=GPa)
#
#
# Indices 1 2 3 4 5 6 
#
# 1 52.3796 24.1045 21.1869 0.0000 9.0526 0.0000
# 2 24.1045 178.1572 30.0867 0.0000 2.4530 0.0000
# 3 21.1869 30.0867 79.8604 0.0000 13.5698 0.0000
# 4 0.0000 0.0000 0.0000 25.9731 0.0000 12.0713
# 5 9.0526 2.4530 13.5698 0.0000 40.3108 0.0000
# 6 0.0000 0.0000 0.0000 12.0713 0.0000 28.4138
#
#
#
# Elastic Compliance Matrix: (Units=1/GPa)
#
#
# Indices 1 2 3 4 5 6 
#
# 1 0.022552 -0.002234 -0.004565 0.000000 -0.003392 0.000000
# 2 -0.002234 0.006222 -0.001880 0.000000 0.000756 0.000000
# 3 -0.004565 -0.001880 0.015112 0.000000 -0.003948 0.000000
# 4 0.000000 0.000000 0.000000 0.047974 0.000000 -0.020381
# 5 -0.003392 0.000756 -0.003948 0.000000 0.026852 0.000000
# 6 0.000000 0.000000 0.000000 -0.020381 0.000000 0.043853
#
#
# Mechanical properties :
#
#
# Convention : Reuss Voigt Hill
#
# Bulk Modulus (GPa) = 37.69508 51.23927 44.46718
# Shear Modulus (GPa) = 26.48786 34.60747 30.54766
#
# Velocity S-wave (km/s) = 3.18081 3.63579 3.41588
# Velocity P-wave (km/s) = 5.28095 6.09895 5.70463
#
# Compressibility (1/GPa) = 0.02652866
#
# Stress axis : x y z
#
# Youngs Moduli (GPa) = 44.34185 160.71177 66.17237
#
# Poissons Ratio (x) = 0.35897 0.30209
# Poissons Ratio (y) = 0.09904 0.12441
# Poissons Ratio (z) = 0.20243 0.30215
#
# Static dielectric constant tensor:
#      x y z
#    x 4.479030 0.000000 0.339820 
#    y 0.000000 4.952450 0.000000 
#    z 0.339820 0.000000 4.375760 
# 
# 
# High freq. dielectric constant tensor:
#      x y z
#    x 2.035330 0.000000 0.016250 
#    y 0.000000 2.063220 0.000000 
#    z 0.016250 0.000000 2.040880 
# 
# From -- ./inp_files/20829.got.cif
#   From: 2010.06.25/outbox.cif.g09.slc.cpg/sg9_11_cif.got.tgz:20829.got - 2010.06.27 21:40:51.
