data_PCOD8055589
_publ_section_title
;
Structure prediction by ZEFSAII (Michael W. Deem and Ramdas Pophale) SiO2 
 PCOD8055589
Probable space group: C C
;
_chemical_formula_sum "Si O2"
_cell_formula_units_Z 32
_cell_length_a 6.197745
_cell_length_b 18.038902
_cell_length_c 14.540273
_cell_angle_alpha 90.000000
_cell_angle_beta 128.902044
_cell_angle_gamma 90.000000
_cell_volume 1265.083430
_symmetry_space_group_name_H-M "C C"
_symmetry_group_IT_number 9
_symmetry_cell_setting 'monoclinic'
loop_
_space_group_symop_operation_xyz
x,y,z
x,-y,1/2+z
1/2+x,1/2+y,z
1/2+x,1/2-y,1/2+z
loop_
_atom_site_type_symbol
_atom_site_label
_atom_site_fract_x
_atom_site_fract_y
_atom_site_fract_z
Si Si1 0.548100 0.681353 0.876480
Si Si2 0.038008 0.409877 0.867435
Si Si3 0.344020 0.197689 0.446434
Si Si4 0.273479 0.642837 0.258412
Si Si5 0.431008 0.540575 0.159073
Si Si6 0.618795 0.619639 0.703861
Si Si7 0.745413 0.068837 0.914016
Si Si8 0.637640 0.256208 0.073458
O O1 0.332634 0.738690 0.864871
O O2 0.497069 0.669619 0.754543
O O3 0.482136 0.602287 0.909827
O O4 0.860265 0.711263 0.972785
O O5 0.076801 0.362494 0.973875
O O6 0.725610 0.436311 0.777243
O O7 0.065437 0.353840 0.788268
O O8 0.246047 0.478806 0.909182
O O9 0.367282 0.237690 0.552388
O O10 0.070737 0.149104 0.385342
O O11 0.223818 0.567746 0.185144
O O12 0.268632 0.714881 0.194262
O O13 0.425463 0.452941 0.143260
O O14 0.336074 0.586210 0.043219
O O15 0.581221 0.660966 0.596516
O O16 0.941029 0.600618 0.810453
#
# Coordination Sequence:
#
# PCOD8055589 Si02
#       8
#     4   4   4   4   4   4   4   4
#     4  12  24  43  70  98 140 185 231 297 355 420
#     4  10  23  44  68  99 136 185 232 290 357 422
#     4  11  25  42  66  97 135 179 233 287 351 427
#     4  11  22  44  66  95 135 179 231 289 349 425
#     4  10  23  42  69 101 138 182 233 286 357 422
#     4  11  26  46  67 108 142 183 240 297 354 429
#     4  11  24  45  69 104 144 182 239 294 357 427
#     4  12  25  42  71 100 140 185 239 292 360 424
#
# _framework density 25.294775000000001
#
# number of rings (size 3 to 8) (size 9 to 14) (size 15 to 20)
#    0.000    1.000    0.000    6.750    3.500    4.000 
#    4.500    0.000    0.000    0.000    0.000    0.000 
#    0.000    0.000    0.000    0.000    0.000    0.000 
#
# Total GULP energy -198220.660660 kJ/mol
# GULP energy per Si atom -12388.791291 kJ/mol
# Density = 2.523720 g / cm^3
# Si number density = 25.294775 Si / 1000 Ang^3
#
#
#
# Elastic Constant Matrix: (Units=GPa)
#
#
# Indices 1 2 3 4 5 6 
#
# 1 130.9249 63.3444 34.3213 0.0000 -47.6005 0.0000
# 2 63.3444 131.5090 10.8223 0.0000 -19.9405 0.0000
# 3 34.3213 10.8223 48.1180 0.0000 -26.6420 0.0000
# 4 0.0000 0.0000 0.0000 45.0674 0.0000 -6.1980
# 5 -47.6005 -19.9405 -26.6420 0.0000 49.4715 0.0000
# 6 0.0000 0.0000 0.0000 -6.1980 0.0000 51.7100
#
#
#
# Elastic Compliance Matrix: (Units=1/GPa)
#
#
# Indices 1 2 3 4 5 6 
#
# 1 0.014900 -0.005326 -0.003820 0.000000 0.010133 0.000000
# 2 -0.005326 0.010003 0.001345 0.000000 -0.000368 0.000000
# 3 -0.003820 0.001345 0.030591 0.000000 0.013341 0.000000
# 4 0.000000 0.000000 0.000000 0.022561 0.000000 0.002704
# 5 0.010133 -0.000368 0.013341 0.000000 0.036999 0.000000
# 6 0.000000 0.000000 0.000000 0.002704 0.000000 0.019663
#
#
# Mechanical properties :
#
#
# Convention : Reuss Voigt Hill
#
# Bulk Modulus (GPa) = 25.06714 58.61421 41.84067
# Shear Modulus (GPa) = 30.55933 42.72071 36.64002
#
# Velocity S-wave (km/s) = 3.47958 4.11410 3.81007
# Velocity P-wave (km/s) = 5.10636 6.76687 5.99439
#
# Compressibility (1/GPa) = 0.03989287
#
# Stress axis : x y z
#
# Youngs Moduli (GPa) = 67.11278 99.96996 32.68952
#
# Poissons Ratio (x) = 0.53247 0.12486
# Poissons Ratio (y) = 0.35746 -0.04398
# Poissons Ratio (z) = 0.25635 -0.13449
#
# Static dielectric constant tensor:
#      x y z
#    x 4.708160 0.000000 -0.285690 
#    y 0.000000 5.033170 0.000000 
#    z -0.285690 0.000000 4.399430 
# 
# 
# High freq. dielectric constant tensor:
#      x y z
#    x 2.008310 0.000000 -0.015470 
#    y 0.000000 2.023230 0.000000 
#    z -0.015470 0.000000 2.004600 
# 
# From -- ./inp_files/22037.got.cif
#   From: 2010.06.25/outbox.cif.g09.slc.cpg/sg9_12_cif.got.tgz:22037.got - 2010.06.27 21:40:51.
