data_PCOD8055258
_publ_section_title
;
Structure prediction by ZEFSAII (Michael W. Deem and Ramdas Pophale) SiO2 
 PCOD8055258
Probable space group: C C
;
_chemical_formula_sum "Si O2"
_cell_formula_units_Z 28
_cell_length_a 20.203352
_cell_length_b 12.041970
_cell_length_c 9.215057
_cell_angle_alpha 90.000000
_cell_angle_beta 40.100136
_cell_angle_gamma 90.000000
_cell_volume 1444.074015
_symmetry_space_group_name_H-M "C C"
_symmetry_group_IT_number 9
_symmetry_cell_setting 'monoclinic'
loop_
_space_group_symop_operation_xyz
x,y,z
x,-y,1/2+z
1/2+x,1/2+y,z
1/2+x,1/2-y,1/2+z
loop_
_atom_site_type_symbol
_atom_site_label
_atom_site_fract_x
_atom_site_fract_y
_atom_site_fract_z
Si Si1 0.391480 0.782198 0.968360
Si Si2 0.089154 0.392719 0.587624
Si Si3 0.073497 0.209450 0.824941
Si Si4 0.896589 0.063671 0.784542
Si Si5 0.178408 0.210705 0.941860
Si Si6 0.036851 0.026465 0.293314
Si Si7 0.188226 0.427433 0.110710
O O1 0.465693 0.875979 0.771554
O O2 0.450624 0.729408 0.009225
O O3 0.367704 0.684345 0.893782
O O4 0.284802 0.836914 0.197003
O O5 0.132155 0.284829 0.604781
O O6 0.145270 0.401624 0.341215
O O7 0.106810 0.500932 0.656047
O O8 0.104953 0.247797 0.932664
O O9 0.095517 0.079410 0.763730
O O10 0.945245 0.076502 0.544136
O O11 0.985597 0.003713 0.726744
O O12 0.795199 0.990272 0.946965
O O13 0.125042 0.117572 0.127801
O O14 0.206427 0.314335 0.994542
#
# Coordination Sequence:
#
# PCOD8055258 Si02
#       7
#     4   4   4   4   4   4   4
#     4   9  22  41  64  90 129 165 212 266 319 382
#     4  10  22  41  62  90 131 162 216 266 323 381
#     4   9  21  42  62  87 131 169 216 270 308 386
#     4  11  21  41  66  94 122 168 224 264 307 377
#     4  12  23  39  67  94 130 171 212 268 335 374
#     4  11  22  39  66  94 127 167 217 270 312 385
#     4  12  23  39  67  97 124 172 215 270 326 383
#
# _framework density 19.389588
#
# number of rings (size 3 to 8) (size 9 to 14) (size 15 to 20)
#    0.857    0.571    1.429    6.000    0.000    0.000 
#    2.571    0.000    0.000    0.000    0.000    0.000 
#    0.000    0.000    0.000    0.000    0.000    0.000 
#
# Total GULP energy -173553.069136 kJ/mol
# GULP energy per Si atom -12396.647795 kJ/mol
# Density = 1.934546 g / cm^3
# Si number density = 19.389588 Si / 1000 Ang^3
#
#
#
# Elastic Constant Matrix: (Units=GPa)
#
#
# Indices 1 2 3 4 5 6 
#
# 1 56.4380 20.4552 26.3185 0.0000 7.3835 0.0000
# 2 20.4552 77.1830 51.6740 0.0000 -8.7621 0.0000
# 3 26.3185 51.6740 146.5300 0.0000 -1.0713 0.0000
# 4 0.0000 0.0000 0.0000 35.9878 0.0000 -2.6246
# 5 7.3835 -8.7621 -1.0713 0.0000 33.9005 0.0000
# 6 0.0000 0.0000 0.0000 -2.6246 0.0000 35.6228
#
#
#
# Elastic Compliance Matrix: (Units=1/GPa)
#
#
# Indices 1 2 3 4 5 6 
#
# 1 0.021265 -0.004878 -0.002143 0.000000 -0.005960 0.000000
# 2 -0.004878 0.018698 -0.005676 0.000000 0.005716 0.000000
# 3 -0.002143 -0.005676 0.009206 0.000000 -0.000709 0.000000
# 4 0.000000 0.000000 0.000000 0.027937 0.000000 0.002058
# 5 -0.005960 0.005716 -0.000709 0.000000 0.032251 0.000000
# 6 0.000000 0.000000 0.000000 0.002058 0.000000 0.028224
#
#
# Mechanical properties :
#
#
# Convention : Reuss Voigt Hill
#
# Bulk Modulus (GPa) = 42.05929 53.00516 47.53222
# Shear Modulus (GPa) = 29.25693 33.21577 31.23635
#
# Velocity S-wave (km/s) = 3.88867 4.14342 4.01806
# Velocity P-wave (km/s) = 6.47311 7.09132 6.78925
#
# Compressibility (1/GPa) = 0.02377596
#
# Stress axis : x y z
#
# Youngs Moduli (GPa) = 47.02462 53.48212 108.62613
#
# Poissons Ratio (x) = 0.26087 0.23278
# Poissons Ratio (y) = 0.22937 0.61656
# Poissons Ratio (z) = 0.10077 0.30356
#
# Static dielectric constant tensor:
#      x y z
#    x 3.546540 0.000000 0.081180 
#    y 0.000000 3.511820 0.000000 
#    z 0.081180 0.000000 3.466770 
# 
# 
# High freq. dielectric constant tensor:
#      x y z
#    x 1.756070 0.000000 0.006350 
#    y 0.000000 1.748340 0.000000 
#    z 0.006350 0.000000 1.752470 
# 
# From -- ./inp_files/11617.got.cif
#   From: 2010.06.25/outbox.cif.g09.slc.cpg/sg9_6_cif.got.tgz:11617.got - 2010.06.27 21:40:51.
