data_PCOD8055866
_publ_section_title
;
Structure prediction by ZEFSAII (Michael W. Deem and Ramdas Pophale) SiO2 
 PCOD8055866
Probable space group: C C
;
_chemical_formula_sum "Si O2"
_cell_formula_units_Z 24
_cell_length_a 23.239238
_cell_length_b 5.303323
_cell_length_c 20.766814
_cell_angle_alpha 90.000000
_cell_angle_beta 153.330511
_cell_angle_gamma 90.000000
_cell_volume 1148.773701
_symmetry_space_group_name_H-M "C C"
_symmetry_group_IT_number 9
_symmetry_cell_setting 'monoclinic'
loop_
_space_group_symop_operation_xyz
x,y,z
x,-y,1/2+z
1/2+x,1/2+y,z
1/2+x,1/2-y,1/2+z
loop_
_atom_site_type_symbol
_atom_site_label
_atom_site_fract_x
_atom_site_fract_y
_atom_site_fract_z
Si Si1 0.061980 0.835835 0.508860
Si Si2 0.062062 0.164061 0.760533
Si Si3 0.792850 0.091308 0.793831
Si Si4 0.648360 0.155042 0.043014
Si Si5 0.292925 0.408663 0.937311
Si Si6 0.648403 0.845056 0.399116
O O1 0.191420 0.819218 0.681669
O O2 0.056423 0.592454 0.455894
O O3 0.938343 0.818945 0.430992
O O4 0.064753 0.095191 0.472004
O O5 0.056492 0.407412 0.802383
O O6 0.064785 0.904674 0.802871
O O7 0.191531 0.180687 0.846653
O O8 0.938443 0.180996 0.591131
O O9 0.761989 0.872904 0.709696
O O10 0.771344 0.000019 0.844034
O O11 0.707003 0.168799 0.029691
O O12 0.262066 0.626999 0.959744
#
# Coordination Sequence:
#
# PCOD8055866 Si02
#       6
#     4   4   4   4   4   4
#     4  10  25  44  67 103 131 179 226 277 343 404
#     4  10  25  44  67 103 131 179 226 277 343 404
#     4  10  26  45  73  98 140 176 232 282 343 403
#     4  10  24  44  68 100 137 176 226 279 341 405
#     4  10  26  45  73  98 140 176 232 282 343 403
#     4  10  24  44  68 100 137 176 226 279 341 405
#
# _framework density 20.891843999999999
#
# number of rings (size 3 to 8) (size 9 to 14) (size 15 to 20)
#    2.000    0.000    0.000    1.000    9.333    2.667 
#    0.000    0.000    0.000    0.000    0.000    0.000 
#    0.000    0.000    0.000    0.000    0.000    0.000 
#
# Total GULP energy -148656.978210 kJ/mol
# GULP energy per Si atom -12388.081517 kJ/mol
# Density = 2.084429 g / cm^3
# Si number density = 20.891844 Si / 1000 Ang^3
#
#
#
# Elastic Constant Matrix: (Units=GPa)
#
#
# Indices 1 2 3 4 5 6 
#
# 1 136.1448 43.3945 68.3160 0.0008 -28.2269 -0.0002
# 2 43.3945 152.1557 39.1326 -0.0040 -3.5218 -0.0003
# 3 68.3160 39.1326 105.6097 -0.0027 2.9837 -0.0017
# 4 0.0008 -0.0040 -0.0027 18.9780 -0.0002 0.3014
# 5 -28.2269 -3.5218 2.9837 -0.0002 42.7129 0.0000
# 6 -0.0002 -0.0003 -0.0017 0.3014 0.0000 18.6113
#
#
#
# Elastic Compliance Matrix: (Units=1/GPa)
#
#
# Indices 1 2 3 4 5 6 
#
# 1 0.014488 -0.001564 -0.009077 -0.000002 0.010080 -0.000001
# 2 -0.001564 0.007460 -0.001744 0.000001 -0.000297 0.000000
# 3 -0.009077 -0.001744 0.016192 0.000002 -0.007274 0.000001
# 4 -0.000002 0.000001 0.000002 0.052706 -0.000001 -0.000854
# 5 0.010080 -0.000297 -0.007274 -0.000001 0.030557 -0.000001
# 6 -0.000001 0.000000 0.000001 -0.000854 -0.000001 0.053745
#
#
# Mechanical properties :
#
#
# Convention : Reuss Voigt Hill
#
# Bulk Modulus (GPa) = 74.79560 77.28850 76.04205
# Shear Modulus (GPa) = 24.46464 32.26490 28.36477
#
# Velocity S-wave (km/s) = 3.42572 3.93412 3.68869
# Velocity P-wave (km/s) = 7.17819 7.59680 7.39046
#
# Compressibility (1/GPa) = 0.01336977
#
# Stress axis : x y z
#
# Youngs Moduli (GPa) = 69.02033 134.04851 61.75710
#
# Poissons Ratio (x) = 0.20968 0.56059
# Poissons Ratio (y) = 0.10796 0.10770
# Poissons Ratio (z) = 0.62652 0.23378
#
# Static dielectric constant tensor:
#      x y z
#    x 3.519180 0.000000 -0.019520 
#    y 0.000000 3.680330 0.000000 
#    z -0.019520 0.000000 3.495440 
# 
# 
# High freq. dielectric constant tensor:
#      x y z
#    x 1.809490 0.000000 -0.005330 
#    y 0.000000 1.815990 0.000000 
#    z -0.005330 0.000000 1.803060 
# 
# From -- ./inp_files/12295.got.cif
#   From: 2010.06.25/outbox.cif.g09.slc.cpg/sg9_7_cif.got.tgz:12295.got - 2010.06.27 21:40:51.
