data_PCOD8055517
_publ_section_title
;
Structure prediction by ZEFSAII (Michael W. Deem and Ramdas Pophale) SiO2 
 PCOD8055517
Probable space group: C C
;
_chemical_formula_sum "Si O2"
_cell_formula_units_Z 28
_cell_length_a 24.547328
_cell_length_b 8.588204
_cell_length_c 10.415254
_cell_angle_alpha 90.000000
_cell_angle_beta 148.987252
_cell_angle_gamma 90.000000
_cell_volume 1131.296791
_symmetry_space_group_name_H-M "C C"
_symmetry_group_IT_number 9
_symmetry_cell_setting 'monoclinic'
loop_
_space_group_symop_operation_xyz
x,y,z
x,-y,1/2+z
1/2+x,1/2+y,z
1/2+x,1/2-y,1/2+z
loop_
_atom_site_type_symbol
_atom_site_label
_atom_site_fract_x
_atom_site_fract_y
_atom_site_fract_z
Si Si1 0.460220 0.779211 0.788590
Si Si2 0.623748 0.097422 0.433002
Si Si3 0.607792 0.513421 0.164614
Si Si4 0.226377 0.928160 0.644763
Si Si5 0.831945 0.047218 0.372935
Si Si6 0.909299 0.141100 0.267403
Si Si7 0.412629 0.967668 0.376413
O O1 0.556993 0.876792 0.926286
O O2 0.381944 0.712099 0.519832
O O3 0.390953 0.887463 0.739253
O O4 0.513091 0.638747 0.972247
O O5 0.697281 0.248962 0.552612
O O6 0.703846 0.951997 0.612382
O O7 0.537894 0.055225 0.151151
O O8 0.671603 0.533397 0.424186
O O9 0.685362 0.521932 0.200532
O O10 0.538038 0.354284 0.023321
O O11 0.350119 0.978011 0.880342
O O12 0.871292 0.023895 0.305783
O O13 0.865505 0.909628 0.539417
O O14 0.865839 0.313550 0.212125
#
# Coordination Sequence:
#
# PCOD8055517 Si02
#       7
#     4   4   4   4   4   4   4
#     4  10  25  48  72 111 154 197 264 317 381 475
#     4  11  26  50  74 112 154 206 255 318 385 468
#     4  10  22  50  73 104 153 205 251 320 386 460
#     4  11  26  45  76 109 158 199 258 319 393 453
#     4  11  26  48  83 107 156 210 256 319 397 458
#     4  11  24  51  79 113 156 206 266 319 383 473
#     4  12  27  46  77 118 157 199 270 324 381 471
#
# _framework density 24.750357000000001
#
# number of rings (size 3 to 8) (size 9 to 14) (size 15 to 20)
#    0.000    1.143    2.857    1.714   12.000    0.000 
#    5.143    0.000    0.000    0.000    0.000    0.000 
#    0.000    0.000    0.000    0.000    0.000    0.000 
#
# Total GULP energy -173516.821096 kJ/mol
# GULP energy per Si atom -12394.058650 kJ/mol
# Density = 2.469402 g / cm^3
# Si number density = 24.750357 Si / 1000 Ang^3
#
#
#
# Elastic Constant Matrix: (Units=GPa)
#
#
# Indices 1 2 3 4 5 6 
#
# 1 115.4623 59.2487 35.0664 0.0000 12.3727 0.0000
# 2 59.2487 78.6367 24.5025 0.0000 14.7670 0.0000
# 3 35.0664 24.5025 115.8610 0.0000 14.0805 0.0000
# 4 0.0000 0.0000 0.0000 28.6816 0.0000 3.4101
# 5 12.3727 14.7670 14.0805 0.0000 48.1575 0.0000
# 6 0.0000 0.0000 0.0000 3.4101 0.0000 32.4361
#
#
#
# Elastic Compliance Matrix: (Units=1/GPa)
#
#
# Indices 1 2 3 4 5 6 
#
# 1 0.014647 -0.010347 -0.002253 0.000000 0.000068 0.000000
# 2 -0.010347 0.021501 -0.000972 0.000000 -0.003651 0.000000
# 3 -0.002253 -0.000972 0.009759 0.000000 -0.001976 0.000000
# 4 0.000000 0.000000 0.000000 0.035307 0.000000 -0.003712
# 5 0.000068 -0.003651 -0.001976 0.000000 0.022445 0.000000
# 6 0.000000 0.000000 0.000000 -0.003712 0.000000 0.031220
#
#
# Mechanical properties :
#
#
# Convention : Reuss Voigt Hill
#
# Bulk Modulus (GPa) = 53.29617 60.84392 57.07005
# Shear Modulus (GPa) = 29.71307 34.59789 32.15548
#
# Velocity S-wave (km/s) = 3.46860 3.74287 3.60834
# Velocity P-wave (km/s) = 6.13366 6.58143 6.36149
#
# Compressibility (1/GPa) = 0.01876307
#
# Stress axis : x y z
#
# Youngs Moduli (GPa) = 68.27278 46.51017 102.47241
#
# Poissons Ratio (x) = 0.48122 0.23090
# Poissons Ratio (y) = 0.70639 0.09959
# Poissons Ratio (z) = 0.15384 0.04520
#
# Static dielectric constant tensor:
#      x y z
#    x 4.391810 0.000000 0.114910 
#    y 0.000000 4.458880 0.000000 
#    z 0.114910 0.000000 4.496500 
# 
# 
# High freq. dielectric constant tensor:
#      x y z
#    x 1.988720 0.000000 0.002230 
#    y 0.000000 1.972100 0.000000 
#    z 0.002230 0.000000 1.992200 
# 
# From -- ./inp_files/21223.got.cif
#   From: 2010.06.25/outbox.cif.g09.slc.cpg/sg9_11_cif.got.tgz:21223.got - 2010.06.27 21:40:51.
