data_PCOD8055591
_publ_section_title
;
Structure prediction by ZEFSAII (Michael W. Deem and Ramdas Pophale) SiO2 
 PCOD8055591
Probable space group: C C
;
_chemical_formula_sum "Si O2"
_cell_formula_units_Z 28
_cell_length_a 17.402609
_cell_length_b 5.106614
_cell_length_c 14.640611
_cell_angle_alpha 90.000000
_cell_angle_beta 69.177049
_cell_angle_gamma 90.000000
_cell_volume 1216.105087
_symmetry_space_group_name_H-M "C C"
_symmetry_group_IT_number 9
_symmetry_cell_setting 'monoclinic'
loop_
_space_group_symop_operation_xyz
x,y,z
x,-y,1/2+z
1/2+x,1/2+y,z
1/2+x,1/2-y,1/2+z
loop_
_atom_site_type_symbol
_atom_site_label
_atom_site_fract_x
_atom_site_fract_y
_atom_site_fract_z
Si Si1 0.246150 0.879562 0.410130
Si Si2 0.641057 0.440494 0.612278
Si Si3 0.953985 0.118787 0.203162
Si Si4 0.732896 0.072313 0.124999
Si Si5 0.921037 0.363498 0.401413
Si Si6 0.412794 0.359552 0.509992
Si Si7 0.287185 0.619414 0.794157
O O1 0.165804 0.989611 0.496029
O O2 0.263536 0.080937 0.320694
O O3 0.322118 0.875572 0.448382
O O4 0.235085 0.585036 0.377304
O O5 0.545150 0.495256 0.665341
O O6 0.668456 0.139099 0.613495
O O7 0.686192 0.651327 0.658313
O O8 0.950927 0.346326 0.282493
O O9 0.885863 0.910346 0.267749
O O10 0.931179 0.203958 0.109292
O O11 0.767108 0.944135 0.200478
O O12 0.814482 0.126875 0.030171
O O13 0.954598 0.628147 0.433470
O O14 0.952722 0.126143 0.453305
#
# Coordination Sequence:
#
# PCOD8055591 Si02
#       7
#     4   4   4   4   4   4   4
#     4  11  20  40  69  95 125 172 225 270 326 395
#     4  12  24  42  66  98 139 165 211 290 345 372
#     4  10  27  44  68 103 140 172 225 286 339 387
#     4  11  22  42  68  96 130 173 224 269 333 402
#     4  11  22  42  73  95 128 183 226 270 321 414
#     4  11  22  44  71  97 127 183 231 264 326 415
#     4  10  23  42  69  92 125 178 228 263 318 417
#
# _framework density 23.024329000000002
#
# number of rings (size 3 to 8) (size 9 to 14) (size 15 to 20)
#    0.000    1.143    2.857    3.429    0.000   11.429 
#    7.714    0.000    0.000    0.000    0.000    0.000 
#    0.000    0.000    0.000    0.000    0.000    0.000 
#
# Total GULP energy -173483.524877 kJ/mol
# GULP energy per Si atom -12391.680348 kJ/mol
# Density = 2.297193 g / cm^3
# Si number density = 23.024329 Si / 1000 Ang^3
#
#
#
# Elastic Constant Matrix: (Units=GPa)
#
#
# Indices 1 2 3 4 5 6 
#
# 1 76.1943 31.7143 33.9186 -0.0001 -19.1288 0.0000
# 2 31.7143 137.7159 48.6281 0.0006 11.8460 0.0005
# 3 33.9186 48.6281 103.9720 0.0000 -2.6937 0.0001
# 4 -0.0001 0.0006 0.0000 35.6757 0.0000 7.1680
# 5 -19.1288 11.8460 -2.6937 0.0000 35.2899 0.0000
# 6 0.0000 0.0005 0.0001 7.1680 0.0000 18.4656
#
#
#
# Elastic Compliance Matrix: (Units=1/GPa)
#
#
# Indices 1 2 3 4 5 6 
#
# 1 0.019602 -0.004031 -0.004207 0.000000 0.011657 0.000000
# 2 -0.004031 0.009912 -0.003471 0.000000 -0.005777 0.000000
# 3 -0.004207 -0.003471 0.012610 0.000000 -0.000153 0.000000
# 4 0.000000 0.000000 0.000000 0.030401 0.000000 -0.011801
# 5 0.011657 -0.005777 -0.000153 0.000000 0.036583 0.000000
# 6 0.000000 0.000000 0.000000 -0.011801 0.000000 0.058736
#
#
# Mechanical properties :
#
#
# Convention : Reuss Voigt Hill
#
# Bulk Modulus (GPa) = 53.45974 60.71157 57.08565
# Shear Modulus (GPa) = 25.31692 31.46099 28.38896
#
# Velocity S-wave (km/s) = 3.31958 3.70053 3.51522
# Velocity P-wave (km/s) = 6.16133 6.68463 6.42831
#
# Compressibility (1/GPa) = 0.01870566
#
# Stress axis : x y z
#
# Youngs Moduli (GPa) = 51.01608 100.88735 79.30405
#
# Poissons Ratio (x) = 0.40669 0.33365
# Poissons Ratio (y) = 0.20565 0.27523
# Poissons Ratio (z) = 0.21464 0.35013
#
# Static dielectric constant tensor:
#      x y z
#    x 3.859620 0.000000 0.057300 
#    y 0.000000 4.282040 0.000000 
#    z 0.057300 0.000000 4.199870 
# 
# 
# High freq. dielectric constant tensor:
#      x y z
#    x 1.872670 0.000000 0.011500 
#    y 0.000000 1.914520 0.000000 
#    z 0.011500 0.000000 1.915580 
# 
# From -- ./inp_files/26252.got.cif
#   From: 2010.06.25/outbox.cif.g09.slc.cpg/sg9_14_cif.got.tgz:26252.got - 2010.06.27 21:40:51.
