data_PCOD8055117
_publ_section_title
;
Structure prediction by ZEFSAII (Michael W. Deem and Ramdas Pophale) SiO2 
 PCOD8055117
Probable space group: C C
;
_chemical_formula_sum "Si O2"
_cell_formula_units_Z 24
_cell_length_a 17.177634
_cell_length_b 11.229942
_cell_length_c 11.074765
_cell_angle_alpha 90.000000
_cell_angle_beta 29.272588
_cell_angle_gamma 90.000000
_cell_volume 1044.607896
_symmetry_space_group_name_H-M "C C"
_symmetry_group_IT_number 9
_symmetry_cell_setting 'monoclinic'
loop_
_space_group_symop_operation_xyz
x,y,z
x,-y,1/2+z
1/2+x,1/2+y,z
1/2+x,1/2-y,1/2+z
loop_
_atom_site_type_symbol
_atom_site_label
_atom_site_fract_x
_atom_site_fract_y
_atom_site_fract_z
Si Si1 0.492430 0.862540 0.392630
Si Si2 0.357912 0.103089 0.620083
Si Si3 0.842229 0.854982 0.002167
Si Si4 0.593028 0.459732 0.093957
Si Si5 0.386081 0.678070 0.706488
Si Si6 0.645787 0.265794 0.218139
O O1 0.681352 0.852737 0.144488
O O2 0.427655 0.774509 0.375729
O O3 0.421751 0.815406 0.618069
O O4 0.438152 0.995986 0.435200
O O5 0.500050 0.189604 0.472204
O O6 0.244701 0.185206 0.694925
O O7 0.255501 0.036962 0.862892
O O8 0.824317 0.890631 0.169380
O O9 0.947100 0.951071 0.793672
O O10 0.553292 0.378165 0.029351
O O11 0.588699 0.378358 0.217996
O O12 0.253154 0.678171 0.990506
#
# Coordination Sequence:
#
# PCOD8055117 Si02
#       6
#     4   4   4   4   4   4
#     4  10  22  45  70 101 134 189 241 284 359 431
#     4  12  27  45  72 105 142 189 244 291 366 425
#     4  10  24  40  74 102 139 189 245 285 368 427
#     4  12  23  45  70 105 147 186 238 308 346 436
#     4  10  21  44  73 100 139 188 236 290 365 418
#     4  12  25  45  73 103 141 189 246 298 354 431
#
# _framework density 22.975125999999999
#
# number of rings (size 3 to 8) (size 9 to 14) (size 15 to 20)
#    1.000    0.000    3.333    4.000    2.333    1.333 
#    0.000    1.667    0.000    0.000    0.000    0.000 
#    0.000    0.000    0.000    0.000    0.000    0.000 
#
# Total GULP energy -148704.108738 kJ/mol
# GULP energy per Si atom -12392.009061 kJ/mol
# Density = 2.292283 g / cm^3
# Si number density = 22.975126 Si / 1000 Ang^3
#
#
#
# Elastic Constant Matrix: (Units=GPa)
#
#
# Indices 1 2 3 4 5 6 
#
# 1 41.3301 27.6473 15.2222 0.0000 -22.0280 0.0000
# 2 27.6473 116.6158 46.0188 0.0000 -17.4014 0.0000
# 3 15.2222 46.0188 104.0401 0.0000 -27.8016 0.0000
# 4 0.0000 0.0000 0.0000 45.8195 0.0000 -20.1333
# 5 -22.0280 -17.4014 -27.8016 0.0000 35.5385 0.0000
# 6 0.0000 0.0000 0.0000 -20.1333 0.0000 26.0619
#
#
#
# Elastic Compliance Matrix: (Units=1/GPa)
#
#
# Indices 1 2 3 4 5 6 
#
# 1 0.041054 -0.007602 0.003996 0.000000 0.024851 0.000000
# 2 -0.007602 0.011897 -0.004871 0.000000 -0.002697 0.000000
# 3 0.003996 -0.004871 0.014168 0.000000 0.011176 0.000000
# 4 0.000000 0.000000 0.000000 0.033040 0.000000 0.025524
# 5 0.024851 -0.002697 0.011176 0.000000 0.050964 0.000000
# 6 0.000000 0.000000 0.000000 0.025524 0.000000 0.058088
#
#
# Mechanical properties :
#
#
# Convention : Reuss Voigt Hill
#
# Bulk Modulus (GPa) = 19.93380 48.86249 34.39814
# Shear Modulus (GPa) = 20.58588 33.02382 26.80485
#
# Velocity S-wave (km/s) = 2.99659 3.79538 3.41939
# Velocity P-wave (km/s) = 4.54618 6.36556 5.53119
#
# Compressibility (1/GPa) = 0.05016606
#
# Stress axis : x y z
#
# Youngs Moduli (GPa) = 24.35845 84.05432 70.58316
#
# Poissons Ratio (x) = 0.63897 -0.28208
# Poissons Ratio (y) = 0.18517 0.34379
# Poissons Ratio (z) = -0.09735 0.40940
#
# Static dielectric constant tensor:
#      x y z
#    x 3.793800 0.000000 -0.251830 
#    y 0.000000 4.252550 0.000000 
#    z -0.251830 0.000000 4.119680 
# 
# 
# High freq. dielectric constant tensor:
#      x y z
#    x 1.884540 0.000000 -0.027450 
#    y 0.000000 1.915070 0.000000 
#    z -0.027450 0.000000 1.901900 
# 
# From -- ./inp_files/16064.got.cif
#   From: 2010.06.25/outbox.cif.g09.slc.cpg/sg9_9_cif.got.tgz:16064.got - 2010.06.27 21:40:51.
