data_PCOD8055951
_publ_section_title
;
Structure prediction by ZEFSAII (Michael W. Deem and Ramdas Pophale) SiO2 
 PCOD8055951
Probable space group: C C
;
_chemical_formula_sum "Si O2"
_cell_formula_units_Z 28
_cell_length_a 16.442738
_cell_length_b 6.416344
_cell_length_c 12.996405
_cell_angle_alpha 90.000000
_cell_angle_beta 72.914290
_cell_angle_gamma 90.000000
_cell_volume 1310.636242
_symmetry_space_group_name_H-M "C C"
_symmetry_group_IT_number 9
_symmetry_cell_setting 'monoclinic'
loop_
_space_group_symop_operation_xyz
x,y,z
x,-y,1/2+z
1/2+x,1/2+y,z
1/2+x,1/2-y,1/2+z
loop_
_atom_site_type_symbol
_atom_site_label
_atom_site_fract_x
_atom_site_fract_y
_atom_site_fract_z
Si Si1 0.135100 0.064557 0.100500
Si Si2 0.407189 0.021697 0.689505
Si Si3 0.207883 0.461729 0.979715
Si Si4 0.545857 0.218858 0.011408
Si Si5 0.359655 0.663372 0.841881
Si Si6 0.996511 0.173491 0.303334
Si Si7 0.790355 0.722307 0.573484
O O1 0.172272 0.231219 0.005370
O O2 0.088810 0.168879 0.215079
O O3 0.063502 0.927056 0.070462
O O4 0.216017 0.944594 0.112432
O O5 0.443646 0.137175 0.775125
O O6 0.350214 0.191634 0.649860
O O7 0.483840 0.942200 0.590523
O O8 0.353667 0.819769 0.746877
O O9 0.135320 0.607938 0.959862
O O10 0.243829 0.550687 0.077441
O O11 0.285194 0.484521 0.867871
O O12 0.503997 0.284756 0.920666
O O13 0.450493 0.549250 0.806854
O O14 0.347441 0.806220 0.949028
#
# Coordination Sequence:
#
# PCOD8055951 Si02
#       7
#     4   4   4   4   4   4   4
#     4  11  23  47  69 100 140 182 226 287 353 413
#     4  12  24  45  68 107 138 182 231 291 352 414
#     4   9  23  47  66  98 137 180 229 283 349 410
#     4  11  25  45  69 102 140 176 234 290 341 417
#     4  10  25  42  67 102 134 179 236 275 356 406
#     4  12  27  42  74 101 135 187 229 289 347 421
#     4   9  25  42  69  98 140 178 225 289 336 427
#
# _framework density 21.363669999999999
#
# number of rings (size 3 to 8) (size 9 to 14) (size 15 to 20)
#    0.857    0.571    2.857    0.857    8.000    2.286 
#    0.000    0.000    0.000    0.000    0.000    0.000 
#    0.000    0.000    0.000    0.000    0.000    0.000 
#
# Total GULP energy -173506.192643 kJ/mol
# GULP energy per Si atom -12393.299474 kJ/mol
# Density = 2.131505 g / cm^3
# Si number density = 21.363670 Si / 1000 Ang^3
#
#
#
# Elastic Constant Matrix: (Units=GPa)
#
#
# Indices 1 2 3 4 5 6 
#
# 1 92.1539 33.4883 34.9805 0.0000 -2.2898 0.0000
# 2 33.4883 56.6943 6.4676 0.0000 6.7580 0.0000
# 3 34.9805 6.4676 72.7592 0.0000 1.3515 0.0000
# 4 0.0000 0.0000 0.0000 36.8911 0.0000 -10.4434
# 5 -2.2898 6.7580 1.3515 0.0000 39.2632 0.0000
# 6 0.0000 0.0000 0.0000 -10.4434 0.0000 27.8292
#
#
#
# Elastic Compliance Matrix: (Units=1/GPa)
#
#
# Indices 1 2 3 4 5 6 
#
# 1 0.017307 -0.009716 -0.007511 0.000000 0.002940 0.000000
# 2 -0.009716 0.023638 0.002658 0.000000 -0.004727 0.000000
# 3 -0.007511 0.002658 0.017147 0.000000 -0.001486 0.000000
# 4 0.000000 0.000000 0.000000 0.030329 0.000000 0.011381
# 5 0.002940 -0.004727 -0.001486 0.000000 0.026505 0.000000
# 6 0.000000 0.000000 0.000000 0.011381 0.000000 0.040205
#
#
# Mechanical properties :
#
#
# Convention : Reuss Voigt Hill
#
# Bulk Modulus (GPa) = 34.54055 41.27559 37.90807
# Shear Modulus (GPa) = 25.78387 30.57475 28.17931
#
# Velocity S-wave (km/s) = 3.47782 3.78717 3.63578
# Velocity P-wave (km/s) = 5.68594 6.20370 5.95046
#
# Compressibility (1/GPa) = 0.02895148
#
# Stress axis : x y z
#
# Youngs Moduli (GPa) = 57.78154 42.30491 58.32072
#
# Poissons Ratio (x) = 0.41105 0.43807
# Poissons Ratio (y) = 0.56142 -0.15501
# Poissons Ratio (z) = 0.43402 -0.11244
#
# Static dielectric constant tensor:
#      x y z
#    x 3.857670 0.000000 -0.162660 
#    y 0.000000 3.873990 0.000000 
#    z -0.162660 0.000000 3.596770 
# 
# 
# High freq. dielectric constant tensor:
#      x y z
#    x 1.844470 0.000000 -0.016840 
#    y 0.000000 1.836460 0.000000 
#    z -0.016840 0.000000 1.825660 
# 
# From -- ./inp_files/26264.got.cif
#   From: 2010.06.25/outbox.cif.g09.slc.cpg/sg9_14_cif.got.tgz:26264.got - 2010.06.27 21:40:51.
