data_PCOD8055217
_publ_section_title
;
Structure prediction by ZEFSAII (Michael W. Deem and Ramdas Pophale) SiO2 
 PCOD8055217
Probable space group: C C
;
_chemical_formula_sum "Si O2"
_cell_formula_units_Z 32
_cell_length_a 6.360825
_cell_length_b 15.127262
_cell_length_c 17.125600
_cell_angle_alpha 90.000000
_cell_angle_beta 122.157673
_cell_angle_gamma 90.000000
_cell_volume 1395.053811
_symmetry_space_group_name_H-M "C C"
_symmetry_group_IT_number 9
_symmetry_cell_setting 'monoclinic'
loop_
_space_group_symop_operation_xyz
x,y,z
x,-y,1/2+z
1/2+x,1/2+y,z
1/2+x,1/2-y,1/2+z
loop_
_atom_site_type_symbol
_atom_site_label
_atom_site_fract_x
_atom_site_fract_y
_atom_site_fract_z
Si Si1 0.122970 0.207055 0.400900
Si Si2 0.816952 0.467370 0.238945
Si Si3 0.125122 0.716375 0.351747
Si Si4 0.806537 0.972112 0.600497
Si Si5 0.416695 0.942160 0.912656
Si Si6 0.525465 0.122143 0.181805
Si Si7 0.125735 0.699541 0.747817
Si Si8 0.028518 0.197367 0.071730
O O1 0.170167 0.100115 0.405014
O O2 0.033267 0.238070 0.298214
O O3 0.383699 0.253637 0.474281
O O4 0.917328 0.237110 0.425887
O O5 0.520747 0.455521 0.164825
O O6 0.859639 0.478177 0.340918
O O7 0.872643 0.558281 0.208077
O O8 0.999797 0.395365 0.236872
O O9 0.038264 0.640213 0.391984
O O10 0.170439 0.683374 0.271256
O O11 0.931721 0.799194 0.311108
O O12 0.708884 0.927563 0.660436
O O13 0.896073 0.895807 0.560650
O O14 0.588142 0.025128 0.516175
O O15 0.309146 0.179454 0.095676
O O16 0.028382 0.740548 0.648157
#
# Coordination Sequence:
#
# PCOD8055217 Si02
#       8
#     4   4   4   4   4   4   4   4
#     4  11  22  40  64  89 130 175 218 271 330 392
#     4  10  22  41  63  92 133 170 217 275 326 400
#     4   9  20  40  62  88 127 173 213 269 335 386
#     4  11  22  39  64  93 127 175 219 268 332 393
#     4  10  23  39  61  94 132 167 221 272 326 400
#     4   9  20  40  61  87 126 172 214 265 330 386
#     4  10  22  40  61  94 129 167 223 274 325 395
#     4  10  23  39  62  89 132 167 219 276 324 388
#
# _framework density 22.938184
#
# number of rings (size 3 to 8) (size 9 to 14) (size 15 to 20)
#    0.000    2.000    0.000    4.500    3.500    4.000 
#    2.250    3.750    0.000    0.000    0.000    0.000 
#    0.000    0.000    0.000    0.000    0.000    0.000 
#
# Total GULP energy -198209.116527 kJ/mol
# GULP energy per Si atom -12388.069783 kJ/mol
# Density = 2.288598 g / cm^3
# Si number density = 22.938184 Si / 1000 Ang^3
#
#
#
# Elastic Constant Matrix: (Units=GPa)
#
#
# Indices 1 2 3 4 5 6 
#
# 1 106.4026 30.0118 17.3337 0.0000 10.7545 0.0000
# 2 30.0118 72.7504 24.8833 0.0000 8.1848 0.0000
# 3 17.3337 24.8833 74.0554 0.0000 -2.1200 0.0000
# 4 0.0000 0.0000 0.0000 33.3850 0.0000 0.0937
# 5 10.7545 8.1848 -2.1200 0.0000 26.4764 0.0000
# 6 0.0000 0.0000 0.0000 0.0937 0.0000 41.1029
#
#
#
# Elastic Compliance Matrix: (Units=1/GPa)
#
#
# Indices 1 2 3 4 5 6 
#
# 1 0.011016 -0.003660 -0.001448 0.000000 -0.003459 0.000000
# 2 -0.003660 0.017505 -0.005149 0.000000 -0.004337 0.000000
# 3 -0.001448 -0.005149 0.015671 0.000000 0.003435 0.000000
# 4 0.000000 0.000000 0.000000 0.029954 0.000000 -0.000068
# 5 -0.003459 -0.004337 0.003435 0.000000 0.040790 0.000000
# 6 0.000000 0.000000 0.000000 -0.000068 0.000000 0.024329
#
#
# Mechanical properties :
#
#
# Convention : Reuss Voigt Hill
#
# Bulk Modulus (GPa) = 42.23411 44.18511 43.20961
# Shear Modulus (GPa) = 29.82024 32.25817 31.03921
#
# Velocity S-wave (km/s) = 3.60950 3.75415 3.68253
# Velocity P-wave (km/s) = 5.98527 6.17220 6.07945
#
# Compressibility (1/GPa) = 0.02367754
#
# Stress axis : x y z
#
# Youngs Moduli (GPa) = 90.77619 57.12754 63.81322
#
# Poissons Ratio (x) = 0.20910 0.09238
# Poissons Ratio (y) = 0.33226 0.32858
# Poissons Ratio (z) = 0.13141 0.29416
#
# Static dielectric constant tensor:
#      x y z
#    x 4.356530 0.000000 0.236450 
#    y 0.000000 3.969410 0.000000 
#    z 0.236450 0.000000 4.158630 
# 
# 
# High freq. dielectric constant tensor:
#      x y z
#    x 1.919210 0.000000 0.010910 
#    y 0.000000 1.884770 0.000000 
#    z 0.010910 0.000000 1.909340 
# 
# From -- ./inp_files/28736.got.cif
#   From: 2010.06.25/outbox.cif.g09.slc.cpg/sg9_15_cif.got.tgz:28736.got - 2010.06.27 21:40:51.
