data_PCOD8055291
_publ_section_title
;
Structure prediction by ZEFSAII (Michael W. Deem and Ramdas Pophale) SiO2 
 PCOD8055291
Probable space group: C C
;
_chemical_formula_sum "Si O2"
_cell_formula_units_Z 28
_cell_length_a 8.679716
_cell_length_b 28.557172
_cell_length_c 5.069748
_cell_angle_alpha 90.000000
_cell_angle_beta 84.071858
_cell_angle_gamma 90.000000
_cell_volume 1249.908831
_symmetry_space_group_name_H-M "C C"
_symmetry_group_IT_number 9
_symmetry_cell_setting 'monoclinic'
loop_
_space_group_symop_operation_xyz
x,y,z
x,-y,1/2+z
1/2+x,1/2+y,z
1/2+x,1/2-y,1/2+z
loop_
_atom_site_type_symbol
_atom_site_label
_atom_site_fract_x
_atom_site_fract_y
_atom_site_fract_z
Si Si1 0.134240 0.620132 0.950030
Si Si2 0.245210 0.430153 0.928345
Si Si3 0.438592 0.027135 0.540476
Si Si4 0.039320 0.722560 0.847159
Si Si5 0.824617 0.394012 0.762039
Si Si6 0.079241 0.969529 0.786323
Si Si7 0.830399 0.713454 0.364628
O O1 0.238730 0.593305 0.718379
O O2 0.132043 0.674356 0.872741
O O3 0.209201 0.610908 0.223032
O O4 0.955403 0.601776 0.006577
O O5 0.401596 0.454893 0.817958
O O6 0.123524 0.473171 0.964791
O O7 0.386362 0.080957 0.518792
O O8 0.369223 0.003407 0.811337
O O9 0.948987 0.725583 0.582944
O O10 0.163537 0.762521 0.890434
O O11 0.907646 0.730364 0.083807
O O12 0.670938 0.421540 0.701040
O O13 0.792602 0.341511 0.858262
O O14 0.117491 0.010262 0.569494
#
# Coordination Sequence:
#
# PCOD8055291 Si02
#       7
#     4   4   4   4   4   4   4
#     4  10  22  41  67  91 123 165 214 259 307 386
#     4  11  22  40  63  91 125 166 212 261 315 375
#     4  11  20  34  58  83 113 158 206 245 291 358
#     4  11  23  44  68 101 133 168 214 268 329 392
#     4  10  24  42  63  92 125 164 211 263 321 377
#     4  12  26  42  60  91 132 168 212 272 328 378
#     4  11  25  43  69  97 133 169 215 270 327 398
#
# _framework density 22.401633
#
# number of rings (size 3 to 8) (size 9 to 14) (size 15 to 20)
#    0.000    1.143    0.000    7.714    0.000    8.000 
#    0.000    0.000    0.000    0.000    0.000    0.000 
#    0.000    0.000    0.000    0.000    0.000    0.000 
#
# Total GULP energy -173516.490801 kJ/mol
# GULP energy per Si atom -12394.035057 kJ/mol
# Density = 2.235065 g / cm^3
# Si number density = 22.401633 Si / 1000 Ang^3
#
#
#
# Elastic Constant Matrix: (Units=GPa)
#
#
# Indices 1 2 3 4 5 6 
#
# 1 89.5913 45.8047 25.5909 0.0000 -0.3117 0.0000
# 2 45.8047 119.2495 34.1747 0.0000 -9.7299 0.0000
# 3 25.5909 34.1747 91.2970 0.0000 -2.0320 0.0000
# 4 0.0000 0.0000 0.0000 19.4653 0.0000 1.8627
# 5 -0.3117 -9.7299 -2.0320 0.0000 37.4815 0.0000
# 6 0.0000 0.0000 0.0000 1.8627 0.0000 40.8527
#
#
#
# Elastic Compliance Matrix: (Units=1/GPa)
#
#
# Indices 1 2 3 4 5 6 
#
# 1 0.014328 -0.004985 -0.002179 0.000000 -0.001293 0.000000
# 2 -0.004985 0.011321 -0.002779 0.000000 0.002747 0.000000
# 3 -0.002179 -0.002779 0.012603 0.000000 -0.000056 0.000000
# 4 0.000000 0.000000 0.000000 0.051599 0.000000 -0.002353
# 5 -0.001293 0.002747 -0.000056 0.000000 0.027379 0.000000
# 6 0.000000 0.000000 0.000000 -0.002353 0.000000 0.024585
#
#
# Mechanical properties :
#
#
# Convention : Reuss Voigt Hill
#
# Bulk Modulus (GPa) = 54.44797 56.80871 55.62834
# Shear Modulus (GPa) = 29.79310 32.53104 31.16207
#
# Velocity S-wave (km/s) = 3.65081 3.81487 3.73374
# Velocity P-wave (km/s) = 6.49071 6.69467 6.59348
#
# Compressibility (1/GPa) = 0.01836616
#
# Stress axis : x y z
#
# Youngs Moduli (GPa) = 69.79250 88.33117 79.34466
#
# Poissons Ratio (x) = 0.44029 0.17291
# Poissons Ratio (y) = 0.34788 0.22053
# Poissons Ratio (z) = 0.15209 0.24551
#
# Static dielectric constant tensor:
#      x y z
#    x 4.177290 0.000000 -0.010480 
#    y 0.000000 4.104960 0.000000 
#    z -0.010480 0.000000 4.150930 
# 
# 
# High freq. dielectric constant tensor:
#      x y z
#    x 1.889630 0.000000 -0.005170 
#    y 0.000000 1.878210 0.000000 
#    z -0.005170 0.000000 1.898090 
# 
# From -- ./inp_files/988.got.cif
#   From: 2010.06.25/outbox.cif.g09.slc.cpg/sg9_1_cif.got.tgz:988.got - 2010.06.27 21:40:51.
