data_PCOD8055264
_publ_section_title
;
Structure prediction by ZEFSAII (Michael W. Deem and Ramdas Pophale) SiO2 
 PCOD8055264
Probable space group: C C
;
_chemical_formula_sum "Si O2"
_cell_formula_units_Z 28
_cell_length_a 14.167412
_cell_length_b 5.087203
_cell_length_c 22.401265
_cell_angle_alpha 90.000000
_cell_angle_beta 122.571452
_cell_angle_gamma 90.000000
_cell_volume 1360.585433
_symmetry_space_group_name_H-M "C C"
_symmetry_group_IT_number 9
_symmetry_cell_setting 'monoclinic'
loop_
_space_group_symop_operation_xyz
x,y,z
x,-y,1/2+z
1/2+x,1/2+y,z
1/2+x,1/2-y,1/2+z
loop_
_atom_site_type_symbol
_atom_site_label
_atom_site_fract_x
_atom_site_fract_y
_atom_site_fract_z
Si Si1 0.390990 0.129053 0.582860
Si Si2 0.741668 0.400111 0.212543
Si Si3 0.635229 0.888033 0.121027
Si Si4 0.198895 0.063825 0.948328
Si Si5 0.680924 0.066710 0.007542
Si Si6 0.116577 0.993970 0.291249
Si Si7 0.965131 0.493162 0.234296
O O1 0.513728 0.195468 0.602388
O O2 0.315660 0.395349 0.563916
O O3 0.329218 0.940209 0.513752
O O4 0.397526 0.989018 0.649219
O O5 0.704991 0.621473 0.152287
O O6 0.701277 0.454113 0.265594
O O7 0.877306 0.408705 0.256376
O O8 0.692061 0.117774 0.178587
O O9 0.623607 0.979442 0.049095
O O10 0.151297 0.349691 0.947612
O O11 0.131906 0.840723 0.964176
O O12 0.191732 0.006988 0.876040
O O13 0.061889 0.276967 0.263447
O O14 0.019824 0.776252 0.264454
#
# Coordination Sequence:
#
# PCOD8055264 Si02
#       7
#     4   4   4   4   4   4   4
#     4  10  23  39  68  94 126 170 216 265 321 370
#     4  12  24  40  67 101 129 166 220 270 322 389
#     4  12  22  38  69 100 126 163 222 276 315 376
#     4  10  24  44  64  89 141 168 210 268 328 389
#     4  10  22  41  63  90 131 165 220 259 322 378
#     4  12  25  46  63  99 136 173 212 269 334 389
#     4  12  24  42  72  93 131 173 222 269 324 381
#
# _framework density 20.579377999999998
#
# number of rings (size 3 to 8) (size 9 to 14) (size 15 to 20)
#    0.857    0.000    4.286    3.429    4.000    0.000 
#    5.143    0.000    0.000    0.000    0.000    0.000 
#    0.000    0.000    0.000    0.000    0.000    0.000 
#
# Total GULP energy -173543.480437 kJ/mol
# GULP energy per Si atom -12395.962888 kJ/mol
# Density = 2.053254 g / cm^3
# Si number density = 20.579378 Si / 1000 Ang^3
#
#
#
# Elastic Constant Matrix: (Units=GPa)
#
#
# Indices 1 2 3 4 5 6 
#
# 1 98.1812 1.0045 18.3591 0.0001 -18.1915 0.0000
# 2 1.0045 87.8037 3.2824 0.0003 9.6858 0.0001
# 3 18.3591 3.2824 109.0317 0.0002 -1.8799 0.0000
# 4 0.0001 0.0003 0.0002 22.6956 0.0000 -2.4662
# 5 -18.1915 9.6858 -1.8799 0.0000 25.5296 0.0000
# 6 0.0000 0.0001 0.0000 -2.4662 0.0000 24.0387
#
#
#
# Elastic Compliance Matrix: (Units=1/GPa)
#
#
# Indices 1 2 3 4 5 6 
#
# 1 0.012206 -0.001058 -0.001869 0.000000 0.008961 0.000000
# 2 -0.001058 0.011999 -0.000275 0.000000 -0.005327 0.000000
# 3 -0.001869 -0.000275 0.009485 0.000000 -0.000529 0.000000
# 4 0.000000 0.000000 0.000000 0.044558 0.000000 0.004571
# 5 0.008961 -0.005327 -0.000529 0.000000 0.047538 0.000000
# 6 0.000000 0.000000 0.000000 0.004571 0.000000 0.042069
#
#
# Mechanical properties :
#
#
# Convention : Reuss Voigt Hill
#
# Bulk Modulus (GPa) = 36.64846 37.81207 37.23026
# Shear Modulus (GPa) = 27.26958 32.61084 29.94021
#
# Velocity S-wave (km/s) = 3.64413 3.98507 3.81841
# Velocity P-wave (km/s) = 5.96266 6.29190 6.12949
#
# Compressibility (1/GPa) = 0.02728628
#
# Stress axis : x y z
#
# Youngs Moduli (GPa) = 81.92709 83.34015 105.42418
#
# Poissons Ratio (x) = 0.08820 0.19703
# Poissons Ratio (y) = 0.08671 0.02898
# Poissons Ratio (z) = 0.15311 0.02291
#
# Static dielectric constant tensor:
#      x y z
#    x 3.625100 0.000000 -0.080670 
#    y 0.000000 3.799350 0.000000 
#    z -0.080670 0.000000 3.646650 
# 
# 
# High freq. dielectric constant tensor:
#      x y z
#    x 1.791150 0.000000 -0.011700 
#    y 0.000000 1.816710 0.000000 
#    z -0.011700 0.000000 1.799470 
# 
# From -- ./inp_files/30273.got.cif
#   From: 2010.06.25/outbox.cif.g09.slc.cpg/sg9_16_cif.got.tgz:30273.got - 2010.06.27 21:40:51.
