data_PCOD8055737
_publ_section_title
;
Structure prediction by ZEFSAII (Michael W. Deem and Ramdas Pophale) SiO2 
 PCOD8055737
Probable space group: C C
;
_chemical_formula_sum "Si O2"
_cell_formula_units_Z 20
_cell_length_a 13.701725
_cell_length_b 7.094851
_cell_length_c 8.987822
_cell_angle_alpha 90.000000
_cell_angle_beta 69.668578
_cell_angle_gamma 90.000000
_cell_volume 819.287301
_symmetry_space_group_name_H-M "C C"
_symmetry_group_IT_number 9
_symmetry_cell_setting 'monoclinic'
loop_
_space_group_symop_operation_xyz
x,y,z
x,-y,1/2+z
1/2+x,1/2+y,z
1/2+x,1/2-y,1/2+z
loop_
_atom_site_type_symbol
_atom_site_label
_atom_site_fract_x
_atom_site_fract_y
_atom_site_fract_z
Si Si1 0.073510 0.155657 0.625000
Si Si2 0.199513 0.081062 0.267858
Si Si3 0.397364 0.367983 0.649386
Si Si4 0.816330 0.820014 0.996788
Si Si5 0.927792 0.456689 0.625382
O O1 0.132019 0.161504 0.436671
O O2 0.019675 0.361839 0.675687
O O3 0.150652 0.109114 0.721104
O O4 0.986217 0.995017 0.675268
O O5 0.210438 0.236753 0.127496
O O6 0.315576 0.040718 0.271281
O O7 0.339468 0.469188 0.544353
O O8 0.451128 0.172468 0.567087
O O9 0.309733 0.331850 0.822873
O O10 0.913209 0.679694 0.988499
#
# Coordination Sequence:
#
# PCOD8055737 Si02
#       5
#     4   4   4   4   4
#     4  11  22  44  68 103 144 183 241 297 360 438
#     4  10  23  46  67 102 145 181 240 297 361 432
#     4  11  21  44  69  96 138 186 232 294 354 426
#     4   9  23  40  69  94 139 182 229 294 357 414
#     4   9  23  42  67  99 142 180 236 296 360 418
#
# _framework density 24.411463000000001
#
# number of rings (size 3 to 8) (size 9 to 14) (size 15 to 20)
#    1.200    0.800    0.000    3.600    0.000    6.400 
#   10.800    0.000    0.000    0.000    0.000    0.000 
#    0.000    0.000    0.000    0.000    0.000    0.000 
#
# Total GULP energy -123901.995571 kJ/mol
# GULP energy per Si atom -12390.199557 kJ/mol
# Density = 2.435590 g / cm^3
# Si number density = 24.411463 Si / 1000 Ang^3
#
#
#
# Elastic Constant Matrix: (Units=GPa)
#
#
# Indices 1 2 3 4 5 6 
#
# 1 82.8959 29.5639 20.7087 0.0000 -4.9479 0.0000
# 2 29.5639 179.5632 13.9323 0.0000 9.1769 0.0000
# 3 20.7087 13.9323 100.9550 0.0000 -5.3486 0.0000
# 4 0.0000 0.0000 0.0000 22.2823 0.0000 -3.4048
# 5 -4.9479 9.1769 -5.3486 0.0000 24.7768 0.0000
# 6 0.0000 0.0000 0.0000 -3.4048 0.0000 44.9107
#
#
#
# Elastic Compliance Matrix: (Units=1/GPa)
#
#
# Indices 1 2 3 4 5 6 
#
# 1 0.013616 -0.002217 -0.002326 0.000000 0.003038 0.000000
# 2 -0.002217 0.006120 -0.000540 0.000000 -0.002826 0.000000
# 3 -0.002326 -0.000540 0.010564 0.000000 0.002016 0.000000
# 4 0.000000 0.000000 0.000000 0.045405 0.000000 0.003442
# 5 0.003038 -0.002826 0.002016 0.000000 0.042449 0.000000
# 6 0.000000 0.000000 0.000000 0.003442 0.000000 0.022527
#
#
# Mechanical properties :
#
#
# Convention : Reuss Voigt Hill
#
# Bulk Modulus (GPa) = 49.66361 54.64711 52.15536
# Shear Modulus (GPa) = 31.73432 38.34126 35.03779
#
# Velocity S-wave (km/s) = 3.60943 3.96741 3.79265
# Velocity P-wave (km/s) = 6.14485 6.58950 6.37106
#
# Compressibility (1/GPa) = 0.02013547
#
# Stress axis : x y z
#
# Youngs Moduli (GPa) = 73.44135 163.39011 94.66248
#
# Poissons Ratio (x) = 0.36217 0.22021
# Poissons Ratio (y) = 0.16279 0.05109
# Poissons Ratio (z) = 0.17084 0.08818
#
# Static dielectric constant tensor:
#      x y z
#    x 4.193070 0.000000 -0.139900 
#    y 0.000000 4.538930 0.000000 
#    z -0.139900 0.000000 3.979190 
# 
# 
# High freq. dielectric constant tensor:
#      x y z
#    x 1.941690 0.000000 -0.007860 
#    y 0.000000 1.974570 0.000000 
#    z -0.007860 0.000000 1.953560 
# 
# From -- ./inp_files/10328.got.cif
#   From: 2010.06.25/outbox.cif.g09.slc.cpg/sg9_6_cif.got.tgz:10328.got - 2010.06.27 21:40:51.
