data_PCOD8055428
_publ_section_title
;
Structure prediction by ZEFSAII (Michael W. Deem and Ramdas Pophale) SiO2 
 PCOD8055428
Probable space group: C C
;
_chemical_formula_sum "Si O2"
_cell_formula_units_Z 32
_cell_length_a 11.828173
_cell_length_b 8.881299
_cell_length_c 27.217186
_cell_angle_alpha 90.000000
_cell_angle_beta 152.947131
_cell_angle_gamma 90.000000
_cell_volume 1300.378397
_symmetry_space_group_name_H-M "C C"
_symmetry_group_IT_number 9
_symmetry_cell_setting 'monoclinic'
loop_
_space_group_symop_operation_xyz
x,y,z
x,-y,1/2+z
1/2+x,1/2+y,z
1/2+x,1/2-y,1/2+z
loop_
_atom_site_type_symbol
_atom_site_label
_atom_site_fract_x
_atom_site_fract_y
_atom_site_fract_z
Si Si1 0.375000 0.732356 0.005090
Si Si2 0.210087 0.023020 0.626832
Si Si3 0.991260 0.188472 0.875787
Si Si4 0.001461 0.275512 0.610974
Si Si5 0.869358 0.159672 0.332176
Si Si6 0.716481 0.983711 0.120936
Si Si7 0.071056 0.739851 0.299423
Si Si8 0.945798 0.236318 0.148671
O O1 0.466052 0.574573 0.017227
O O2 0.501066 0.866104 0.022082
O O3 0.460359 0.752150 0.095527
O O4 0.078568 0.740743 0.885911
O O5 0.307803 0.118184 0.618252
O O6 0.126981 0.124355 0.640243
O O7 0.414373 0.909231 0.726727
O O8 0.726166 0.270513 0.779655
O O9 0.125549 0.242782 0.877816
O O10 0.948449 0.011527 0.859665
O O11 0.199452 0.232320 0.997032
O O12 0.099551 0.306640 0.703890
O O13 0.096211 0.413124 0.615557
O O14 0.839454 0.215915 0.376931
O O15 0.946030 0.893726 0.232772
O O16 0.808426 0.081248 0.110026
#
# Coordination Sequence:
#
# PCOD8055428 Si02
#       8
#     4   4   4   4   4   4   4   4
#     4  11  24  47  73 103 148 185 235 299 359 420
#     4  10  24  44  70 109 138 182 241 296 349 433
#     4  12  24  47  75 102 151 190 233 306 355 417
#     4  11  25  46  69 103 149 185 240 298 354 423
#     4  12  26  44  75 106 144 194 238 292 363 425
#     4  10  22  44  69 104 140 182 239 288 348 426
#     4  11  24  43  73 105 142 190 243 289 354 428
#     4  11  23  45  76 104 144 188 235 296 364 412
#
# _framework density 24.608221
#
# number of rings (size 3 to 8) (size 9 to 14) (size 15 to 20)
#    0.000    1.000    6.250    0.000    5.250    2.000 
#    0.000    6.250    0.000    0.000    0.000    0.000 
#    0.000    0.000    0.000    0.000    0.000    0.000 
#
# Total GULP energy -198394.255946 kJ/mol
# GULP energy per Si atom -12399.640997 kJ/mol
# Density = 2.455221 g / cm^3
# Si number density = 24.608221 Si / 1000 Ang^3
#
#
#
# Elastic Constant Matrix: (Units=GPa)
#
#
# Indices 1 2 3 4 5 6 
#
# 1 104.7468 41.8287 31.4804 0.0001 24.4401 -0.0003
# 2 41.8287 115.7013 18.6891 0.0004 10.9750 0.0003
# 3 31.4804 18.6891 129.8620 0.0000 14.7033 -0.0016
# 4 0.0001 0.0004 0.0000 6.7634 -0.0001 4.9476
# 5 24.4401 10.9750 14.7033 -0.0001 30.6210 0.0005
# 6 -0.0003 0.0003 -0.0016 4.9476 0.0005 24.4360
#
#
#
# Elastic Compliance Matrix: (Units=1/GPa)
#
#
# Indices 1 2 3 4 5 6 
#
# 1 0.013624 -0.003818 -0.001773 0.000000 -0.008654 0.000000
# 2 -0.003818 0.010136 -0.000494 0.000000 -0.000349 0.000000
# 3 -0.001773 -0.000494 0.008482 -0.000001 -0.002481 0.000001
# 4 0.000000 0.000000 -0.000001 0.173560 0.000002 -0.035141
# 5 -0.008654 -0.000349 -0.002481 0.000002 0.040880 -0.000002
# 6 0.000000 0.000000 0.000001 -0.035141 -0.000002 0.048038
#
#
# Mechanical properties :
#
#
# Convention : Reuss Voigt Hill
#
# Bulk Modulus (GPa) = 49.82086 59.36738 54.59412
# Shear Modulus (GPa) = 15.94483 29.58488 22.76485
#
# Velocity S-wave (km/s) = 2.54824 3.47109 3.04483
# Velocity P-wave (km/s) = 5.38030 6.34366 5.88174
#
# Compressibility (1/GPa) = 0.02007191
#
# Stress axis : x y z
#
# Youngs Moduli (GPa) = 73.40251 98.65798 117.89292
#
# Poissons Ratio (x) = 0.37667 0.20906
# Poissons Ratio (y) = 0.28024 0.05821
# Poissons Ratio (z) = 0.13016 0.04871
#
# Static dielectric constant tensor:
#      x y z
#    x 4.536510 0.000000 0.392640 
#    y 0.000000 4.695240 0.000000 
#    z 0.392640 0.000000 4.522810 
# 
# 
# High freq. dielectric constant tensor:
#      x y z
#    x 1.979030 0.000000 0.025040 
#    y 0.000000 1.991240 0.000000 
#    z 0.025040 0.000000 1.968680 
# 
# From -- ./inp_files/37283.got.cif
#   From: 2010.06.25/outbox.cif.g09.slc.cpg/sg9_19_cif.got.tgz:37283.got - 2010.06.27 21:40:51.
