data_PCOD8055656
_publ_section_title
;
Structure prediction by ZEFSAII (Michael W. Deem and Ramdas Pophale) SiO2 
 PCOD8055656
Probable space group: C C
;
_chemical_formula_sum "Si O2"
_cell_formula_units_Z 32
_cell_length_a 13.582287
_cell_length_b 20.087503
_cell_length_c 5.483725
_cell_angle_alpha 90.000000
_cell_angle_beta 57.520790
_cell_angle_gamma 90.000000
_cell_volume 1262.129942
_symmetry_space_group_name_H-M "C C"
_symmetry_group_IT_number 9
_symmetry_cell_setting 'monoclinic'
loop_
_space_group_symop_operation_xyz
x,y,z
x,-y,1/2+z
1/2+x,1/2+y,z
1/2+x,1/2-y,1/2+z
loop_
_atom_site_type_symbol
_atom_site_label
_atom_site_fract_x
_atom_site_fract_y
_atom_site_fract_z
Si Si1 0.380730 0.039272 0.047460
Si Si2 0.235685 0.847305 0.578646
Si Si3 0.652059 0.770218 0.530175
Si Si4 0.941181 0.269395 0.154993
Si Si5 0.353652 0.522544 0.941167
Si Si6 0.611490 0.468448 0.587766
Si Si7 0.087739 0.632173 0.755243
Si Si8 0.304522 0.341293 0.675941
O O1 0.298088 0.103513 0.188936
O O2 0.358030 0.989403 0.302274
O O3 0.514548 0.064783 0.879166
O O4 0.332580 0.820515 0.257511
O O5 0.137385 0.889069 0.560282
O O6 0.176956 0.786649 0.800039
O O7 0.644675 0.845234 0.432115
O O8 0.760603 0.778467 0.570748
O O9 0.525898 0.757239 0.814665
O O10 0.884820 0.195370 0.275035
O O11 0.014016 0.301016 0.279368
O O12 0.287693 0.493479 0.271910
O O13 0.376739 0.601752 0.935954
O O14 0.474321 0.481447 0.759242
O O15 0.667633 0.499052 0.263513
O O16 0.192100 0.619400 0.427231
#
# Coordination Sequence:
#
# PCOD8055656 Si02
#       8
#     4   4   4   4   4   4   4   4
#     4  11  27  47  75 106 147 201 253 312 371 454
#     4  11  24  45  76 107 147 191 252 315 382 453
#     4  11  26  45  72 109 145 197 247 314 379 449
#     4  10  25  44  69 107 144 199 242 314 374 446
#     4  10  25  44  68 104 146 195 243 299 375 452
#     4  10  23  44  68 109 148 191 243 303 383 450
#     4  10  25  46  70 106 144 192 257 303 377 451
#     4  11  25  45  72 106 149 194 253 306 385 455
#
# _framework density 25.353966
#
# number of rings (size 3 to 8) (size 9 to 14) (size 15 to 20)
#    0.000    1.500    1.250    0.750   14.000    4.000 
#    0.000    0.000    0.000    0.000    0.000    0.000 
#    0.000    0.000    0.000    0.000    0.000    0.000 
#
# Total GULP energy -198213.278585 kJ/mol
# GULP energy per Si atom -12388.329912 kJ/mol
# Density = 2.529626 g / cm^3
# Si number density = 25.353966 Si / 1000 Ang^3
#
#
#
# Elastic Constant Matrix: (Units=GPa)
#
#
# Indices 1 2 3 4 5 6 
#
# 1 38.8149 10.3424 37.3805 0.0000 -8.5402 0.0000
# 2 10.3424 87.6812 33.3897 0.0000 -16.4633 0.0000
# 3 37.3805 33.3897 106.7230 0.0000 10.0585 0.0000
# 4 0.0000 0.0000 0.0000 40.8771 0.0000 -9.0540
# 5 -8.5402 -16.4633 10.0585 0.0000 42.0690 0.0000
# 6 0.0000 0.0000 0.0000 -9.0540 0.0000 46.3016
#
#
#
# Elastic Compliance Matrix: (Units=1/GPa)
#
#
# Indices 1 2 3 4 5 6 
#
# 1 0.046643 0.004882 -0.019374 0.000000 0.016011 0.000000
# 2 0.004882 0.015242 -0.007299 0.000000 0.008701 0.000000
# 3 -0.019374 -0.007299 0.019519 0.000000 -0.011456 0.000000
# 4 0.000000 0.000000 0.000000 0.025571 0.000000 0.005000
# 5 0.016011 0.008701 -0.011456 0.000000 0.033165 0.000000
# 6 0.000000 0.000000 0.000000 0.005000 0.000000 0.022575
#
#
# Mechanical properties :
#
#
# Convention : Reuss Voigt Hill
#
# Bulk Modulus (GPa) = 26.43831 43.93826 35.18828
# Shear Modulus (GPa) = 22.84104 35.98995 29.41550
#
# Velocity S-wave (km/s) = 3.00473 3.77171 3.40986
# Velocity P-wave (km/s) = 4.74217 6.02788 5.42326
#
# Compressibility (1/GPa) = 0.03782390
#
# Stress axis : x y z
#
# Youngs Moduli (GPa) = 21.43951 65.60680 51.23196
#
# Poissons Ratio (x) = -0.32031 0.99254
# Poissons Ratio (y) = -0.10467 0.37394
# Poissons Ratio (z) = 0.41536 0.47886
#
# Static dielectric constant tensor:
#      x y z
#    x 4.737840 0.000000 0.054010 
#    y 0.000000 4.458270 0.000000 
#    z 0.054010 0.000000 4.809860 
# 
# 
# High freq. dielectric constant tensor:
#      x y z
#    x 2.014670 0.000000 -0.011740 
#    y 0.000000 2.012440 0.000000 
#    z -0.011740 0.000000 2.007280 
# 
# From -- ./inp_files/2565.got.cif
#   From: 2010.06.25/outbox.cif.g09.slc.cpg/sg9_2_cif.got.tgz:2565.got - 2010.06.27 21:40:51.
