data_PCOD8055129
_publ_section_title
;
Structure prediction by ZEFSAII (Michael W. Deem and Ramdas Pophale) SiO2 
 PCOD8055129
Probable space group: C C
;
_chemical_formula_sum "Si O2"
_cell_formula_units_Z 32
_cell_length_a 13.080245
_cell_length_b 8.019630
_cell_length_c 15.559931
_cell_angle_alpha 90.000000
_cell_angle_beta 54.294547
_cell_angle_gamma 90.000000
_cell_volume 1325.405823
_symmetry_space_group_name_H-M "C C"
_symmetry_group_IT_number 9
_symmetry_cell_setting 'monoclinic'
loop_
_space_group_symop_operation_xyz
x,y,z
x,-y,1/2+z
1/2+x,1/2+y,z
1/2+x,1/2-y,1/2+z
loop_
_atom_site_type_symbol
_atom_site_label
_atom_site_fract_x
_atom_site_fract_y
_atom_site_fract_z
Si Si1 0.363770 0.985563 0.795910
Si Si2 0.224969 0.498743 0.736921
Si Si3 0.606032 0.835648 0.629114
Si Si4 0.136965 0.843183 0.831863
Si Si5 0.159678 0.971077 0.648874
Si Si6 0.161804 0.594162 0.459032
Si Si7 0.955152 0.212223 0.148131
Si Si8 0.871291 0.699041 0.948262
O O1 0.368481 0.139879 0.727042
O O2 0.408794 0.045459 0.867746
O O3 0.455102 0.839189 0.716581
O O4 0.220135 0.912727 0.870862
O O5 0.157852 0.440291 0.683586
O O6 0.213902 0.697200 0.745560
O O7 0.166290 0.434068 0.855362
O O8 0.369077 0.437911 0.655790
O O9 0.657693 0.648612 0.602421
O O10 0.642174 0.921491 0.520771
O O11 0.995841 0.787001 0.927309
O O12 0.139373 0.993449 0.760831
O O13 0.291250 0.878155 0.564976
O O14 0.044336 0.853808 0.679291
O O15 0.291823 0.672167 0.429498
O O16 0.044697 0.719950 0.528295
#
# Coordination Sequence:
#
# PCOD8055129 Si02
#       8
#     4   4   4   4   4   4   4   4
#     4  11  22  45  69 100 141 183 234 308 356 432
#     4  12  22  43  71 102 143 188 237 303 369 436
#     4  11  25  46  70 105 146 185 245 307 363 450
#     4  12  25  43  72  99 142 190 239 299 371 431
#     4  11  24  46  69 101 145 186 235 306 366 435
#     4  10  24  45  73 100 145 188 239 300 374 433
#     4  10  21  45  69 102 140 180 237 299 355 447
#     4  11  23  47  69 101 146 190 242 304 364 440
#
# _framework density 24.143549
#
# number of rings (size 3 to 8) (size 9 to 14) (size 15 to 20)
#    0.000    1.000    3.750    3.000    1.750    3.000 
#    9.000    0.000    0.000    0.000    0.000    0.000 
#    0.000    0.000    0.000    0.000    0.000    0.000 
#
# Total GULP energy -198356.674595 kJ/mol
# GULP energy per Si atom -12397.292162 kJ/mol
# Density = 2.408860 g / cm^3
# Si number density = 24.143549 Si / 1000 Ang^3
#
#
#
# Elastic Constant Matrix: (Units=GPa)
#
#
# Indices 1 2 3 4 5 6 
#
# 1 84.1308 9.3499 19.7673 0.0000 -29.1483 0.0000
# 2 9.3499 67.0417 7.6731 0.0000 -16.6497 0.0000
# 3 19.7673 7.6731 67.5141 0.0000 -8.1513 0.0000
# 4 0.0000 0.0000 0.0000 27.6969 0.0000 -3.0109
# 5 -29.1483 -16.6497 -8.1513 0.0000 41.9877 0.0000
# 6 0.0000 0.0000 0.0000 -3.0109 0.0000 46.8888
#
#
#
# Elastic Compliance Matrix: (Units=1/GPa)
#
#
# Indices 1 2 3 4 5 6 
#
# 1 0.016472 0.000865 -0.003583 0.000000 0.011082 0.000000
# 2 0.000865 0.016673 -0.001308 0.000000 0.006958 0.000000
# 3 -0.003583 -0.001308 0.016022 0.000000 0.000104 0.000000
# 4 0.000000 0.000000 0.000000 0.036359 0.000000 0.002335
# 5 0.011082 0.006958 0.000104 0.000000 0.034289 0.000000
# 6 0.000000 0.000000 0.000000 0.002335 0.000000 0.021477
#
#
# Mechanical properties :
#
#
# Convention : Reuss Voigt Hill
#
# Bulk Modulus (GPa) = 24.32212 32.47415 28.39813
# Shear Modulus (GPa) = 30.66563 35.44110 33.05336
#
# Velocity S-wave (km/s) = 3.56777 3.83552 3.70406
# Velocity P-wave (km/s) = 5.20267 5.75279 5.48463
#
# Compressibility (1/GPa) = 0.04111484
#
# Stress axis : x y z
#
# Youngs Moduli (GPa) = 60.71069 59.97649 62.41395
#
# Poissons Ratio (x) = -0.05189 0.22363
# Poissons Ratio (y) = -0.05252 0.08165
# Poissons Ratio (z) = 0.21753 0.07846
#
# Static dielectric constant tensor:
#      x y z
#    x 4.373890 0.000000 -0.216290 
#    y 0.000000 4.407220 0.000000 
#    z -0.216290 0.000000 4.254530 
# 
# 
# High freq. dielectric constant tensor:
#      x y z
#    x 1.961550 0.000000 -0.007200 
#    y 0.000000 1.954920 0.000000 
#    z -0.007200 0.000000 1.954390 
# 
# From -- ./inp_files/24340.got.cif
#   From: 2010.06.25/outbox.cif.g09.slc.cpg/sg9_13_cif.got.tgz:24340.got - 2010.06.27 21:40:51.
