data_PCOD8055775
_publ_section_title
;
Structure prediction by ZEFSAII (Michael W. Deem and Ramdas Pophale) SiO2 
 PCOD8055775
Probable space group: C C
;
_chemical_formula_sum "Si O2"
_cell_formula_units_Z 28
_cell_length_a 5.138274
_cell_length_b 8.947559
_cell_length_c 28.872349
_cell_angle_alpha 90.000000
_cell_angle_beta 110.814027
_cell_angle_gamma 90.000000
_cell_volume 1240.778268
_symmetry_space_group_name_H-M "C C"
_symmetry_group_IT_number 9
_symmetry_cell_setting 'monoclinic'
loop_
_space_group_symop_operation_xyz
x,y,z
x,-y,1/2+z
1/2+x,1/2+y,z
1/2+x,1/2-y,1/2+z
loop_
_atom_site_type_symbol
_atom_site_label
_atom_site_fract_x
_atom_site_fract_y
_atom_site_fract_z
Si Si1 0.831800 0.537691 0.685950
Si Si2 0.167176 0.816908 0.878658
Si Si3 0.571945 0.754233 0.833641
Si Si4 0.904134 0.206753 0.722980
Si Si5 0.146684 0.970090 0.071012
Si Si6 0.910196 0.404774 0.423344
Si Si7 0.073545 0.636888 0.034021
O O1 0.916035 0.384588 0.716325
O O2 0.582660 0.618764 0.696747
O O3 0.727441 0.495846 0.628591
O O4 0.089224 0.650442 0.700000
O O5 0.283800 0.826186 0.833170
O O6 0.160909 0.657901 0.906382
O O7 0.841057 0.865530 0.851134
O O8 0.377751 0.916175 0.923644
O O9 0.531424 0.675791 0.781650
O O10 0.621942 0.635005 0.878415
O O11 0.107584 0.793467 0.062101
O O12 0.392926 0.025779 0.053697
O O13 0.867297 0.059413 0.041621
O O14 0.925978 0.335087 0.475419
#
# Coordination Sequence:
#
# PCOD8055775 Si02
#       7
#     4   4   4   4   4   4   4
#     4  12  26  47  71 103 137 179 233 292 344 404
#     4  10  24  38  64  86 140 163 225 263 335 383
#     4  10  26  40  66  95 135 175 223 274 333 410
#     4  12  26  43  74  98 139 179 231 277 356 406
#     4  12  26  47  71 103 137 179 233 293 341 408
#     4  10  26  40  66  95 135 176 221 276 331 412
#     4  12  26  43  74  98 139 179 232 275 358 403
#
# _framework density 22.566483000000002
#
# number of rings (size 3 to 8) (size 9 to 14) (size 15 to 20)
#    0.857    0.000    0.000    6.000   10.000    0.000 
#    0.000    0.000    0.000    0.000    0.000    0.000 
#    0.000    0.000    0.000    0.000    0.000    0.000 
#
# Total GULP energy -173477.551062 kJ/mol
# GULP energy per Si atom -12391.253647 kJ/mol
# Density = 2.251512 g / cm^3
# Si number density = 22.566483 Si / 1000 Ang^3
#
#
#
# Elastic Constant Matrix: (Units=GPa)
#
#
# Indices 1 2 3 4 5 6 
#
# 1 110.1415 28.6665 42.1982 0.0000 -9.2171 0.0000
# 2 28.6665 91.1143 17.8238 0.0000 6.8558 0.0000
# 3 42.1982 17.8238 122.7203 0.0000 -9.6878 0.0000
# 4 0.0000 0.0000 0.0000 30.2254 0.0000 1.9599
# 5 -9.2171 6.8558 -9.6878 0.0000 26.2642 0.0000
# 6 0.0000 0.0000 0.0000 1.9599 0.0000 19.8553
#
#
#
# Elastic Compliance Matrix: (Units=1/GPa)
#
#
# Indices 1 2 3 4 5 6 
#
# 1 0.011453 -0.003261 -0.003172 0.000000 0.003700 0.000000
# 2 -0.003261 0.012577 -0.001086 0.000000 -0.004828 0.000000
# 3 -0.003172 -0.001086 0.009612 0.000000 0.002716 0.000000
# 4 0.000000 0.000000 0.000000 0.033298 0.000000 -0.003287
# 5 0.003700 -0.004828 0.002716 0.000000 0.041635 0.000000
# 6 0.000000 0.000000 0.000000 -0.003287 0.000000 0.050689
#
#
# Mechanical properties :
#
#
# Convention : Reuss Voigt Hill
#
# Bulk Modulus (GPa) = 53.75874 55.70588 54.73231
# Shear Modulus (GPa) = 27.70009 30.95480 29.32745
#
# Velocity S-wave (km/s) = 3.50735 3.70769 3.60891
# Velocity P-wave (km/s) = 6.34635 6.56263 6.45539
#
# Compressibility (1/GPa) = 0.01860163
#
# Stress axis : x y z
#
# Youngs Moduli (GPa) = 87.31208 79.50951 104.04035
#
# Poissons Ratio (x) = 0.25930 0.33006
# Poissons Ratio (y) = 0.28475 0.11303
# Poissons Ratio (z) = 0.27699 0.08638
#
# Static dielectric constant tensor:
#      x y z
#    x 4.219900 0.000000 -0.049530 
#    y 0.000000 4.103660 0.000000 
#    z -0.049530 0.000000 4.071460 
# 
# 
# High freq. dielectric constant tensor:
#      x y z
#    x 1.906200 0.000000 -0.005400 
#    y 0.000000 1.883990 0.000000 
#    z -0.005400 0.000000 1.894950 
# 
# From -- ./inp_files/36244.got.cif
#   From: 2010.06.25/outbox.cif.g09.slc.cpg/sg9_19_cif.got.tgz:36244.got - 2010.06.27 21:40:51.
