data_PCOD8055678
_publ_section_title
;
Structure prediction by ZEFSAII (Michael W. Deem and Ramdas Pophale) SiO2 
 PCOD8055678
Probable space group: C C
;
_chemical_formula_sum "Si O2"
_cell_formula_units_Z 32
_cell_length_a 7.286325
_cell_length_b 12.713870
_cell_length_c 14.754777
_cell_angle_alpha 90.000000
_cell_angle_beta 68.506769
_cell_angle_gamma 90.000000
_cell_volume 1271.794857
_symmetry_space_group_name_H-M "C C"
_symmetry_group_IT_number 9
_symmetry_cell_setting 'monoclinic'
loop_
_space_group_symop_operation_xyz
x,y,z
x,-y,1/2+z
1/2+x,1/2+y,z
1/2+x,1/2-y,1/2+z
loop_
_atom_site_type_symbol
_atom_site_label
_atom_site_fract_x
_atom_site_fract_y
_atom_site_fract_z
Si Si1 0.750000 0.784717 0.890830
Si Si2 0.169602 0.845601 0.874610
Si Si3 0.238344 0.450833 0.138979
Si Si4 0.403100 0.054439 0.848618
Si Si5 0.848241 0.163748 0.184348
Si Si6 0.778878 0.722397 0.163903
Si Si7 0.973275 0.474835 0.536036
Si Si8 0.323811 0.814804 0.035996
O O1 0.783537 0.661527 0.874264
O O2 0.709526 0.834838 0.798473
O O3 0.560458 0.800975 0.986804
O O4 0.935025 0.842073 0.904543
O O5 0.282666 0.787377 0.771881
O O6 0.222726 0.787134 0.958775
O O7 0.238013 0.965835 0.865371
O O8 0.381412 0.544000 0.146546
O O9 0.356799 0.339433 0.121189
O O10 0.048208 0.443860 0.237745
O O11 0.167198 0.481320 0.051184
O O12 0.525176 0.040767 0.920437
O O13 0.055069 0.215749 0.170867
O O14 0.740462 0.233241 0.125664
O O15 0.907606 0.633898 0.092879
O O16 0.797683 0.563447 0.572769
#
# Coordination Sequence:
#
# PCOD8055678 Si02
#       8
#     4   4   4   4   4   4   4   4
#     4  11  24  48  74 103 152 191 239 315 362 431
#     4  10  23  44  73 103 143 193 244 291 377 427
#     4  12  24  46  73 103 146 192 240 304 369 433
#     4  11  22  44  72 104 145 189 240 308 362 437
#     4  11  24  45  71 106 142 191 246 296 367 433
#     4  11  23  48  67 103 145 188 237 303 362 429
#     4  11  24  44  74  98 147 185 238 304 359 431
#     4  11  24  49  72 110 144 193 250 299 364 449
#
# _framework density 25.161290000000001
#
# number of rings (size 3 to 8) (size 9 to 14) (size 15 to 20)
#    0.000    1.000    5.000    2.250    1.750    0.000 
#   13.500    0.000    0.000    0.000    0.000    0.000 
#    0.000    0.000    0.000    0.000    0.000    0.000 
#
# Total GULP energy -198440.575015 kJ/mol
# GULP energy per Si atom -12402.535938 kJ/mol
# Density = 2.510402 g / cm^3
# Si number density = 25.161290 Si / 1000 Ang^3
#
#
#
# Elastic Constant Matrix: (Units=GPa)
#
#
# Indices 1 2 3 4 5 6 
#
# 1 52.0817 33.4182 45.1344 0.0000 25.5938 0.0000
# 2 33.4182 174.5458 27.7736 0.0000 26.7604 0.0000
# 3 45.1344 27.7736 90.9379 0.0000 30.5504 0.0000
# 4 0.0000 0.0000 0.0000 35.4917 0.0000 4.7859
# 5 25.5938 26.7604 30.5504 0.0000 45.3279 0.0000
# 6 0.0000 0.0000 0.0000 4.7859 0.0000 38.5704
#
#
#
# Elastic Compliance Matrix: (Units=1/GPa)
#
#
# Indices 1 2 3 4 5 6 
#
# 1 0.039602 -0.003635 -0.015194 0.000000 -0.009974 0.000000
# 2 -0.003635 0.006687 0.000515 0.000000 -0.002243 0.000000
# 3 -0.015194 0.000515 0.020167 0.000000 -0.005317 0.000000
# 4 0.000000 0.000000 0.000000 0.028655 0.000000 -0.003556
# 5 -0.009974 -0.002243 -0.005317 0.000000 0.032601 0.000000
# 6 0.000000 0.000000 0.000000 -0.003556 0.000000 0.026368
#
#
# Mechanical properties :
#
#
# Convention : Reuss Voigt Hill
#
# Bulk Modulus (GPa) = 33.52666 58.91309 46.21988
# Shear Modulus (GPa) = 24.91902 37.96062 31.43982
#
# Velocity S-wave (km/s) = 3.15043 3.88840 3.53871
# Velocity P-wave (km/s) = 5.15628 6.60489 5.92502
#
# Compressibility (1/GPa) = 0.02982701
#
# Stress axis : x y z
#
# Youngs Moduli (GPa) = 25.25125 149.54458 49.58680
#
# Poissons Ratio (x) = 0.54364 0.75344
# Poissons Ratio (y) = 0.09180 -0.02556
# Poissons Ratio (z) = 0.38368 -0.07707
#
# Static dielectric constant tensor:
#      x y z
#    x 4.254080 0.000000 0.299280 
#    y 0.000000 4.999040 0.000000 
#    z 0.299280 0.000000 4.932550 
# 
# 
# High freq. dielectric constant tensor:
#      x y z
#    x 1.985480 0.000000 0.022820 
#    y 0.000000 2.021650 0.000000 
#    z 0.022820 0.000000 2.016360 
# 
# From -- ./inp_files/22819.got.cif
#   From: 2010.06.25/outbox.cif.g09.slc.cpg/sg9_12_cif.got.tgz:22819.got - 2010.06.27 21:40:51.
