data_PCOD8055427
_publ_section_title
;
Structure prediction by ZEFSAII (Michael W. Deem and Ramdas Pophale) SiO2 
 PCOD8055427
Probable space group: C C
;
_chemical_formula_sum "Si O2"
_cell_formula_units_Z 32
_cell_length_a 14.355374
_cell_length_b 11.386273
_cell_length_c 12.220527
_cell_angle_alpha 90.000000
_cell_angle_beta 46.993705
_cell_angle_gamma 90.000000
_cell_volume 1460.726818
_symmetry_space_group_name_H-M "C C"
_symmetry_group_IT_number 9
_symmetry_cell_setting 'monoclinic'
loop_
_space_group_symop_operation_xyz
x,y,z
x,-y,1/2+z
1/2+x,1/2+y,z
1/2+x,1/2-y,1/2+z
loop_
_atom_site_type_symbol
_atom_site_label
_atom_site_fract_x
_atom_site_fract_y
_atom_site_fract_z
Si Si1 0.737100 0.397782 0.907860
Si Si2 0.633765 0.845897 0.139412
Si Si3 0.796203 0.936042 0.831127
Si Si4 0.955226 0.486217 0.125823
Si Si5 0.085307 0.111935 0.067973
Si Si6 0.390806 0.821843 0.984040
Si Si7 0.155037 0.252376 0.810055
Si Si8 0.659453 0.151040 0.876981
O O1 0.810127 0.475317 0.760463
O O2 0.674905 0.285603 0.899978
O O3 0.631249 0.478571 0.054218
O O4 0.849234 0.369336 0.901668
O O5 0.632023 0.704953 0.121193
O O6 0.635013 0.863915 0.267702
O O7 0.509546 0.905506 0.182059
O O8 0.762590 0.905350 0.985110
O O9 0.681742 0.872921 0.855359
O O10 0.932165 0.885802 0.687789
O O11 0.784008 0.074938 0.813908
O O12 0.947204 0.417815 0.019357
O O13 0.040826 0.601685 0.040430
O O14 0.147823 0.146618 0.902262
O O15 0.269685 0.755683 0.132214
O O16 0.518347 0.745479 0.858135
#
# Coordination Sequence:
#
# PCOD8055427 Si02
#       8
#     4   4   4   4   4   4   4   4
#     4  12  30  41  67 102 144 179 227 293 349 418
#     4  10  23  44  75  97 129 184 228 286 341 413
#     4  10  22  44  69 101 135 179 233 284 340 417
#     4  11  23  47  69  97 134 182 233 279 349 421
#     4  11  23  44  68 101 136 175 241 280 343 416
#     4  12  24  44  72 101 138 186 228 293 347 414
#     4  11  21  43  73 102 130 185 237 284 341 418
#     4  11  26  45  65 101 140 178 227 285 352 405
#
# _framework density 21.906904000000001
#
# number of rings (size 3 to 8) (size 9 to 14) (size 15 to 20)
#    0.000    1.000    6.250    0.750    7.000    2.000 
#    2.250    0.000    0.000    0.000    0.000    0.000 
#    0.000    0.000    0.000    0.000    0.000    0.000 
#
# Total GULP energy -198308.358421 kJ/mol
# GULP energy per Si atom -12394.272401 kJ/mol
# Density = 2.185704 g / cm^3
# Si number density = 21.906904 Si / 1000 Ang^3
#
#
#
# Elastic Constant Matrix: (Units=GPa)
#
#
# Indices 1 2 3 4 5 6 
#
# 1 97.5424 33.8329 41.8253 0.0000 1.5855 0.0000
# 2 33.8329 119.2821 37.5282 0.0000 3.3334 0.0000
# 3 41.8253 37.5282 84.7756 0.0000 -16.9102 0.0000
# 4 0.0000 0.0000 0.0000 25.9997 0.0000 -9.9540
# 5 1.5855 3.3334 -16.9102 0.0000 40.2009 0.0000
# 6 0.0000 0.0000 0.0000 -9.9540 0.0000 24.7998
#
#
#
# Elastic Compliance Matrix: (Units=1/GPa)
#
#
# Indices 1 2 3 4 5 6 
#
# 1 0.013758 -0.001715 -0.006668 0.000000 -0.003205 0.000000
# 2 -0.001715 0.010265 -0.004207 0.000000 -0.002553 0.000000
# 3 -0.006668 -0.004207 0.018634 0.000000 0.008450 0.000000
# 4 0.000000 0.000000 0.000000 0.045445 0.000000 0.018241
# 5 -0.003205 -0.002553 0.008450 0.000000 0.028768 0.000000
# 6 0.000000 0.000000 0.000000 0.018241 0.000000 0.047644
#
#
# Mechanical properties :
#
#
# Convention : Reuss Voigt Hill
#
# Bulk Modulus (GPa) = 57.22040 58.66367 57.94203
# Shear Modulus (GPa) = 25.57290 30.76099 28.16694
#
# Velocity S-wave (km/s) = 3.42035 3.75129 3.58963
# Velocity P-wave (km/s) = 6.46335 6.75275 6.60963
#
# Compressibility (1/GPa) = 0.01747628
#
# Stress axis : x y z
#
# Youngs Moduli (GPa) = 72.68495 97.41904 53.66668
#
# Poissons Ratio (x) = 0.16706 0.35785
# Poissons Ratio (y) = 0.12465 0.22579
# Poissons Ratio (z) = 0.48466 0.40987
#
# Static dielectric constant tensor:
#      x y z
#    x 3.817320 0.000000 -0.157530 
#    y 0.000000 3.910240 0.000000 
#    z -0.157530 0.000000 4.067130 
# 
# 
# High freq. dielectric constant tensor:
#      x y z
#    x 1.850090 0.000000 -0.013540 
#    y 0.000000 1.860510 0.000000 
#    z -0.013540 0.000000 1.868160 
# 
# From -- ./inp_files/18271.got.cif
#   From: 2010.06.25/outbox.cif.g09.slc.cpg/sg9_10_cif.got.tgz:18271.got - 2010.06.27 21:40:51.
