data_PCOD8055965
_publ_section_title
;
Structure prediction by ZEFSAII (Michael W. Deem and Ramdas Pophale) SiO2 
 PCOD8055965
Probable space group: C C
;
_chemical_formula_sum "Si O2"
_cell_formula_units_Z 28
_cell_length_a 28.412901
_cell_length_b 5.534722
_cell_length_c 9.909499
_cell_angle_alpha 90.000000
_cell_angle_beta 52.784922
_cell_angle_gamma 90.000000
_cell_volume 1241.018932
_symmetry_space_group_name_H-M "C C"
_symmetry_group_IT_number 9
_symmetry_cell_setting 'monoclinic'
loop_
_space_group_symop_operation_xyz
x,y,z
x,-y,1/2+z
1/2+x,1/2+y,z
1/2+x,1/2-y,1/2+z
loop_
_atom_site_type_symbol
_atom_site_label
_atom_site_fract_x
_atom_site_fract_y
_atom_site_fract_z
Si Si1 0.936060 0.252960 0.590900
Si Si2 0.805635 0.289512 0.860171
Si Si3 0.255181 0.052796 0.717101
Si Si4 0.207736 0.440932 0.379327
Si Si5 0.585080 0.759888 0.640877
Si Si6 0.983492 0.570287 0.737987
Si Si7 0.048417 0.955549 0.469283
O O1 0.869346 0.162338 0.731182
O O2 0.945196 0.474694 0.678972
O O3 0.941252 0.306853 0.421811
O O4 0.983253 0.050786 0.546148
O O5 0.797972 0.516693 0.771512
O O6 0.755555 0.085544 0.917880
O O7 0.799009 0.404672 0.017895
O O8 0.214868 0.295202 0.799319
O O9 0.217058 0.800895 0.767391
O O10 0.141316 0.436559 0.553587
O O11 0.588304 0.632867 0.489552
O O12 0.520408 0.879750 0.763534
O O13 0.587155 0.586925 0.768130
O O14 0.036730 0.725832 0.583037
#
# Coordination Sequence:
#
# PCOD8055965 Si02
#       7
#     4   4   4   4   4   4   4
#     4  11  23  43  69 100 135 179 226 287 345 416
#     4  10  25  44  72 101 141 183 235 290 348 418
#     4  10  25  47  66 109 134 186 234 281 353 408
#     4  10  27  43  75 100 144 180 235 284 356 411
#     4  11  25  43  68 101 135 182 228 291 343 425
#     4  11  23  41  64  98 136 174 226 279 348 405
#     4  11  24  43  66 101 135 178 228 284 349 411
#
# _framework density 22.562103
#
# number of rings (size 3 to 8) (size 9 to 14) (size 15 to 20)
#    0.857    0.571    2.857    0.857    6.000    2.286 
#    0.000    0.000    0.000    0.000    0.000    0.000 
#    0.000    0.000    0.000    0.000    0.000    0.000 
#
# Total GULP energy -173448.541744 kJ/mol
# GULP energy per Si atom -12389.181553 kJ/mol
# Density = 2.251075 g / cm^3
# Si number density = 22.562103 Si / 1000 Ang^3
#
#
#
# Elastic Constant Matrix: (Units=GPa)
#
#
# Indices 1 2 3 4 5 6 
#
# 1 88.9218 7.5663 41.6540 0.0000 -6.3385 0.0000
# 2 7.5663 82.8822 15.2913 0.0000 6.6559 0.0000
# 3 41.6540 15.2913 132.2231 0.0000 12.2996 0.0000
# 4 0.0000 0.0000 0.0000 24.5749 0.0000 -3.4095
# 5 -6.3385 6.6559 12.2996 0.0000 32.2028 0.0000
# 6 0.0000 0.0000 0.0000 -3.4095 0.0000 17.4937
#
#
#
# Elastic Compliance Matrix: (Units=1/GPa)
#
#
# Indices 1 2 3 4 5 6 
#
# 1 0.013852 -0.000772 -0.004710 0.000000 0.004685 0.000000
# 2 -0.000772 0.012507 -0.000984 0.000000 -0.002361 0.000000
# 3 -0.004710 -0.000984 0.009568 0.000000 -0.004378 0.000000
# 4 0.000000 0.000000 0.000000 0.041823 0.000000 0.008151
# 5 0.004685 -0.002361 -0.004378 0.000000 0.034136 0.000000
# 6 0.000000 0.000000 0.000000 0.008151 0.000000 0.058752
#
#
# Mechanical properties :
#
#
# Convention : Reuss Voigt Hill
#
# Bulk Modulus (GPa) = 43.48715 48.11670 45.80193
# Shear Modulus (GPa) = 26.14603 30.82199 28.48401
#
# Velocity S-wave (km/s) = 3.40788 3.70008 3.55698
# Velocity P-wave (km/s) = 5.89925 6.29498 6.10032
#
# Compressibility (1/GPa) = 0.02299530
#
# Stress axis : x y z
#
# Youngs Moduli (GPa) = 72.19210 79.95614 104.51640
#
# Poissons Ratio (x) = 0.06171 0.49230
# Poissons Ratio (y) = 0.05571 0.10281
# Poissons Ratio (z) = 0.34005 0.07865
#
# Static dielectric constant tensor:
#      x y z
#    x 3.868470 0.000000 0.128910 
#    y 0.000000 3.887750 0.000000 
#    z 0.128910 0.000000 3.891070 
# 
# 
# High freq. dielectric constant tensor:
#      x y z
#    x 1.885970 0.000000 0.004890 
#    y 0.000000 1.871720 0.000000 
#    z 0.004890 0.000000 1.892600 
# 
# From -- ./inp_files/11934.got.cif
#   From: 2010.06.25/outbox.cif.g09.slc.cpg/sg9_6_cif.got.tgz:11934.got - 2010.06.27 21:40:51.
