data_PCOD8055539
_publ_section_title
;
Structure prediction by ZEFSAII (Michael W. Deem and Ramdas Pophale) SiO2 
 PCOD8055539
Probable space group: C C
;
_chemical_formula_sum "Si O2"
_cell_formula_units_Z 32
_cell_length_a 5.138442
_cell_length_b 30.292935
_cell_length_c 8.383432
_cell_angle_alpha 90.000000
_cell_angle_beta 85.739267
_cell_angle_gamma 90.000000
_cell_volume 1301.345846
_symmetry_space_group_name_H-M "C C"
_symmetry_group_IT_number 9
_symmetry_cell_setting 'monoclinic'
loop_
_space_group_symop_operation_xyz
x,y,z
x,-y,1/2+z
1/2+x,1/2+y,z
1/2+x,1/2-y,1/2+z
loop_
_atom_site_type_symbol
_atom_site_label
_atom_site_fract_x
_atom_site_fract_y
_atom_site_fract_z
Si Si1 0.293540 0.992182 0.456720
Si Si2 0.452134 0.565852 0.447288
Si Si3 0.625255 0.603513 0.905627
Si Si4 0.766054 0.215523 0.572763
Si Si5 0.286164 0.127597 0.231634
Si Si6 0.097750 0.543317 0.199204
Si Si7 0.808569 0.721555 0.366290
Si Si8 0.653934 0.120030 0.699476
O O1 0.118820 0.948313 0.449343
O O2 0.575755 0.979431 0.525571
O O3 0.359989 0.015856 0.288033
O O4 0.115616 0.030666 0.547243
O O5 0.615514 0.608732 0.386338
O O6 0.360596 0.540027 0.289086
O O7 0.209014 0.581616 0.566486
O O8 0.357252 0.617068 0.834735
O O9 0.862936 0.614298 0.777004
O O10 0.632658 0.630889 0.070327
O O11 0.760789 0.241055 0.738798
O O12 0.554190 0.236593 0.462150
O O13 0.673711 0.166023 0.608836
O O14 0.052410 0.216766 0.485214
O O15 0.533513 0.095548 0.191862
O O16 0.382224 0.175963 0.274704
#
# Coordination Sequence:
#
# PCOD8055539 Si02
#       8
#     4   4   4   4   4   4   4   4
#     4  10  24  42  61 107 135 189 244 300 355 426
#     4  11  24  44  74  94 143 195 241 298 364 434
#     4  11  28  44  72 107 148 191 245 304 355 434
#     4  12  28  49  80 112 151 190 249 296 380 435
#     4  10  25  46  70 103 144 190 241 291 375 429
#     4  10  23  40  69  94 140 184 243 292 363 423
#     4  12  27  50  78 113 149 192 241 308 363 454
#     4  12  27  47  74 106 146 193 244 299 369 433
#
# _framework density 24.589925999999998
#
# number of rings (size 3 to 8) (size 9 to 14) (size 15 to 20)
#    0.000    1.000    1.250    3.000   14.000    2.000 
#    0.000    0.000    0.000    0.000    0.000    0.000 
#    0.000    0.000    0.000    0.000    0.000    0.000 
#
# Total GULP energy -198367.999781 kJ/mol
# GULP energy per Si atom -12397.999986 kJ/mol
# Density = 2.453396 g / cm^3
# Si number density = 24.589926 Si / 1000 Ang^3
#
#
#
# Elastic Constant Matrix: (Units=GPa)
#
#
# Indices 1 2 3 4 5 6 
#
# 1 69.6789 13.5133 10.6020 0.0000 14.0164 0.0000
# 2 13.5133 82.4817 23.3863 0.0000 -5.3581 0.0000
# 3 10.6020 23.3863 87.7165 0.0000 12.3344 0.0000
# 4 0.0000 0.0000 0.0000 34.7434 0.0000 4.2649
# 5 14.0164 -5.3581 12.3344 0.0000 50.8910 0.0000
# 6 0.0000 0.0000 0.0000 4.2649 0.0000 23.8236
#
#
#
# Elastic Compliance Matrix: (Units=1/GPa)
#
#
# Indices 1 2 3 4 5 6 
#
# 1 0.015877 -0.002739 -0.000552 0.000000 -0.004527 0.000000
# 2 -0.002739 0.013855 -0.003804 0.000000 0.003135 0.000000
# 3 -0.000552 -0.003804 0.012958 0.000000 -0.003389 0.000000
# 4 0.000000 0.000000 0.000000 0.029429 0.000000 -0.005268
# 5 -0.004527 0.003135 -0.003389 0.000000 0.022048 0.000000
# 6 0.000000 0.000000 0.000000 -0.005268 0.000000 0.042918
#
#
# Mechanical properties :
#
#
# Convention : Reuss Voigt Hill
#
# Bulk Modulus (GPa) = 35.08696 37.20892 36.14794
# Shear Modulus (GPa) = 31.09932 34.71662 32.90797
#
# Velocity S-wave (km/s) = 3.56015 3.76150 3.66221
# Velocity P-wave (km/s) = 5.58564 5.83351 5.71092
#
# Compressibility (1/GPa) = 0.02850062
#
# Stress axis : x y z
#
# Youngs Moduli (GPa) = 62.98239 72.17756 77.17390
#
# Poissons Ratio (x) = 0.19768 0.04262
# Poissons Ratio (y) = 0.17250 0.29354
# Poissons Ratio (z) = 0.03478 0.27454
#
# Static dielectric constant tensor:
#      x y z
#    x 4.237520 0.000000 0.122440 
#    y 0.000000 4.410720 0.000000 
#    z 0.122440 0.000000 4.633800 
# 
# 
# High freq. dielectric constant tensor:
#      x y z
#    x 1.979870 0.000000 0.008510 
#    y 0.000000 1.972160 0.000000 
#    z 0.008510 0.000000 1.992130 
# 
# From -- ./inp_files/4512.got.cif
#   From: 2010.06.25/outbox.cif.g09.slc.cpg/sg9_3_cif.got.tgz:4512.got - 2010.06.27 21:40:51.
