data_PCOD8055519
_publ_section_title
;
Structure prediction by ZEFSAII (Michael W. Deem and Ramdas Pophale) SiO2 
 PCOD8055519
Probable space group: C C
;
_chemical_formula_sum "Si O2"
_cell_formula_units_Z 28
_cell_length_a 8.582469
_cell_length_b 19.044002
_cell_length_c 14.910972
_cell_angle_alpha 90.000000
_cell_angle_beta 148.553405
_cell_angle_gamma 90.000000
_cell_volume 1271.452817
_symmetry_space_group_name_H-M "C C"
_symmetry_group_IT_number 9
_symmetry_cell_setting 'monoclinic'
loop_
_space_group_symop_operation_xyz
x,y,z
x,-y,1/2+z
1/2+x,1/2+y,z
1/2+x,1/2-y,1/2+z
loop_
_atom_site_type_symbol
_atom_site_label
_atom_site_fract_x
_atom_site_fract_y
_atom_site_fract_z
Si Si1 0.803140 0.411641 0.077600
Si Si2 0.214462 0.170990 0.358108
Si Si3 0.129005 0.205550 0.005377
Si Si4 0.714750 0.733436 0.858305
Si Si5 0.713873 0.976419 0.857829
Si Si6 0.124717 0.911570 0.638119
Si Si7 0.300400 0.794593 0.211186
O O1 0.927686 0.357579 0.214026
O O2 0.020033 0.478750 0.190975
O O3 0.844343 0.377521 0.000510
O O4 0.453439 0.430308 0.920197
O O5 0.473632 0.220055 0.446929
O O6 0.083771 0.122518 0.215379
O O7 0.956124 0.220278 0.269675
O O8 0.473247 0.213539 0.199686
O O9 0.000851 0.142668 0.002141
O O10 0.093859 0.186117 0.882138
O O11 0.835527 0.686068 0.834440
O O12 0.956177 0.786471 0.016879
O O13 0.474377 0.930332 0.795551
O O14 0.907535 0.021384 0.024505
#
# Coordination Sequence:
#
# PCOD8055519 Si02
#       7
#     4   4   4   4   4   4   4
#     4  11  24  45  65  92 131 166 219 257 305 388
#     4  12  25  38  69  99 129 160 206 272 328 366
#     4  11  22  42  63 105 125 164 198 273 326 380
#     4  10  23  36  65  97 134 159 198 246 354 364
#     4  10  26  46  64  84 125 187 214 254 300 364
#     4  11  24  45  65  92 131 166 219 257 305 388
#     4  11  22  42  63 105 125 164 198 273 326 380
#
# _framework density 22.022053
#
# number of rings (size 3 to 8) (size 9 to 14) (size 15 to 20)
#    0.000    1.143    2.857    2.571    8.000    1.143 
#    0.000    5.714    0.000    0.000    0.000    0.000 
#    0.000    0.000    0.000    0.000    0.000    0.000 
#
# Total GULP energy -173588.466533 kJ/mol
# GULP energy per Si atom -12399.176181 kJ/mol
# Density = 2.197193 g / cm^3
# Si number density = 22.022053 Si / 1000 Ang^3
#
#
#
# Elastic Constant Matrix: (Units=GPa)
#
#
# Indices 1 2 3 4 5 6 
#
# 1 137.6200 39.0011 53.5652 -0.0322 -43.3357 0.0113
# 2 39.0011 75.4151 25.4974 0.0121 -17.1596 0.0352
# 3 53.5652 25.4974 91.3310 -0.0445 -6.8794 0.0068
# 4 -0.0322 0.0121 -0.0445 35.8970 -0.0357 -1.2207
# 5 -43.3357 -17.1596 -6.8794 -0.0357 55.1728 0.0022
# 6 0.0113 0.0352 0.0068 -1.2207 0.0022 8.0498
#
#
#
# Elastic Compliance Matrix: (Units=1/GPa)
#
#
# Indices 1 2 3 4 5 6 
#
# 1 0.013286 -0.002715 -0.006371 0.000014 0.008796 -0.000002
# 2 -0.002715 0.016168 -0.002729 -0.000011 0.002556 -0.000067
# 3 -0.006371 -0.002729 0.015149 0.000010 -0.003964 0.000011
# 4 0.000014 -0.000011 0.000010 0.028002 0.000027 0.004246
# 5 0.008796 0.002556 -0.003964 0.000027 0.025335 -0.000023
# 6 -0.000002 -0.000067 0.000011 0.004246 -0.000023 0.124871
#
#
# Mechanical properties :
#
#
# Convention : Reuss Voigt Hill
#
# Bulk Modulus (GPa) = 47.68174 60.05481 53.86828
# Shear Modulus (GPa) = 19.72915 32.24409 25.98662
#
# Velocity S-wave (km/s) = 2.99638 3.83060 3.43888
# Velocity P-wave (km/s) = 5.80257 6.84793 6.34681
#
# Compressibility (1/GPa) = 0.02097239
#
# Stress axis : x y z
#
# Youngs Moduli (GPa) = 75.26888 61.84963 66.00996
#
# Poissons Ratio (x) = 0.16793 0.42058
# Poissons Ratio (y) = 0.20436 0.18013
# Poissons Ratio (z) = 0.47957 0.16878
#
# Static dielectric constant tensor:
#      x y z
#    x 4.159020 0.000000 -0.042360 
#    y 0.000000 3.893090 -0.000050 
#    z -0.042360 -0.000050 4.063440 
# 
# 
# High freq. dielectric constant tensor:
#      x y z
#    x 1.867310 0.000000 0.009060 
#    y 0.000000 1.846970 0.000000 
#    z 0.009060 0.000000 1.883380 
# 
# From -- ./inp_files/5546.got.cif
#   From: 2010.06.25/outbox.cif.g09.slc.cpg/sg9_3_cif.got.tgz:5546.got - 2010.06.27 21:40:51.
