data_PCOD8055608
_publ_section_title
;
Structure prediction by ZEFSAII (Michael W. Deem and Ramdas Pophale) SiO2 
 PCOD8055608
Probable space group: C C
;
_chemical_formula_sum "Si O2"
_cell_formula_units_Z 32
_cell_length_a 8.727746
_cell_length_b 14.015277
_cell_length_c 23.062845
_cell_angle_alpha 90.000000
_cell_angle_beta 31.357624
_cell_angle_gamma 90.000000
_cell_volume 1468.032807
_symmetry_space_group_name_H-M "C C"
_symmetry_group_IT_number 9
_symmetry_cell_setting 'monoclinic'
loop_
_space_group_symop_operation_xyz
x,y,z
x,-y,1/2+z
1/2+x,1/2+y,z
1/2+x,1/2-y,1/2+z
loop_
_atom_site_type_symbol
_atom_site_label
_atom_site_fract_x
_atom_site_fract_y
_atom_site_fract_z
Si Si1 0.236580 0.322819 0.884210
Si Si2 0.801098 0.019739 0.280117
Si Si3 0.393692 0.814209 0.235423
Si Si4 0.279129 0.153580 0.286381
Si Si5 0.344006 0.028878 0.833601
Si Si6 0.339979 0.658295 0.837327
Si Si7 0.688642 0.655339 0.077630
Si Si8 0.415507 0.342800 0.540197
O O1 0.117412 0.410116 0.883019
O O2 0.399524 0.245303 0.792456
O O3 0.483293 0.366122 0.846715
O O4 0.977923 0.268212 0.002667
O O5 0.046281 0.081393 0.168459
O O6 0.583249 0.967063 0.306770
O O7 0.957542 0.936110 0.266473
O O8 0.466226 0.921496 0.234196
O O9 0.629025 0.766059 0.115691
O O10 0.074669 0.808438 0.308625
O O11 0.279635 0.259855 0.310429
O O12 0.566633 0.139828 0.153334
O O13 0.275395 0.080529 0.341432
O O14 0.052130 0.084007 0.949412
O O15 0.033923 0.634833 0.968032
O O16 0.550573 0.636399 0.059545
#
# Coordination Sequence:
#
# PCOD8055608 Si02
#       8
#     4   4   4   4   4   4   4   4
#     4  10  23  43  65  95 131 169 218 268 318 385
#     4  11  23  42  65  94 132 170 215 269 320 383
#     4  10  23  43  65  95 131 169 218 268 318 385
#     4  12  23  42  69  95 132 172 215 269 323 383
#     4  11  23  42  65  94 132 170 215 269 320 383
#     4  12  23  42  69  95 132 172 215 269 323 383
#     4  11  22  44  67  96 133 171 217 267 327 385
#     4  11  22  44  67  96 133 171 217 267 327 385
#
# _framework density 21.797877
#
# number of rings (size 3 to 8) (size 9 to 14) (size 15 to 20)
#    0.000    1.000    5.000    2.250    0.000    6.000 
#    0.000    0.000    0.000    0.000    0.000    0.000 
#    0.000    0.000    0.000    0.000    0.000    0.000 
#
# Total GULP energy -198403.832197 kJ/mol
# GULP energy per Si atom -12400.239512 kJ/mol
# Density = 2.174826 g / cm^3
# Si number density = 21.797877 Si / 1000 Ang^3
#
#
#
# Elastic Constant Matrix: (Units=GPa)
#
#
# Indices 1 2 3 4 5 6 
#
# 1 80.3944 19.1005 20.2168 0.0226 2.4427 0.0015
# 2 19.1005 116.4868 44.9487 0.0060 15.1432 -0.0060
# 3 20.2168 44.9487 98.6801 0.0862 3.5556 -0.0033
# 4 0.0226 0.0060 0.0862 34.2928 -0.0421 11.2371
# 5 2.4427 15.1432 3.5556 -0.0421 27.4516 -0.0107
# 6 0.0015 -0.0060 -0.0033 11.2371 -0.0107 47.0235
#
#
#
# Elastic Compliance Matrix: (Units=1/GPa)
#
#
# Indices 1 2 3 4 5 6 
#
# 1 0.013293 -0.001346 -0.002104 -0.000003 -0.000168 0.000000
# 2 -0.001346 0.011332 -0.004687 0.000004 -0.005524 -0.000001
# 3 -0.002104 -0.004687 0.012659 -0.000031 0.001133 0.000008
# 4 -0.000003 0.000004 -0.000031 0.031638 0.000048 -0.007561
# 5 -0.000168 -0.005524 0.001133 0.000048 0.039343 -0.000003
# 6 0.000000 -0.000001 0.000008 -0.007561 -0.000003 0.023073
#
#
# Mechanical properties :
#
#
# Convention : Reuss Voigt Hill
#
# Bulk Modulus (GPa) = 47.59721 51.56593 49.58157
# Shear Modulus (GPa) = 32.33835 35.83995 34.08915
#
# Velocity S-wave (km/s) = 3.85587 4.05927 3.95888
# Velocity P-wave (km/s) = 6.45808 6.75855 6.61002
#
# Compressibility (1/GPa) = 0.02100964
#
# Stress axis : x y z
#
# Youngs Moduli (GPa) = 75.22943 88.24521 78.99538
#
# Poissons Ratio (x) = 0.11876 0.16622
# Poissons Ratio (y) = 0.10125 0.37025
# Poissons Ratio (z) = 0.15830 0.41360
#
# Static dielectric constant tensor:
#      x y z
#    x 3.922610 -0.000030 0.224760 
#    y -0.000030 4.194580 0.000020 
#    z 0.224760 0.000020 3.919690 
# 
# 
# High freq. dielectric constant tensor:
#      x y z
#    x 1.861850 0.000000 0.014410 
#    y 0.000000 1.869950 0.000000 
#    z 0.014410 0.000000 1.836940 
# 
# From -- ./inp_files/14739.got.cif
#   From: 2010.06.25/outbox.cif.g09.slc.cpg/sg9_8_cif.got.tgz:14739.got - 2010.06.27 21:40:51.
