data_PCOD8055294
_publ_section_title
;
Structure prediction by ZEFSAII (Michael W. Deem and Ramdas Pophale) SiO2 
 PCOD8055294
Probable space group: C C
;
_chemical_formula_sum "Si O2"
_cell_formula_units_Z 32
_cell_length_a 5.923849
_cell_length_b 16.644117
_cell_length_c 14.457045
_cell_angle_alpha 90.000000
_cell_angle_beta 90.775025
_cell_angle_gamma 90.000000
_cell_volume 1425.294271
_symmetry_space_group_name_H-M "C C"
_symmetry_group_IT_number 9
_symmetry_cell_setting 'monoclinic'
loop_
_space_group_symop_operation_xyz
x,y,z
x,-y,1/2+z
1/2+x,1/2+y,z
1/2+x,1/2-y,1/2+z
loop_
_atom_site_type_symbol
_atom_site_label
_atom_site_fract_x
_atom_site_fract_y
_atom_site_fract_z
Si Si1 0.231730 0.642948 0.804520
Si Si2 0.453836 0.505797 0.374756
Si Si3 0.506597 0.355976 0.130382
Si Si4 0.847211 0.258759 0.226525
Si Si5 0.648020 0.894458 0.997228
Si Si6 0.658726 0.391719 0.715562
Si Si7 0.961451 0.295439 0.847365
Si Si8 0.258544 0.996762 0.545229
O O1 0.254880 0.561990 0.864798
O O2 0.437494 0.629758 0.735183
O O3 0.285091 0.723320 0.863139
O O4 0.991778 0.660474 0.753963
O O5 0.330252 0.580144 0.421797
O O6 0.546990 0.537276 0.276520
O O7 0.657761 0.474133 0.442904
O O8 0.689414 0.283670 0.137515
O O9 0.275362 0.337760 0.072882
O O10 0.601135 0.435727 0.086914
O O11 0.705866 0.235603 0.316960
O O12 0.991852 0.182629 0.195186
O O13 0.516778 0.970930 0.040835
O O14 0.464082 0.838824 0.946294
O O15 0.876509 0.358040 0.769636
O O16 0.745202 0.422475 0.616151
#
# Coordination Sequence:
#
# PCOD8055294 Si02
#       8
#     4   4   4   4   4   4   4   4
#     4  10  22  42  67  95 131 176 224 279 343 403
#     4  11  23  43  67 100 131 175 229 282 340 410
#     4  10  22  41  67  95 132 176 228 272 342 405
#     4  10  22  43  66  98 130 182 224 276 343 407
#     4  11  23  40  68  98 133 180 228 277 342 408
#     4  11  22  44  72  94 138 177 228 283 341 411
#     4  10  22  41  67  94 133 180 218 277 346 401
#     4  11  24  42  68 102 136 176 229 286 343 405
#
# _framework density 22.451505000000001
#
# number of rings (size 3 to 8) (size 9 to 14) (size 15 to 20)
#    0.000    1.500    3.750    0.750    0.000    6.000 
#   11.250    0.000    0.000    0.000    0.000    0.000 
#    0.000    0.000    0.000    0.000    0.000    0.000 
#
# Total GULP energy -198308.461295 kJ/mol
# GULP energy per Si atom -12394.278831 kJ/mol
# Density = 2.240040 g / cm^3
# Si number density = 22.451505 Si / 1000 Ang^3
#
#
#
# Elastic Constant Matrix: (Units=GPa)
#
#
# Indices 1 2 3 4 5 6 
#
# 1 106.0323 35.5442 33.8980 0.0000 24.9368 0.0000
# 2 35.5442 100.1067 44.0395 0.0000 26.5960 0.0000
# 3 33.8980 44.0395 83.7353 0.0000 27.1632 0.0000
# 4 0.0000 0.0000 0.0000 32.9687 0.0000 4.2161
# 5 24.9368 26.5960 27.1632 0.0000 40.0793 0.0000
# 6 0.0000 0.0000 0.0000 4.2161 0.0000 35.6547
#
#
#
# Elastic Compliance Matrix: (Units=1/GPa)
#
#
# Indices 1 2 3 4 5 6 
#
# 1 0.011902 -0.002019 -0.002293 0.000000 -0.004512 0.000000
# 2 -0.002019 0.014212 -0.005134 0.000000 -0.004695 0.000000
# 3 -0.002293 -0.005134 0.017949 0.000000 -0.007331 0.000000
# 4 0.000000 0.000000 0.000000 0.030797 0.000000 -0.003642
# 5 -0.004512 -0.004695 -0.007331 0.000000 0.035842 0.000000
# 6 0.000000 0.000000 0.000000 -0.003642 0.000000 0.028477
#
#
# Mechanical properties :
#
#
# Convention : Reuss Voigt Hill
#
# Bulk Modulus (GPa) = 39.72767 57.42640 48.57704
# Shear Modulus (GPa) = 30.03680 33.50006 31.76843
#
# Velocity S-wave (km/s) = 3.66163 3.86697 3.76570
# Velocity P-wave (km/s) = 5.96742 6.75066 6.37109
#
# Compressibility (1/GPa) = 0.02517137
#
# Stress axis : x y z
#
# Youngs Moduli (GPa) = 84.02053 70.36177 55.71284
#
# Poissons Ratio (x) = 0.14203 0.12775
# Poissons Ratio (y) = 0.16960 0.28606
# Poissons Ratio (z) = 0.19266 0.36127
#
# Static dielectric constant tensor:
#      x y z
#    x 4.140660 0.000000 0.271370 
#    y 0.000000 3.961370 0.000000 
#    z 0.271370 0.000000 4.062690 
# 
# 
# High freq. dielectric constant tensor:
#      x y z
#    x 1.891180 0.000000 0.008100 
#    y 0.000000 1.873290 0.000000 
#    z 0.008100 0.000000 1.874030 
# 
# From -- ./inp_files/21937.got.cif
#   From: 2010.06.25/outbox.cif.g09.slc.cpg/sg9_11_cif.got.tgz:21937.got - 2010.06.27 21:40:51.
