data_PCOD8055341
_publ_section_title
;
Structure prediction by ZEFSAII (Michael W. Deem and Ramdas Pophale) SiO2 
 PCOD8055341
Probable space group: C C
;
_chemical_formula_sum "Si O2"
_cell_formula_units_Z 32
_cell_length_a 4.984464
_cell_length_b 24.185195
_cell_length_c 12.527093
_cell_angle_alpha 90.000000
_cell_angle_beta 71.698196
_cell_angle_gamma 90.000000
_cell_volume 1433.754249
_symmetry_space_group_name_H-M "C C"
_symmetry_group_IT_number 9
_symmetry_cell_setting 'monoclinic'
loop_
_space_group_symop_operation_xyz
x,y,z
x,-y,1/2+z
1/2+x,1/2+y,z
1/2+x,1/2-y,1/2+z
loop_
_atom_site_type_symbol
_atom_site_label
_atom_site_fract_x
_atom_site_fract_y
_atom_site_fract_z
Si Si1 0.520880 0.977306 0.862520
Si Si2 0.845598 0.334429 0.944618
Si Si3 0.773404 0.430206 0.088089
Si Si4 0.296358 0.287012 0.492573
Si Si5 0.867701 0.190034 0.228685
Si Si6 0.416817 0.197558 0.842678
Si Si7 0.134666 0.417620 0.232450
Si Si8 0.580122 0.406107 0.815770
O O1 0.804864 0.943792 0.849857
O O2 0.355617 0.946325 0.785244
O O3 0.603620 0.041240 0.836677
O O4 0.313225 0.976769 0.991694
O O5 0.582931 0.366044 0.920249
O O6 0.088664 0.325465 0.828099
O O7 0.937332 0.374590 0.029064
O O8 0.755129 0.278138 0.010159
O O9 0.449517 0.417343 0.150683
O O10 0.930008 0.448459 0.174965
O O11 0.285085 0.308805 0.614527
O O12 0.580000 0.305543 0.396414
O O13 0.040772 0.304896 0.447386
O O14 0.997395 0.247316 0.262869
O O15 0.083872 0.138082 0.216544
O O16 0.530522 0.144242 0.767135
#
# Coordination Sequence:
#
# PCOD8055341 Si02
#       8
#     4   4   4   4   4   4   4   4
#     4  11  25  45  69 101 132 169 240 290 323 407
#     4  10  22  42  68 103 136 169 245 274 312 433
#     4  11  23  43  75  95 125 191 227 276 345 397
#     4  11  25  40  67 103 142 186 213 278 368 388
#     4  11  23  43  72 102 141 180 226 285 343 408
#     4  11  26  45  65 103 144 176 225 287 336 423
#     4  12  26  48  67 100 140 177 229 283 349 408
#     4  11  20  42  69  95 136 168 225 297 316 394
#
# _framework density 22.319025
#
# number of rings (size 3 to 8) (size 9 to 14) (size 15 to 20)
#    0.000    1.000    3.750    3.750    1.750    2.000 
#    6.750    0.000    0.000    0.000    0.000    0.000 
#    0.000    0.000    0.000    0.000    0.000    0.000 
#
# Total GULP energy -198248.307839 kJ/mol
# GULP energy per Si atom -12390.519240 kJ/mol
# Density = 2.226823 g / cm^3
# Si number density = 22.319025 Si / 1000 Ang^3
#
#
#
# Elastic Constant Matrix: (Units=GPa)
#
#
# Indices 1 2 3 4 5 6 
#
# 1 115.4669 27.9173 22.2766 0.0000 0.6842 0.0000
# 2 27.9173 103.2019 34.6450 0.0000 -8.0661 0.0000
# 3 22.2766 34.6450 90.9029 0.0000 3.2370 0.0000
# 4 0.0000 0.0000 0.0000 29.9137 0.0000 -2.5358
# 5 0.6842 -8.0661 3.2370 0.0000 39.2874 0.0000
# 6 0.0000 0.0000 0.0000 -2.5358 0.0000 30.2264
#
#
#
# Elastic Compliance Matrix: (Units=1/GPa)
#
#
# Indices 1 2 3 4 5 6 
#
# 1 0.009459 -0.002090 -0.001505 0.000000 -0.000470 0.000000
# 2 -0.002090 0.011853 -0.004105 0.000000 0.002808 0.000000
# 3 -0.001505 -0.004105 0.013001 0.000000 -0.001888 0.000000
# 4 0.000000 0.000000 0.000000 0.033669 0.000000 0.002825
# 5 -0.000470 0.002808 -0.001888 0.000000 0.026194 0.000000
# 6 0.000000 0.000000 0.000000 0.002825 0.000000 0.033321
#
#
# Mechanical properties :
#
#
# Convention : Reuss Voigt Hill
#
# Bulk Modulus (GPa) = 52.87408 53.24996 53.06202
# Shear Modulus (GPa) = 33.51195 34.86771 34.18983
#
# Velocity S-wave (km/s) = 3.87912 3.95681 3.91816
# Velocity P-wave (km/s) = 6.61853 6.69219 6.65547
#
# Compressibility (1/GPa) = 0.01891286
#
# Stress axis : x y z
#
# Youngs Moduli (GPa) = 105.71995 84.36849 76.91595
#
# Poissons Ratio (x) = 0.17636 0.11573
# Poissons Ratio (y) = 0.22100 0.31574
# Poissons Ratio (z) = 0.15906 0.34634
#
# Static dielectric constant tensor:
#      x y z
#    x 4.165750 0.000000 0.234860 
#    y 0.000000 4.289250 0.000000 
#    z 0.234860 0.000000 3.956990 
# 
# 
# High freq. dielectric constant tensor:
#      x y z
#    x 1.891610 0.000000 0.012930 
#    y 0.000000 1.880790 0.000000 
#    z 0.012930 0.000000 1.862440 
# 
# From -- ./inp_files/13814.got.cif
#   From: 2010.06.25/outbox.cif.g09.slc.cpg/sg9_7_cif.got.tgz:13814.got - 2010.06.27 21:40:51.
