data_PCOD8055824
_publ_section_title
;
Structure prediction by ZEFSAII (Michael W. Deem and Ramdas Pophale) SiO2 
 PCOD8055824
Probable space group: C C
;
_chemical_formula_sum "Si O2"
_cell_formula_units_Z 28
_cell_length_a 11.975273
_cell_length_b 16.443831
_cell_length_c 8.235229
_cell_angle_alpha 90.000000
_cell_angle_beta 129.782128
_cell_angle_gamma 90.000000
_cell_volume 1246.230738
_symmetry_space_group_name_H-M "C C"
_symmetry_group_IT_number 9
_symmetry_cell_setting 'monoclinic'
loop_
_space_group_symop_operation_xyz
x,y,z
x,-y,1/2+z
1/2+x,1/2+y,z
1/2+x,1/2-y,1/2+z
loop_
_atom_site_type_symbol
_atom_site_label
_atom_site_fract_x
_atom_site_fract_y
_atom_site_fract_z
Si Si1 0.946950 0.231963 0.970670
Si Si2 0.561874 0.584273 0.906486
Si Si3 0.180720 0.767445 0.939608
Si Si4 0.886787 0.398289 0.804015
Si Si5 0.033650 0.095506 0.496990
Si Si6 0.210770 0.608242 0.115266
Si Si7 0.557501 0.992501 0.220022
O O1 0.843743 0.246075 0.031337
O O2 0.933644 0.304223 0.825936
O O3 0.938713 0.145915 0.865104
O O4 0.105117 0.233454 0.195384
O O5 0.575259 0.595807 0.725088
O O6 0.713689 0.599470 0.138113
O O7 0.516730 0.493499 0.905635
O O8 0.155658 0.852366 0.012640
O O9 0.130990 0.694767 0.013431
O O10 0.949179 0.458217 0.730815
O O11 0.951734 0.427867 0.036174
O O12 0.874821 0.131610 0.315619
O O13 0.132166 0.560400 0.182714
O O14 0.189536 0.554027 0.932787
#
# Coordination Sequence:
#
# PCOD8055824 Si02
#       7
#     4   4   4   4   4   4   4
#     4  12  26  46  73 105 147 192 240 304 369 433
#     4  12  28  47  75 105 148 195 251 303 367 441
#     4  12  26  46  73 105 147 192 240 304 369 433
#     4  11  24  45  70 104 142 188 244 295 369 429
#     4  12  28  47  75 105 148 195 251 303 367 441
#     4  11  24  45  70 104 142 188 244 295 369 429
#     4  10  24  42  74 104 142 188 238 306 360 436
#
# _framework density 22.467749999999999
#
# number of rings (size 3 to 8) (size 9 to 14) (size 15 to 20)
#    0.000    0.571    4.286    2.571    6.000    3.429 
#    0.000    0.000    0.000    0.000    0.000    0.000 
#    0.000    0.000    0.000    0.000    0.000    0.000 
#
# Total GULP energy -173517.297705 kJ/mol
# GULP energy per Si atom -12394.092693 kJ/mol
# Density = 2.241661 g / cm^3
# Si number density = 22.467750 Si / 1000 Ang^3
#
#
#
# Elastic Constant Matrix: (Units=GPa)
#
#
# Indices 1 2 3 4 5 6 
#
# 1 83.9303 39.7977 23.1558 0.0000 -4.7278 0.0000
# 2 39.7977 147.6054 -2.2552 0.0000 -5.6372 0.0000
# 3 23.1558 -2.2552 69.1873 0.0000 1.9522 0.0000
# 4 0.0000 0.0000 0.0000 50.2057 0.0000 -25.4018
# 5 -4.7278 -5.6372 1.9522 0.0000 21.0920 0.0000
# 6 0.0000 0.0000 0.0000 -25.4018 0.0000 62.1944
#
#
#
# Elastic Compliance Matrix: (Units=1/GPa)
#
#
# Indices 1 2 3 4 5 6 
#
# 1 0.015547 -0.004165 -0.005420 0.000000 0.002873 0.000000
# 2 -0.004165 0.007962 0.001624 0.000000 0.001044 0.000000
# 3 -0.005420 0.001624 0.016385 0.000000 -0.002297 0.000000
# 4 0.000000 0.000000 0.000000 0.025106 0.000000 0.010254
# 5 0.002873 0.001044 -0.002297 0.000000 0.048547 0.000000
# 6 0.000000 0.000000 0.000000 0.010254 0.000000 0.020267
#
#
# Mechanical properties :
#
#
# Convention : Reuss Voigt Hill
#
# Bulk Modulus (GPa) = 41.71422 46.90217 44.30819
# Shear Modulus (GPa) = 31.70037 42.70007 37.20022
#
# Velocity S-wave (km/s) = 3.76031 4.36421 4.07346
# Velocity P-wave (km/s) = 6.12044 6.80557 6.47207
#
# Compressibility (1/GPa) = 0.02397264
#
# Stress axis : x y z
#
# Youngs Moduli (GPa) = 64.32222 125.58969 61.03038
#
# Poissons Ratio (x) = 0.52306 0.33079
# Poissons Ratio (y) = 0.26789 -0.09911
# Poissons Ratio (z) = 0.34863 -0.20395
#
# Static dielectric constant tensor:
#      x y z
#    x 3.856700 0.000000 -0.048310 
#    y 0.000000 4.287340 0.000000 
#    z -0.048310 0.000000 4.215630 
# 
# 
# High freq. dielectric constant tensor:
#      x y z
#    x 1.873660 0.000000 -0.000220 
#    y 0.000000 1.907490 0.000000 
#    z -0.000220 0.000000 1.896510 
# 
# From -- ./inp_files/7522.got.cif
#   From: 2010.06.25/outbox.cif.g09.slc.cpg/sg9_4_cif.got.tgz:7522.got - 2010.06.27 21:40:51.
