data_PCOD8055806
_publ_section_title
;
Structure prediction by ZEFSAII (Michael W. Deem and Ramdas Pophale) SiO2 
 PCOD8055806
Probable space group: C C
;
_chemical_formula_sum "Si O2"
_cell_formula_units_Z 32
_cell_length_a 5.084661
_cell_length_b 30.148270
_cell_length_c 8.354026
_cell_angle_alpha 90.000000
_cell_angle_beta 89.403453
_cell_angle_gamma 90.000000
_cell_volume 1280.550417
_symmetry_space_group_name_H-M "C C"
_symmetry_group_IT_number 9
_symmetry_cell_setting 'monoclinic'
loop_
_space_group_symop_operation_xyz
x,y,z
x,-y,1/2+z
1/2+x,1/2+y,z
1/2+x,1/2-y,1/2+z
loop_
_atom_site_type_symbol
_atom_site_label
_atom_site_fract_x
_atom_site_fract_y
_atom_site_fract_z
Si Si1 0.682440 0.508282 0.724500
Si Si2 0.726391 0.627526 0.027993
Si Si3 0.861615 0.887299 0.989608
Si Si4 0.209474 0.779175 0.663383
Si Si5 0.391505 0.454112 0.506656
Si Si6 0.724440 0.211228 0.381276
Si Si7 0.386294 0.083242 0.322232
Si Si8 0.526528 0.081412 0.765645
O O1 0.405805 0.493830 0.639977
O O2 0.631275 0.529312 0.896188
O O3 0.847155 0.463785 0.739729
O O4 0.856208 0.548979 0.645500
O O5 0.653397 0.678922 0.046955
O O6 0.922073 0.617410 0.174703
O O7 0.472241 0.595660 0.064006
O O8 0.853193 0.620161 0.850521
O O9 0.784292 0.838693 0.934276
O O10 0.671397 0.921160 0.898733
O O11 0.163974 0.899142 0.949718
O O12 0.780946 0.896082 0.177293
O O13 0.455464 0.784630 0.782394
O O14 0.230751 0.737498 0.547250
O O15 0.955873 0.769935 0.771498
O O16 0.122424 0.450966 0.410462
#
# Coordination Sequence:
#
# PCOD8055806 Si02
#       8
#     4   4   4   4   4   4   4   4
#     4  10  24  43  62 105 138 191 251 300 370 419
#     4  10  24  46  69 104 144 192 241 295 374 437
#     4  12  26  47  73 107 146 193 246 300 371 440
#     4  12  27  50  79 114 154 190 251 301 381 451
#     4  10  24  41  69  97 142 191 245 305 360 431
#     4  12  27  50  79 115 148 199 241 311 375 455
#     4  11  25  45  76  98 145 198 242 304 358 449
#     4  11  27  42  71 106 145 194 251 308 369 438
#
# _framework density 24.989253999999999
#
# number of rings (size 3 to 8) (size 9 to 14) (size 15 to 20)
#    0.000    1.000    2.500    1.500   14.000    3.000 
#    0.000    0.000    0.000    0.000    0.000    0.000 
#    0.000    0.000    0.000    0.000    0.000    0.000 
#
# Total GULP energy -198228.227079 kJ/mol
# GULP energy per Si atom -12389.264192 kJ/mol
# Density = 2.493238 g / cm^3
# Si number density = 24.989254 Si / 1000 Ang^3
#
#
#
# Elastic Constant Matrix: (Units=GPa)
#
#
# Indices 1 2 3 4 5 6 
#
# 1 73.8418 11.5409 18.1667 0.0000 -6.0379 0.0000
# 2 11.5409 86.4576 37.5054 0.0000 1.9387 0.0000
# 3 18.1667 37.5054 87.8998 0.0000 -11.4008 0.0000
# 4 0.0000 0.0000 0.0000 39.6290 0.0000 -1.1160
# 5 -6.0379 1.9387 -11.4008 0.0000 53.1705 0.0000
# 6 0.0000 0.0000 0.0000 -1.1160 0.0000 22.8421
#
#
#
# Elastic Compliance Matrix: (Units=1/GPa)
#
#
# Indices 1 2 3 4 5 6 
#
# 1 0.014376 -0.000883 -0.002446 0.000000 0.001140 0.000000
# 2 -0.000883 0.014431 -0.006229 0.000000 -0.001962 0.000000
# 3 -0.002446 -0.006229 0.014949 0.000000 0.003155 0.000000
# 4 0.000000 0.000000 0.000000 0.025269 0.000000 0.001235
# 5 0.001140 -0.001962 0.003155 0.000000 0.019685 0.000000
# 6 0.000000 0.000000 0.000000 0.001235 0.000000 0.043839
#
#
# Mechanical properties :
#
#
# Convention : Reuss Voigt Hill
#
# Bulk Modulus (GPa) = 40.58813 42.51389 41.55101
# Shear Modulus (GPa) = 31.27377 35.19407 33.23392
#
# Velocity S-wave (km/s) = 3.54148 3.75689 3.65077
# Velocity P-wave (km/s) = 5.74458 5.98906 5.86809
#
# Compressibility (1/GPa) = 0.02463775
#
# Stress axis : x y z
#
# Youngs Moduli (GPa) = 69.56240 69.29765 66.89293
#
# Poissons Ratio (x) = 0.06121 0.16364
# Poissons Ratio (y) = 0.06144 0.41669
# Poissons Ratio (z) = 0.17017 0.43167
#
# Static dielectric constant tensor:
#      x y z
#    x 4.418700 0.000000 0.002440 
#    y 0.000000 4.577910 0.000000 
#    z 0.002440 0.000000 4.849470 
# 
# 
# High freq. dielectric constant tensor:
#      x y z
#    x 1.996970 0.000000 0.000330 
#    y 0.000000 1.987310 0.000000 
#    z 0.000330 0.000000 2.010680 
# 
# From -- ./inp_files/4365.got.cif
#   From: 2010.06.25/outbox.cif.g09.slc.cpg/sg9_3_cif.got.tgz:4365.got - 2010.06.27 21:40:51.
