data_PCOD8055463
_publ_section_title
;
Structure prediction by ZEFSAII (Michael W. Deem and Ramdas Pophale) SiO2 
 PCOD8055463
Probable space group: C C
;
_chemical_formula_sum "Si O2"
_cell_formula_units_Z 28
_cell_length_a 20.709351
_cell_length_b 5.138161
_cell_length_c 15.107977
_cell_angle_alpha 90.000000
_cell_angle_beta 54.553225
_cell_angle_gamma 90.000000
_cell_volume 1309.646338
_symmetry_space_group_name_H-M "C C"
_symmetry_group_IT_number 9
_symmetry_cell_setting 'monoclinic'
loop_
_space_group_symop_operation_xyz
x,y,z
x,-y,1/2+z
1/2+x,1/2+y,z
1/2+x,1/2-y,1/2+z
loop_
_atom_site_type_symbol
_atom_site_label
_atom_site_fract_x
_atom_site_fract_y
_atom_site_fract_z
Si Si1 0.351000 0.575876 0.083600
Si Si2 0.279103 0.699997 0.970794
Si Si3 0.058905 0.466494 0.547022
Si Si4 0.929103 0.503075 0.794524
Si Si5 0.449849 0.923119 0.474360
Si Si6 0.295896 0.681830 0.312735
Si Si7 0.161760 0.029554 0.981796
O O1 0.420807 0.365745 0.022501
O O2 0.308274 0.536639 0.210871
O O3 0.380400 0.872249 0.050043
O O4 0.285471 0.543938 0.058250
O O5 0.249428 0.502770 0.918828
O O6 0.367335 0.779962 0.869778
O O7 0.214300 0.935789 0.026599
O O8 0.105579 0.722061 0.543574
O O9 0.993342 0.399516 0.673637
O O10 0.022363 0.512976 0.478552
O O11 0.110361 0.211266 0.491079
O O12 0.880758 0.735377 0.785753
O O13 0.972437 0.586488 0.852000
O O14 0.230839 0.913199 0.353280
#
# Coordination Sequence:
#
# PCOD8055463 Si02
#       7
#     4   4   4   4   4   4   4
#     4  11  23  38  73  98 124 166 227 278 322 380
#     4  10  22  45  67  98 130 167 229 276 319 399
#     4  12  24  44  64  95 136 175 209 271 333 401
#     4  10  23  40  73  95 126 173 220 276 329 383
#     4  11  23  41  65 105 126 163 223 277 320 395
#     4  11  21  45  68  96 127 175 220 276 327 389
#     4  11  26  43  62  91 139 175 212 264 334 393
#
# _framework density 21.379819000000001
#
# number of rings (size 3 to 8) (size 9 to 14) (size 15 to 20)
#    0.000    1.143    4.286    1.714    4.000    0.000 
#    5.143    0.000    0.000    0.000    0.000    0.000 
#    0.000    0.000    0.000    0.000    0.000    0.000 
#
# Total GULP energy -173488.184002 kJ/mol
# GULP energy per Si atom -12392.013143 kJ/mol
# Density = 2.133116 g / cm^3
# Si number density = 21.379819 Si / 1000 Ang^3
#
#
#
# Elastic Constant Matrix: (Units=GPa)
#
#
# Indices 1 2 3 4 5 6 
#
# 1 117.4162 39.4809 74.5216 -0.0015 7.9073 0.0033
# 2 39.4809 97.9123 26.6008 0.0117 4.2825 0.0148
# 3 74.5216 26.6008 93.7897 0.0004 27.7878 -0.0013
# 4 -0.0015 0.0117 0.0004 29.8841 0.0035 -5.1002
# 5 7.9073 4.2825 27.7878 0.0035 33.2418 0.0009
# 6 0.0033 0.0148 -0.0013 -5.1002 0.0009 38.2930
#
#
#
# Elastic Compliance Matrix: (Units=1/GPa)
#
#
# Indices 1 2 3 4 5 6 
#
# 1 0.021180 -0.003844 -0.019131 0.000001 0.011449 -0.000001
# 2 -0.003844 0.011827 -0.000159 -0.000006 -0.000476 -0.000005
# 3 -0.019131 -0.000159 0.032636 0.000002 -0.022710 0.000004
# 4 0.000001 -0.000006 0.000002 0.034241 -0.000005 0.004561
# 5 0.011449 -0.000476 -0.022710 -0.000005 0.046405 -0.000003
# 6 -0.000001 -0.000005 0.000004 0.004561 -0.000003 0.026722
#
#
# Mechanical properties :
#
#
# Convention : Reuss Voigt Hill
#
# Bulk Modulus (GPa) = 51.60962 65.59166 58.60064
# Shear Modulus (GPa) = 22.14966 31.51811 26.83388
#
# Velocity S-wave (km/s) = 3.22220 3.84370 3.54659
# Velocity P-wave (km/s) = 6.16727 7.10243 6.65131
#
# Compressibility (1/GPa) = 0.01937623
#
# Stress axis : x y z
#
# Youngs Moduli (GPa) = 47.21454 84.55074 30.64068
#
# Poissons Ratio (x) = 0.32499 0.58617
# Poissons Ratio (y) = 0.18148 0.00488
# Poissons Ratio (z) = 0.90324 0.01347
#
# Static dielectric constant tensor:
#      x y z
#    x 4.131030 -0.000020 0.153160 
#    y -0.000020 3.931150 0.000090 
#    z 0.153160 0.000090 3.746020 
# 
# 
# High freq. dielectric constant tensor:
#      x y z
#    x 1.843570 0.000000 0.005090 
#    y 0.000000 1.848830 0.000000 
#    z 0.005090 0.000000 1.812620 
# 
# From -- ./inp_files/26306.got.cif
#   From: 2010.06.25/outbox.cif.g09.slc.cpg/sg9_14_cif.got.tgz:26306.got - 2010.06.27 21:40:51.
