data_PCOD8055255
_publ_section_title
;
Structure prediction by ZEFSAII (Michael W. Deem and Ramdas Pophale) SiO2 
 PCOD8055255
Probable space group: C C
;
_chemical_formula_sum "Si O2"
_cell_formula_units_Z 32
_cell_length_a 14.103115
_cell_length_b 9.392598
_cell_length_c 10.624031
_cell_angle_alpha 90.000000
_cell_angle_beta 65.561311
_cell_angle_gamma 90.000000
_cell_volume 1281.222360
_symmetry_space_group_name_H-M "C C"
_symmetry_group_IT_number 9
_symmetry_cell_setting 'monoclinic'
loop_
_space_group_symop_operation_xyz
x,y,z
x,-y,1/2+z
1/2+x,1/2+y,z
1/2+x,1/2-y,1/2+z
loop_
_atom_site_type_symbol
_atom_site_label
_atom_site_fract_x
_atom_site_fract_y
_atom_site_fract_z
Si Si1 0.691830 0.240593 0.528400
Si Si2 0.541710 0.350399 0.920411
Si Si3 0.469335 0.200878 0.539275
Si Si4 0.436940 0.113313 0.106730
Si Si5 0.291861 0.605670 0.243736
Si Si6 0.094773 0.991419 0.140715
Si Si7 0.092673 0.690514 0.224700
Si Si8 0.255013 0.295703 0.261374
O O1 0.570088 0.203198 0.574221
O O2 0.767143 0.210083 0.371981
O O3 0.694070 0.411130 0.552331
O O4 0.735454 0.162934 0.626549
O O5 0.529988 0.429303 0.791220
O O6 0.650572 0.265763 0.880268
O O7 0.454605 0.225211 0.980240
O O8 0.528562 0.460811 0.047115
O O9 0.391852 0.329971 0.618133
O O10 0.505049 0.219334 0.377094
O O11 0.413971 0.046926 0.576731
O O12 0.540422 0.114012 0.135098
O O13 0.338501 0.170978 0.237992
O O14 0.189620 0.595249 0.211962
O O15 0.302513 0.443715 0.291555
O O16 0.140138 0.844439 0.165929
#
# Coordination Sequence:
#
# PCOD8055255 Si02
#       8
#     4   4   4   4   4   4   4   4
#     4  10  24  44  70  95 145 179 228 287 350 411
#     4  10  22  44  70  96 148 176 230 284 350 412
#     4  11  25  44  71 102 136 182 237 282 349 415
#     4  11  26  44  69 103 139 183 230 283 355 409
#     4  11  25  44  71 102 136 182 237 282 349 415
#     4  10  22  40  74  98 132 180 232 278 350 392
#     4  10  24  44  70  95 145 179 228 287 350 411
#     4  11  26  44  69 103 139 183 230 283 355 409
#
# _framework density 24.976147999999998
#
# number of rings (size 3 to 8) (size 9 to 14) (size 15 to 20)
#    0.000    1.500    0.000    3.750   10.500    8.000 
#    0.000    0.000    0.000    0.000    0.000    0.000 
#    0.000    0.000    0.000    0.000    0.000    0.000 
#
# Total GULP energy -198290.404413 kJ/mol
# GULP energy per Si atom -12393.150276 kJ/mol
# Density = 2.491930 g / cm^3
# Si number density = 24.976148 Si / 1000 Ang^3
#
#
#
# Elastic Constant Matrix: (Units=GPa)
#
#
# Indices 1 2 3 4 5 6 
#
# 1 50.7704 6.1370 27.4460 0.0000 -2.2125 0.0000
# 2 6.1370 148.2600 45.5775 0.0000 -6.4418 0.0000
# 3 27.4460 45.5775 103.6224 0.0000 -0.0197 0.0000
# 4 0.0000 0.0000 0.0000 42.4723 0.0000 -6.6222
# 5 -2.2125 -6.4418 -0.0197 0.0000 45.7650 0.0000
# 6 0.0000 0.0000 0.0000 -6.6222 0.0000 28.8930
#
#
#
# Elastic Compliance Matrix: (Units=1/GPa)
#
#
# Indices 1 2 3 4 5 6 
#
# 1 0.023208 0.001139 -0.006648 0.000000 0.001279 0.000000
# 2 0.001139 0.007911 -0.003781 0.000000 0.001167 0.000000
# 3 -0.006648 -0.003781 0.013074 0.000000 -0.000848 0.000000
# 4 0.000000 0.000000 0.000000 0.024417 0.000000 0.005596
# 5 0.001279 0.001167 -0.000848 0.000000 0.022076 0.000000
# 6 0.000000 0.000000 0.000000 0.005596 0.000000 0.035893
#
#
# Mechanical properties :
#
#
# Convention : Reuss Voigt Hill
#
# Bulk Modulus (GPa) = 39.04238 51.21929 45.13084
# Shear Modulus (GPa) = 32.53143 38.32555 35.42849
#
# Velocity S-wave (km/s) = 3.61293 3.92150 3.77037
# Velocity P-wave (km/s) = 5.75067 6.40750 6.08795
#
# Compressibility (1/GPa) = 0.02561319
#
# Stress axis : x y z
#
# Youngs Moduli (GPa) = 43.08804 126.40997 76.48800
#
# Poissons Ratio (x) = -0.14392 0.50846
# Poissons Ratio (y) = -0.04906 0.28919
# Poissons Ratio (z) = 0.28643 0.47793
#
# Static dielectric constant tensor:
#      x y z
#    x 4.203630 0.000000 0.092340 
#    y 0.000000 4.631520 0.000000 
#    z 0.092340 0.000000 4.527760 
# 
# 
# High freq. dielectric constant tensor:
#      x y z
#    x 1.973480 0.000000 0.000220 
#    y 0.000000 2.011750 0.000000 
#    z 0.000220 0.000000 1.994600 
# 
# From -- ./inp_files/17905.got.cif
#   From: 2010.06.25/outbox.cif.g09.slc.cpg/sg9_9_cif.got.tgz:17905.got - 2010.06.27 21:40:51.
