data_PCOD8055842
_publ_section_title
;
Structure prediction by ZEFSAII (Michael W. Deem and Ramdas Pophale) SiO2 
 PCOD8055842
Probable space group: C C
;
_chemical_formula_sum "Si O2"
_cell_formula_units_Z 24
_cell_length_a 20.921610
_cell_length_b 4.669062
_cell_length_c 20.076859
_cell_angle_alpha 90.000000
_cell_angle_beta 21.972239
_cell_angle_gamma 90.000000
_cell_volume 733.794996
_symmetry_space_group_name_H-M "C C"
_symmetry_group_IT_number 9
_symmetry_cell_setting 'monoclinic'
loop_
_space_group_symop_operation_xyz
x,y,z
x,-y,1/2+z
1/2+x,1/2+y,z
1/2+x,1/2-y,1/2+z
loop_
_atom_site_type_symbol
_atom_site_label
_atom_site_fract_x
_atom_site_fract_y
_atom_site_fract_z
Si Si1 0.160890 0.540192 0.789090
Si Si2 0.269421 0.044502 0.767645
Si Si3 0.331200 0.924207 0.039094
Si Si4 0.093232 0.616192 0.026697
Si Si5 0.116518 0.382426 0.173872
Si Si6 0.898199 0.034255 0.810544
O O1 0.219324 0.868186 0.747190
O O2 0.225209 0.374649 0.793678
O O3 0.249028 0.387389 0.637317
O O4 0.956066 0.516994 0.980132
O O5 0.469482 0.035271 0.593423
O O6 0.148812 0.924011 0.942716
O O7 0.178952 0.159265 0.172445
O O8 0.459708 0.917478 0.850744
O O9 0.994847 0.678454 0.192486
O O10 0.267433 0.438824 0.876465
O O11 0.277284 0.575891 0.993186
O O12 0.044620 0.198449 0.181141
#
# Coordination Sequence:
#
# PCOD8055842 Si02
#       6
#     4   4   4   4   4   4
#     4  12  26  47  75 111 152 199 254 316 383 457
#     4  11  25  46  74 112 151 197 253 318 383 460
#     4  11  26  45  76 109 155 205 259 317 388 459
#     4  10  24  43  71 109 149 197 252 314 386 455
#     4  10  25  48  74 112 156 206 261 320 386 464
#     4  10  24  45  70 103 151 198 255 317 384 455
#
# _framework density 32.706687000000002
#
# number of rings (size 3 to 8) (size 9 to 14) (size 15 to 20)
#    0.000    1.333    0.000    3.000    0.000   20.000 
#    0.000    0.000    0.000    0.000    0.000    0.000 
#    0.000    0.000    0.000    0.000    0.000    0.000 
#
# Total GULP energy -148824.433123 kJ/mol
# GULP energy per Si atom -12402.036094 kJ/mol
# Density = 3.263224 g / cm^3
# Si number density = 32.706687 Si / 1000 Ang^3
#
#
#
# Elastic Constant Matrix: (Units=GPa)
#
#
# Indices 1 2 3 4 5 6 
#
# 1 196.4542 17.9225 47.7898 -0.2676 -32.6662 0.0795
# 2 17.9225 102.1365 47.9341 -0.1088 -21.8475 0.1320
# 3 47.7898 47.9341 170.0187 -0.0093 -24.8011 0.0531
# 4 -0.2676 -0.1088 -0.0093 67.2596 0.0338 1.1447
# 5 -32.6662 -21.8475 -24.8011 0.0338 78.3113 0.0285
# 6 0.0795 0.1320 0.0531 1.1447 0.0285 32.6017
#
#
#
# Elastic Compliance Matrix: (Units=1/GPa)
#
#
# Indices 1 2 3 4 5 6 
#
# 1 0.005741 0.000044 -0.001337 0.000022 0.001984 -0.000015
# 2 0.000044 0.011673 -0.002963 0.000018 0.002337 -0.000045
# 3 -0.001337 -0.002963 0.007225 -0.000010 0.000904 0.000003
# 4 0.000022 0.000018 -0.000010 0.014877 0.000005 -0.000522
# 5 0.001984 0.002337 0.000904 0.000005 0.014535 -0.000029
# 6 -0.000015 -0.000045 0.000003 -0.000522 -0.000029 0.030692
#
#
# Mechanical properties :
#
#
# Convention : Reuss Voigt Hill
#
# Bulk Modulus (GPa) = 62.00057 77.32245 69.66151
# Shear Modulus (GPa) = 50.69446 59.29871 54.99659
#
# Velocity S-wave (km/s) = 3.94124 4.26261 4.10507
# Velocity P-wave (km/s) = 6.30150 6.92235 6.61921
#
# Compressibility (1/GPa) = 0.01612889
#
# Stress axis : x y z
#
# Youngs Moduli (GPa) = 174.17567 85.66461 138.41547
#
# Poissons Ratio (x) = -0.00380 0.18505
# Poissons Ratio (y) = -0.00773 0.41008
# Poissons Ratio (z) = 0.23286 0.25380
#
# Static dielectric constant tensor:
#      x y z
#    x 6.983170 -0.000360 -0.023920 
#    y -0.000360 5.455000 0.000140 
#    z -0.023920 0.000140 6.208850 
# 
# 
# High freq. dielectric constant tensor:
#      x y z
#    x 2.432380 -0.000010 0.011920 
#    y -0.000010 2.338270 0.000050 
#    z 0.011920 0.000050 2.387260 
# 
# From -- ./inp_files/36038.got.cif
#   From: 2010.06.25/outbox.cif.g09.slc.cpg/sg9_19_cif.got.tgz:36038.got - 2010.06.27 21:40:51.
