data_PCOD8055494
_publ_section_title
;
Structure prediction by ZEFSAII (Michael W. Deem and Ramdas Pophale) SiO2 
 PCOD8055494
Probable space group: C C
;
_chemical_formula_sum "Si O2"
_cell_formula_units_Z 32
_cell_length_a 29.850178
_cell_length_b 5.299891
_cell_length_c 18.931049
_cell_angle_alpha 90.000000
_cell_angle_beta 152.951368
_cell_angle_gamma 90.000000
_cell_volume 1361.940124
_symmetry_space_group_name_H-M "C C"
_symmetry_group_IT_number 9
_symmetry_cell_setting 'monoclinic'
loop_
_space_group_symop_operation_xyz
x,y,z
x,-y,1/2+z
1/2+x,1/2+y,z
1/2+x,1/2-y,1/2+z
loop_
_atom_site_type_symbol
_atom_site_label
_atom_site_fract_x
_atom_site_fract_y
_atom_site_fract_z
Si Si1 0.134630 0.356326 0.291510
Si Si2 0.715957 0.550893 0.289196
Si Si3 0.270190 0.512413 0.103174
Si Si4 0.462065 0.559765 0.104029
Si Si5 0.911344 0.581864 0.109333
Si Si6 0.889806 0.488160 0.739892
Si Si7 0.080700 0.346241 0.589983
Si Si8 0.760084 0.947733 0.250535
O O1 0.177931 0.506408 0.420084
O O2 0.071103 0.554398 0.156643
O O3 0.067436 0.115381 0.217073
O O4 0.219764 0.261404 0.357135
O O5 0.797797 0.347783 0.429879
O O6 0.745711 0.655194 0.253341
O O7 0.601656 0.453814 0.125463
O O8 0.344636 0.279041 0.199858
O O9 0.233077 0.505489 0.131595
O O10 0.314441 0.784433 0.145360
O O11 0.477432 0.318648 0.177111
O O12 0.435849 0.816179 0.108014
O O13 0.375308 0.484595 0.926549
O O14 0.927759 0.544315 0.214622
O O15 0.984451 0.561775 0.917267
O O16 0.180988 0.409639 0.687917
#
# Coordination Sequence:
#
# PCOD8055494 Si02
#       8
#     4   4   4   4   4   4   4   4
#     4  11  26  46  73 109 139 203 242 309 372 451
#     4  10  22  46  75 100 146 196 248 298 380 445
#     4  12  28  48  73 107 152 184 254 305 368 441
#     4  11  25  43  75 103 147 183 250 296 370 443
#     4  11  23  47  69 105 142 193 235 305 367 437
#     4  12  28  46  74 106 147 194 244 307 372 440
#     4  11  25  46  76 101 147 194 249 299 384 445
#     4  10  25  44  69 109 140 191 236 313 363 440
#
# _framework density 23.495895000000001
#
# number of rings (size 3 to 8) (size 9 to 14) (size 15 to 20)
#    0.000    1.000    2.500    2.250   12.250    0.000 
#    0.000    0.000    0.000    0.000    0.000    0.000 
#    0.000    0.000    0.000    0.000    0.000    0.000 
#
# Total GULP energy -198224.191815 kJ/mol
# GULP energy per Si atom -12389.011988 kJ/mol
# Density = 2.344242 g / cm^3
# Si number density = 23.495895 Si / 1000 Ang^3
#
#
#
# Elastic Constant Matrix: (Units=GPa)
#
#
# Indices 1 2 3 4 5 6 
#
# 1 125.4297 31.4933 45.6446 0.0014 -38.3450 0.0006
# 2 31.4933 87.6317 15.8052 0.0036 -19.1279 0.0036
# 3 45.6446 15.8052 127.6387 0.0017 -28.0054 0.0006
# 4 0.0014 0.0036 0.0017 32.1651 0.0017 5.3277
# 5 -38.3450 -19.1279 -28.0054 0.0017 41.2736 0.0004
# 6 0.0006 0.0036 0.0006 5.3277 0.0004 40.4614
#
#
#
# Elastic Compliance Matrix: (Units=1/GPa)
#
#
# Indices 1 2 3 4 5 6 
#
# 1 0.011899 -0.001998 -0.002098 -0.000001 0.008705 0.000000
# 2 -0.001998 0.013043 0.000022 -0.000001 0.004203 -0.000001
# 3 -0.002098 0.000022 0.009583 -0.000001 0.004564 0.000000
# 4 -0.000001 -0.000001 -0.000001 0.031783 -0.000003 -0.004185
# 5 0.008705 0.004203 0.004564 -0.000003 0.037361 -0.000001
# 6 0.000000 -0.000001 0.000000 -0.004185 -0.000001 0.025266
#
#
# Mechanical properties :
#
#
# Convention : Reuss Voigt Hill
#
# Bulk Modulus (GPa) = 37.91092 58.50957 48.21025
# Shear Modulus (GPa) = 34.27588 39.29715 36.78651
#
# Velocity S-wave (km/s) = 3.82357 4.09407 3.96113
# Velocity P-wave (km/s) = 5.97186 6.87784 6.44080
#
# Compressibility (1/GPa) = 0.02637762
#
# Stress axis : x y z
#
# Youngs Moduli (GPa) = 84.04154 76.66985 104.34656
#
# Poissons Ratio (x) = 0.15316 0.21889
# Poissons Ratio (y) = 0.16789 -0.00225
# Poissons Ratio (z) = 0.17629 -0.00166
#
# Static dielectric constant tensor:
#      x y z
#    x 4.399190 0.000000 0.096240 
#    y 0.000000 4.535300 0.000000 
#    z 0.096240 0.000000 4.333660 
# 
# 
# High freq. dielectric constant tensor:
#      x y z
#    x 1.937580 0.000000 -0.003460 
#    y 0.000000 1.941720 0.000000 
#    z -0.003460 0.000000 1.923000 
# 
# From -- ./inp_files/31761.got.cif
#   From: 2010.06.25/outbox.cif.g09.slc.cpg/sg9_16_cif.got.tgz:31761.got - 2010.06.27 21:40:51.
