data_PCOD8055553
_publ_section_title
;
Structure prediction by ZEFSAII (Michael W. Deem and Ramdas Pophale) SiO2 
 PCOD8055553
Probable space group: C C
;
_chemical_formula_sum "Si O2"
_cell_formula_units_Z 24
_cell_length_a 19.526206
_cell_length_b 6.976165
_cell_length_c 7.244381
_cell_angle_alpha 90.000000
_cell_angle_beta 117.478330
_cell_angle_gamma 90.000000
_cell_volume 875.488174
_symmetry_space_group_name_H-M "C C"
_symmetry_group_IT_number 9
_symmetry_cell_setting 'monoclinic'
loop_
_space_group_symop_operation_xyz
x,y,z
x,-y,1/2+z
1/2+x,1/2+y,z
1/2+x,1/2-y,1/2+z
loop_
_atom_site_type_symbol
_atom_site_label
_atom_site_fract_x
_atom_site_fract_y
_atom_site_fract_z
Si Si1 0.912040 0.463292 0.705270
Si Si2 0.092907 0.463293 0.943841
Si Si3 0.814805 0.793590 0.308770
Si Si4 0.690140 0.293590 0.340334
Si Si5 0.333652 0.729053 0.294838
Si Si6 0.671294 0.729051 0.354269
O O1 0.882313 0.368188 0.866094
O O2 0.888577 0.312494 0.522280
O O3 0.868675 0.673431 0.648911
O O4 0.002473 0.494147 0.824553
O O5 0.122634 0.368192 0.783015
O O6 0.136272 0.673432 0.000198
O O7 0.116370 0.312492 0.126827
O O8 0.762148 0.789060 0.433689
O O9 0.849104 0.003373 0.318227
O O10 0.752474 0.749999 0.074551
O O11 0.742798 0.289062 0.215414
O O12 0.655842 0.503372 0.330877
#
# Coordination Sequence:
#
# PCOD8055553 Si02
#       6
#     4   4   4   4   4   4
#     4  11  25  43  68 104 142 181 224 286 343 409
#     4  11  25  43  68 104 142 181 224 286 343 409
#     4  10  23  41  67 103 132 179 230 283 338 406
#     4  10  23  41  67 103 132 179 230 283 338 406
#     4  11  23  43  70 100 137 183 232 278 343 411
#     4  11  23  43  70 100 137 183 232 278 343 411
#
# _framework density 27.413276
#
# number of rings (size 3 to 8) (size 9 to 14) (size 15 to 20)
#    0.000    1.333    3.333    1.000    0.000   13.333 
#    0.000    0.000    0.000    0.000    0.000    0.000 
#    0.000    0.000    0.000    0.000    0.000    0.000 
#
# Total GULP energy -148840.177732 kJ/mol
# GULP energy per Si atom -12403.348144 kJ/mol
# Density = 2.735088 g / cm^3
# Si number density = 27.413276 Si / 1000 Ang^3
#
#
#
# Elastic Constant Matrix: (Units=GPa)
#
#
# Indices 1 2 3 4 5 6 
#
# 1 193.7366 52.5323 67.7400 0.0000 32.8443 0.0000
# 2 52.5323 221.3926 22.2165 0.0000 39.6503 0.0000
# 3 67.7400 22.2165 86.6600 0.0000 35.0999 0.0000
# 4 0.0000 0.0000 0.0000 37.4614 0.0000 5.6246
# 5 32.8443 39.6503 35.0999 0.0000 73.5100 0.0000
# 6 0.0000 0.0000 0.0000 5.6246 0.0000 51.2571
#
#
#
# Elastic Compliance Matrix: (Units=1/GPa)
#
#
# Indices 1 2 3 4 5 6 
#
# 1 0.007405 -0.001199 -0.005458 0.000000 -0.000055 0.000000
# 2 -0.001199 0.005198 0.000649 0.000000 -0.002578 0.000000
# 3 -0.005458 0.000649 0.018340 0.000000 -0.006669 0.000000
# 4 0.000000 0.000000 0.000000 0.027141 0.000000 -0.002978
# 5 -0.000055 -0.002578 -0.006669 0.000000 0.018203 0.000000
# 6 0.000000 0.000000 0.000000 -0.002978 0.000000 0.019836
#
#
# Mechanical properties :
#
#
# Convention : Reuss Voigt Hill
#
# Bulk Modulus (GPa) = 52.83723 87.41855 70.12789
# Shear Modulus (GPa) = 43.68740 56.39906 50.04323
#
# Velocity S-wave (km/s) = 3.99640 4.54074 4.27723
# Velocity P-wave (km/s) = 6.37268 7.71034 7.07321
#
# Compressibility (1/GPa) = 0.01892605
#
# Stress axis : x y z
#
# Youngs Moduli (GPa) = 135.04960 192.38238 54.52415
#
# Poissons Ratio (x) = 0.23074 0.29760
# Poissons Ratio (y) = 0.16197 -0.03539
# Poissons Ratio (z) = 0.73713 -0.12486
#
# Static dielectric constant tensor:
#      x y z
#    x 7.167120 0.000000 -1.393800 
#    y 0.000000 5.518970 0.000000 
#    z -1.393800 0.000000 5.506750 
# 
# 
# High freq. dielectric constant tensor:
#      x y z
#    x 2.121630 0.000000 -0.054530 
#    y 0.000000 2.117930 0.000000 
#    z -0.054530 0.000000 2.161570 
# 
# From -- ./inp_files/11117.got.cif
#   From: 2010.06.25/outbox.cif.g09.slc.cpg/sg9_6_cif.got.tgz:11117.got - 2010.06.27 21:40:51.
