data_PCOD8055365
_publ_section_title
;
Structure prediction by ZEFSAII (Michael W. Deem and Ramdas Pophale) SiO2 
 PCOD8055365
Probable space group: C C
;
_chemical_formula_sum "Si O2"
_cell_formula_units_Z 32
_cell_length_a 12.666127
_cell_length_b 15.511300
_cell_length_c 9.835056
_cell_angle_alpha 90.000000
_cell_angle_beta 128.716290
_cell_angle_gamma 90.000000
_cell_volume 1507.662397
_symmetry_space_group_name_H-M "C C"
_symmetry_group_IT_number 9
_symmetry_cell_setting 'monoclinic'
loop_
_space_group_symop_operation_xyz
x,y,z
x,-y,1/2+z
1/2+x,1/2+y,z
1/2+x,1/2-y,1/2+z
loop_
_atom_site_type_symbol
_atom_site_label
_atom_site_fract_x
_atom_site_fract_y
_atom_site_fract_z
Si Si1 0.353410 0.152889 0.883740
Si Si2 0.639919 0.303987 0.729581
Si Si3 0.646336 0.408482 0.000049
Si Si4 0.854965 0.845303 0.818034
Si Si5 0.829399 0.165749 0.993051
Si Si6 0.775848 0.410857 0.616540
Si Si7 0.028125 0.505042 0.913945
Si Si8 0.706979 0.998122 0.301540
O O1 0.223581 0.137511 0.685267
O O2 0.389106 0.254184 0.914502
O O3 0.479834 0.099322 0.926324
O O4 0.324783 0.126948 0.014204
O O5 0.713534 0.213321 0.813381
O O6 0.477480 0.292081 0.593247
O O7 0.689894 0.339435 0.625828
O O8 0.685796 0.366577 0.888124
O O9 0.679495 0.508403 0.012236
O O10 0.488809 0.400567 0.901366
O O11 0.784702 0.831019 0.614923
O O12 0.760480 0.903350 0.839467
O O13 0.828658 0.066828 0.939437
O O14 0.902889 0.438887 0.811912
O O15 0.084197 0.511450 0.807441
O O16 0.146204 0.470477 0.106710
#
# Coordination Sequence:
#
# PCOD8055365 Si02
#       8
#     4   4   4   4   4   4   4   4
#     4  11  24  43  70 103 134 185 233 295 343 427
#     4  11  25  45  72 103 138 189 235 296 356 432
#     4  10  22  42  72  93 136 181 235 277 354 425
#     4  11  25  44  71 102 136 185 234 293 354 423
#     4  11  26  45  73 103 143 185 244 289 366 432
#     4  11  24  44  66 105 139 179 237 294 357 414
#     4  11  25  42  73 102 139 185 238 291 360 420
#     4  12  25  45  71 101 143 183 238 293 362 421
#
# _framework density 21.224910000000001
#
# number of rings (size 3 to 8) (size 9 to 14) (size 15 to 20)
#    0.000    1.000    3.750    2.250    8.750    2.000 
#    4.500    0.000    0.000    0.000    0.000    0.000 
#    0.000    0.000    0.000    0.000    0.000    0.000 
#
# Total GULP energy -198473.124456 kJ/mol
# GULP energy per Si atom -12404.570279 kJ/mol
# Density = 2.117660 g / cm^3
# Si number density = 21.224910 Si / 1000 Ang^3
#
#
#
# Elastic Constant Matrix: (Units=GPa)
#
#
# Indices 1 2 3 4 5 6 
#
# 1 110.6383 59.3214 29.8285 0.0000 -12.7961 0.0000
# 2 59.3214 131.6053 34.6990 0.0000 -8.6448 0.0000
# 3 29.8285 34.6990 79.7996 0.0000 -1.0466 0.0000
# 4 0.0000 0.0000 0.0000 37.5931 0.0000 -1.9756
# 5 -12.7961 -8.6448 -1.0466 0.0000 35.0468 0.0000
# 6 0.0000 0.0000 0.0000 -1.9756 0.0000 31.7199
#
#
#
# Elastic Compliance Matrix: (Units=1/GPa)
#
#
# Indices 1 2 3 4 5 6 
#
# 1 0.012719 -0.004822 -0.002613 0.000000 0.003376 0.000000
# 2 -0.004822 0.010554 -0.002777 0.000000 0.000760 0.000000
# 3 -0.002613 -0.002777 0.014700 0.000000 -0.001200 0.000000
# 4 0.000000 0.000000 0.000000 0.026688 0.000000 0.001662
# 5 0.003376 0.000760 -0.001200 0.000000 0.029918 0.000000
# 6 0.000000 0.000000 0.000000 0.001662 0.000000 0.031629
#
#
# Mechanical properties :
#
#
# Convention : Reuss Voigt Hill
#
# Bulk Modulus (GPa) = 56.98442 63.30455 60.14449
# Shear Modulus (GPa) = 32.79071 34.08491 33.43781
#
# Velocity S-wave (km/s) = 3.93481 4.01171 3.97344
# Velocity P-wave (km/s) = 6.89564 7.16580 7.03202
#
# Compressibility (1/GPa) = 0.01754866
#
# Stress axis : x y z
#
# Youngs Moduli (GPa) = 78.62175 94.74909 68.02816
#
# Poissons Ratio (x) = 0.45692 0.17777
# Poissons Ratio (y) = 0.37915 0.18889
# Poissons Ratio (z) = 0.20545 0.26309
#
# Static dielectric constant tensor:
#      x y z
#    x 3.736950 0.000000 -0.015240 
#    y 0.000000 3.804490 0.000000 
#    z -0.015240 0.000000 3.909550 
# 
# 
# High freq. dielectric constant tensor:
#      x y z
#    x 1.834180 0.000000 0.001930 
#    y 0.000000 1.829710 0.000000 
#    z 0.001930 0.000000 1.837500 
# 
# From -- ./inp_files/7556.got.cif
#   From: 2010.06.25/outbox.cif.g09.slc.cpg/sg9_4_cif.got.tgz:7556.got - 2010.06.27 21:40:51.
