data_PCOD8055002
_publ_section_title
;
Structure prediction by ZEFSAII (Michael W. Deem and Ramdas Pophale) SiO2 
 PCOD8055002
Probable space group: C C
;
_chemical_formula_sum "Si O2"
_cell_formula_units_Z 28
_cell_length_a 12.382092
_cell_length_b 14.218457
_cell_length_c 8.894369
_cell_angle_alpha 90.000000
_cell_angle_beta 50.523234
_cell_angle_gamma 90.000000
_cell_volume 1208.684098
_symmetry_space_group_name_H-M "C C"
_symmetry_group_IT_number 9
_symmetry_cell_setting 'monoclinic'
loop_
_space_group_symop_operation_xyz
x,y,z
x,-y,1/2+z
1/2+x,1/2+y,z
1/2+x,1/2-y,1/2+z
loop_
_atom_site_type_symbol
_atom_site_label
_atom_site_fract_x
_atom_site_fract_y
_atom_site_fract_z
Si Si1 0.614450 0.071673 0.873580
Si Si2 0.649127 0.897985 0.011171
Si Si3 0.640969 0.421290 0.115061
Si Si4 0.414239 0.837458 0.786293
Si Si5 0.401814 0.337297 0.127465
Si Si6 0.060987 0.775248 0.418289
Si Si7 0.458114 0.603874 0.270134
O O1 0.565626 0.095376 0.745610
O O2 0.780581 0.085626 0.739031
O O3 0.577823 0.963198 0.946093
O O4 0.541999 0.131776 0.068333
O O5 0.654785 0.791531 0.942997
O O6 0.803459 0.941402 0.902984
O O7 0.536129 0.371502 0.096648
O O8 0.652716 0.353472 0.250540
O O9 0.581366 0.526744 0.193286
O O10 0.800941 0.421383 0.911563
O O11 0.337308 0.756756 0.756712
O O12 0.468073 0.791092 0.893562
O O13 0.458006 0.322146 0.908100
O O14 0.966703 0.839404 0.608503
#
# Coordination Sequence:
#
# PCOD8055002 Si02
#       7
#     4   4   4   4   4   4   4
#     4  11  23  43  71  99 140 187 238 286 351 421
#     4  11  24  44  72 102 135 189 241 284 345 434
#     4  11  23  43  69 102 140 182 228 290 354 420
#     4  11  24  43  67 102 143 182 234 291 355 412
#     4  10  21  41  69  97 133 185 232 284 348 424
#     4  11  24  43  70 104 140 185 232 292 352 420
#     4  11  23  43  70 102 137 178 239 291 351 419
#
# _framework density 23.165687999999999
#
# number of rings (size 3 to 8) (size 9 to 14) (size 15 to 20)
#    0.000    1.143    1.429    5.143    2.000    2.286 
#   12.857    0.000    0.000    0.000    0.000    0.000 
#    0.000    0.000    0.000    0.000    0.000    0.000 
#
# Total GULP energy -173440.132632 kJ/mol
# GULP energy per Si atom -12388.580902 kJ/mol
# Density = 2.311296 g / cm^3
# Si number density = 23.165688 Si / 1000 Ang^3
#
#
#
# Elastic Constant Matrix: (Units=GPa)
#
#
# Indices 1 2 3 4 5 6 
#
# 1 63.2257 37.5338 57.2880 0.0000 12.6267 0.0000
# 2 37.5338 102.8213 47.8896 0.0000 15.7290 0.0000
# 3 57.2880 47.8896 152.8590 0.0000 19.0950 0.0000
# 4 0.0000 0.0000 0.0000 32.4833 0.0000 5.6338
# 5 12.6267 15.7290 19.0950 0.0000 41.9672 0.0000
# 6 0.0000 0.0000 0.0000 5.6338 0.0000 37.9851
#
#
#
# Elastic Compliance Matrix: (Units=1/GPa)
#
#
# Indices 1 2 3 4 5 6 
#
# 1 0.026951 -0.005755 -0.008009 0.000000 -0.002308 0.000000
# 2 -0.005755 0.012936 -0.001597 0.000000 -0.002390 0.000000
# 3 -0.008009 -0.001597 0.010251 0.000000 -0.001656 0.000000
# 4 0.000000 0.000000 0.000000 0.031598 0.000000 -0.004686
# 5 -0.002308 -0.002390 -0.001656 0.000000 0.026172 0.000000
# 6 0.000000 0.000000 0.000000 -0.004686 0.000000 0.027021
#
#
# Mechanical properties :
#
#
# Convention : Reuss Voigt Hill
#
# Bulk Modulus (GPa) = 51.50746 67.14765 59.32756
# Shear Modulus (GPa) = 29.04911 34.23342 31.64126
#
# Velocity S-wave (km/s) = 3.54499 3.84834 3.69977
# Velocity P-wave (km/s) = 6.24808 6.98534 6.62698
#
# Compressibility (1/GPa) = 0.01941466
#
# Stress axis : x y z
#
# Youngs Moduli (GPa) = 37.10503 77.30416 97.55167
#
# Poissons Ratio (x) = 0.44486 0.78132
# Poissons Ratio (y) = 0.21353 0.15584
# Poissons Ratio (z) = 0.29718 0.12349
#
# Static dielectric constant tensor:
#      x y z
#    x 3.947530 0.000000 0.410640 
#    y 0.000000 4.360670 0.000000 
#    z 0.410640 0.000000 4.407450 
# 
# 
# High freq. dielectric constant tensor:
#      x y z
#    x 1.900350 0.000000 0.019950 
#    y 0.000000 1.908830 0.000000 
#    z 0.019950 0.000000 1.929830 
# 
# From -- ./inp_files/9752.got.cif
#   From: 2010.06.25/outbox.cif.g09.slc.cpg/sg9_5_cif.got.tgz:9752.got - 2010.06.27 21:40:51.
