data_PCOD8055038
_publ_section_title
;
Structure prediction by ZEFSAII (Michael W. Deem and Ramdas Pophale) SiO2 
 PCOD8055038
Probable space group: C C
;
_chemical_formula_sum "Si O2"
_cell_formula_units_Z 32
_cell_length_a 10.442670
_cell_length_b 9.218116
_cell_length_c 17.344176
_cell_angle_alpha 90.000000
_cell_angle_beta 119.476144
_cell_angle_gamma 90.000000
_cell_volume 1453.471188
_symmetry_space_group_name_H-M "C C"
_symmetry_group_IT_number 9
_symmetry_cell_setting 'monoclinic'
loop_
_space_group_symop_operation_xyz
x,y,z
x,-y,1/2+z
1/2+x,1/2+y,z
1/2+x,1/2-y,1/2+z
loop_
_atom_site_type_symbol
_atom_site_label
_atom_site_fract_x
_atom_site_fract_y
_atom_site_fract_z
Si Si1 0.307860 0.761413 0.142240
Si Si2 0.893441 0.019819 0.532672
Si Si3 0.118166 0.891711 0.371300
Si Si4 0.352083 0.423671 0.183939
Si Si5 0.058361 0.159600 0.452479
Si Si6 0.864595 0.387765 0.316384
Si Si7 0.075950 0.401474 0.939423
Si Si8 0.540846 0.788288 0.089350
O O1 0.319036 0.596106 0.174186
O O2 0.290908 0.864378 0.211476
O O3 0.448670 0.827356 0.138427
O O4 0.169749 0.768198 0.045200
O O5 0.996641 0.878160 0.558753
O O6 0.926039 0.109291 0.621890
O O7 0.716756 0.988572 0.483021
O O8 0.921843 0.107485 0.463613
O O9 0.238870 0.887331 0.341767
O O10 0.135921 0.754133 0.431556
O O11 0.958169 0.889237 0.285707
O O12 0.140070 0.033189 0.430158
O O13 0.212614 0.318376 0.157612
O O14 0.990918 0.269894 0.370931
O O15 0.950211 0.541206 0.344565
O O16 0.003446 0.386629 0.003323
#
# Coordination Sequence:
#
# PCOD8055038 Si02
#       8
#     4   4   4   4   4   4   4   4
#     4  11  25  43  67 102 138 183 228 286 344 408
#     4  10  21  42  70  96 140 177 224 286 340 406
#     4  12  25  44  69 102 138 183 230 287 342 411
#     4  10  23  43  66 102 138 176 234 283 334 417
#     4  12  23  44  70  97 144 181 225 287 348 405
#     4  12  26  45  69 105 139 181 231 286 342 408
#     4  11  24  44  69 104 138 182 230 281 345 411
#     4  10  21  43  68  96 135 183 224 278 345 406
#
# _framework density 22.016259999999999
#
# number of rings (size 3 to 8) (size 9 to 14) (size 15 to 20)
#    0.000    1.000    3.750    3.750    0.000    5.000 
#    2.250    0.000    0.000    0.000    0.000    0.000 
#    0.000    0.000    0.000    0.000    0.000    0.000 
#
# Total GULP energy -198310.351491 kJ/mol
# GULP energy per Si atom -12394.396968 kJ/mol
# Density = 2.196615 g / cm^3
# Si number density = 22.016260 Si / 1000 Ang^3
#
#
#
# Elastic Constant Matrix: (Units=GPa)
#
#
# Indices 1 2 3 4 5 6 
#
# 1 114.1479 49.0081 25.4040 0.0000 -9.2496 0.0000
# 2 49.0081 76.8866 20.6986 0.0000 4.4673 0.0000
# 3 25.4040 20.6986 93.3323 0.0000 3.3569 0.0000
# 4 0.0000 0.0000 0.0000 33.9536 0.0000 1.7745
# 5 -9.2496 4.4673 3.3569 0.0000 42.8761 0.0000
# 6 0.0000 0.0000 0.0000 1.7745 0.0000 32.3043
#
#
#
# Elastic Compliance Matrix: (Units=1/GPa)
#
#
# Indices 1 2 3 4 5 6 
#
# 1 0.012887 -0.007925 -0.001885 0.000000 0.003753 0.000000
# 2 -0.007925 0.018767 -0.001879 0.000000 -0.003518 0.000000
# 3 -0.001885 -0.001879 0.011685 0.000000 -0.001126 0.000000
# 4 0.000000 0.000000 0.000000 0.029537 0.000000 -0.001623
# 5 0.003753 -0.003518 -0.001126 0.000000 0.024587 0.000000
# 6 0.000000 0.000000 0.000000 -0.001623 0.000000 0.031045
#
#
# Mechanical properties :
#
#
# Convention : Reuss Voigt Hill
#
# Bulk Modulus (GPa) = 50.09503 52.73203 51.41353
# Shear Modulus (GPa) = 31.53813 34.44385 32.99099
#
# Velocity S-wave (km/s) = 3.78893 3.95963 3.87522
# Velocity P-wave (km/s) = 6.47645 6.70137 6.58987
#
# Compressibility (1/GPa) = 0.01996206
#
# Stress axis : x y z
#
# Youngs Moduli (GPa) = 77.60023 53.28364 85.58256
#
# Poissons Ratio (x) = 0.42225 0.16133
# Poissons Ratio (y) = 0.61495 0.16078
# Poissons Ratio (z) = 0.14628 0.10010
#
# Static dielectric constant tensor:
#      x y z
#    x 4.087300 0.000000 -0.119070 
#    y 0.000000 3.882850 0.000000 
#    z -0.119070 0.000000 4.089280 
# 
# 
# High freq. dielectric constant tensor:
#      x y z
#    x 1.872300 0.000000 -0.005450 
#    y 0.000000 1.857950 0.000000 
#    z -0.005450 0.000000 1.874300 
# 
# From -- ./inp_files/29934.got.cif
#   From: 2010.06.25/outbox.cif.g09.slc.cpg/sg9_15_cif.got.tgz:29934.got - 2010.06.27 21:40:51.
