data_PCOD8055263
_publ_section_title
;
Structure prediction by ZEFSAII (Michael W. Deem and Ramdas Pophale) SiO2 
 PCOD8055263
Probable space group: C C
;
_chemical_formula_sum "Si O2"
_cell_formula_units_Z 32
_cell_length_a 5.106632
_cell_length_b 31.858748
_cell_length_c 8.559360
_cell_angle_alpha 90.000000
_cell_angle_beta 79.606415
_cell_angle_gamma 90.000000
_cell_volume 1369.680916
_symmetry_space_group_name_H-M "C C"
_symmetry_group_IT_number 9
_symmetry_cell_setting 'monoclinic'
loop_
_space_group_symop_operation_xyz
x,y,z
x,-y,1/2+z
1/2+x,1/2+y,z
1/2+x,1/2-y,1/2+z
loop_
_atom_site_type_symbol
_atom_site_label
_atom_site_fract_x
_atom_site_fract_y
_atom_site_fract_z
Si Si1 0.721410 0.979582 0.312400
Si Si2 0.033368 0.128396 0.971473
Si Si3 0.662265 0.943910 0.637294
Si Si4 0.472961 0.659727 0.300531
Si Si5 0.977803 0.750078 0.701089
Si Si6 0.762440 0.431212 0.219231
Si Si7 0.918471 0.612329 0.388653
Si Si8 0.953987 0.785244 0.355511
O O1 0.614982 0.976654 0.501821
O O2 0.461202 0.968017 0.241888
O O3 0.964405 0.949257 0.241145
O O4 0.796201 0.027908 0.261436
O O5 0.130451 0.150011 0.121044
O O6 0.884448 0.165570 0.890033
O O7 0.838915 0.091679 0.041992
O O8 0.269707 0.107006 0.845648
O O9 0.407232 0.920204 0.741557
O O10 0.400199 0.708541 0.309692
O O11 0.692175 0.648007 0.406096
O O12 0.209787 0.632904 0.360480
O O13 0.972440 0.759532 0.516609
O O14 0.254611 0.733336 0.745453
O O15 0.750302 0.715764 0.752888
O O16 0.864317 0.414051 0.046358
#
# Coordination Sequence:
#
# PCOD8055263 Si02
#       8
#     4   4   4   4   4   4   4   4
#     4  11  24  41  63  88 123 163 209 263 315 378
#     4   9  23  43  65  91 130 174 215 262 325 391
#     4  10  23  43  65  92 126 168 214 262 321 384
#     4  10  22  41  63  90 125 169 210 261 320 386
#     4  11  24  42  65  96 131 170 222 272 330 392
#     4  11  24  41  62  95 126 161 208 261 319 382
#     4  11  22  38  65  93 126 165 208 261 322 385
#     4  11  24  43  68  97 133 176 222 276 332 394
#
# _framework density 23.363106999999999
#
# number of rings (size 3 to 8) (size 9 to 14) (size 15 to 20)
#    0.000    1.500    0.000    3.750    0.000   17.000 
#    0.000    0.000    0.000    0.000    0.000    0.000 
#    0.000    0.000    0.000    0.000    0.000    0.000 
#
# Total GULP energy -198235.437748 kJ/mol
# GULP energy per Si atom -12389.714859 kJ/mol
# Density = 2.330993 g / cm^3
# Si number density = 23.363107 Si / 1000 Ang^3
#
#
#
# Elastic Constant Matrix: (Units=GPa)
#
#
# Indices 1 2 3 4 5 6 
#
# 1 105.4861 20.9620 33.4900 0.0000 -5.5855 0.0000
# 2 20.9620 108.1004 26.1856 0.0000 -4.1452 0.0000
# 3 33.4900 26.1856 82.4525 0.0000 -9.2728 0.0000
# 4 0.0000 0.0000 0.0000 36.4897 0.0000 2.4513
# 5 -5.5855 -4.1452 -9.2728 0.0000 27.6555 0.0000
# 6 0.0000 0.0000 0.0000 2.4513 0.0000 30.2562
#
#
#
# Elastic Compliance Matrix: (Units=1/GPa)
#
#
# Indices 1 2 3 4 5 6 
#
# 1 0.011025 -0.001132 -0.004039 0.000000 0.000703 0.000000
# 2 -0.001132 0.010143 -0.002719 0.000000 0.000380 0.000000
# 3 -0.004039 -0.002719 0.015063 0.000000 0.003827 0.000000
# 4 0.000000 0.000000 0.000000 0.027555 0.000000 -0.002232
# 5 0.000703 0.000380 0.003827 0.000000 0.037641 0.000000
# 6 0.000000 0.000000 0.000000 -0.002232 0.000000 0.033232
#
#
# Mechanical properties :
#
#
# Convention : Reuss Voigt Hill
#
# Bulk Modulus (GPa) = 48.89991 50.81267 49.85629
# Shear Modulus (GPa) = 31.79529 33.24038 32.51784
#
# Velocity S-wave (km/s) = 3.69307 3.77606 3.73479
# Velocity P-wave (km/s) = 6.25786 6.38810 6.32331
#
# Compressibility (1/GPa) = 0.02044993
#
# Stress axis : x y z
#
# Youngs Moduli (GPa) = 90.70676 98.58651 66.38945
#
# Poissons Ratio (x) = 0.11164 0.26816
# Poissons Ratio (y) = 0.10272 0.18049
# Poissons Ratio (z) = 0.36638 0.26802
#
# Static dielectric constant tensor:
#      x y z
#    x 3.833020 0.000000 0.028050 
#    y 0.000000 4.612940 0.000000 
#    z 0.028050 0.000000 4.794200 
# 
# 
# High freq. dielectric constant tensor:
#      x y z
#    x 1.896800 0.000000 -0.005350 
#    y 0.000000 1.939160 0.000000 
#    z -0.005350 0.000000 1.942220 
# 
# From -- ./inp_files/4312.got.cif
#   From: 2010.06.25/outbox.cif.g09.slc.cpg/sg9_3_cif.got.tgz:4312.got - 2010.06.27 21:40:51.
