data_PCOD8055974
_publ_section_title
;
Structure prediction by ZEFSAII (Michael W. Deem and Ramdas Pophale) SiO2 
 PCOD8055974
Probable space group: C C
;
_chemical_formula_sum "Si O2"
_cell_formula_units_Z 24
_cell_length_a 8.981975
_cell_length_b 10.875495
_cell_length_c 10.254695
_cell_angle_alpha 90.000000
_cell_angle_beta 84.502975
_cell_angle_gamma 90.000000
_cell_volume 997.107014
_symmetry_space_group_name_H-M "C C"
_symmetry_group_IT_number 9
_symmetry_cell_setting 'monoclinic'
loop_
_space_group_symop_operation_xyz
x,y,z
x,-y,1/2+z
1/2+x,1/2+y,z
1/2+x,1/2-y,1/2+z
loop_
_atom_site_type_symbol
_atom_site_label
_atom_site_fract_x
_atom_site_fract_y
_atom_site_fract_z
Si Si1 0.663760 0.261039 0.544120
Si Si2 0.913982 0.915451 0.968777
Si Si3 0.596823 0.793986 0.334678
Si Si4 0.895433 0.734924 0.389322
Si Si5 0.038982 0.076161 0.730326
Si Si6 0.325438 0.044885 0.853390
O O1 0.742559 0.129379 0.502678
O O2 0.653044 0.277951 0.700350
O O3 0.492914 0.254564 0.509988
O O4 0.750801 0.378283 0.477702
O O5 0.000100 0.790721 0.934578
O O6 0.939082 0.009230 0.849730
O O7 0.985833 0.973236 0.094761
O O8 0.747467 0.823818 0.404239
O O9 0.494489 0.911361 0.306346
O O10 0.835055 0.596996 0.388544
O O11 0.996091 0.778815 0.255587
O O12 0.216861 0.058731 0.736225
#
# Coordination Sequence:
#
# PCOD8055974 Si02
#       6
#     4   4   4   4   4   4
#     4  10  25  46  68 110 144 188 248 293 368 436
#     4  11  25  46  74 103 151 191 242 306 362 434
#     4  11  24  45  71 102 147 189 239 301 356 433
#     4  11  24  44  72 101 142 187 243 295 360 431
#     4  11  25  46  73 105 145 195 239 301 369 425
#     4  10  25  45  72 105 143 194 239 304 361 433
#
# _framework density 24.069633
#
# number of rings (size 3 to 8) (size 9 to 14) (size 15 to 20)
#    0.000    1.333    3.333    0.000    9.333    1.333 
#    0.000    0.000    0.000    0.000    0.000    0.000 
#    0.000    0.000    0.000    0.000    0.000    0.000 
#
# Total GULP energy -148717.741402 kJ/mol
# GULP energy per Si atom -12393.145117 kJ/mol
# Density = 2.401485 g / cm^3
# Si number density = 24.069633 Si / 1000 Ang^3
#
#
#
# Elastic Constant Matrix: (Units=GPa)
#
#
# Indices 1 2 3 4 5 6 
#
# 1 182.2553 47.3019 31.5484 0.0000 23.5951 0.0000
# 2 47.3019 90.6593 19.4068 0.0000 7.5340 0.0000
# 3 31.5484 19.4068 114.6196 0.0000 6.6747 0.0000
# 4 0.0000 0.0000 0.0000 27.7871 0.0000 -9.1601
# 5 23.5951 7.5340 6.6747 0.0000 25.4720 0.0000
# 6 0.0000 0.0000 0.0000 -9.1601 0.0000 38.6617
#
#
#
# Elastic Compliance Matrix: (Units=1/GPa)
#
#
# Indices 1 2 3 4 5 6 
#
# 1 0.007182 -0.003049 -0.001143 0.000000 -0.005451 0.000000
# 2 -0.003049 0.012958 -0.001316 0.000000 -0.000663 0.000000
# 3 -0.001143 -0.001316 0.009320 0.000000 -0.000994 0.000000
# 4 0.000000 0.000000 0.000000 0.039037 0.000000 0.009249
# 5 -0.005451 -0.000663 -0.000994 0.000000 0.044765 0.000000
# 6 0.000000 0.000000 0.000000 0.009249 0.000000 0.028057
#
#
# Mechanical properties :
#
#
# Convention : Reuss Voigt Hill
#
# Bulk Modulus (GPa) = 54.22164 64.89426 59.55795
# Shear Modulus (GPa) = 31.54914 37.66931 34.60923
#
# Velocity S-wave (km/s) = 3.62435 3.96032 3.79605
# Velocity P-wave (km/s) = 6.33170 6.92327 6.63408
#
# Compressibility (1/GPa) = 0.01844282
#
# Stress axis : x y z
#
# Youngs Moduli (GPa) = 139.24035 77.17118 107.29803
#
# Poissons Ratio (x) = 0.23533 0.12264
# Poissons Ratio (y) = 0.42461 0.14121
# Poissons Ratio (z) = 0.15915 0.10156
#
# Static dielectric constant tensor:
#      x y z
#    x 4.972070 0.000000 0.115460 
#    y 0.000000 4.336380 0.000000 
#    z 0.115460 0.000000 4.064910 
# 
# 
# High freq. dielectric constant tensor:
#      x y z
#    x 1.975150 0.000000 0.011130 
#    y 0.000000 1.951480 0.000000 
#    z 0.011130 0.000000 1.935800 
# 
# From -- ./inp_files/14187.got.cif
#   From: 2010.06.25/outbox.cif.g09.slc.cpg/sg9_8_cif.got.tgz:14187.got - 2010.06.27 21:40:51.
