data_PCOD8055918
_publ_section_title
;
Structure prediction by ZEFSAII (Michael W. Deem and Ramdas Pophale) SiO2 
 PCOD8055918
Probable space group: C C
;
_chemical_formula_sum "Si O2"
_cell_formula_units_Z 32
_cell_length_a 16.553922
_cell_length_b 10.904844
_cell_length_c 9.529075
_cell_angle_alpha 90.000000
_cell_angle_beta 127.016124
_cell_angle_gamma 90.000000
_cell_volume 1373.496631
_symmetry_space_group_name_H-M "C C"
_symmetry_group_IT_number 9
_symmetry_cell_setting 'monoclinic'
loop_
_space_group_symop_operation_xyz
x,y,z
x,-y,1/2+z
1/2+x,1/2+y,z
1/2+x,1/2-y,1/2+z
loop_
_atom_site_type_symbol
_atom_site_label
_atom_site_fract_x
_atom_site_fract_y
_atom_site_fract_z
Si Si1 0.936260 0.467308 0.228440
Si Si2 0.086170 0.051102 0.538021
Si Si3 0.335601 0.776638 0.555587
Si Si4 0.679648 0.708230 0.123236
Si Si5 0.561816 0.076015 0.595262
Si Si6 0.771626 0.287114 0.175705
Si Si7 0.950436 0.041964 0.654296
Si Si8 0.768011 0.879340 0.420252
O O1 0.899335 0.602887 0.153307
O O2 0.841535 0.386842 0.173441
O O3 0.018682 0.476142 0.440732
O O4 0.984257 0.404159 0.141924
O O5 0.152266 0.929773 0.634016
O O6 0.005924 0.036182 0.330723
O O7 0.158599 0.161868 0.571384
O O8 0.030339 0.087781 0.622747
O O9 0.226520 0.783636 0.516887
O O10 0.318828 0.755757 0.374121
O O11 0.398327 0.658672 0.673948
O O12 0.579604 0.794059 0.032492
O O13 0.765339 0.755307 0.322752
O O14 0.670422 0.035625 0.776622
O O15 0.765159 0.161485 0.080091
O O16 0.868183 0.955679 0.493085
#
# Coordination Sequence:
#
# PCOD8055918 Si02
#       8
#     4   4   4   4   4   4   4   4
#     4  12  25  48  74 113 145 197 249 310 366 437
#     4  12  25  46  70 107 143 190 238 290 364 431
#     4  12  26  46  74 109 149 189 247 303 369 433
#     4  10  24  46  74 102 145 197 233 296 368 437
#     4  10  27  44  75 106 147 192 246 300 372 428
#     4  12  27  46  78 110 148 186 250 312 360 437
#     4  12  27  46  72 104 147 190 236 293 362 436
#     4  10  27  48  73 105 148 195 237 298 373 435
#
# _framework density 23.298202
#
# number of rings (size 3 to 8) (size 9 to 14) (size 15 to 20)
#    0.750    0.000    2.500    3.750    7.000    2.000 
#    0.000    0.000    0.000    0.000    0.000    0.000 
#    0.000    0.000    0.000    0.000    0.000    0.000 
#
# Total GULP energy -198430.744462 kJ/mol
# GULP energy per Si atom -12401.921529 kJ/mol
# Density = 2.324517 g / cm^3
# Si number density = 23.298202 Si / 1000 Ang^3
#
#
#
# Elastic Constant Matrix: (Units=GPa)
#
#
# Indices 1 2 3 4 5 6 
#
# 1 112.3565 32.6733 15.4923 0.0000 -5.3180 0.0000
# 2 32.6733 59.4796 9.3931 0.0000 11.4371 0.0000
# 3 15.4923 9.3931 93.9074 0.0000 2.8920 0.0000
# 4 0.0000 0.0000 0.0000 32.2421 0.0000 1.0751
# 5 -5.3180 11.4371 2.8920 0.0000 37.3242 0.0000
# 6 0.0000 0.0000 0.0000 1.0751 0.0000 31.5179
#
#
#
# Elastic Compliance Matrix: (Units=1/GPa)
#
#
# Indices 1 2 3 4 5 6 
#
# 1 0.011193 -0.006663 -0.001295 0.000000 0.003737 0.000000
# 2 -0.006663 0.022081 -0.000874 0.000000 -0.007648 0.000000
# 3 -0.001295 -0.000874 0.010974 0.000000 -0.000767 0.000000
# 4 0.000000 0.000000 0.000000 0.031051 0.000000 -0.001059
# 5 0.003737 -0.007648 -0.000767 0.000000 0.029728 0.000000
# 6 0.000000 0.000000 0.000000 -0.001059 0.000000 0.031764
#
#
# Mechanical properties :
#
#
# Convention : Reuss Voigt Hill
#
# Bulk Modulus (GPa) = 37.61657 42.31786 39.96722
# Shear Modulus (GPa) = 30.61567 34.09584 32.35576
#
# Velocity S-wave (km/s) = 3.62895 3.82966 3.73066
# Velocity P-wave (km/s) = 5.80860 6.14476 5.97904
#
# Compressibility (1/GPa) = 0.02658403
#
# Stress axis : x y z
#
# Youngs Moduli (GPa) = 89.33995 45.28783 91.12856
#
# Poissons Ratio (x) = 0.30174 0.11803
# Poissons Ratio (y) = 0.59524 0.07964
# Poissons Ratio (z) = 0.11572 0.03958
#
# Static dielectric constant tensor:
#      x y z
#    x 4.265380 0.000000 -0.029180 
#    y 0.000000 3.928150 0.000000 
#    z -0.029180 0.000000 4.290150 
# 
# 
# High freq. dielectric constant tensor:
#      x y z
#    x 1.933010 0.000000 -0.001040 
#    y 0.000000 1.907080 0.000000 
#    z -0.001040 0.000000 1.930050 
# 
# From -- ./inp_files/9317.got.cif
#   From: 2010.06.25/outbox.cif.g09.slc.cpg/sg9_5_cif.got.tgz:9317.got - 2010.06.27 21:40:51.
