data_PCOD8055598
_publ_section_title
;
Structure prediction by ZEFSAII (Michael W. Deem and Ramdas Pophale) SiO2 
 PCOD8055598
Probable space group: C C
;
_chemical_formula_sum "Si O2"
_cell_formula_units_Z 32
_cell_length_a 27.206847
_cell_length_b 11.834530
_cell_length_c 15.110672
_cell_angle_alpha 90.000000
_cell_angle_beta 162.784144
_cell_angle_gamma 90.000000
_cell_volume 1440.005745
_symmetry_space_group_name_H-M "C C"
_symmetry_group_IT_number 9
_symmetry_cell_setting 'monoclinic'
loop_
_space_group_symop_operation_xyz
x,y,z
x,-y,1/2+z
1/2+x,1/2+y,z
1/2+x,1/2-y,1/2+z
loop_
_atom_site_type_symbol
_atom_site_label
_atom_site_fract_x
_atom_site_fract_y
_atom_site_fract_z
Si Si1 0.252180 0.943505 0.062650
Si Si2 0.535838 0.206314 0.045491
Si Si3 0.684797 0.866570 0.974182
Si Si4 0.447773 0.441089 0.961367
Si Si5 0.667150 0.866577 0.141036
Si Si6 0.527269 0.262621 0.744791
Si Si7 0.216093 0.620347 0.206072
Si Si8 0.433716 0.828921 0.899705
O O1 0.383522 0.862172 0.237768
O O2 0.348362 0.049937 0.269906
O O3 0.157048 0.867594 0.973129
O O4 0.113058 0.984405 0.753478
O O5 0.551390 0.137787 0.165711
O O6 0.484630 0.337294 0.960286
O O7 0.701166 0.199120 0.268078
O O8 0.599897 0.850553 0.924475
O O9 0.789672 0.757486 0.130099
O O10 0.796767 0.980953 0.166253
O O11 0.396199 0.386177 0.968325
O O12 0.845927 0.807927 0.456358
O O13 0.673898 0.998453 0.172036
O O14 0.547479 0.816782 0.008798
O O15 0.535120 0.207460 0.660762
O O16 0.580268 0.164519 0.902441
#
# Coordination Sequence:
#
# PCOD8055598 Si02
#       8
#     4   4   4   4   4   4   4   4
#     4  12  23  43  70 101 136 174 225 286 330 397
#     4  12  26  42  70 102 135 178 230 275 337 402
#     4  10  24  46  66  98 138 183 215 282 341 392
#     4  11  24  48  67  96 145 173 225 287 329 403
#     4  10  23  42  70  95 138 177 227 274 337 407
#     4  11  25  44  68 101 138 182 220 281 344 396
#     4  11  24  42  69  99 133 181 228 273 334 404
#     4  11  23  43  72 100 135 180 224 280 340 401
#
# _framework density 22.222134
#
# number of rings (size 3 to 8) (size 9 to 14) (size 15 to 20)
#    0.000    1.000    7.500    0.000    5.250    2.000 
#    0.000    1.250    0.000    0.000    0.000    0.000 
#    0.000    0.000    0.000    0.000    0.000    0.000 
#
# Total GULP energy -198279.227533 kJ/mol
# GULP energy per Si atom -12392.451721 kJ/mol
# Density = 2.217156 g / cm^3
# Si number density = 22.222134 Si / 1000 Ang^3
#
#
#
# Elastic Constant Matrix: (Units=GPa)
#
#
# Indices 1 2 3 4 5 6 
#
# 1 115.0352 23.1311 23.9428 0.0000 0.2507 0.0000
# 2 23.1311 113.4305 25.3739 0.0000 -0.5227 0.0000
# 3 23.9428 25.3739 67.3223 0.0000 -4.2833 0.0000
# 4 0.0000 0.0000 0.0000 39.1714 0.0000 10.9547
# 5 0.2507 -0.5227 -4.2833 0.0000 23.6571 0.0000
# 6 0.0000 0.0000 0.0000 10.9547 0.0000 33.0510
#
#
#
# Elastic Compliance Matrix: (Units=1/GPa)
#
#
# Indices 1 2 3 4 5 6 
#
# 1 0.009570 -0.001293 -0.002959 0.000000 -0.000666 0.000000
# 2 -0.001293 0.009807 -0.003259 0.000000 -0.000360 0.000000
# 3 -0.002959 -0.003259 0.017332 0.000000 0.003097 0.000000
# 4 0.000000 0.000000 0.000000 0.028137 0.000000 -0.009326
# 5 -0.000666 -0.000360 0.003097 0.000000 0.042831 0.000000
# 6 0.000000 0.000000 0.000000 -0.009326 0.000000 0.033347
#
#
# Mechanical properties :
#
#
# Convention : Reuss Voigt Hill
#
# Bulk Modulus (GPa) = 46.11019 48.96484 47.53752
# Shear Modulus (GPa) = 30.62323 34.06523 32.34423
#
# Velocity S-wave (km/s) = 3.71624 3.91953 3.81924
# Velocity P-wave (km/s) = 6.26168 6.52424 6.39431
#
# Compressibility (1/GPa) = 0.02168718
#
# Stress axis : x y z
#
# Youngs Moduli (GPa) = 104.49103 101.96730 57.69773
#
# Poissons Ratio (x) = 0.13182 0.17071
# Poissons Ratio (y) = 0.13509 0.18806
# Poissons Ratio (z) = 0.30915 0.33235
#
# Static dielectric constant tensor:
#      x y z
#    x 3.954290 0.000000 0.121350 
#    y 0.000000 4.251970 0.000000 
#    z 0.121350 0.000000 4.008040 
# 
# 
# High freq. dielectric constant tensor:
#      x y z
#    x 1.861430 0.000000 0.013860 
#    y 0.000000 1.896670 0.000000 
#    z 0.013860 0.000000 1.865160 
# 
# From -- ./inp_files/22954.got.cif
#   From: 2010.06.25/outbox.cif.g09.slc.cpg/sg9_12_cif.got.tgz:22954.got - 2010.06.27 21:40:51.
