data_PCOD8055340
_publ_section_title
;
Structure prediction by ZEFSAII (Michael W. Deem and Ramdas Pophale) SiO2 
 PCOD8055340
Probable space group: C C
;
_chemical_formula_sum "Si O2"
_cell_formula_units_Z 28
_cell_length_a 15.765109
_cell_length_b 10.428869
_cell_length_c 8.962980
_cell_angle_alpha 90.000000
_cell_angle_beta 46.518021
_cell_angle_gamma 90.000000
_cell_volume 1069.247908
_symmetry_space_group_name_H-M "C C"
_symmetry_group_IT_number 9
_symmetry_cell_setting 'monoclinic'
loop_
_space_group_symop_operation_xyz
x,y,z
x,-y,1/2+z
1/2+x,1/2+y,z
1/2+x,1/2-y,1/2+z
loop_
_atom_site_type_symbol
_atom_site_label
_atom_site_fract_x
_atom_site_fract_y
_atom_site_fract_z
Si Si1 0.566420 0.900086 0.912290
Si Si2 0.903009 0.028416 0.707323
Si Si3 0.257462 0.410766 0.126602
Si Si4 0.531875 0.357220 0.310302
Si Si5 0.580288 0.256442 0.692110
Si Si6 0.230190 0.997133 0.970805
Si Si7 0.382339 0.900242 0.533663
O O1 0.690371 0.952287 0.704499
O O2 0.514032 0.789284 0.873028
O O3 0.581800 0.851594 0.062312
O O4 0.477924 0.015987 0.001765
O O5 0.983349 0.127882 0.700596
O O6 0.804634 0.109431 0.737961
O O7 0.853928 0.921482 0.880099
O O8 0.970765 0.951315 0.499110
O O9 0.179420 0.284504 0.191645
O O10 0.670245 0.389342 0.146469
O O11 0.621515 0.396144 0.579150
O O12 0.448260 0.240802 0.928798
O O13 0.343286 0.056529 0.914737
O O14 0.267448 0.920476 0.775816
#
# Coordination Sequence:
#
# PCOD8055340 Si02
#       7
#     4   4   4   4   4   4   4
#     4  11  23  46  76 101 147 194 253 308 372 470
#     4  10  22  42  68 102 147 186 247 310 366 459
#     4  10  22  43  72 105 138 193 254 310 377 450
#     4  11  25  45  70 108 150 196 252 308 388 463
#     4  11  24  46  76 107 146 203 251 306 384 469
#     4  12  26  49  72 107 155 198 247 322 383 452
#     4  11  26  49  76 108 147 198 256 308 388 453
#
# _framework density 26.186630999999998
#
# number of rings (size 3 to 8) (size 9 to 14) (size 15 to 20)
#    0.000    1.143    2.857    2.571    2.000    4.571 
#   15.429    0.000    0.000    0.000    0.000    0.000 
#    0.000    0.000    0.000    0.000    0.000    0.000 
#
# Total GULP energy -173481.080965 kJ/mol
# GULP energy per Si atom -12391.505783 kJ/mol
# Density = 2.612703 g / cm^3
# Si number density = 26.186631 Si / 1000 Ang^3
#
#
#
# Elastic Constant Matrix: (Units=GPa)
#
#
# Indices 1 2 3 4 5 6 
#
# 1 100.5651 21.2294 24.0372 0.0000 18.1162 0.0000
# 2 21.2294 77.8825 37.4443 0.0000 8.9556 0.0000
# 3 24.0372 37.4443 136.8897 0.0000 -4.1231 0.0000
# 4 0.0000 0.0000 0.0000 28.7397 0.0000 18.9481
# 5 18.1162 8.9556 -4.1231 0.0000 39.8694 0.0000
# 6 0.0000 0.0000 0.0000 18.9481 0.0000 -6.2884
#
#
#
# Elastic Compliance Matrix: (Units=1/GPa)
#
#
# Indices 1 2 3 4 5 6 
#
# 1 0.011639 -0.001766 -0.001713 0.000000 -0.005069 0.000000
# 2 -0.001766 0.015633 -0.004060 0.000000 -0.003129 0.000000
# 3 -0.001713 -0.004060 0.008795 0.000000 0.002600 0.000000
# 4 0.000000 0.000000 0.000000 0.011650 0.000000 0.035105
# 5 -0.005069 -0.003129 0.002600 0.000000 0.028357 0.000000
# 6 0.000000 0.000000 0.000000 0.035105 0.000000 -0.053246
#
#
# Mechanical properties :
#
#
# Convention : Reuss Voigt Hill
#
# Bulk Modulus (GPa) = 47.64647 53.41768 50.53207
# Shear Modulus (GPa) = 111.34580 27.97257 69.65919
#
# Velocity S-wave (km/s) = 6.52782 3.27188 5.16322
# Velocity P-wave (km/s) = 8.66320 5.89209 7.40836
#
# Compressibility (1/GPa) = 0.02098791
#
# Stress axis : x y z
#
# Youngs Moduli (GPa) = 85.91542 63.96643 113.70088
#
# Poissons Ratio (x) = 0.11296 0.19482
# Poissons Ratio (y) = 0.15173 0.46167
# Poissons Ratio (z) = 0.14721 0.25973
#
# Static dielectric constant tensor:
#      x y z
#    x 5.062110 0.000000 -0.111930 
#    y 0.000000 4.645680 0.000000 
#    z -0.111930 0.000000 4.945420 
# 
# 
# High freq. dielectric constant tensor:
#      x y z
#    x 2.067840 0.000000 -0.003080 
#    y 0.000000 2.037420 0.000000 
#    z -0.003080 0.000000 2.056210 
# 
# From -- ./inp_files/9211.got.cif
#   From: 2010.06.25/outbox.cif.g09.slc.cpg/sg9_5_cif.got.tgz:9211.got - 2010.06.27 21:40:51.
