data_PCOD8055009
_publ_section_title
;
Structure prediction by ZEFSAII (Michael W. Deem and Ramdas Pophale) SiO2 
 PCOD8055009
Probable space group: C C
;
_chemical_formula_sum "Si O2"
_cell_formula_units_Z 32
_cell_length_a 11.263285
_cell_length_b 8.968065
_cell_length_c 15.377828
_cell_angle_alpha 90.000000
_cell_angle_beta 112.798429
_cell_angle_gamma 90.000000
_cell_volume 1431.958003
_symmetry_space_group_name_H-M "C C"
_symmetry_group_IT_number 9
_symmetry_cell_setting 'monoclinic'
loop_
_space_group_symop_operation_xyz
x,y,z
x,-y,1/2+z
1/2+x,1/2+y,z
1/2+x,1/2-y,1/2+z
loop_
_atom_site_type_symbol
_atom_site_label
_atom_site_fract_x
_atom_site_fract_y
_atom_site_fract_z
Si Si1 0.922910 0.173047 0.261430
Si Si2 0.978347 0.846735 0.292228
Si Si3 0.273681 0.410254 0.971799
Si Si4 0.887094 0.340960 0.905392
Si Si5 0.966762 0.849041 0.575838
Si Si6 0.712801 0.814769 0.139826
Si Si7 0.766926 0.343327 0.344474
Si Si8 0.157317 0.373979 0.306974
O O1 0.906925 0.147186 0.154622
O O2 0.798821 0.250597 0.267182
O O3 0.036977 0.287542 0.312292
O O4 0.936742 0.012432 0.313070
O O5 0.002352 0.727875 0.377570
O O6 0.866505 0.781881 0.195884
O O7 0.115936 0.875509 0.286492
O O8 0.302067 0.246542 0.942525
O O9 0.177412 0.486340 0.875168
O O10 0.408503 0.503281 0.013926
O O11 0.200352 0.400263 0.044057
O O12 0.855483 0.511439 0.879508
O O13 0.769857 0.245099 0.836886
O O14 0.915877 0.302587 0.014062
O O15 0.123945 0.837758 0.616224
O O16 0.651992 0.916990 0.201703
#
# Coordination Sequence:
#
# PCOD8055009 Si02
#       8
#     4   4   4   4   4   4   4   4
#     4  11  22  44  69  99 138 185 228 281 353 412
#     4  11  23  46  70  95 137 181 227 286 346 411
#     4  11  23  42  71 103 138 183 232 287 348 419
#     4  10  22  45  66  96 141 173 229 294 341 407
#     4  10  22  43  69 100 135 183 226 287 353 406
#     4  10  21  41  73  98 137 185 228 282 342 405
#     4  12  26  41  69 107 130 184 236 278 353 423
#     4   9  21  42  71  98 138 186 224 285 348 403
#
# _framework density 22.347023
#
# number of rings (size 3 to 8) (size 9 to 14) (size 15 to 20)
#    0.000    1.500    2.500    3.000    3.500    0.000 
#    4.500    3.750    0.000    0.000    0.000    0.000 
#    0.000    0.000    0.000    0.000    0.000    0.000 
#
# Total GULP energy -198232.405918 kJ/mol
# GULP energy per Si atom -12389.525370 kJ/mol
# Density = 2.229616 g / cm^3
# Si number density = 22.347023 Si / 1000 Ang^3
#
#
#
# Elastic Constant Matrix: (Units=GPa)
#
#
# Indices 1 2 3 4 5 6 
#
# 1 73.0524 41.9228 17.5084 0.0000 -13.6083 0.0000
# 2 41.9228 137.1885 47.7767 0.0000 -14.7609 0.0000
# 3 17.5084 47.7767 112.5376 0.0000 -20.9152 0.0000
# 4 0.0000 0.0000 0.0000 24.2135 0.0000 -3.2465
# 5 -13.6083 -14.7609 -20.9152 0.0000 24.2968 0.0000
# 6 0.0000 0.0000 0.0000 -3.2465 0.0000 23.2959
#
#
#
# Elastic Compliance Matrix: (Units=1/GPa)
#
#
# Indices 1 2 3 4 5 6 
#
# 1 0.017712 -0.004844 0.000711 0.000000 0.007590 0.000000
# 2 -0.004844 0.010004 -0.003415 0.000000 0.000426 0.000000
# 3 0.000711 -0.003415 0.011801 0.000000 0.008483 0.000000
# 4 0.000000 0.000000 0.000000 0.042086 0.000000 0.005865
# 5 0.007590 0.000426 0.008483 0.000000 0.052970 0.000000
# 6 0.000000 0.000000 0.000000 0.005865 0.000000 0.043743
#
#
# Mechanical properties :
#
#
# Convention : Reuss Voigt Hill
#
# Bulk Modulus (GPa) = 40.94353 59.68825 50.31589
# Shear Modulus (GPa) = 24.80764 28.73263 26.77013
#
# Velocity S-wave (km/s) = 3.33544 3.58962 3.46487
# Velocity P-wave (km/s) = 5.76152 6.62934 6.21061
#
# Compressibility (1/GPa) = 0.02442389
#
# Stress axis : x y z
#
# Youngs Moduli (GPa) = 56.45977 99.95712 84.73557
#
# Poissons Ratio (x) = 0.48414 -0.06027
# Poissons Ratio (y) = 0.27346 0.28933
# Poissons Ratio (z) = -0.04016 0.34131
#
# Static dielectric constant tensor:
#      x y z
#    x 4.578910 0.000000 -0.349500 
#    y 0.000000 3.997560 0.000000 
#    z -0.349500 0.000000 4.417180 
# 
# 
# High freq. dielectric constant tensor:
#      x y z
#    x 1.886180 0.000000 -0.004700 
#    y 0.000000 1.865530 0.000000 
#    z -0.004700 0.000000 1.880580 
# 
# From -- ./inp_files/24190.got.cif
#   From: 2010.06.25/outbox.cif.g09.slc.cpg/sg9_13_cif.got.tgz:24190.got - 2010.06.27 21:40:51.
