data_PCOD8055151
_publ_section_title
;
Structure prediction by ZEFSAII (Michael W. Deem and Ramdas Pophale) SiO2 
 PCOD8055151
Probable space group: C C
;
_chemical_formula_sum "Si O2"
_cell_formula_units_Z 32
_cell_length_a 14.906210
_cell_length_b 19.809494
_cell_length_c 5.262086
_cell_angle_alpha 90.000000
_cell_angle_beta 115.125400
_cell_angle_gamma 90.000000
_cell_volume 1406.791614
_symmetry_space_group_name_H-M "C C"
_symmetry_group_IT_number 9
_symmetry_cell_setting 'monoclinic'
loop_
_space_group_symop_operation_xyz
x,y,z
x,-y,1/2+z
1/2+x,1/2+y,z
1/2+x,1/2-y,1/2+z
loop_
_atom_site_type_symbol
_atom_site_label
_atom_site_fract_x
_atom_site_fract_y
_atom_site_fract_z
Si Si1 0.475230 0.638325 0.808680
Si Si2 0.872945 0.465639 0.435612
Si Si3 0.136993 0.669027 0.884466
Si Si4 0.136399 0.958160 0.447240
Si Si5 0.262888 0.309634 0.031853
Si Si6 0.062790 0.195369 0.416442
Si Si7 0.755534 0.658283 0.894195
Si Si8 0.591314 0.022583 0.744996
O O1 0.519648 0.563533 0.807343
O O2 0.357255 0.641519 0.663576
O O3 0.513929 0.689327 0.636513
O O4 0.508111 0.653318 0.136286
O O5 0.823837 0.501071 0.129321
O O6 0.849767 0.385292 0.405258
O O7 0.990020 0.480466 0.569839
O O8 0.200947 0.681704 0.711817
O O9 0.055514 0.726859 0.823015
O O10 0.073318 0.601100 0.773458
O O11 0.204748 0.664753 0.215510
O O12 0.198398 0.887624 0.536625
O O13 0.162017 0.007997 0.707335
O O14 0.292354 0.229983 0.050072
O O15 0.178233 0.173172 0.571967
O O16 0.650986 0.011259 0.552494
#
# Coordination Sequence:
#
# PCOD8055151 Si02
#       8
#     4   4   4   4   4   4   4   4
#     4  11  23  42  61  93 125 163 220 265 318 370
#     4  10  22  36  57  92 131 163 198 249 310 386
#     4  11  22  42  64  92 127 171 216 253 321 384
#     4  11  22  38  62  86 122 165 204 253 312 381
#     4  11  25  41  67  94 126 165 214 276 311 371
#     4  10  22  39  65  89 127 171 208 264 319 383
#     4  10  22  40  63  95 126 160 207 258 328 381
#     4  10  22  40  61  89 126 166 207 250 305 380
#
# _framework density 22.746794999999999
#
# number of rings (size 3 to 8) (size 9 to 14) (size 15 to 20)
#    0.000    1.500    0.000    6.000    0.000    9.000 
#    0.000    3.750    0.000    0.000    0.000    0.000 
#    0.000    0.000    0.000    0.000    0.000    0.000 
#
# Total GULP energy -198301.731403 kJ/mol
# GULP energy per Si atom -12393.858213 kJ/mol
# Density = 2.269502 g / cm^3
# Si number density = 22.746795 Si / 1000 Ang^3
#
#
#
# Elastic Constant Matrix: (Units=GPa)
#
#
# Indices 1 2 3 4 5 6 
#
# 1 58.1257 -1.6949 26.4699 0.0000 -10.7052 0.0000
# 2 -1.6949 104.4244 24.8657 0.0000 -0.8498 0.0000
# 3 26.4699 24.8657 135.8521 0.0000 -30.9126 0.0000
# 4 0.0000 0.0000 0.0000 29.9900 0.0000 2.6478
# 5 -10.7052 -0.8498 -30.9126 0.0000 37.7385 0.0000
# 6 0.0000 0.0000 0.0000 2.6478 0.0000 43.3316
#
#
#
# Elastic Compliance Matrix: (Units=1/GPa)
#
#
# Indices 1 2 3 4 5 6 
#
# 1 0.019263 0.001128 -0.003332 0.000000 0.002761 0.000000
# 2 0.001128 0.010155 -0.002401 0.000000 -0.001418 0.000000
# 3 -0.003332 -0.002401 0.010106 0.000000 0.007279 0.000000
# 4 0.000000 0.000000 0.000000 0.033525 0.000000 -0.002049
# 5 0.002761 -0.001418 0.007279 0.000000 0.033212 0.000000
# 6 0.000000 0.000000 0.000000 -0.002049 0.000000 0.023203
#
#
# Mechanical properties :
#
#
# Convention : Reuss Voigt Hill
#
# Bulk Modulus (GPa) = 32.98746 44.18706 38.58726
# Shear Modulus (GPa) = 33.60736 38.79612 36.20174
#
# Velocity S-wave (km/s) = 3.84794 4.13433 3.99370
# Velocity P-wave (km/s) = 5.85454 6.50062 6.18602
#
# Compressibility (1/GPa) = 0.03031455
#
# Stress axis : x y z
#
# Youngs Moduli (GPa) = 51.91408 98.47483 98.95241
#
# Poissons Ratio (x) = -0.11112 0.32967
# Poissons Ratio (y) = -0.05858 0.23761
# Poissons Ratio (z) = 0.17295 0.23646
#
# Static dielectric constant tensor:
#      x y z
#    x 4.076760 0.000000 -0.426000 
#    y 0.000000 4.240440 0.000000 
#    z -0.426000 0.000000 4.468540 
# 
# 
# High freq. dielectric constant tensor:
#      x y z
#    x 1.880850 0.000000 -0.022020 
#    y 0.000000 1.894570 0.000000 
#    z -0.022020 0.000000 1.911520 
# 
# From -- ./inp_files/2557.got.cif
#   From: 2010.06.25/outbox.cif.g09.slc.cpg/sg9_2_cif.got.tgz:2557.got - 2010.06.27 21:40:51.
