data_PCOD8055436
_publ_section_title
;
Structure prediction by ZEFSAII (Michael W. Deem and Ramdas Pophale) SiO2 
 PCOD8055436
Probable space group: C C
;
_chemical_formula_sum "Si O2"
_cell_formula_units_Z 32
_cell_length_a 5.163632
_cell_length_b 12.299136
_cell_length_c 27.172064
_cell_angle_alpha 90.000000
_cell_angle_beta 51.212416
_cell_angle_gamma 90.000000
_cell_volume 1345.098227
_symmetry_space_group_name_H-M "C C"
_symmetry_group_IT_number 9
_symmetry_cell_setting 'monoclinic'
loop_
_space_group_symop_operation_xyz
x,y,z
x,-y,1/2+z
1/2+x,1/2+y,z
1/2+x,1/2-y,1/2+z
loop_
_atom_site_type_symbol
_atom_site_label
_atom_site_fract_x
_atom_site_fract_y
_atom_site_fract_z
Si Si1 0.367040 0.334498 0.775450
Si Si2 0.200804 0.677111 0.666670
Si Si3 0.404456 0.033559 0.172280
Si Si4 0.964305 0.181247 0.102497
Si Si5 0.814268 0.455124 0.079021
Si Si6 0.100551 0.152077 0.357242
Si Si7 0.813889 0.326820 0.464369
Si Si8 0.358723 0.531781 0.949347
O O1 0.576697 0.231471 0.731581
O O2 0.519195 0.443197 0.731312
O O3 0.406294 0.344096 0.829080
O O4 0.987333 0.320909 0.804204
O O5 0.602332 0.657653 0.612048
O O6 0.049660 0.555964 0.691901
O O7 0.077680 0.744390 0.633941
O O8 0.568356 0.156382 0.153117
O O9 0.477991 0.980293 0.111348
O O10 0.091946 0.056872 0.089771
O O11 0.098766 0.227788 0.034454
O O12 0.109315 0.443992 0.004320
O O13 0.915422 0.236176 0.413928
O O14 0.077449 0.032038 0.383350
O O15 0.597128 0.418070 0.462527
O O16 0.152582 0.374967 0.446429
#
# Coordination Sequence:
#
# PCOD8055436 Si02
#       8
#     4   4   4   4   4   4   4   4
#     4  12  28  50  67 103 148 190 247 295 338 441
#     4  11  26  42  73 103 143 193 232 297 375 437
#     4  11  24  44  71 104 140 187 231 304 370 430
#     4  10  22  44  70 110 146 174 236 308 366 441
#     4  10  23  42  72 110 138 180 238 298 383 428
#     4  12  29  48  72 100 143 197 246 289 352 423
#     4  11  25  46  75 105 141 185 237 296 365 430
#     4  11  25  48  74 107 145 182 237 307 357 434
#
# _framework density 23.790082999999999
#
# number of rings (size 3 to 8) (size 9 to 14) (size 15 to 20)
#    0.000    1.000    2.500    2.250    7.000    6.000 
#    0.000    0.000    0.000    0.000    0.000    0.000 
#    0.000    0.000    0.000    0.000    0.000    0.000 
#
# Total GULP energy -198373.744653 kJ/mol
# GULP energy per Si atom -12398.359041 kJ/mol
# Density = 2.373594 g / cm^3
# Si number density = 23.790083 Si / 1000 Ang^3
#
#
#
# Elastic Constant Matrix: (Units=GPa)
#
#
# Indices 1 2 3 4 5 6 
#
# 1 84.2667 3.5933 15.8554 -0.0128 -0.7681 0.0076
# 2 3.5933 59.9998 37.1449 -0.0059 -1.3225 0.0020
# 3 15.8554 37.1449 108.5119 -0.0184 0.3811 0.0105
# 4 -0.0128 -0.0059 -0.0184 44.4728 0.0117 -0.2608
# 5 -0.7681 -1.3225 0.3811 0.0117 46.6190 -0.0075
# 6 0.0076 0.0020 0.0105 -0.2608 -0.0075 34.4287
#
#
#
# Elastic Compliance Matrix: (Units=1/GPa)
#
#
# Indices 1 2 3 4 5 6 
#
# 1 0.012216 0.000481 -0.001950 0.000003 0.000231 -0.000002
# 2 0.000481 0.021188 -0.007325 0.000000 0.000669 0.000001
# 3 -0.001950 -0.007325 0.012009 0.000004 -0.000338 -0.000003
# 4 0.000003 0.000000 0.000004 0.022487 -0.000006 0.000170
# 5 0.000231 0.000669 -0.000338 -0.000006 0.021476 0.000005
# 6 -0.000002 0.000001 -0.000003 0.000170 0.000005 0.029047
#
#
# Mechanical properties :
#
#
# Convention : Reuss Voigt Hill
#
# Bulk Modulus (GPa) = 35.94146 40.66284 38.30215
# Shear Modulus (GPa) = 34.41485 38.18310 36.29897
#
# Velocity S-wave (km/s) = 3.80755 4.01059 3.91039
# Velocity P-wave (km/s) = 5.87116 6.21095 6.04344
#
# Compressibility (1/GPa) = 0.02782302
#
# Stress axis : x y z
#
# Youngs Moduli (GPa) = 81.86220 47.19723 83.26866
#
# Poissons Ratio (x) = -0.02270 0.16240
# Poissons Ratio (y) = -0.03937 0.60998
# Poissons Ratio (z) = 0.15966 0.34574
#
# Static dielectric constant tensor:
#      x y z
#    x 4.344470 -0.000020 -0.133980 
#    y -0.000020 4.415040 0.000030 
#    z -0.133980 0.000030 4.506050 
# 
# 
# High freq. dielectric constant tensor:
#      x y z
#    x 1.949530 0.000000 -0.006070 
#    y 0.000000 1.957530 0.000000 
#    z -0.006070 0.000000 1.949840 
# 
# From -- ./inp_files/37111.got.cif
#   From: 2010.06.25/outbox.cif.g09.slc.cpg/sg9_19_cif.got.tgz:37111.got - 2010.06.27 21:40:51.
