data_PCOD8055425
_publ_section_title
;
Structure prediction by ZEFSAII (Michael W. Deem and Ramdas Pophale) SiO2 
 PCOD8055425
Probable space group: C C
;
_chemical_formula_sum "Si O2"
_cell_formula_units_Z 32
_cell_length_a 16.438623
_cell_length_b 8.014576
_cell_length_c 25.471634
_cell_angle_alpha 90.000000
_cell_angle_beta 153.891846
_cell_angle_gamma 90.000000
_cell_volume 1476.799591
_symmetry_space_group_name_H-M "C C"
_symmetry_group_IT_number 9
_symmetry_cell_setting 'monoclinic'
loop_
_space_group_symop_operation_xyz
x,y,z
x,-y,1/2+z
1/2+x,1/2+y,z
1/2+x,1/2-y,1/2+z
loop_
_atom_site_type_symbol
_atom_site_label
_atom_site_fract_x
_atom_site_fract_y
_atom_site_fract_z
Si Si1 0.578210 0.526430 0.518620
Si Si2 0.348736 0.471763 0.228200
Si Si3 0.711126 0.724308 0.947298
Si Si4 0.118587 0.621469 0.186557
Si Si5 0.441135 0.154582 0.876183
Si Si6 0.448952 0.171378 0.764020
Si Si7 0.213213 0.474981 0.857506
Si Si8 0.627027 0.825990 0.008878
O O1 0.537326 0.690667 0.460873
O O2 0.788018 0.534817 0.660061
O O3 0.435948 0.518700 0.485228
O O4 0.538054 0.357774 0.462455
O O5 0.550965 0.411943 0.363253
O O6 0.218090 0.494545 0.203581
O O7 0.366339 0.645708 0.207395
O O8 0.264067 0.343212 0.137505
O O9 0.651323 0.834678 0.863064
O O10 0.730368 0.832005 0.012271
O O11 0.905546 0.636576 0.046893
O O12 0.221861 0.802523 0.244651
O O13 0.129639 0.553599 0.251740
O O14 0.525930 0.145610 0.867213
O O15 0.475586 0.976352 0.924298
O O16 0.621092 0.146460 0.824408
#
# Coordination Sequence:
#
# PCOD8055425 Si02
#       8
#     4   4   4   4   4   4   4   4
#     4  11  24  45  67  98 144 175 230 291 342 415
#     4  11  25  45  71 101 138 191 233 285 362 422
#     4  12  23  43  69 102 139 183 239 286 353 423
#     4  10  24  43  69  98 143 187 226 300 350 407
#     4  10  22  44  68  96 136 185 230 277 350 413
#     4  11  21  43  67  97 138 177 225 291 345 409
#     4  11  23  41  65  98 135 177 223 288 342 400
#     4  12  24  44  72 102 133 193 234 284 352 423
#
# _framework density 21.668478
#
# number of rings (size 3 to 8) (size 9 to 14) (size 15 to 20)
#    0.000    1.000    2.500    6.000    1.750    1.000 
#    2.250    1.250    2.750    0.000    0.000    0.000 
#    0.000    0.000    0.000    0.000    0.000    0.000 
#
# Total GULP energy -198347.267178 kJ/mol
# GULP energy per Si atom -12396.704199 kJ/mol
# Density = 2.161916 g / cm^3
# Si number density = 21.668478 Si / 1000 Ang^3
#
#
#
# Elastic Constant Matrix: (Units=GPa)
#
#
# Indices 1 2 3 4 5 6 
#
# 1 159.1863 51.9179 54.8119 0.0014 -2.9131 -0.0003
# 2 51.9179 116.1103 32.1724 0.0022 -0.7697 -0.0005
# 3 54.8119 32.1724 109.0529 0.0155 12.5771 -0.0026
# 4 0.0014 0.0022 0.0155 30.4036 -0.0013 -0.7960
# 5 -2.9131 -0.7697 12.5771 -0.0013 34.1216 0.0003
# 6 -0.0003 -0.0005 -0.0026 -0.7960 0.0003 38.2278
#
#
#
# Elastic Compliance Matrix: (Units=1/GPa)
#
#
# Indices 1 2 3 4 5 6 
#
# 1 0.008488 -0.002761 -0.003685 0.000002 0.002021 0.000000
# 2 -0.002761 0.010332 -0.001734 0.000000 0.000636 0.000000
# 3 -0.003685 -0.001734 0.012088 -0.000006 -0.004809 0.000001
# 4 0.000002 0.000000 -0.000006 0.032909 0.000004 0.000685
# 5 0.002021 0.000636 -0.004809 0.000004 0.031267 0.000000
# 6 0.000000 0.000000 0.000001 0.000685 0.000000 0.026173
#
#
# Mechanical properties :
#
#
# Convention : Reuss Voigt Hill
#
# Bulk Modulus (GPa) = 68.73375 73.57266 71.15320
# Shear Modulus (GPa) = 35.09633 36.91376 36.00505
#
# Velocity S-wave (km/s) = 4.02891 4.13191 4.08073
# Velocity P-wave (km/s) = 7.30974 7.53598 7.42372
#
# Compressibility (1/GPa) = 0.01454889
#
# Stress axis : x y z
#
# Youngs Moduli (GPa) = 117.81074 96.78980 82.72650
#
# Poissons Ratio (x) = 0.26724 0.30483
# Poissons Ratio (y) = 0.32528 0.14342
# Poissons Ratio (z) = 0.43411 0.16780
#
# Static dielectric constant tensor:
#      x y z
#    x 4.069250 0.000000 0.014340 
#    y 0.000000 3.869360 0.000000 
#    z 0.014340 0.000000 3.888400 
# 
# 
# High freq. dielectric constant tensor:
#      x y z
#    x 1.858370 0.000000 -0.010040 
#    y 0.000000 1.842650 0.000000 
#    z -0.010040 0.000000 1.850430 
# 
# From -- ./inp_files/35581.got.cif
#   From: 2010.06.25/outbox.cif.g09.slc.cpg/sg9_18_cif.got.tgz:35581.got - 2010.06.27 21:40:51.
