data_PCOD8055760
_publ_section_title
;
Structure prediction by ZEFSAII (Michael W. Deem and Ramdas Pophale) SiO2 
 PCOD8055760
Probable space group: C C
;
_chemical_formula_sum "Si O2"
_cell_formula_units_Z 28
_cell_length_a 8.357430
_cell_length_b 12.127372
_cell_length_c 13.612038
_cell_angle_alpha 90.000000
_cell_angle_beta 127.797629
_cell_angle_gamma 90.000000
_cell_volume 1090.156477
_symmetry_space_group_name_H-M "C C"
_symmetry_group_IT_number 9
_symmetry_cell_setting 'monoclinic'
loop_
_space_group_symop_operation_xyz
x,y,z
x,-y,1/2+z
1/2+x,1/2+y,z
1/2+x,1/2-y,1/2+z
loop_
_atom_site_type_symbol
_atom_site_label
_atom_site_fract_x
_atom_site_fract_y
_atom_site_fract_z
Si Si1 0.517780 0.347416 0.855440
Si Si2 0.131192 0.793114 0.701218
Si Si3 0.236449 0.964913 0.183725
Si Si4 0.316130 0.027636 0.010328
Si Si5 0.304090 0.577214 0.453400
Si Si6 0.563884 0.882507 0.441232
Si Si7 0.538368 0.263407 0.448925
O O1 0.456596 0.306463 0.721421
O O2 0.696500 0.435899 0.901945
O O3 0.331011 0.401380 0.845957
O O4 0.612304 0.246962 0.956406
O O5 0.312210 0.722227 0.820191
O O6 0.039395 0.739401 0.567542
O O7 0.221518 0.911009 0.712386
O O8 0.347392 0.891515 0.305512
O O9 0.021707 0.906304 0.085062
O O10 0.371426 0.970177 0.134700
O O11 0.521117 0.069996 0.034644
O O12 0.160429 0.127067 0.970736
O O13 0.237592 0.451093 0.450139
O O14 0.140998 0.658773 0.436292
#
# Coordination Sequence:
#
# PCOD8055760 Si02
#       7
#     4   4   4   4   4   4   4
#     4  11  25  44  73 107 144 194 249 309 369 454
#     4  11  25  45  74 109 155 196 251 317 375 450
#     4  10  24  47  69 103 153 190 251 317 367 459
#     4  10  23  47  70 105 151 185 251 313 362 458
#     4  11  25  46  74 109 144 201 256 304 386 446
#     4  12  24  48  72 103 145 196 248 308 387 439
#     4  11  24  47  80 108 152 206 248 310 392 448
#
# _framework density 25.684387000000001
#
# number of rings (size 3 to 8) (size 9 to 14) (size 15 to 20)
#    0.000    1.143    4.286    0.000    8.000    3.429 
#    2.571    0.000    0.000    0.000    0.000    0.000 
#    0.000    0.000    0.000    0.000    0.000    0.000 
#
# Total GULP energy -173543.006421 kJ/mol
# GULP energy per Si atom -12395.929030 kJ/mol
# Density = 2.562593 g / cm^3
# Si number density = 25.684387 Si / 1000 Ang^3
#
#
#
# Elastic Constant Matrix: (Units=GPa)
#
#
# Indices 1 2 3 4 5 6 
#
# 1 140.7017 14.4957 32.2811 0.0000 -28.2370 0.0000
# 2 14.4957 79.8355 -14.7903 0.0000 -7.4610 0.0000
# 3 32.2811 -14.7903 90.4413 0.0000 -9.0487 0.0000
# 4 0.0000 0.0000 0.0000 29.2224 0.0000 -2.6920
# 5 -28.2370 -7.4610 -9.0487 0.0000 46.6769 0.0000
# 6 0.0000 0.0000 0.0000 -2.6920 0.0000 36.8554
#
#
#
# Elastic Compliance Matrix: (Units=1/GPa)
#
#
# Indices 1 2 3 4 5 6 
#
# 1 0.008882 -0.001748 -0.003005 0.000000 0.004511 0.000000
# 2 -0.001748 0.013559 0.003011 0.000000 0.001694 0.000000
# 3 -0.003005 0.003011 0.012735 0.000000 0.001132 0.000000
# 4 0.000000 0.000000 0.000000 0.034452 0.000000 0.002516
# 5 0.004511 0.001694 0.001132 0.000000 0.024643 0.000000
# 6 0.000000 0.000000 0.000000 0.002516 0.000000 0.027317
#
#
# Mechanical properties :
#
#
# Convention : Reuss Voigt Hill
#
# Bulk Modulus (GPa) = 31.55315 41.66127 36.60721
# Shear Modulus (GPa) = 36.86335 41.15042 39.00688
#
# Velocity S-wave (km/s) = 3.79257 4.00704 3.90128
# Velocity P-wave (km/s) = 5.61157 6.13711 5.88022
#
# Compressibility (1/GPa) = 0.03169256
#
# Stress axis : x y z
#
# Youngs Moduli (GPa) = 112.58706 73.75102 78.52373
#
# Poissons Ratio (x) = 0.12890 0.23594
# Poissons Ratio (y) = 0.19677 -0.23641
# Poissons Ratio (z) = 0.33829 -0.22204
#
# Static dielectric constant tensor:
#      x y z
#    x 4.766300 0.000000 -0.460300 
#    y 0.000000 4.729830 0.000000 
#    z -0.460300 0.000000 4.802010 
# 
# 
# High freq. dielectric constant tensor:
#      x y z
#    x 2.033670 0.000000 -0.025500 
#    y 0.000000 2.036190 0.000000 
#    z -0.025500 0.000000 2.012050 
# 
# From -- ./inp_files/14214.got.cif
#   From: 2010.06.25/outbox.cif.g09.slc.cpg/sg9_8_cif.got.tgz:14214.got - 2010.06.27 21:40:51.
