data_PCOD8055004
_publ_section_title
;
Structure prediction by ZEFSAII (Michael W. Deem and Ramdas Pophale) SiO2 
 PCOD8055004
Probable space group: C C
;
_chemical_formula_sum "Si O2"
_cell_formula_units_Z 32
_cell_length_a 23.583925
_cell_length_b 8.890753
_cell_length_c 14.762553
_cell_angle_alpha 90.000000
_cell_angle_beta 151.108524
_cell_angle_gamma 90.000000
_cell_volume 1495.546778
_symmetry_space_group_name_H-M "C C"
_symmetry_group_IT_number 9
_symmetry_cell_setting 'monoclinic'
loop_
_space_group_symop_operation_xyz
x,y,z
x,-y,1/2+z
1/2+x,1/2+y,z
1/2+x,1/2-y,1/2+z
loop_
_atom_site_type_symbol
_atom_site_label
_atom_site_fract_x
_atom_site_fract_y
_atom_site_fract_z
Si Si1 0.247070 0.854400 0.434340
Si Si2 0.766120 0.860583 0.801844
Si Si3 0.447252 0.333865 0.311561
Si Si4 0.047730 0.487112 0.242974
Si Si5 0.513672 0.329109 0.216616
Si Si6 0.398187 0.124120 0.682198
Si Si7 0.799195 0.100003 0.146067
Si Si8 0.546220 0.948721 0.034160
O O1 0.225552 0.784336 0.304025
O O2 0.333081 0.750594 0.612782
O O3 0.122622 0.869043 0.308174
O O4 0.293680 0.023692 0.494829
O O5 0.764117 0.822245 0.691966
O O6 0.680108 0.001133 0.702134
O O7 0.898596 0.905460 0.012428
O O8 0.526106 0.390670 0.336711
O O9 0.401278 0.475768 0.305127
O O10 0.529067 0.226517 0.486337
O O11 0.996944 0.648228 0.203641
O O12 0.187933 0.483478 0.446535
O O13 0.009591 0.464305 0.086799
O O14 0.992860 0.360490 0.232959
O O15 0.344939 0.282748 0.635834
O O16 0.458464 0.052397 0.854553
#
# Coordination Sequence:
#
# PCOD8055004 Si02
#       8
#     4   4   4   4   4   4   4   4
#     4  10  21  41  70  98 125 183 230 277 338 411
#     4  11  21  38  74  99 130 178 233 279 346 407
#     4  10  22  42  66  97 132 179 225 274 347 409
#     4  12  21  44  69  96 140 178 231 291 339 409
#     4  11  19  41  72  95 128 180 233 276 336 419
#     4  11  25  44  66 103 137 176 233 285 349 406
#     4  12  25  42  65 103 141 179 224 290 347 411
#     4  11  22  44  70  97 129 181 231 280 344 410
#
# _framework density 21.396856
#
# number of rings (size 3 to 8) (size 9 to 14) (size 15 to 20)
#    0.000    1.000    7.500    1.500    0.000    1.000 
#    9.000    0.000    0.000    0.000    0.000    0.000 
#    0.000    0.000    0.000    0.000    0.000    0.000 
#
# Total GULP energy -198392.051061 kJ/mol
# GULP energy per Si atom -12399.503191 kJ/mol
# Density = 2.134816 g / cm^3
# Si number density = 21.396856 Si / 1000 Ang^3
#
#
#
# Elastic Constant Matrix: (Units=GPa)
#
#
# Indices 1 2 3 4 5 6 
#
# 1 158.1350 42.3972 53.6293 0.0000 -0.3106 0.0000
# 2 42.3972 102.4384 41.5885 0.0000 11.0090 0.0000
# 3 53.6293 41.5885 89.2896 0.0000 4.5171 0.0000
# 4 0.0000 0.0000 0.0000 32.9541 0.0000 2.2125
# 5 -0.3106 11.0090 4.5171 0.0000 42.2782 0.0000
# 6 0.0000 0.0000 0.0000 2.2125 0.0000 22.7776
#
#
#
# Elastic Compliance Matrix: (Units=1/GPa)
#
#
# Indices 1 2 3 4 5 6 
#
# 1 0.008218 -0.001828 -0.004134 0.000000 0.000978 0.000000
# 2 -0.001828 0.012725 -0.004686 0.000000 -0.002826 0.000000
# 3 -0.004134 -0.004686 0.015891 0.000000 -0.000508 0.000000
# 4 0.000000 0.000000 0.000000 0.030544 0.000000 -0.002967
# 5 0.000978 -0.002826 -0.000508 0.000000 0.024450 0.000000
# 6 0.000000 0.000000 0.000000 -0.002967 0.000000 0.044191
#
#
# Mechanical properties :
#
#
# Convention : Reuss Voigt Hill
#
# Bulk Modulus (GPa) = 64.35977 69.45477 66.90727
# Shear Modulus (GPa) = 30.77056 33.75183 32.26119
#
# Velocity S-wave (km/s) = 3.79633 3.97598 3.88719
# Velocity P-wave (km/s) = 7.02570 7.32179 7.17528
#
# Compressibility (1/GPa) = 0.01553766
#
# Stress axis : x y z
#
# Youngs Moduli (GPa) = 121.68955 78.58762 62.93034
#
# Poissons Ratio (x) = 0.14366 0.26014
# Poissons Ratio (y) = 0.22245 0.29488
# Poissons Ratio (z) = 0.50303 0.36825
#
# Static dielectric constant tensor:
#      x y z
#    x 4.072760 0.000000 0.052180 
#    y 0.000000 3.653150 0.000000 
#    z 0.052180 0.000000 3.818140 
# 
# 
# High freq. dielectric constant tensor:
#      x y z
#    x 1.862420 0.000000 0.006170 
#    y 0.000000 1.810500 0.000000 
#    z 0.006170 0.000000 1.832850 
# 
# From -- ./inp_files/25683.got.cif
#   From: 2010.06.25/outbox.cif.g09.slc.cpg/sg9_13_cif.got.tgz:25683.got - 2010.06.27 21:40:51.
