data_PCOD8055094
_publ_section_title
;
Structure prediction by ZEFSAII (Michael W. Deem and Ramdas Pophale) SiO2 
 PCOD8055094
Probable space group: C C
;
_chemical_formula_sum "Si O2"
_cell_formula_units_Z 32
_cell_length_a 12.018344
_cell_length_b 8.571530
_cell_length_c 25.672016
_cell_angle_alpha 90.000000
_cell_angle_beta 149.694899
_cell_angle_gamma 90.000000
_cell_volume 1334.486132
_symmetry_space_group_name_H-M "C C"
_symmetry_group_IT_number 9
_symmetry_cell_setting 'monoclinic'
loop_
_space_group_symop_operation_xyz
x,y,z
x,-y,1/2+z
1/2+x,1/2+y,z
1/2+x,1/2-y,1/2+z
loop_
_atom_site_type_symbol
_atom_site_label
_atom_site_fract_x
_atom_site_fract_y
_atom_site_fract_z
Si Si1 0.798650 0.723416 0.735660
Si Si2 0.777798 0.155037 0.955289
Si Si3 0.554172 0.734117 0.894524
Si Si4 0.853751 0.950116 0.079158
Si Si5 0.684595 0.978247 0.243460
Si Si6 0.361646 0.977537 0.027398
Si Si7 0.661891 0.820230 0.578729
Si Si8 0.793285 0.116502 0.393751
O O1 0.581582 0.644933 0.674083
O O2 0.811341 0.907259 0.754444
O O3 0.810096 0.707616 0.676238
O O4 0.011503 0.637583 0.845329
O O5 0.877441 0.051476 0.949015
O O6 0.859522 0.332617 0.986576
O O7 0.876687 0.090686 0.048457
O O8 0.292260 0.697023 0.791161
O O9 0.625052 0.802706 0.866861
O O10 0.647028 0.842102 0.978287
O O11 0.621250 0.553269 0.934241
O O12 0.798649 0.034455 0.111391
O O13 0.665243 0.081182 0.288544
O O14 0.447803 0.939415 0.120886
O O15 0.495070 0.118615 0.055393
O O16 0.514014 0.724944 0.476263
#
# Coordination Sequence:
#
# PCOD8055094 Si02
#       8
#     4   4   4   4   4   4   4   4
#     4  11  22  44  65  99 137 181 230 282 353 417
#     4  11  23  42  67  97 138 178 223 299 340 409
#     4  10  21  44  63  96 144 171 229 287 343 415
#     4  11  23  44  68  96 139 180 225 290 345 415
#     4  11  22  40  69  97 133 183 232 281 349 419
#     4  10  22  42  63  98 135 179 230 289 345 408
#     4  10  22  44  68  98 139 181 226 288 351 414
#     4  10  23  44  65  99 137 177 233 290 340 421
#
# _framework density 23.979265999999999
#
# number of rings (size 3 to 8) (size 9 to 14) (size 15 to 20)
#    0.000    1.500    6.250    0.750    1.750    5.000 
#    2.250    0.000    0.000    0.000    0.000    0.000 
#    0.000    0.000    0.000    0.000    0.000    0.000 
#
# Total GULP energy -198221.676249 kJ/mol
# GULP energy per Si atom -12388.854766 kJ/mol
# Density = 2.392469 g / cm^3
# Si number density = 23.979266 Si / 1000 Ang^3
#
#
#
# Elastic Constant Matrix: (Units=GPa)
#
#
# Indices 1 2 3 4 5 6 
#
# 1 51.7761 14.9547 34.1992 0.0000 -19.0702 0.0000
# 2 14.9547 103.8475 31.2449 0.0000 -6.1038 0.0000
# 3 34.1992 31.2449 107.0842 0.0000 -17.2213 0.0002
# 4 0.0000 0.0000 0.0000 42.6793 0.0000 -5.3919
# 5 -19.0702 -6.1038 -17.2213 0.0000 30.1862 0.0000
# 6 0.0000 0.0000 0.0002 -5.3919 0.0000 34.6728
#
#
#
# Elastic Compliance Matrix: (Units=1/GPa)
#
#
# Indices 1 2 3 4 5 6 
#
# 1 0.029473 -0.001383 -0.006672 0.000000 0.014534 0.000000
# 2 -0.001383 0.010626 -0.002702 0.000000 -0.000266 0.000000
# 3 -0.006672 -0.002702 0.012653 0.000000 0.002457 0.000000
# 4 0.000000 0.000000 0.000000 0.023900 0.000000 0.003717
# 5 0.014534 -0.000266 0.002457 0.000000 0.043658 0.000000
# 6 0.000000 0.000000 0.000000 0.003717 0.000000 0.029419
#
#
# Mechanical properties :
#
#
# Convention : Reuss Voigt Hill
#
# Bulk Modulus (GPa) = 32.01099 47.05615 39.53357
# Shear Modulus (GPa) = 27.52479 33.66158 30.59318
#
# Velocity S-wave (km/s) = 3.39168 3.75077 3.57573
# Velocity P-wave (km/s) = 5.35877 6.19871 5.79398
#
# Compressibility (1/GPa) = 0.03123928
#
# Stress axis : x y z
#
# Youngs Moduli (GPa) = 33.92883 94.11039 79.03456
#
# Poissons Ratio (x) = 0.13012 0.52732
# Poissons Ratio (y) = 0.04691 0.21352
# Poissons Ratio (z) = 0.22638 0.25425
#
# Static dielectric constant tensor:
#      x y z
#    x 3.912090 0.000000 -0.199010 
#    y 0.000000 4.377220 0.000000 
#    z -0.199010 0.000000 4.566240 
# 
# 
# High freq. dielectric constant tensor:
#      x y z
#    x 1.916010 0.000000 -0.013190 
#    y 0.000000 1.961630 0.000000 
#    z -0.013190 0.000000 1.959000 
# 
# From -- ./inp_files/27984.got.cif
#   From: 2010.06.25/outbox.cif.g09.slc.cpg/sg9_14_cif.got.tgz:27984.got - 2010.06.27 21:40:51.
