data_PCOD8055284
_publ_section_title
;
Structure prediction by ZEFSAII (Michael W. Deem and Ramdas Pophale) SiO2 
 PCOD8055284
Probable space group: C C
;
_chemical_formula_sum "Si O2"
_cell_formula_units_Z 20
_cell_length_a 6.652233
_cell_length_b 19.895058
_cell_length_c 7.129811
_cell_angle_alpha 90.000000
_cell_angle_beta 136.971841
_cell_angle_gamma 90.000000
_cell_volume 643.876812
_symmetry_space_group_name_H-M "C C"
_symmetry_group_IT_number 9
_symmetry_cell_setting 'monoclinic'
loop_
_space_group_symop_operation_xyz
x,y,z
x,-y,1/2+z
1/2+x,1/2+y,z
1/2+x,1/2-y,1/2+z
loop_
_atom_site_type_symbol
_atom_site_label
_atom_site_fract_x
_atom_site_fract_y
_atom_site_fract_z
Si Si1 0.224070 0.207619 0.092100
Si Si2 0.555226 0.207217 0.930011
Si Si3 0.409453 0.568720 0.540479
Si Si4 0.007084 0.612188 0.555662
Si Si5 0.047021 0.466757 0.485542
O O1 0.389212 0.268272 0.322373
O O2 0.249921 0.144482 0.251590
O O3 0.380785 0.191902 0.002006
O O4 0.563399 0.140275 0.803863
O O5 0.383148 0.265890 0.697155
O O6 0.748781 0.570677 0.716319
O O7 0.322246 0.618568 0.652754
O O8 0.281677 0.493088 0.491606
O O9 0.221465 0.589399 0.228008
O O10 0.928932 0.532797 0.521464
#
# Coordination Sequence:
#
# PCOD8055284 Si02
#       5
#     4   4   4   4   4
#     4  10  22  41  66 102 136 170 225 286 347 422
#     4  10  22  41  66 102 136 170 225 286 347 422
#     4  10  23  41  63  93 132 178 231 281 332 403
#     4  10  24  40  74  92 140 186 228 276 364 404
#     4  10  23  41  63  93 132 178 231 281 332 403
#
# _framework density 31.061844000000001
#
# number of rings (size 3 to 8) (size 9 to 14) (size 15 to 20)
#    1.200    0.800    0.000    2.400    0.000    8.000 
#    0.000    8.000    0.000    0.000    0.000    0.000 
#    0.000    0.000    0.000    0.000    0.000    0.000 
#
# Total GULP energy -123901.216555 kJ/mol
# GULP energy per Si atom -12390.121655 kJ/mol
# Density = 3.099115 g / cm^3
# Si number density = 31.061844 Si / 1000 Ang^3
#
#
#
# Elastic Constant Matrix: (Units=GPa)
#
#
# Indices 1 2 3 4 5 6 
#
# 1 96.7279 7.5959 64.8413 0.0000 -3.9820 0.0000
# 2 7.5959 97.2977 32.6412 0.0000 -6.9371 0.0000
# 3 64.8413 32.6412 204.3979 0.0000 -6.4761 0.0000
# 4 0.0000 0.0000 0.0000 32.8654 0.0000 -12.5060
# 5 -3.9820 -6.9371 -6.4761 0.0000 78.8861 0.0000
# 6 0.0000 0.0000 0.0000 -12.5060 0.0000 47.8068
#
#
#
# Elastic Compliance Matrix: (Units=1/GPa)
#
#
# Indices 1 2 3 4 5 6 
#
# 1 0.013155 0.000417 -0.004228 0.000000 0.000354 0.000000
# 2 0.000417 0.010925 -0.001851 0.000000 0.000830 0.000000
# 3 -0.004228 -0.001851 0.006534 0.000000 0.000160 0.000000
# 4 0.000000 0.000000 0.000000 0.033791 0.000000 0.008839
# 5 0.000354 0.000830 0.000160 0.000000 0.012780 0.000000
# 6 0.000000 0.000000 0.000000 0.008839 0.000000 0.023230
#
#
# Mechanical properties :
#
#
# Convention : Reuss Voigt Hill
#
# Bulk Modulus (GPa) = 51.84106 67.62004 59.73055
# Shear Modulus (GPa) = 42.31205 51.46800 46.89003
#
# Velocity S-wave (km/s) = 3.69479 4.07498 3.88953
# Velocity P-wave (km/s) = 5.90997 6.63004 6.28033
#
# Compressibility (1/GPa) = 0.01928973
#
# Stress axis : x y z
#
# Youngs Moduli (GPa) = 76.01904 91.53149 153.03613
#
# Poissons Ratio (x) = -0.03815 0.64710
# Poissons Ratio (y) = -0.03168 0.28321
# Poissons Ratio (z) = 0.32144 0.16939
#
# Static dielectric constant tensor:
#      x y z
#    x 5.576730 0.000000 -0.474240 
#    y 0.000000 5.794350 0.000000 
#    z -0.474240 0.000000 5.806250 
# 
# 
# High freq. dielectric constant tensor:
#      x y z
#    x 2.290890 0.000000 -0.024850 
#    y 0.000000 2.284360 0.000000 
#    z -0.024850 0.000000 2.285150 
# 
# From -- ./inp_files/742.got.cif
#   From: 2010.06.25/outbox.cif.g09.slc.cpg/sg9_1_cif.got.tgz:742.got - 2010.06.27 21:40:51.
