data_PCOD8055874
_publ_section_title
;
Structure prediction by ZEFSAII (Michael W. Deem and Ramdas Pophale) SiO2 
 PCOD8055874
Probable space group: C C
;
_chemical_formula_sum "Si O2"
_cell_formula_units_Z 28
_cell_length_a 9.145092
_cell_length_b 11.012114
_cell_length_c 13.477343
_cell_angle_alpha 90.000000
_cell_angle_beta 108.088971
_cell_angle_gamma 90.000000
_cell_volume 1290.178152
_symmetry_space_group_name_H-M "C C"
_symmetry_group_IT_number 9
_symmetry_cell_setting 'monoclinic'
loop_
_space_group_symop_operation_xyz
x,y,z
x,-y,1/2+z
1/2+x,1/2+y,z
1/2+x,1/2-y,1/2+z
loop_
_atom_site_type_symbol
_atom_site_label
_atom_site_fract_x
_atom_site_fract_y
_atom_site_fract_z
Si Si1 0.681440 0.785150 0.905830
Si Si2 0.092289 0.293150 0.219208
Si Si3 0.378076 0.635968 0.283306
Si Si4 0.178428 0.441598 0.427844
Si Si5 0.783602 0.337297 0.610148
Si Si6 0.017928 0.063442 0.939720
Si Si7 0.086045 0.536048 0.126160
O O1 0.799799 0.763906 0.839486
O O2 0.543238 0.685180 0.876322
O O3 0.622539 0.923631 0.885194
O O4 0.778127 0.772152 0.028757
O O5 0.122434 0.346205 0.334586
O O6 0.234955 0.214698 0.207189
O O7 0.043604 0.393333 0.126637
O O8 0.949087 0.202825 0.203432
O O9 0.507383 0.554867 0.367051
O O10 0.246812 0.544558 0.217839
O O11 0.363113 0.429879 0.472506
O O12 0.100820 0.414363 0.517510
O O13 0.663970 0.442836 0.546082
O O14 0.955713 0.387137 0.655131
#
# Coordination Sequence:
#
# PCOD8055874 Si02
#       7
#     4   4   4   4   4   4   4
#     4   9  20  43  68  94 137 178 228 278 347 405
#     4  12  25  44  68 105 138 180 238 284 346 421
#     4  11  24  43  68 101 136 184 230 282 360 403
#     4  11  22  43  71  96 142 181 227 288 352 404
#     4  10  24  44  68  99 141 181 233 285 343 410
#     4   9  21  45  67  97 135 184 221 292 339 412
#     4  12  24  44  66 102 137 184 231 293 343 415
#
# _framework density 21.70243
#
# number of rings (size 3 to 8) (size 9 to 14) (size 15 to 20)
#    0.857    0.571    4.286    1.714    2.000    1.143 
#   12.857    0.000    0.000    0.000    0.000    0.000 
#    0.000    0.000    0.000    0.000    0.000    0.000 
#
# Total GULP energy -173480.415536 kJ/mol
# GULP energy per Si atom -12391.458253 kJ/mol
# Density = 2.165303 g / cm^3
# Si number density = 21.702430 Si / 1000 Ang^3
#
#
#
# Elastic Constant Matrix: (Units=GPa)
#
#
# Indices 1 2 3 4 5 6 
#
# 1 103.8751 62.0692 41.1640 0.0000 -31.2417 0.0000
# 2 62.0692 103.7441 36.9121 0.0000 -18.3823 0.0000
# 3 41.1640 36.9121 97.9125 0.0000 -22.7375 0.0000
# 4 0.0000 0.0000 0.0000 36.4353 0.0000 -9.4672
# 5 -31.2417 -18.3823 -22.7375 0.0000 46.0565 0.0000
# 6 0.0000 0.0000 0.0000 -9.4672 0.0000 35.6002
#
#
#
# Elastic Compliance Matrix: (Units=1/GPa)
#
#
# Indices 1 2 3 4 5 6 
#
# 1 0.018016 -0.008514 -0.002616 0.000000 0.007531 0.000000
# 2 -0.008514 0.015456 -0.002435 0.000000 -0.000808 0.000000
# 3 -0.002616 -0.002435 0.013094 0.000000 0.003718 0.000000
# 4 0.000000 0.000000 0.000000 0.029483 0.000000 0.007840
# 5 0.007531 -0.000808 0.003718 0.000000 0.028334 0.000000
# 6 0.000000 0.000000 0.000000 0.007840 0.000000 0.030175
#
#
# Mechanical properties :
#
#
# Convention : Reuss Voigt Hill
#
# Bulk Modulus (GPa) = 51.44758 65.09136 58.26947
# Shear Modulus (GPa) = 29.73247 34.64417 32.18832
#
# Velocity S-wave (km/s) = 3.70538 3.99974 3.85537
# Velocity P-wave (km/s) = 6.48566 7.16857 6.83565
#
# Compressibility (1/GPa) = 0.01943726
#
# Stress axis : x y z
#
# Youngs Moduli (GPa) = 55.50663 64.70015 76.36862
#
# Poissons Ratio (x) = 0.55083 0.19975
# Poissons Ratio (y) = 0.47256 0.18597
# Poissons Ratio (z) = 0.14519 0.15756
#
# Static dielectric constant tensor:
#      x y z
#    x 3.801530 0.000000 -0.363650 
#    y 0.000000 3.731460 0.000000 
#    z -0.363650 0.000000 3.856310 
# 
# 
# High freq. dielectric constant tensor:
#      x y z
#    x 1.844520 0.000000 -0.023870 
#    y 0.000000 1.840230 0.000000 
#    z -0.023870 0.000000 1.850570 
# 
# From -- ./inp_files/22601.got.cif
#   From: 2010.06.25/outbox.cif.g09.slc.cpg/sg9_12_cif.got.tgz:22601.got - 2010.06.27 21:40:51.
