data_PCOD8055768
_publ_section_title
;
Structure prediction by ZEFSAII (Michael W. Deem and Ramdas Pophale) SiO2 
 PCOD8055768
Probable space group: C C
;
_chemical_formula_sum "Si O2"
_cell_formula_units_Z 32
_cell_length_a 21.440726
_cell_length_b 9.013348
_cell_length_c 13.835748
_cell_angle_alpha 90.000000
_cell_angle_beta 28.550727
_cell_angle_gamma 90.000000
_cell_volume 1277.905068
_symmetry_space_group_name_H-M "C C"
_symmetry_group_IT_number 9
_symmetry_cell_setting 'monoclinic'
loop_
_space_group_symop_operation_xyz
x,y,z
x,-y,1/2+z
1/2+x,1/2+y,z
1/2+x,1/2-y,1/2+z
loop_
_atom_site_type_symbol
_atom_site_label
_atom_site_fract_x
_atom_site_fract_y
_atom_site_fract_z
Si Si1 0.943280 0.128745 0.647720
Si Si2 0.842450 0.753587 0.480482
Si Si3 0.747204 0.461194 0.523640
Si Si4 0.174803 0.050567 0.910329
Si Si5 0.521671 0.154508 0.594108
Si Si6 0.613156 0.190991 0.801613
Si Si7 0.258375 0.492823 0.239406
Si Si8 0.465858 0.087077 0.456778
O O1 0.866280 0.150381 0.851972
O O2 0.982523 0.284586 0.545317
O O3 0.863679 0.028763 0.679837
O O4 0.083984 0.058212 0.473980
O O5 0.748654 0.613316 0.583001
O O6 0.778899 0.858702 0.647993
O O7 0.977789 0.693299 0.345501
O O8 0.704824 0.513100 0.475263
O O9 0.642115 0.339942 0.702908
O O10 0.887468 0.378244 0.332611
O O11 0.309984 0.053976 0.667652
O O12 0.094582 0.201995 0.035553
O O13 0.617386 0.014799 0.481763
O O14 0.497967 0.174037 0.511268
O O15 0.741887 0.147548 0.689488
O O16 0.563371 0.051681 0.804938
#
# Coordination Sequence:
#
# PCOD8055768 Si02
#       8
#     4   4   4   4   4   4   4   4
#     4  12  29  46  79 115 156 210 260 329 390 471
#     4  12  26  49  78 113 156 203 263 321 393 471
#     4  11  28  47  79 112 156 212 259 321 405 467
#     4  11  24  44  75 110 155 204 261 321 384 471
#     4  10  23  48  74 113 154 204 256 330 384 470
#     4  11  28  50  77 109 163 204 260 328 389 477
#     4  11  27  51  79 112 156 205 264 327 393 472
#     4  10  23  49  73 108 154 206 259 323 392 455
#
# _framework density 25.040984000000002
#
# number of rings (size 3 to 8) (size 9 to 14) (size 15 to 20)
#    0.000    1.000    1.250    3.750   12.250    2.000 
#    2.250    0.000    0.000    0.000    0.000    0.000 
#    0.000    0.000    0.000    0.000    0.000    0.000 
#
# Total GULP energy -198280.840056 kJ/mol
# GULP energy per Si atom -12392.552504 kJ/mol
# Density = 2.498399 g / cm^3
# Si number density = 25.040984 Si / 1000 Ang^3
#
#
#
# Elastic Constant Matrix: (Units=GPa)
#
#
# Indices 1 2 3 4 5 6 
#
# 1 153.0362 45.9161 46.8788 0.0000 -13.0942 0.0000
# 2 45.9161 92.1709 31.9053 0.0000 2.1509 0.0000
# 3 46.8788 31.9053 89.7250 0.0000 -12.7634 0.0000
# 4 0.0000 0.0000 0.0000 36.3404 0.0000 -5.8798
# 5 -13.0942 2.1509 -12.7634 0.0000 38.4777 0.0000
# 6 0.0000 0.0000 0.0000 -5.8798 0.0000 46.6419
#
#
#
# Elastic Compliance Matrix: (Units=1/GPa)
#
#
# Indices 1 2 3 4 5 6 
#
# 1 0.008636 -0.003300 -0.003038 0.000000 0.002116 0.000000
# 2 -0.003300 0.013823 -0.003632 0.000000 -0.003101 0.000000
# 3 -0.003038 -0.003632 0.014594 0.000000 0.004010 0.000000
# 4 0.000000 0.000000 0.000000 0.028091 0.000000 0.003541
# 5 0.002116 -0.003101 0.004010 0.000000 0.028213 0.000000
# 6 0.000000 0.000000 0.000000 0.003541 0.000000 0.021886
#
#
# Mechanical properties :
#
#
# Convention : Reuss Voigt Hill
#
# Bulk Modulus (GPa) = 58.43316 64.92582 61.67949
# Shear Modulus (GPa) = 35.48934 38.30746 36.89840
#
# Velocity S-wave (km/s) = 3.76872 3.91550 3.84281
# Velocity P-wave (km/s) = 6.50564 6.81363 6.66142
#
# Compressibility (1/GPa) = 0.01711357
#
# Stress axis : x y z
#
# Youngs Moduli (GPa) = 115.79331 72.34309 68.51981
#
# Poissons Ratio (x) = 0.23874 0.20814
# Poissons Ratio (y) = 0.38212 0.24888
# Poissons Ratio (z) = 0.35174 0.26276
#
# Static dielectric constant tensor:
#      x y z
#    x 4.817920 0.000000 -0.130650 
#    y 0.000000 4.457710 0.000000 
#    z -0.130650 0.000000 4.312500 
# 
# 
# High freq. dielectric constant tensor:
#      x y z
#    x 2.019780 0.000000 -0.006980 
#    y 0.000000 1.996490 0.000000 
#    z -0.006980 0.000000 1.985110 
# 
# From -- ./inp_files/27333.got.cif
#   From: 2010.06.25/outbox.cif.g09.slc.cpg/sg9_14_cif.got.tgz:27333.got - 2010.06.27 21:40:51.
