data_PCOD8055812
_publ_section_title
;
Structure prediction by ZEFSAII (Michael W. Deem and Ramdas Pophale) SiO2 
 PCOD8055812
Probable space group: C C
;
_chemical_formula_sum "Si O2"
_cell_formula_units_Z 28
_cell_length_a 15.378498
_cell_length_b 18.851806
_cell_length_c 9.289091
_cell_angle_alpha 90.000000
_cell_angle_beta 152.149862
_cell_angle_gamma 90.000000
_cell_volume 1258.074173
_symmetry_space_group_name_H-M "C C"
_symmetry_group_IT_number 9
_symmetry_cell_setting 'monoclinic'
loop_
_space_group_symop_operation_xyz
x,y,z
x,-y,1/2+z
1/2+x,1/2+y,z
1/2+x,1/2-y,1/2+z
loop_
_atom_site_type_symbol
_atom_site_label
_atom_site_fract_x
_atom_site_fract_y
_atom_site_fract_z
Si Si1 0.668560 0.906285 0.626810
Si Si2 0.521961 0.684995 0.639168
Si Si3 0.012158 0.770945 0.602530
Si Si4 0.798452 0.906797 0.253313
Si Si5 0.454138 0.816060 0.751305
Si Si6 0.405619 0.778351 0.232587
Si Si7 0.237525 0.520071 0.945793
O O1 0.531680 0.843318 0.465663
O O2 0.629472 0.930095 0.403173
O O3 0.616424 0.969751 0.661145
O O4 0.883229 0.880869 0.970387
O O5 0.471129 0.755871 0.654424
O O6 0.479242 0.706346 0.412582
O O7 0.738773 0.662547 0.967766
O O8 0.921417 0.839082 0.394396
O O9 0.050261 0.714130 0.534834
O O10 0.881597 0.732446 0.526622
O O11 0.191848 0.792417 0.961611
O O12 0.844796 0.930254 0.486799
O O13 0.579797 0.886125 0.903731
O O14 0.858595 0.968901 0.229210
#
# Coordination Sequence:
#
# PCOD8055812 Si02
#       7
#     4   4   4   4   4   4   4
#     4  11  22  42  62  88 130 159 216 238 316 361
#     4  12  22  38  64  98 126 155 200 263 321 365
#     4  12  22  38  64  98 126 155 200 263 321 365
#     4  11  22  42  62  88 130 159 216 238 316 361
#     4  12  22  38  64  98 126 155 200 263 321 365
#     4  12  22  38  64  98 126 155 200 263 321 365
#     4  10  24  42  62  82 124 188 192 252 286 382
#
# _framework density 22.256238
#
# number of rings (size 3 to 8) (size 9 to 14) (size 15 to 20)
#    0.000    0.571    5.714    3.429    0.000    0.000 
#    0.000    8.571    0.000    0.000    0.000    0.000 
#    0.000    0.000    0.000    0.000    0.000    0.000 
#
# Total GULP energy -173435.809427 kJ/mol
# GULP energy per Si atom -12388.272102 kJ/mol
# Density = 2.220558 g / cm^3
# Si number density = 22.256238 Si / 1000 Ang^3
#
#
#
# Elastic Constant Matrix: (Units=GPa)
#
#
# Indices 1 2 3 4 5 6 
#
# 1 67.8378 8.5850 22.0952 0.0000 -25.2949 0.0000
# 2 8.5850 71.2010 22.4702 0.0000 1.5234 0.0000
# 3 22.0952 22.4702 114.7213 0.0000 21.9521 0.0000
# 4 0.0000 0.0000 0.0000 21.0858 0.0000 -18.9970
# 5 -25.2949 1.5234 21.9521 0.0000 45.1581 0.0000
# 6 0.0000 0.0000 0.0000 -18.9970 0.0000 34.7987
#
#
#
# Elastic Compliance Matrix: (Units=1/GPa)
#
#
# Indices 1 2 3 4 5 6 
#
# 1 0.023682 -0.000802 -0.007660 0.000000 0.017016 0.000000
# 2 -0.000802 0.015040 -0.002876 0.000000 0.000441 0.000000
# 3 -0.007660 -0.002876 0.012743 0.000000 -0.010389 0.000000
# 4 0.000000 0.000000 0.000000 0.093326 0.000000 0.050948
# 5 0.017016 0.000441 -0.010389 0.000000 0.036711 0.000000
# 6 0.000000 0.000000 0.000000 0.050948 0.000000 0.056550
#
#
# Mechanical properties :
#
#
# Convention : Reuss Voigt Hill
#
# Bulk Modulus (GPa) = 34.73523 40.00676 37.37099
# Shear Modulus (GPa) = 18.49628 33.58250 26.03939
#
# Velocity S-wave (km/s) = 2.88594 3.88867 3.42421
# Velocity P-wave (km/s) = 5.17163 6.17875 5.69748
#
# Compressibility (1/GPa) = 0.02878921
#
# Stress axis : x y z
#
# Youngs Moduli (GPa) = 42.22529 66.49127 78.47294
#
# Poissons Ratio (x) = 0.05333 0.60112
# Poissons Ratio (y) = 0.03387 0.22567
# Poissons Ratio (z) = 0.32346 0.19121
#
# Static dielectric constant tensor:
#      x y z
#    x 4.203390 0.000000 -0.197670 
#    y 0.000000 4.075880 0.000000 
#    z -0.197670 0.000000 3.771310 
# 
# 
# High freq. dielectric constant tensor:
#      x y z
#    x 1.889570 0.000000 -0.026390 
#    y 0.000000 1.872400 0.000000 
#    z -0.026390 0.000000 1.856960 
# 
# From -- ./inp_files/5544.got.cif
#   From: 2010.06.25/outbox.cif.g09.slc.cpg/sg9_3_cif.got.tgz:5544.got - 2010.06.27 21:40:51.
