data_PCOD8055502
_publ_section_title
;
Structure prediction by ZEFSAII (Michael W. Deem and Ramdas Pophale) SiO2 
 PCOD8055502
Probable space group: C C
;
_chemical_formula_sum "Si O2"
_cell_formula_units_Z 24
_cell_length_a 11.538282
_cell_length_b 10.275876
_cell_length_c 17.128029
_cell_angle_alpha 90.000000
_cell_angle_beta 32.719274
_cell_angle_gamma 90.000000
_cell_volume 1097.695463
_symmetry_space_group_name_H-M "C C"
_symmetry_group_IT_number 9
_symmetry_cell_setting 'monoclinic'
loop_
_space_group_symop_operation_xyz
x,y,z
x,-y,1/2+z
1/2+x,1/2+y,z
1/2+x,1/2-y,1/2+z
loop_
_atom_site_type_symbol
_atom_site_label
_atom_site_fract_x
_atom_site_fract_y
_atom_site_fract_z
Si Si1 0.963050 0.748859 0.270440
Si Si2 0.703178 0.345928 0.648856
Si Si3 0.260801 0.734208 0.443727
Si Si4 0.320098 0.896739 0.148327
Si Si5 0.777182 0.510450 0.842197
Si Si6 0.519952 0.312835 0.069758
O O1 0.970777 0.594788 0.242824
O O2 0.733410 0.778145 0.441188
O O3 0.157971 0.780679 0.217782
O O4 0.975526 0.837847 0.185963
O O5 0.718925 0.278390 0.555747
O O6 0.812507 0.489698 0.586395
O O7 0.816561 0.254943 0.647630
O O8 0.460036 0.363779 0.818717
O O9 0.337010 0.857591 0.350848
O O10 0.054347 0.664566 0.524063
O O11 0.237916 0.963656 0.273795
O O12 0.560319 0.450965 0.003651
#
# Coordination Sequence:
#
# PCOD8055502 Si02
#       6
#     4   4   4   4   4   4
#     4  10  24  43  75 104 144 189 242 286 367 423
#     4  12  25  47  73 104 149 187 240 302 349 437
#     4  12  27  46  72 111 141 192 246 289 366 424
#     4  12  26  46  74 106 145 189 237 301 355 426
#     4  10  24  47  68 111 142 186 240 293 357 426
#     4  10  22  47  72 106 139 195 235 289 370 414
#
# _framework density 21.863987000000002
#
# number of rings (size 3 to 8) (size 9 to 14) (size 15 to 20)
#    1.000    0.000    3.333    3.000    4.667    1.333 
#    3.000    0.000    0.000    0.000    0.000    0.000 
#    0.000    0.000    0.000    0.000    0.000    0.000 
#
# Total GULP energy -148762.778369 kJ/mol
# GULP energy per Si atom -12396.898197 kJ/mol
# Density = 2.181422 g / cm^3
# Si number density = 21.863987 Si / 1000 Ang^3
#
#
#
# Elastic Constant Matrix: (Units=GPa)
#
#
# Indices 1 2 3 4 5 6 
#
# 1 122.0094 49.3723 48.0103 -0.0007 -22.5890 0.0000
# 2 49.3723 97.2844 18.4362 -0.0015 -8.2666 0.0002
# 3 48.0103 18.4362 96.7908 -0.0077 -9.1491 0.0013
# 4 -0.0007 -0.0015 -0.0077 36.5649 0.0011 -0.7114
# 5 -22.5890 -8.2666 -9.1491 0.0011 39.4565 -0.0001
# 6 0.0000 0.0002 0.0013 -0.7114 -0.0001 44.7343
#
#
#
# Elastic Compliance Matrix: (Units=1/GPa)
#
#
# Indices 1 2 3 4 5 6 
#
# 1 0.013362 -0.005360 -0.005102 -0.000001 0.005344 0.000000
# 2 -0.005360 0.012941 0.000164 0.000000 -0.000320 0.000000
# 3 -0.005102 0.000164 0.012840 0.000003 0.000091 0.000000
# 4 -0.000001 0.000000 0.000003 0.027357 -0.000001 0.000435
# 5 0.005344 -0.000320 0.000091 -0.000001 0.028358 0.000000
# 6 0.000000 0.000000 0.000000 0.000435 0.000000 0.022361
#
#
# Mechanical properties :
#
#
# Convention : Reuss Voigt Hill
#
# Bulk Modulus (GPa) = 53.91984 60.85802 57.38893
# Shear Modulus (GPa) = 34.72267 37.50220 36.11243
#
# Velocity S-wave (km/s) = 3.98945 4.14605 4.06850
# Velocity P-wave (km/s) = 6.77761 7.12846 6.95524
#
# Compressibility (1/GPa) = 0.01854605
#
# Stress axis : x y z
#
# Youngs Moduli (GPa) = 74.83835 77.27127 77.88447
#
# Poissons Ratio (x) = 0.41421 0.39735
# Poissons Ratio (y) = 0.40117 -0.01275
# Poissons Ratio (z) = 0.38181 -0.01265
#
# Static dielectric constant tensor:
#      x y z
#    x 3.977980 0.000000 0.115940 
#    y 0.000000 3.909830 0.000000 
#    z 0.115940 0.000000 3.852450 
# 
# 
# High freq. dielectric constant tensor:
#      x y z
#    x 1.865730 0.000000 0.006290 
#    y 0.000000 1.854660 0.000000 
#    z 0.006290 0.000000 1.855250 
# 
# From -- ./inp_files/10581.got.cif
#   From: 2010.06.25/outbox.cif.g09.slc.cpg/sg9_6_cif.got.tgz:10581.got - 2010.06.27 21:40:51.
