data_PCOD8055811
_publ_section_title
;
Structure prediction by ZEFSAII (Michael W. Deem and Ramdas Pophale) SiO2 
 PCOD8055811
Probable space group: C C
;
_chemical_formula_sum "Si O2"
_cell_formula_units_Z 28
_cell_length_a 10.842294
_cell_length_b 20.731208
_cell_length_c 8.845076
_cell_angle_alpha 90.000000
_cell_angle_beta 41.799238
_cell_angle_gamma 90.000000
_cell_volume 1325.141357
_symmetry_space_group_name_H-M "C C"
_symmetry_group_IT_number 9
_symmetry_cell_setting 'monoclinic'
loop_
_space_group_symop_operation_xyz
x,y,z
x,-y,1/2+z
1/2+x,1/2+y,z
1/2+x,1/2-y,1/2+z
loop_
_atom_site_type_symbol
_atom_site_label
_atom_site_fract_x
_atom_site_fract_y
_atom_site_fract_z
Si Si1 0.600880 0.309324 0.241740
Si Si2 0.001835 0.915856 0.768557
Si Si3 0.353936 0.915846 0.915229
Si Si4 0.185844 0.667468 0.157252
Si Si5 0.177950 0.007947 0.841821
Si Si6 0.169648 0.667420 0.527144
Si Si7 0.754973 0.309285 0.442418
O O1 0.396996 0.339466 0.412735
O O2 0.600477 0.235984 0.181840
O O3 0.678275 0.311051 0.341653
O O4 0.727111 0.352286 0.017128
O O5 0.040551 0.964980 0.867757
O O6 0.128257 0.852204 0.667192
O O7 0.789305 0.892654 0.980510
O O8 0.044887 0.948337 0.566888
O O9 0.566376 0.892552 0.703165
O O10 0.315255 0.964953 0.815961
O O11 0.311143 0.948395 0.116634
O O12 0.176889 0.664757 0.342952
O O13 0.255429 0.735902 0.501972
O O14 0.958770 0.660553 0.772270
#
# Coordination Sequence:
#
# PCOD8055811 Si02
#       7
#     4   4   4   4   4   4   4
#     4  11  18  33  62  94 118 146 194 251 295 342
#     4  11  21  42  60  88 120 154 202 237 294 351
#     4  11  21  42  60  88 120 154 202 237 294 351
#     4  11  18  32  62  96 116 148 195 249 299 341
#     4  10  24  42  62  78 126 168 190 244 276 356
#     4  11  18  32  62  96 116 148 195 249 299 341
#     4  11  18  33  62  94 118 146 194 251 295 342
#
# _framework density 21.129819999999999
#
# number of rings (size 3 to 8) (size 9 to 14) (size 15 to 20)
#    0.000    1.143    7.143    1.714    0.000    0.000 
#    0.000   18.571    0.000    0.000    0.000    0.000 
#    0.000    0.000    0.000    0.000    0.000    0.000 
#
# Total GULP energy -173590.605461 kJ/mol
# GULP energy per Si atom -12399.328961 kJ/mol
# Density = 2.108173 g / cm^3
# Si number density = 21.129820 Si / 1000 Ang^3
#
#
#
# Elastic Constant Matrix: (Units=GPa)
#
#
# Indices 1 2 3 4 5 6 
#
# 1 91.3848 58.7777 52.6920 0.0000 -30.4360 0.0000
# 2 58.7777 119.0222 20.9061 0.0000 -8.7519 0.0000
# 3 52.6920 20.9061 56.9218 0.0000 -26.9092 0.0000
# 4 0.0000 0.0000 0.0000 7.6783 0.0000 -13.6475
# 5 -30.4360 -8.7519 -26.9092 0.0000 44.2849 0.0000
# 6 0.0000 0.0000 0.0000 -13.6475 0.0000 40.8750
#
#
#
# Elastic Compliance Matrix: (Units=1/GPa)
#
#
# Indices 1 2 3 4 5 6 
#
# 1 0.036317 -0.012929 -0.025645 0.000000 0.006822 0.000000
# 2 -0.012929 0.013587 0.005678 0.000000 -0.002751 0.000000
# 3 -0.025645 0.005678 0.044084 0.000000 0.010284 0.000000
# 4 0.000000 0.000000 0.000000 0.320349 0.000000 0.106960
# 5 0.006822 -0.002751 0.010284 0.000000 0.032975 0.000000
# 6 0.000000 0.000000 0.000000 0.106960 0.000000 0.060177
#
#
# Mechanical properties :
#
#
# Convention : Reuss Voigt Hill
#
# Bulk Modulus (GPa) = 35.46693 59.12003 47.29348
# Shear Modulus (GPa) = 8.58103 27.56451 18.07277
#
# Velocity S-wave (km/s) = 2.01740 3.61575 2.92776
# Velocity P-wave (km/s) = 4.71680 6.74327 5.81893
#
# Compressibility (1/GPa) = 0.02819528
#
# Stress axis : x y z
#
# Youngs Moduli (GPa) = 27.53506 73.59985 22.68407
#
# Poissons Ratio (x) = 0.95155 0.58174
# Poissons Ratio (y) = 0.35599 -0.12879
# Poissons Ratio (z) = 0.70614 -0.41786
#
# Static dielectric constant tensor:
#      x y z
#    x 2.599640 0.000000 0.481240 
#    y 0.000000 4.321620 0.000000 
#    z 0.481240 0.000000 3.087880 
# 
# 
# High freq. dielectric constant tensor:
#      x y z
#    x 1.802530 0.000000 -0.027910 
#    y 0.000000 1.845870 0.000000 
#    z -0.027910 0.000000 1.805450 
# 
# From -- ./inp_files/6122.got.cif
#   From: 2010.06.25/outbox.cif.g09.slc.cpg/sg9_4_cif.got.tgz:6122.got - 2010.06.27 21:40:51.
