data_PCOD8055567
_publ_section_title
;
Structure prediction by ZEFSAII (Michael W. Deem and Ramdas Pophale) SiO2 
 PCOD8055567
Probable space group: C C
;
_chemical_formula_sum "Si O2"
_cell_formula_units_Z 32
_cell_length_a 6.737466
_cell_length_b 29.144769
_cell_length_c 7.708138
_cell_angle_alpha 90.000000
_cell_angle_beta 75.903794
_cell_angle_gamma 90.000000
_cell_volume 1468.007709
_symmetry_space_group_name_H-M "C C"
_symmetry_group_IT_number 9
_symmetry_cell_setting 'monoclinic'
loop_
_space_group_symop_operation_xyz
x,y,z
x,-y,1/2+z
1/2+x,1/2+y,z
1/2+x,1/2-y,1/2+z
loop_
_atom_site_type_symbol
_atom_site_label
_atom_site_fract_x
_atom_site_fract_y
_atom_site_fract_z
Si Si1 0.266430 0.305865 0.234160
Si Si2 0.528930 0.927241 0.748055
Si Si3 0.644221 0.630801 0.695586
Si Si4 0.966325 0.710441 0.120625
Si Si5 0.261844 0.124625 0.047857
Si Si6 0.030018 0.662053 0.444731
Si Si7 0.134178 0.961477 0.010846
Si Si8 0.960388 0.949672 0.699926
O O1 0.429676 0.343479 0.262319
O O2 0.127237 0.294742 0.429724
O O3 0.381787 0.261331 0.140234
O O4 0.139268 0.324599 0.098974
O O5 0.447029 0.906387 0.584483
O O6 0.607224 0.887275 0.861461
O O7 0.733401 0.956882 0.669486
O O8 0.356850 0.958541 0.873850
O O9 0.603156 0.577632 0.661142
O O10 0.783676 0.656551 0.523217
O O11 0.781767 0.631096 0.839142
O O12 0.069683 0.700065 0.286405
O O13 0.778757 0.674690 0.133084
O O14 0.044892 0.100954 0.134939
O O15 0.114397 0.011629 0.096060
O O16 0.955484 0.954103 0.908243
#
# Coordination Sequence:
#
# PCOD8055567 Si02
#       8
#     4   4   4   4   4   4   4   4
#     4  12  26  44  69 100 135 185 232 285 357 413
#     4   9  22  42  66  97 137 181 225 287 348 406
#     4  11  23  45  69  98 140 179 232 291 345 415
#     4  11  26  45  66 102 137 181 234 288 349 417
#     4  10  23  42  66  97 136 174 235 282 340 420
#     4  10  23  45  66  97 137 178 230 285 342 413
#     4  10  23  42  62 101 135 175 238 284 342 424
#     4  11  22  41  66  98 135 185 226 288 353 410
#
# _framework density 21.798252999999999
#
# number of rings (size 3 to 8) (size 9 to 14) (size 15 to 20)
#    0.000    1.500    1.250    3.000    5.250    4.000 
#    2.250    0.000    0.000    0.000    0.000    0.000 
#    0.000    0.000    0.000    0.000    0.000    0.000 
#
# Total GULP energy -198385.886479 kJ/mol
# GULP energy per Si atom -12399.117905 kJ/mol
# Density = 2.174864 g / cm^3
# Si number density = 21.798253 Si / 1000 Ang^3
#
#
#
# Elastic Constant Matrix: (Units=GPa)
#
#
# Indices 1 2 3 4 5 6 
#
# 1 124.3943 45.7042 47.8342 0.0000 0.2555 0.0000
# 2 45.7042 92.3742 33.6121 0.0000 -12.4068 0.0000
# 3 47.8342 33.6121 116.2859 0.0000 10.4800 0.0000
# 4 0.0000 0.0000 0.0000 31.7675 0.0000 -1.2301
# 5 0.2555 -12.4068 10.4800 0.0000 37.4254 0.0000
# 6 0.0000 0.0000 0.0000 -1.2301 0.0000 26.2484
#
#
#
# Elastic Compliance Matrix: (Units=1/GPa)
#
#
# Indices 1 2 3 4 5 6 
#
# 1 0.010832 -0.004292 -0.003160 0.000000 -0.000612 0.000000
# 2 -0.004292 0.014836 -0.003046 0.000000 0.005801 0.000000
# 3 -0.003160 -0.003046 0.011150 0.000000 -0.004110 0.000000
# 4 0.000000 0.000000 0.000000 0.031536 0.000000 0.001478
# 5 -0.000612 0.005801 -0.004110 0.000000 0.029798 0.000000
# 6 0.000000 0.000000 0.000000 0.001478 0.000000 0.038167
#
#
# Mechanical properties :
#
#
# Convention : Reuss Voigt Hill
#
# Bulk Modulus (GPa) = 63.19747 65.26173 64.22960
# Shear Modulus (GPa) = 30.75229 32.81517 31.78373
#
# Velocity S-wave (km/s) = 3.76009 3.88416 3.82263
# Velocity P-wave (km/s) = 6.92142 7.07952 7.00091
#
# Compressibility (1/GPa) = 0.01582342
#
# Stress axis : x y z
#
# Youngs Moduli (GPa) = 92.31659 67.40214 89.68412
#
# Poissons Ratio (x) = 0.28928 0.28342
# Poissons Ratio (y) = 0.39620 0.27315
# Poissons Ratio (z) = 0.29174 0.20529
#
# Static dielectric constant tensor:
#      x y z
#    x 3.805860 0.000000 0.146460 
#    y 0.000000 3.940450 0.000000 
#    z 0.146460 0.000000 4.022870 
# 
# 
# High freq. dielectric constant tensor:
#      x y z
#    x 1.852780 0.000000 0.012260 
#    y 0.000000 1.855960 0.000000 
#    z 0.012260 0.000000 1.863930 
# 
# From -- ./inp_files/4476.got.cif
#   From: 2010.06.25/outbox.cif.g09.slc.cpg/sg9_3_cif.got.tgz:4476.got - 2010.06.27 21:40:51.
