data_PCOD8055670
_publ_section_title
;
Structure prediction by ZEFSAII (Michael W. Deem and Ramdas Pophale) SiO2 
 PCOD8055670
Probable space group: C C
;
_chemical_formula_sum "Si O2"
_cell_formula_units_Z 32
_cell_length_a 8.874181
_cell_length_b 17.270005
_cell_length_c 13.259602
_cell_angle_alpha 90.000000
_cell_angle_beta 47.220900
_cell_angle_gamma 90.000000
_cell_volume 1491.537149
_symmetry_space_group_name_H-M "C C"
_symmetry_group_IT_number 9
_symmetry_cell_setting 'monoclinic'
loop_
_space_group_symop_operation_xyz
x,y,z
x,-y,1/2+z
1/2+x,1/2+y,z
1/2+x,1/2-y,1/2+z
loop_
_atom_site_type_symbol
_atom_site_label
_atom_site_fract_x
_atom_site_fract_y
_atom_site_fract_z
Si Si1 0.566900 0.787257 0.168170
Si Si2 0.074210 0.460892 0.786109
Si Si3 0.380642 0.585953 0.994376
Si Si4 0.293664 0.255370 0.624284
Si Si5 0.352085 0.056952 0.739487
Si Si6 0.876276 0.701207 0.383388
Si Si7 0.501335 0.221031 0.935200
Si Si8 0.047681 0.451849 0.493994
O O1 0.453213 0.727830 0.143431
O O2 0.486229 0.866864 0.152652
O O3 0.504923 0.778939 0.312480
O O4 0.808629 0.773741 0.053570
O O5 0.938716 0.530711 0.806698
O O6 0.949730 0.383225 0.814486
O O7 0.300292 0.459284 0.631120
O O8 0.098833 0.481477 0.890644
O O9 0.314077 0.674254 0.036616
O O10 0.263584 0.553953 0.951101
O O11 0.618012 0.577495 0.864281
O O12 0.330716 0.188162 0.524009
O O13 0.070203 0.242233 0.774544
O O14 0.375089 0.988457 0.646289
O O15 0.691488 0.733778 0.398957
O O16 0.477701 0.132580 0.984937
#
# Coordination Sequence:
#
# PCOD8055670 Si02
#       8
#     4   4   4   4   4   4   4   4
#     4  12  26  44  71 102 145 185 237 293 355 417
#     4  10  24  43  66 100 138 177 230 289 352 417
#     4  10  23  44  70  98 136 183 232 286 342 428
#     4  11  22  42  69 101 133 185 235 289 343 423
#     4  11  24  45  66 100 139 181 234 284 353 419
#     4  11  23  43  70  99 139 184 238 284 357 423
#     4  12  26  46  71 106 142 184 239 298 351 422
#     4  11  24  47  69 104 140 179 235 293 347 417
#
# _framework density 21.454377000000001
#
# number of rings (size 3 to 8) (size 9 to 14) (size 15 to 20)
#    0.000    1.000    2.500    3.750    3.500    4.000 
#    6.750    0.000    0.000    0.000    0.000    0.000 
#    0.000    0.000    0.000    0.000    0.000    0.000 
#
# Total GULP energy -198255.993983 kJ/mol
# GULP energy per Si atom -12390.999624 kJ/mol
# Density = 2.140555 g / cm^3
# Si number density = 21.454377 Si / 1000 Ang^3
#
#
#
# Elastic Constant Matrix: (Units=GPa)
#
#
# Indices 1 2 3 4 5 6 
#
# 1 105.7808 29.1500 67.1736 -0.0002 1.9149 0.0000
# 2 29.1500 81.9239 51.1110 0.0000 -7.9741 0.0000
# 3 67.1736 51.1110 134.6564 -0.0002 -10.9052 0.0002
# 4 -0.0002 0.0000 -0.0002 43.1880 0.0001 10.8974
# 5 1.9149 -7.9741 -10.9052 0.0001 49.2305 -0.0001
# 6 0.0000 0.0000 0.0002 10.8974 -0.0001 42.0503
#
#
#
# Elastic Compliance Matrix: (Units=1/GPa)
#
#
# Indices 1 2 3 4 5 6 
#
# 1 0.014112 -0.000961 -0.006855 0.000000 -0.002223 0.000000
# 2 -0.000961 0.016137 -0.005530 0.000000 0.001426 0.000000
# 3 -0.006855 -0.005530 0.013130 0.000000 0.002279 0.000000
# 4 0.000000 0.000000 0.000000 0.024775 0.000000 -0.006420
# 5 -0.002223 0.001426 0.002279 0.000000 0.021135 0.000000
# 6 0.000000 0.000000 0.000000 -0.006420 0.000000 0.025445
#
#
# Mechanical properties :
#
#
# Convention : Reuss Voigt Hill
#
# Bulk Modulus (GPa) = 59.92927 68.58113 64.25520
# Shear Modulus (GPa) = 34.01647 38.55554 36.28600
#
# Velocity S-wave (km/s) = 3.98619 4.24381 4.11702
# Velocity P-wave (km/s) = 7.01286 7.48657 7.25358
#
# Compressibility (1/GPa) = 0.01668634
#
# Stress axis : x y z
#
# Youngs Moduli (GPa) = 70.86375 61.96752 76.16360
#
# Poissons Ratio (x) = 0.05954 0.52209
# Poissons Ratio (y) = 0.06809 0.42122
# Poissons Ratio (z) = 0.48576 0.34271
#
# Static dielectric constant tensor:
#      x y z
#    x 3.902090 0.000000 0.152900 
#    y 0.000000 3.917940 0.000000 
#    z 0.152900 0.000000 4.058970 
# 
# 
# High freq. dielectric constant tensor:
#      x y z
#    x 1.849850 0.000000 0.014370 
#    y 0.000000 1.843360 0.000000 
#    z 0.014370 0.000000 1.852480 
# 
# From -- ./inp_files/23744.got.cif
#   From: 2010.06.25/outbox.cif.g09.slc.cpg/sg9_12_cif.got.tgz:23744.got - 2010.06.27 21:40:51.
