data_PCOD8055188
_publ_section_title
;
Structure prediction by ZEFSAII (Michael W. Deem and Ramdas Pophale) SiO2 
 PCOD8055188
Probable space group: C C
;
_chemical_formula_sum "Si O2"
_cell_formula_units_Z 32
_cell_length_a 16.060487
_cell_length_b 12.303094
_cell_length_c 13.597549
_cell_angle_alpha 90.000000
_cell_angle_beta 33.063589
_cell_angle_gamma 90.000000
_cell_volume 1465.830514
_symmetry_space_group_name_H-M "C C"
_symmetry_group_IT_number 9
_symmetry_cell_setting 'monoclinic'
loop_
_space_group_symop_operation_xyz
x,y,z
x,-y,1/2+z
1/2+x,1/2+y,z
1/2+x,1/2-y,1/2+z
loop_
_atom_site_type_symbol
_atom_site_label
_atom_site_fract_x
_atom_site_fract_y
_atom_site_fract_z
Si Si1 0.517330 0.503305 0.121630
Si Si2 0.538743 0.116565 0.701045
Si Si3 0.464343 0.501754 0.899829
Si Si4 0.289281 0.625170 0.219797
Si Si5 0.544529 0.978820 0.516281
Si Si6 0.741072 0.701873 0.908070
Si Si7 0.213409 0.905756 0.776108
Si Si8 0.212930 0.660616 0.714498
O O1 0.480252 0.474567 0.269672
O O2 0.361244 0.536231 0.223908
O O3 0.626542 0.606389 0.999963
O O4 0.600429 0.402188 0.983819
O O5 0.665806 0.197041 0.535038
O O6 0.371305 0.164813 0.853531
O O7 0.577336 0.111985 0.778360
O O8 0.546356 0.002612 0.632775
O O9 0.633990 0.486989 0.775997
O O10 0.376441 0.607830 0.029984
O O11 0.371406 0.391452 0.019444
O O12 0.111075 0.587015 0.393857
O O13 0.307071 0.749838 0.239097
O O14 0.372826 0.957188 0.651182
O O15 0.657054 0.878889 0.377701
O O16 0.233019 0.789613 0.703455
#
# Coordination Sequence:
#
# PCOD8055188 Si02
#       8
#     4   4   4   4   4   4   4   4
#     4  11  21  38  62  93 129 168 213 274 330 382
#     4  11  23  37  66  97 128 170 220 274 321 389
#     4  10  22  39  60  88 127 175 213 265 328 396
#     4   9  21  39  58  87 128 174 211 266 328 389
#     4  10  22  40  60  93 133 169 213 274 327 381
#     4  11  20  35  62  95 126 163 219 270 317 381
#     4  11  23  36  63  96 133 167 220 272 325 389
#     4  11  24  40  65  95 130 174 219 267 326 393
#
# _framework density 21.830628000000001
#
# number of rings (size 3 to 8) (size 9 to 14) (size 15 to 20)
#    0.000    1.500    2.500    3.000    5.250    0.000 
#    0.000    0.000    2.750    9.000    0.000    0.000 
#    0.000    0.000    0.000    0.000    0.000    0.000 
#
# Total GULP energy -198245.371905 kJ/mol
# GULP energy per Si atom -12390.335744 kJ/mol
# Density = 2.178094 g / cm^3
# Si number density = 21.830628 Si / 1000 Ang^3
#
#
#
# Elastic Constant Matrix: (Units=GPa)
#
#
# Indices 1 2 3 4 5 6 
#
# 1 110.9819 29.8016 43.5245 0.0000 7.3170 0.0000
# 2 29.8016 45.0232 14.5049 0.0001 4.2338 -0.0001
# 3 43.5245 14.5049 82.3675 0.0001 9.7229 -0.0001
# 4 0.0000 0.0001 0.0001 33.5422 -0.0001 -1.7857
# 5 7.3170 4.2338 9.7229 -0.0001 46.6742 0.0001
# 6 0.0000 -0.0001 -0.0001 -1.7857 0.0001 25.5220
#
#
#
# Elastic Compliance Matrix: (Units=1/GPa)
#
#
# Indices 1 2 3 4 5 6 
#
# 1 0.013084 -0.006805 -0.005686 0.000000 -0.000249 0.000000
# 2 -0.006805 0.027164 -0.001048 0.000000 -0.001179 0.000000
# 3 -0.005686 -0.001048 0.015597 0.000000 -0.002263 0.000000
# 4 0.000000 0.000000 0.000000 0.029925 0.000000 0.002094
# 5 -0.000249 -0.001179 -0.002263 0.000000 0.022042 0.000000
# 6 0.000000 0.000000 0.000000 0.002094 0.000000 0.039328
#
#
# Mechanical properties :
#
#
# Convention : Reuss Voigt Hill
#
# Bulk Modulus (GPa) = 34.76370 46.00383 40.38376
# Shear Modulus (GPa) = 27.20215 31.18379 29.19297
#
# Velocity S-wave (km/s) = 3.53378 3.78357 3.66081
# Velocity P-wave (km/s) = 5.71043 6.34082 6.03386
#
# Compressibility (1/GPa) = 0.02876564
#
# Stress axis : x y z
#
# Youngs Moduli (GPa) = 76.42741 36.81351 64.11471
#
# Poissons Ratio (x) = 0.25053 0.36456
# Poissons Ratio (y) = 0.52012 0.06721
# Poissons Ratio (z) = 0.43458 0.03859
#
# Static dielectric constant tensor:
#      x y z
#    x 4.238460 0.000000 0.029610 
#    y 0.000000 3.896970 0.000000 
#    z 0.029610 0.000000 4.272570 
# 
# 
# High freq. dielectric constant tensor:
#      x y z
#    x 1.855070 0.000000 -0.014110 
#    y 0.000000 1.821450 0.000000 
#    z -0.014110 0.000000 1.877010 
# 
# From -- ./inp_files/9688.got.cif
#   From: 2010.06.25/outbox.cif.g09.slc.cpg/sg9_5_cif.got.tgz:9688.got - 2010.06.27 21:40:51.
