data_PCOD8055671
_publ_section_title
;
Structure prediction by ZEFSAII (Michael W. Deem and Ramdas Pophale) SiO2 
 PCOD8055671
Probable space group: C C
;
_chemical_formula_sum "Si O2"
_cell_formula_units_Z 32
_cell_length_a 18.768779
_cell_length_b 10.219858
_cell_length_c 13.404723
_cell_angle_alpha 90.000000
_cell_angle_beta 146.213101
_cell_angle_gamma 90.000000
_cell_volume 1429.868136
_symmetry_space_group_name_H-M "C C"
_symmetry_group_IT_number 9
_symmetry_cell_setting 'monoclinic'
loop_
_space_group_symop_operation_xyz
x,y,z
x,-y,1/2+z
1/2+x,1/2+y,z
1/2+x,1/2-y,1/2+z
loop_
_atom_site_type_symbol
_atom_site_label
_atom_site_fract_x
_atom_site_fract_y
_atom_site_fract_z
Si Si1 0.033940 0.256626 0.469020
Si Si2 0.032309 0.448336 0.298345
Si Si3 0.895558 0.025800 0.199554
Si Si4 0.705133 0.145712 0.830302
Si Si5 0.783610 0.615006 0.762523
Si Si6 0.258839 0.939690 0.913257
Si Si7 0.657819 0.425533 0.468061
Si Si8 0.690724 0.857907 0.078428
O O1 0.088442 0.346102 0.443276
O O2 0.172092 0.212710 0.677795
O O3 0.955948 0.134199 0.339319
O O4 0.928307 0.326570 0.418646
O O5 0.091476 0.426284 0.257310
O O6 0.056970 0.594150 0.372685
O O7 0.883736 0.419638 0.124808
O O8 0.791231 0.951406 0.142016
O O9 0.838398 0.091841 0.032073
O O10 0.005183 0.920559 0.303682
O O11 0.695976 0.113940 0.702562
O O12 0.686500 0.301518 0.821050
O O13 0.726184 0.554055 0.594270
O O14 0.799216 0.491457 0.852830
O O15 0.175478 0.052616 0.870231
O O16 0.717065 0.292615 0.581534
#
# Coordination Sequence:
#
# PCOD8055671 Si02
#       8
#     4   4   4   4   4   4   4   4
#     4  11  22  47  70 101 143 176 238 285 343 412
#     4  11  25  43  72  98 135 182 225 289 343 407
#     4  10  23  44  71  97 133 185 222 287 347 402
#     4  11  23  46  71 101 131 183 238 274 338 427
#     4  11  24  43  73 102 135 186 228 286 345 410
#     4  12  25  43  72 100 132 186 228 276 345 414
#     4  11  24  44  66 102 142 171 226 288 345 405
#     4  11  26  44  69 103 139 175 227 291 346 407
#
# _framework density 22.379688000000002
#
# number of rings (size 3 to 8) (size 9 to 14) (size 15 to 20)
#    0.000    1.000    3.750    3.000    3.500    4.000 
#    6.750    0.000    0.000    0.000    0.000    0.000 
#    0.000    0.000    0.000    0.000    0.000    0.000 
#
# Total GULP energy -198271.636925 kJ/mol
# GULP energy per Si atom -12391.977308 kJ/mol
# Density = 2.232875 g / cm^3
# Si number density = 22.379688 Si / 1000 Ang^3
#
#
#
# Elastic Constant Matrix: (Units=GPa)
#
#
# Indices 1 2 3 4 5 6 
#
# 1 113.6592 46.6252 41.0049 0.0000 -14.5850 0.0000
# 2 46.6252 101.5743 24.4742 0.0000 -7.0249 0.0000
# 3 41.0049 24.4742 53.7757 0.0000 -7.4485 0.0000
# 4 0.0000 0.0000 0.0000 32.2452 0.0000 -7.8888
# 5 -14.5850 -7.0249 -7.4485 0.0000 33.7710 0.0000
# 6 0.0000 0.0000 0.0000 -7.8888 0.0000 36.6179
#
#
#
# Elastic Compliance Matrix: (Units=1/GPa)
#
#
# Indices 1 2 3 4 5 6 
#
# 1 0.013911 -0.004168 -0.008250 0.000000 0.003321 0.000000
# 2 -0.004168 0.012356 -0.002412 0.000000 0.000238 0.000000
# 3 -0.008250 -0.002412 0.026223 0.000000 0.001719 0.000000
# 4 0.000000 0.000000 0.000000 0.032738 0.000000 0.007053
# 5 0.003321 0.000238 0.001719 0.000000 0.031474 0.000000
# 6 0.000000 0.000000 0.000000 0.007053 0.000000 0.028829
#
#
# Mechanical properties :
#
#
# Convention : Reuss Voigt Hill
#
# Bulk Modulus (GPa) = 43.80515 54.80198 49.30356
# Shear Modulus (GPa) = 27.35236 30.98715 29.16976
#
# Velocity S-wave (km/s) = 3.49978 3.72507 3.61418
# Velocity P-wave (km/s) = 5.99562 6.56065 6.28449
#
# Compressibility (1/GPa) = 0.02282837
#
# Stress axis : x y z
#
# Youngs Moduli (GPa) = 71.88812 80.93345 38.13495
#
# Poissons Ratio (x) = 0.33731 0.31462
# Poissons Ratio (y) = 0.29961 0.09200
# Poissons Ratio (z) = 0.59309 0.19524
#
# Static dielectric constant tensor:
#      x y z
#    x 4.099730 0.000000 0.190840 
#    y 0.000000 4.112390 0.000000 
#    z 0.190840 0.000000 4.046330 
# 
# 
# High freq. dielectric constant tensor:
#      x y z
#    x 1.889530 0.000000 0.005820 
#    y 0.000000 1.883810 0.000000 
#    z 0.005820 0.000000 1.872950 
# 
# From -- ./inp_files/17979.got.cif
#   From: 2010.06.25/outbox.cif.g09.slc.cpg/sg9_9_cif.got.tgz:17979.got - 2010.06.27 21:40:51.
