data_PCOD8055689
_publ_section_title
;
Structure prediction by ZEFSAII (Michael W. Deem and Ramdas Pophale) SiO2 
 PCOD8055689
Probable space group: C C
;
_chemical_formula_sum "Si O2"
_cell_formula_units_Z 24
_cell_length_a 11.071044
_cell_length_b 10.958620
_cell_length_c 8.656974
_cell_angle_alpha 90.000000
_cell_angle_beta 94.703169
_cell_angle_gamma 90.000000
_cell_volume 1046.756718
_symmetry_space_group_name_H-M "C C"
_symmetry_group_IT_number 9
_symmetry_cell_setting 'monoclinic'
loop_
_space_group_symop_operation_xyz
x,y,z
x,-y,1/2+z
1/2+x,1/2+y,z
1/2+x,1/2-y,1/2+z
loop_
_atom_site_type_symbol
_atom_site_label
_atom_site_fract_x
_atom_site_fract_y
_atom_site_fract_z
Si Si1 0.105910 0.219925 0.758640
Si Si2 0.374768 0.770377 0.333169
Si Si3 0.897266 0.077665 0.590482
Si Si4 0.295206 0.366439 0.400509
Si Si5 0.980900 0.706138 0.532693
Si Si6 0.545938 0.926114 0.530716
O O1 0.246440 0.192652 0.743780
O O2 0.066194 0.354684 0.694211
O O3 0.032309 0.114502 0.659190
O O4 0.078441 0.219275 0.939507
O O5 0.354827 0.653196 0.436862
O O6 0.470511 0.742675 0.206071
O O7 0.421896 0.881600 0.440606
O O8 0.803806 0.096413 0.721871
O O9 0.885817 0.940678 0.526349
O O10 0.349143 0.228760 0.432044
O O11 0.157393 0.388578 0.432066
O O12 0.026477 0.567995 0.554526
#
# Coordination Sequence:
#
# PCOD8055689 Si02
#       6
#     4   4   4   4   4   4
#     4  10  23  45  64 103 142 181 246 289 359 432
#     4  11  23  44  68 103 144 185 242 299 357 434
#     4  10  24  42  71 100 138 190 237 295 359 424
#     4  11  23  43  70 104 140 187 242 291 357 434
#     4  11  23  41  70 102 137 185 238 294 355 430
#     4  11  24  41  71 102 141 190 235 296 359 422
#
# _framework density 22.927965
#
# number of rings (size 3 to 8) (size 9 to 14) (size 15 to 20)
#    0.000    1.333    1.667    3.000    7.000    0.000 
#    6.000    1.667    0.000    0.000    0.000    0.000 
#    0.000    0.000    0.000    0.000    0.000    0.000 
#
# Total GULP energy -148715.581574 kJ/mol
# GULP energy per Si atom -12392.965131 kJ/mol
# Density = 2.287578 g / cm^3
# Si number density = 22.927965 Si / 1000 Ang^3
#
#
#
# Elastic Constant Matrix: (Units=GPa)
#
#
# Indices 1 2 3 4 5 6 
#
# 1 120.1807 41.6802 31.9172 0.0000 4.3933 0.0000
# 2 41.6802 56.8693 5.2665 0.0000 4.7413 0.0000
# 3 31.9172 5.2665 128.6783 0.0000 -21.1699 0.0000
# 4 0.0000 0.0000 0.0000 24.4859 0.0000 -2.8749
# 5 4.3933 4.7413 -21.1699 0.0000 42.7790 0.0000
# 6 0.0000 0.0000 0.0000 -2.8749 0.0000 22.5093
#
#
#
# Elastic Compliance Matrix: (Units=1/GPa)
#
#
# Indices 1 2 3 4 5 6 
#
# 1 0.012097 -0.008446 -0.002945 0.000000 -0.001763 0.000000
# 2 -0.008446 0.023801 0.000903 0.000000 -0.001324 0.000000
# 3 -0.002945 0.000903 0.009251 0.000000 0.004780 0.000000
# 4 0.000000 0.000000 0.000000 0.041462 0.000000 0.005295
# 5 -0.001763 -0.001324 0.004780 0.000000 0.026069 0.000000
# 6 0.000000 0.000000 0.000000 0.005295 0.000000 0.045102
#
#
# Mechanical properties :
#
#
# Convention : Reuss Voigt Hill
#
# Bulk Modulus (GPa) = 41.36799 51.49511 46.43155
# Shear Modulus (GPa) = 26.76436 33.07912 29.92174
#
# Velocity S-wave (km/s) = 3.42032 3.80246 3.61644
# Velocity P-wave (km/s) = 5.80344 6.46425 6.14274
#
# Compressibility (1/GPa) = 0.02417328
#
# Stress axis : x y z
#
# Youngs Moduli (GPa) = 82.66848 42.01500 108.09326
#
# Poissons Ratio (x) = 0.35486 0.31832
# Poissons Ratio (y) = 0.69821 -0.09761
# Poissons Ratio (z) = 0.24345 -0.03794
#
# Static dielectric constant tensor:
#      x y z
#    x 4.058470 0.000000 -0.123070 
#    y 0.000000 4.031450 0.000000 
#    z -0.123070 0.000000 4.402600 
# 
# 
# High freq. dielectric constant tensor:
#      x y z
#    x 1.896470 0.000000 -0.009070 
#    y 0.000000 1.883590 0.000000 
#    z -0.009070 0.000000 1.929830 
# 
# From -- ./inp_files/6955.got.cif
#   From: 2010.06.25/outbox.cif.g09.slc.cpg/sg9_4_cif.got.tgz:6955.got - 2010.06.27 21:40:51.
