data_PCOD8055195
_publ_section_title
;
Structure prediction by ZEFSAII (Michael W. Deem and Ramdas Pophale) SiO2 
 PCOD8055195
Probable space group: C C
;
_chemical_formula_sum "Si O2"
_cell_formula_units_Z 28
_cell_length_a 17.017987
_cell_length_b 8.865831
_cell_length_c 15.674059
_cell_angle_alpha 90.000000
_cell_angle_beta 154.280147
_cell_angle_gamma 90.000000
_cell_volume 1026.290017
_symmetry_space_group_name_H-M "C C"
_symmetry_group_IT_number 9
_symmetry_cell_setting 'monoclinic'
loop_
_space_group_symop_operation_xyz
x,y,z
x,-y,1/2+z
1/2+x,1/2+y,z
1/2+x,1/2-y,1/2+z
loop_
_atom_site_type_symbol
_atom_site_label
_atom_site_fract_x
_atom_site_fract_y
_atom_site_fract_z
Si Si1 0.744980 0.144150 0.595360
Si Si2 0.483155 0.993579 0.109669
Si Si3 0.796598 0.221140 0.455829
Si Si4 0.030112 0.956802 0.657286
Si Si5 0.438280 0.927191 0.255879
Si Si6 0.731947 0.777856 0.265659
Si Si7 0.031742 0.101087 0.353084
O O1 0.782953 0.237859 0.546112
O O2 0.748782 0.253153 0.681357
O O3 0.547921 0.067697 0.400318
O O4 0.891538 0.014499 0.756990
O O5 0.641744 0.118356 0.266173
O O6 0.303224 0.105624 0.925032
O O7 0.476519 0.908682 0.192916
O O8 0.537029 0.867783 0.091119
O O9 0.991711 0.137624 0.625078
O O10 0.222791 0.885944 0.807886
O O11 0.998025 0.890852 0.719193
O O12 0.885321 0.886039 0.451108
O O13 0.500438 0.769203 0.359477
O O14 0.229256 0.956672 0.071611
#
# Coordination Sequence:
#
# PCOD8055195 Si02
#       7
#     4   4   4   4   4   4   4
#     4  10  24  43  61  99 139 173 219 285 336 399
#     4  10  22  39  64  95 127 171 226 273 326 396
#     4   9  22  40  62  91 130 171 227 264 327 404
#     4  10  22  41  68  95 128 183 221 274 330 410
#     4  11  21  39  71  99 131 184 232 275 332 413
#     4  11  23  43  66 100 139 166 226 286 340 399
#     4  11  20  41  72  97 132 180 237 271 327 411
#
# _framework density 27.282734999999999
#
# number of rings (size 3 to 8) (size 9 to 14) (size 15 to 20)
#    0.000    1.714    2.857    1.714    4.000    2.286 
#    7.714    0.000    0.000    0.000    0.000    0.000 
#    0.000    0.000    0.000    0.000    0.000    0.000 
#
# Total GULP energy -173573.921377 kJ/mol
# GULP energy per Si atom -12398.137241 kJ/mol
# Density = 2.722064 g / cm^3
# Si number density = 27.282735 Si / 1000 Ang^3
#
#
#
# Elastic Constant Matrix: (Units=GPa)
#
#
# Indices 1 2 3 4 5 6 
#
# 1 104.4585 37.5431 19.4318 -0.0002 -19.5251 -0.0001
# 2 37.5431 141.0854 -2.1671 0.0001 -13.6218 0.0000
# 3 19.4318 -2.1671 84.0852 0.0003 13.5443 0.0002
# 4 -0.0002 0.0001 0.0003 32.9431 -0.0001 2.5285
# 5 -19.5251 -13.6218 13.5443 -0.0001 31.4433 -0.0001
# 6 -0.0001 0.0000 0.0002 2.5285 -0.0001 30.9763
#
#
#
# Elastic Compliance Matrix: (Units=1/GPa)
#
#
# Indices 1 2 3 4 5 6 
#
# 1 0.013035 -0.002681 -0.004511 0.000000 0.008876 0.000000
# 2 -0.002681 0.007958 0.000578 0.000000 0.001534 0.000000
# 3 -0.004511 0.000578 0.014357 0.000000 -0.008735 0.000000
# 4 0.000000 0.000000 0.000000 0.030547 0.000000 -0.002493
# 5 0.008876 0.001534 -0.008735 0.000000 0.041742 0.000000
# 6 0.000000 0.000000 0.000000 -0.002493 0.000000 0.032486
#
#
# Mechanical properties :
#
#
# Convention : Reuss Voigt Hill
#
# Bulk Modulus (GPa) = 45.20519 48.80497 47.00508
# Shear Modulus (GPa) = 31.10828 37.39395 34.25112
#
# Velocity S-wave (km/s) = 3.38038 3.70619 3.54703
# Velocity P-wave (km/s) = 5.64279 6.02012 5.83451
#
# Compressibility (1/GPa) = 0.02212135
#
# Stress axis : x y z
#
# Youngs Moduli (GPa) = 76.71654 125.65484 69.65145
#
# Poissons Ratio (x) = 0.33687 0.31421
# Poissons Ratio (y) = 0.20567 -0.04023
# Poissons Ratio (z) = 0.34608 -0.07257
#
# Static dielectric constant tensor:
#      x y z
#    x 4.788380 0.000000 0.862110 
#    y 0.000000 5.510470 0.000000 
#    z 0.862110 0.000000 5.707200 
# 
# 
# High freq. dielectric constant tensor:
#      x y z
#    x 2.052760 0.000000 0.041570 
#    y 0.000000 2.135520 0.000000 
#    z 0.041570 0.000000 2.133950 
# 
# From -- ./inp_files/11295.got.cif
#   From: 2010.06.25/outbox.cif.g09.slc.cpg/sg9_6_cif.got.tgz:11295.got - 2010.06.27 21:40:51.
