data_PCOD8055268
_publ_section_title
;
Structure prediction by ZEFSAII (Michael W. Deem and Ramdas Pophale) SiO2 
 PCOD8055268
Probable space group: C C
;
_chemical_formula_sum "Si O2"
_cell_formula_units_Z 32
_cell_length_a 9.011233
_cell_length_b 12.034636
_cell_length_c 27.589454
_cell_angle_alpha 90.000000
_cell_angle_beta 149.862761
_cell_angle_gamma 90.000000
_cell_volume 1502.197694
_symmetry_space_group_name_H-M "C C"
_symmetry_group_IT_number 9
_symmetry_cell_setting 'monoclinic'
loop_
_space_group_symop_operation_xyz
x,y,z
x,-y,1/2+z
1/2+x,1/2+y,z
1/2+x,1/2-y,1/2+z
loop_
_atom_site_type_symbol
_atom_site_label
_atom_site_fract_x
_atom_site_fract_y
_atom_site_fract_z
Si Si1 0.247400 0.221550 0.204290
Si Si2 0.968662 0.351639 0.037718
Si Si3 0.444329 0.975220 0.414322
Si Si4 0.895720 0.989010 0.616554
Si Si5 0.306569 0.573883 0.358125
Si Si6 0.865880 0.719831 0.403469
Si Si7 0.957315 0.404963 0.313088
Si Si8 0.489343 0.628273 0.852996
O O1 0.562341 0.167564 0.278628
O O2 0.281609 0.312365 0.255461
O O3 0.118224 0.275476 0.119700
O O4 0.015807 0.133863 0.161526
O O5 0.135848 0.470996 0.080157
O O6 0.627245 0.370700 0.955893
O O7 0.014947 0.290291 0.998756
O O8 0.401644 0.901272 0.354796
O O9 0.299342 0.905678 0.417117
O O10 0.781411 0.992954 0.528143
O O11 0.297480 0.096370 0.363815
O O12 0.167327 0.073571 0.699468
O O13 0.316133 0.484556 0.317387
O O14 0.205026 0.502172 0.376411
O O15 0.557948 0.784099 0.323783
O O16 0.056487 0.790936 0.418141
#
# Coordination Sequence:
#
# PCOD8055268 Si02
#       8
#     4   4   4   4   4   4   4   4
#     4  11  25  42  70  97 133 180 222 276 342 397
#     4  11  23  42  69 100 135 180 226 274 342 401
#     4  11  22  42  67  93 132 170 219 279 333 401
#     4  10  22  41  63  97 128 164 229 271 326 409
#     4  10  23  45  65  99 139 169 232 279 326 416
#     4  10  22  41  65  95 130 175 215 268 341 389
#     4  10  22  42  67  90 134 176 217 281 342 390
#     4  11  23  43  68  97 131 178 226 272 340 399
#
# _framework density 21.302125
#
# number of rings (size 3 to 8) (size 9 to 14) (size 15 to 20)
#    0.000    1.500    2.500    3.000    5.250    0.000 
#   11.250    6.250    0.000    0.000    0.000    0.000 
#    0.000    0.000    0.000    0.000    0.000    0.000 
#
# Total GULP energy -198302.918617 kJ/mol
# GULP energy per Si atom -12393.932414 kJ/mol
# Density = 2.125364 g / cm^3
# Si number density = 21.302125 Si / 1000 Ang^3
#
#
#
# Elastic Constant Matrix: (Units=GPa)
#
#
# Indices 1 2 3 4 5 6 
#
# 1 111.4974 37.3494 43.5437 0.0001 3.1860 0.0000
# 2 37.3494 98.9639 50.4667 0.0003 9.0705 0.0000
# 3 43.5437 50.4667 113.9019 0.0014 4.4061 -0.0006
# 4 0.0001 0.0003 0.0014 33.1685 -0.0003 -1.1432
# 5 3.1860 9.0705 4.4061 -0.0003 24.7145 0.0000
# 6 0.0000 0.0000 -0.0006 -1.1432 0.0000 31.9067
#
#
#
# Elastic Compliance Matrix: (Units=1/GPa)
#
#
# Indices 1 2 3 4 5 6 
#
# 1 0.011038 -0.002609 -0.003067 0.000000 0.000081 0.000000
# 2 -0.002609 0.014033 -0.005069 0.000000 -0.003910 0.000000
# 3 -0.003067 -0.005069 0.012195 0.000000 0.000082 0.000000
# 4 0.000000 0.000000 0.000000 0.030186 0.000000 0.001082
# 5 0.000081 -0.003910 0.000082 0.000000 0.041872 0.000000
# 6 0.000000 0.000000 0.000000 0.001082 0.000000 0.031380
#
#
# Mechanical properties :
#
#
# Convention : Reuss Voigt Hill
#
# Bulk Modulus (GPa) = 63.38881 65.23141 64.31011
# Shear Modulus (GPa) = 29.85922 30.82483 30.34203
#
# Velocity S-wave (km/s) = 3.74799 3.80811 3.77817
# Velocity P-wave (km/s) = 6.96790 7.07277 7.02053
#
# Compressibility (1/GPa) = 0.01577565
#
# Stress axis : x y z
#
# Youngs Moduli (GPa) = 90.59363 71.26237 82.00400
#
# Poissons Ratio (x) = 0.18595 0.25149
# Poissons Ratio (y) = 0.23640 0.41565
# Poissons Ratio (z) = 0.27784 0.36120
#
# Static dielectric constant tensor:
#      x y z
#    x 4.034960 0.000000 0.123030 
#    y 0.000000 4.114240 0.000000 
#    z 0.123030 0.000000 3.809420 
# 
# 
# High freq. dielectric constant tensor:
#      x y z
#    x 1.832110 0.000000 0.001440 
#    y 0.000000 1.850990 0.000000 
#    z 0.001440 0.000000 1.820660 
# 
# From -- ./inp_files/22797.got.cif
#   From: 2010.06.25/outbox.cif.g09.slc.cpg/sg9_12_cif.got.tgz:22797.got - 2010.06.27 21:40:51.
