data_PCOD8055683
_publ_section_title
;
Structure prediction by ZEFSAII (Michael W. Deem and Ramdas Pophale) SiO2 
 PCOD8055683
Probable space group: C C
;
_chemical_formula_sum "Si O2"
_cell_formula_units_Z 32
_cell_length_a 8.002191
_cell_length_b 11.806985
_cell_length_c 13.771631
_cell_angle_alpha 90.000000
_cell_angle_beta 79.185442
_cell_angle_gamma 90.000000
_cell_volume 1278.058535
_symmetry_space_group_name_H-M "C C"
_symmetry_group_IT_number 9
_symmetry_cell_setting 'monoclinic'
loop_
_space_group_symop_operation_xyz
x,y,z
x,-y,1/2+z
1/2+x,1/2+y,z
1/2+x,1/2-y,1/2+z
loop_
_atom_site_type_symbol
_atom_site_label
_atom_site_fract_x
_atom_site_fract_y
_atom_site_fract_z
Si Si1 0.822110 0.256048 0.706610
Si Si2 0.420080 0.994931 0.225735
Si Si3 0.781467 0.075939 0.145492
Si Si4 0.782866 0.284810 0.493147
Si Si5 0.194415 0.823945 0.130230
Si Si6 0.832956 0.926377 0.868017
Si Si7 0.581030 0.488699 0.990914
Si Si8 0.592051 0.115771 0.876104
O O1 0.820316 0.387083 0.736561
O O2 0.746805 0.245095 0.606129
O O3 0.688466 0.195616 0.790178
O O4 0.007346 0.197904 0.696634
O O5 0.600183 0.014443 0.151948
O O6 0.307357 0.897207 0.190911
O O7 0.453460 0.959912 0.333177
O O8 0.783477 0.202921 0.102219
O O9 0.837496 0.081495 0.252087
O O10 0.914270 0.997162 0.076489
O O11 0.744278 0.186182 0.420282
O O12 0.671895 0.391551 0.474368
O O13 0.985832 0.313937 0.467281
O O14 0.194738 0.891099 0.027986
O O15 0.722643 0.033934 0.916893
O O16 0.022487 0.946067 0.890728
#
# Coordination Sequence:
#
# PCOD8055683 Si02
#       8
#     4   4   4   4   4   4   4   4
#     4  11  25  47  73 108 147 191 249 305 370 455
#     4  10  23  44  77  99 140 190 245 296 387 436
#     4  10  26  46  73 109 146 199 242 313 370 455
#     4  12  28  45  72 114 144 196 252 306 371 461
#     4  11  22  43  76 103 139 195 243 300 381 443
#     4  11  27  47  74 107 152 191 256 310 382 442
#     4  12  27  44  76 108 150 195 248 307 379 449
#     4  11  28  46  71 106 150 193 245 317 368 445
#
# _framework density 25.037977000000001
#
# number of rings (size 3 to 8) (size 9 to 14) (size 15 to 20)
#    0.000    1.000    2.500    2.250    7.000    9.000 
#    0.000    0.000    2.750    0.000    0.000    0.000 
#    0.000    0.000    0.000    0.000    0.000    0.000 
#
# Total GULP energy -198462.586514 kJ/mol
# GULP energy per Si atom -12403.911657 kJ/mol
# Density = 2.498099 g / cm^3
# Si number density = 25.037977 Si / 1000 Ang^3
#
#
#
# Elastic Constant Matrix: (Units=GPa)
#
#
# Indices 1 2 3 4 5 6 
#
# 1 70.9942 19.1886 19.5402 0.0000 15.3076 0.0000
# 2 19.1886 104.5947 -11.0499 0.0000 -8.4274 0.0000
# 3 19.5402 -11.0499 40.5095 0.0000 -13.5404 0.0000
# 4 0.0000 0.0000 0.0000 27.6895 0.0000 0.3516
# 5 15.3076 -8.4274 -13.5404 0.0000 35.3476 0.0000
# 6 0.0000 0.0000 0.0000 0.3516 0.0000 55.2021
#
#
#
# Elastic Compliance Matrix: (Units=1/GPa)
#
#
# Indices 1 2 3 4 5 6 
#
# 1 0.028758 -0.009834 -0.024658 0.000000 -0.024244 0.000000
# 2 -0.009834 0.013692 0.012607 0.000000 0.012353 0.000000
# 3 -0.024658 0.012607 0.051140 0.000000 0.033274 0.000000
# 4 0.000000 0.000000 0.000000 0.036118 0.000000 -0.000230
# 5 -0.024244 0.012353 0.033274 0.000000 0.054480 0.000000
# 6 0.000000 0.000000 0.000000 -0.000230 0.000000 0.018117
#
#
# Mechanical properties :
#
#
# Convention : Reuss Voigt Hill
#
# Bulk Modulus (GPa) = 20.07189 30.16180 25.11684
# Shear Modulus (GPa) = 19.03451 36.20914 27.62182
#
# Velocity S-wave (km/s) = 2.76021 3.80698 3.32504
# Velocity P-wave (km/s) = 4.26525 5.60327 4.97941
#
# Compressibility (1/GPa) = 0.04982092
#
# Stress axis : x y z
#
# Youngs Moduli (GPa) = 34.77325 73.03526 19.55411
#
# Poissons Ratio (x) = 0.71824 0.48216
# Poissons Ratio (y) = 0.34196 -0.24652
# Poissons Ratio (z) = 0.85742 -0.92077
#
# Static dielectric constant tensor:
#      x y z
#    x 4.699630 0.000000 0.107270 
#    y 0.000000 4.891220 0.000000 
#    z 0.107270 0.000000 4.356440 
# 
# 
# High freq. dielectric constant tensor:
#      x y z
#    x 2.000430 0.000000 0.007800 
#    y 0.000000 2.024130 0.000000 
#    z 0.007800 0.000000 1.987040 
# 
# From -- ./inp_files/22871.got.cif
#   From: 2010.06.25/outbox.cif.g09.slc.cpg/sg9_12_cif.got.tgz:22871.got - 2010.06.27 21:40:51.
