data_PCOD8055395
_publ_section_title
;
Structure prediction by ZEFSAII (Michael W. Deem and Ramdas Pophale) SiO2 
 PCOD8055395
Probable space group: C C
;
_chemical_formula_sum "Si O2"
_cell_formula_units_Z 28
_cell_length_a 11.385655
_cell_length_b 23.004800
_cell_length_c 5.077827
_cell_angle_alpha 90.000000
_cell_angle_beta 114.250214
_cell_angle_gamma 90.000000
_cell_volume 1212.649132
_symmetry_space_group_name_H-M "C C"
_symmetry_group_IT_number 9
_symmetry_cell_setting 'monoclinic'
loop_
_space_group_symop_operation_xyz
x,y,z
x,-y,1/2+z
1/2+x,1/2+y,z
1/2+x,1/2-y,1/2+z
loop_
_atom_site_type_symbol
_atom_site_label
_atom_site_fract_x
_atom_site_fract_y
_atom_site_fract_z
Si Si1 0.978330 0.851800 0.542680
Si Si2 0.306584 0.771801 0.414417
Si Si3 0.624521 0.370935 0.182901
Si Si4 0.126622 0.463107 0.752623
Si Si5 0.826170 0.534448 0.973573
Si Si6 0.473817 0.779794 0.055352
Si Si7 0.715804 0.155655 0.563269
O O1 0.026188 0.785193 0.561031
O O2 0.823818 0.855918 0.385688
O O3 0.039739 0.886537 0.357053
O O4 0.030645 0.882439 0.852037
O O5 0.174762 0.804659 0.222001
O O6 0.361832 0.795139 0.742838
O O7 0.269296 0.703831 0.406056
O O8 0.415268 0.783456 0.294101
O O9 0.751383 0.409823 0.300467
O O10 0.167765 0.489304 0.509342
O O11 0.975561 0.450111 0.602532
O O12 0.193790 0.401863 0.871691
O O13 0.790134 0.482461 0.738601
O O14 0.590972 0.824429 0.115596
#
# Coordination Sequence:
#
# PCOD8055395 Si02
#       7
#     4   4   4   4   4   4   4
#     4  11  25  41  62 100 140 179 223 269 339 421
#     4  11  25  40  69 100 133 179 234 272 353 408
#     4  12  23  44  65  97 141 173 221 286 331 412
#     4  10  24  45  71 101 133 179 240 291 341 404
#     4  10  22  43  70 100 128 172 231 286 335 393
#     4  11  24  42  66  98 133 182 222 280 344 407
#     4  11  25  47  69 100 148 186 225 294 351 411
#
# _framework density 23.089941
#
# number of rings (size 3 to 8) (size 9 to 14) (size 15 to 20)
#    0.000    1.143    1.429    4.286    2.000    9.143 
#    0.000    4.286    0.000    0.000    0.000    0.000 
#    0.000    0.000    0.000    0.000    0.000    0.000 
#
# Total GULP energy -173634.619699 kJ/mol
# GULP energy per Si atom -12402.472836 kJ/mol
# Density = 2.303739 g / cm^3
# Si number density = 23.089941 Si / 1000 Ang^3
#
#
#
# Elastic Constant Matrix: (Units=GPa)
#
#
# Indices 1 2 3 4 5 6 
#
# 1 87.1104 23.5710 47.7584 0.0000 0.1932 0.0000
# 2 23.5710 86.9362 50.4592 0.0000 23.9309 0.0000
# 3 47.7584 50.4592 170.6970 0.0000 6.8847 0.0000
# 4 0.0000 0.0000 0.0000 28.5119 0.0000 11.3083
# 5 0.1932 23.9309 6.8847 0.0000 38.0458 0.0000
# 6 0.0000 0.0000 0.0000 11.3083 0.0000 25.5734
#
#
#
# Elastic Compliance Matrix: (Units=1/GPa)
#
#
# Indices 1 2 3 4 5 6 
#
# 1 0.013923 -0.002454 -0.003253 0.000000 0.002062 0.000000
# 2 -0.002454 0.017289 -0.004015 0.000000 -0.010135 0.000000
# 3 -0.003253 -0.004015 0.007911 0.000000 0.001111 0.000000
# 4 0.000000 0.000000 0.000000 0.042532 0.000000 -0.018807
# 5 0.002062 -0.010135 0.001111 0.000000 0.032448 0.000000
# 6 0.000000 0.000000 0.000000 -0.018807 0.000000 0.047420
#
#
# Mechanical properties :
#
#
# Convention : Reuss Voigt Hill
#
# Bulk Modulus (GPa) = 50.82086 65.36897 58.09492
# Shear Modulus (GPa) = 26.66304 33.28990 29.97647
#
# Velocity S-wave (km/s) = 3.40184 3.80116 3.60703
# Velocity P-wave (km/s) = 6.12273 6.90196 6.52399
#
# Compressibility (1/GPa) = 0.01967696
#
# Stress axis : x y z
#
# Youngs Moduli (GPa) = 71.82530 57.84170 126.41280
#
# Poissons Ratio (x) = 0.14196 0.41122
# Poissons Ratio (y) = 0.17628 0.50757
# Poissons Ratio (z) = 0.23365 0.23224
#
# Static dielectric constant tensor:
#      x y z
#    x 3.997330 0.000000 0.010500 
#    y 0.000000 3.890430 0.000000 
#    z 0.010500 0.000000 4.418580 
# 
# 
# High freq. dielectric constant tensor:
#      x y z
#    x 1.907760 0.000000 0.001650 
#    y 0.000000 1.888470 0.000000 
#    z 0.001650 0.000000 1.932740 
# 
# From -- ./inp_files/1889.got.cif
#   From: 2010.06.25/outbox.cif.g09.slc.cpg/sg9_1_cif.got.tgz:1889.got - 2010.06.27 21:40:51.
