data_PCOD8055184
_publ_section_title
;
Structure prediction by ZEFSAII (Michael W. Deem and Ramdas Pophale) SiO2 
 PCOD8055184
Probable space group: C C
;
_chemical_formula_sum "Si O2"
_cell_formula_units_Z 32
_cell_length_a 13.107796
_cell_length_b 7.714538
_cell_length_c 28.277881
_cell_angle_alpha 90.000000
_cell_angle_beta 40.533861
_cell_angle_gamma 90.000000
_cell_volume 1858.365814
_symmetry_space_group_name_H-M "C C"
_symmetry_group_IT_number 9
_symmetry_cell_setting 'monoclinic'
loop_
_space_group_symop_operation_xyz
x,y,z
x,-y,1/2+z
1/2+x,1/2+y,z
1/2+x,1/2-y,1/2+z
loop_
_atom_site_type_symbol
_atom_site_label
_atom_site_fract_x
_atom_site_fract_y
_atom_site_fract_z
Si Si1 0.163830 0.054831 0.508900
Si Si2 0.035822 0.749512 0.495926
Si Si3 0.224647 0.345790 0.654393
Si Si4 0.456257 0.086261 0.176433
Si Si5 0.645938 0.933751 0.516728
Si Si6 0.729859 0.720296 0.751856
Si Si7 0.952611 0.757273 0.421035
Si Si8 0.393073 0.542635 0.667782
O O1 0.092134 0.242318 0.517506
O O2 0.349846 0.079198 0.453176
O O3 0.075865 0.007211 0.589366
O O4 0.137744 0.910230 0.478770
O O5 0.111406 0.573727 0.488948
O O6 0.052641 0.751567 0.433701
O O7 0.852801 0.761662 0.574212
O O8 0.191271 0.209645 0.709067
O O9 0.293865 0.522372 0.653559
O O10 0.067126 0.389320 0.682451
O O11 0.368467 0.268044 0.198005
O O12 0.323991 0.947603 0.236065
O O13 0.554475 0.017101 0.097017
O O14 0.833404 0.922753 0.462071
O O15 0.567695 0.730975 0.836454
O O16 0.835300 0.893635 0.724708
#
# Coordination Sequence:
#
# PCOD8055184 Si02
#       8
#     4   4   4   4   4   4   4   4
#     4   8  18  36  57  81 110 141 193 230 258 345
#     4  11  17  39  60  78 113 153 180 232 283 326
#     4   9  19  35  60  82 109 146 187 228 277 325
#     4  11  17  39  61  78 113 151 184 231 274 335
#     4   9  19  36  59  84 107 144 198 221 271 350
#     4  10  22  39  53  87 120 138 188 243 269 334
#     4  10  22  39  53  87 119 137 190 242 272 326
#     4   8  18  37  55  83 107 144 194 219 270 347
#
# _framework density 17.219429000000002
#
# number of rings (size 3 to 8) (size 9 to 14) (size 15 to 20)
#    1.500    1.000    2.500    0.000    0.000    1.000 
#    9.000    1.250    0.000    0.000    0.000    0.000 
#    0.000    0.000    0.000    0.000    0.000    0.000 
#
# Total GULP energy -198238.871928 kJ/mol
# GULP energy per Si atom -12389.929496 kJ/mol
# Density = 1.718024 g / cm^3
# Si number density = 17.219429 Si / 1000 Ang^3
#
#
#
# Elastic Constant Matrix: (Units=GPa)
#
#
# Indices 1 2 3 4 5 6 
#
# 1 74.2740 39.3059 21.4404 0.0002 -1.3825 0.0006
# 2 39.3059 96.2249 25.0988 0.0005 -7.8586 -0.0001
# 3 21.4404 25.0988 84.7729 0.0001 -10.1568 0.0000
# 4 0.0002 0.0005 0.0001 17.8298 0.0000 -1.8828
# 5 -1.3825 -7.8586 -10.1568 0.0000 22.5709 0.0002
# 6 0.0006 -0.0001 0.0000 -1.8828 0.0002 28.2279
#
#
#
# Elastic Compliance Matrix: (Units=1/GPa)
#
#
# Indices 1 2 3 4 5 6 
#
# 1 0.017795 -0.006743 -0.002806 0.000000 -0.002521 0.000000
# 2 -0.006743 0.013959 -0.002003 0.000000 0.003546 0.000000
# 3 -0.002806 -0.002003 0.013735 0.000000 0.005312 0.000000
# 4 0.000000 0.000000 0.000000 0.056484 0.000000 0.003768
# 5 -0.002521 0.003546 0.005312 0.000000 0.047775 0.000000
# 6 0.000000 0.000000 0.000000 0.003768 0.000000 0.035677
#
#
# Mechanical properties :
#
#
# Convention : Reuss Voigt Hill
#
# Bulk Modulus (GPa) = 44.67146 47.44023 46.05584
# Shear Modulus (GPa) = 23.14917 25.02083 24.08500
#
# Velocity S-wave (km/s) = 3.67053 3.81603 3.74399
# Velocity P-wave (km/s) = 6.63043 6.85758 6.74496
#
# Compressibility (1/GPa) = 0.02238566
#
# Stress axis : x y z
#
# Youngs Moduli (GPa) = 56.19513 71.64069 72.80531
#
# Poissons Ratio (x) = 0.48306 0.20431
# Poissons Ratio (y) = 0.37891 0.14579
# Poissons Ratio (z) = 0.15770 0.14346
#
# Static dielectric constant tensor:
#      x y z
#    x 2.971210 0.000000 -0.042110 
#    y 0.000000 3.108470 0.000000 
#    z -0.042110 0.000000 3.009830 
# 
# 
# High freq. dielectric constant tensor:
#      x y z
#    x 1.646710 0.000000 -0.002780 
#    y 0.000000 1.654120 0.000000 
#    z -0.002780 0.000000 1.652930 
# 
# From -- ./inp_files/35258.got.cif
#   From: 2010.06.25/outbox.cif.g09.slc.cpg/sg9_18_cif.got.tgz:35258.got - 2010.06.27 21:40:51.
