data_PCOD8055722
_publ_section_title
;
Structure prediction by ZEFSAII (Michael W. Deem and Ramdas Pophale) SiO2 
 PCOD8055722
Probable space group: C C
;
_chemical_formula_sum "Si O2"
_cell_formula_units_Z 32
_cell_length_a 11.854994
_cell_length_b 11.543988
_cell_length_c 17.007908
_cell_angle_alpha 90.000000
_cell_angle_beta 143.006644
_cell_angle_gamma 90.000000
_cell_volume 1400.568289
_symmetry_space_group_name_H-M "C C"
_symmetry_group_IT_number 9
_symmetry_cell_setting 'monoclinic'
loop_
_space_group_symop_operation_xyz
x,y,z
x,-y,1/2+z
1/2+x,1/2+y,z
1/2+x,1/2-y,1/2+z
loop_
_atom_site_type_symbol
_atom_site_label
_atom_site_fract_x
_atom_site_fract_y
_atom_site_fract_z
Si Si1 0.809930 0.754222 0.400720
Si Si2 0.675515 0.889777 0.668380
Si Si3 0.590460 0.387287 0.896499
Si Si4 0.888586 0.063450 0.695311
Si Si5 0.984421 0.148029 0.576185
Si Si6 0.681006 0.003294 0.328616
Si Si7 0.713176 0.731741 0.173375
Si Si8 0.281926 0.985486 0.155505
O O1 0.676194 0.719814 0.397666
O O2 0.732473 0.699119 0.276310
O O3 0.015771 0.710590 0.538864
O O4 0.817255 0.893236 0.400108
O O5 0.531974 0.782084 0.581348
O O6 0.597368 0.970044 0.695523
O O7 0.884109 0.846481 0.810516
O O8 0.711375 0.971007 0.609705
O O9 0.575894 0.497382 0.828664
O O10 0.716204 0.421532 0.040112
O O11 0.911975 0.116973 0.622655
O O12 0.869164 0.172493 0.742484
O O13 0.807071 0.112045 0.424770
O O14 0.173305 0.074392 0.667148
O O15 0.506784 0.973969 0.288795
O O16 0.739520 0.621456 0.132313
#
# Coordination Sequence:
#
# PCOD8055722 Si02
#       8
#     4   4   4   4   4   4   4   4
#     4  12  24  44  79 106 150 199 262 314 386 469
#     4  10  23  49  69 104 151 194 244 318 382 458
#     4  10  23  45  73 108 143 201 256 321 386 465
#     4  10  24  46  70 107 146 196 253 308 392 466
#     4  12  24  48  72 109 151 195 255 317 387 475
#     4  12  25  48  71 108 149 198 253 315 396 464
#     4  12  24  46  72 108 152 198 255 318 381 468
#     4  12  25  46  74 106 152 197 252 321 388 461
#
# _framework density 22.847867999999998
#
# number of rings (size 3 to 8) (size 9 to 14) (size 15 to 20)
#    0.750    0.000    3.750    3.750    1.750    1.000 
#    9.000    0.000    0.000    0.000    0.000    0.000 
#    0.000    0.000    0.000    0.000    0.000    0.000 
#
# Total GULP energy -198259.201449 kJ/mol
# GULP energy per Si atom -12391.200091 kJ/mol
# Density = 2.279586 g / cm^3
# Si number density = 22.847868 Si / 1000 Ang^3
#
#
#
# Elastic Constant Matrix: (Units=GPa)
#
#
# Indices 1 2 3 4 5 6 
#
# 1 121.1354 36.7244 31.1448 0.0002 -8.5275 0.0000
# 2 36.7244 115.3706 14.8376 0.0008 -11.8527 0.0002
# 3 31.1448 14.8376 82.7349 0.0026 -3.3950 0.0009
# 4 0.0002 0.0008 0.0026 36.7351 0.0011 1.6416
# 5 -8.5275 -11.8527 -3.3950 0.0011 33.1275 0.0003
# 6 0.0000 0.0002 0.0009 1.6416 0.0003 44.2904
#
#
#
# Elastic Compliance Matrix: (Units=1/GPa)
#
#
# Indices 1 2 3 4 5 6 
#
# 1 0.009973 -0.002626 -0.003230 0.000000 0.001297 0.000000
# 2 -0.002626 0.009876 -0.000668 0.000000 0.002789 0.000000
# 3 -0.003230 -0.000668 0.013435 -0.000001 0.000306 0.000000
# 4 0.000000 0.000000 -0.000001 0.027267 -0.000001 -0.001011
# 5 0.001297 0.002789 0.000306 -0.000001 0.031549 0.000000
# 6 0.000000 0.000000 0.000000 -0.001011 0.000000 0.022616
#
#
# Mechanical properties :
#
#
# Convention : Reuss Voigt Hill
#
# Bulk Modulus (GPa) = 49.41750 53.85049 51.63399
# Shear Modulus (GPa) = 37.17182 38.59954 37.88568
#
# Velocity S-wave (km/s) = 4.03789 4.11471 4.07648
# Velocity P-wave (km/s) = 6.58903 6.79667 6.69366
#
# Compressibility (1/GPa) = 0.02023575
#
# Stress axis : x y z
#
# Youngs Moduli (GPa) = 100.26970 101.25467 74.43157
#
# Poissons Ratio (x) = 0.26589 0.24042
# Poissons Ratio (y) = 0.26331 0.04973
# Poissons Ratio (z) = 0.32388 0.06766
#
# Static dielectric constant tensor:
#      x y z
#    x 4.272140 0.000000 0.075340 
#    y 0.000000 3.998060 0.000000 
#    z 0.075340 0.000000 3.768130 
# 
# 
# High freq. dielectric constant tensor:
#      x y z
#    x 1.914110 0.000000 0.004820 
#    y 0.000000 1.902920 0.000000 
#    z 0.004820 0.000000 1.875800 
# 
# From -- ./inp_files/30075.got.cif
#   From: 2010.06.25/outbox.cif.g09.slc.cpg/sg9_16_cif.got.tgz:30075.got - 2010.06.27 21:40:51.
