data_PCOD8055615
_publ_section_title
;
Structure prediction by ZEFSAII (Michael W. Deem and Ramdas Pophale) SiO2 
 PCOD8055615
Probable space group: C C
;
_chemical_formula_sum "Si O2"
_cell_formula_units_Z 32
_cell_length_a 27.484097
_cell_length_b 6.306628
_cell_length_c 14.731399
_cell_angle_alpha 90.000000
_cell_angle_beta 28.373758
_cell_angle_gamma 90.000000
_cell_volume 1213.440685
_symmetry_space_group_name_H-M "C C"
_symmetry_group_IT_number 9
_symmetry_cell_setting 'monoclinic'
loop_
_space_group_symop_operation_xyz
x,y,z
x,-y,1/2+z
1/2+x,1/2+y,z
1/2+x,1/2-y,1/2+z
loop_
_atom_site_type_symbol
_atom_site_label
_atom_site_fract_x
_atom_site_fract_y
_atom_site_fract_z
Si Si1 0.977270 0.613067 0.173190
Si Si2 0.290758 0.610637 0.276880
Si Si3 0.452680 0.354789 0.662858
Si Si4 0.350226 0.985768 0.540673
Si Si5 0.131746 0.874910 0.827431
Si Si6 0.638259 0.379443 0.619337
Si Si7 0.316860 0.146353 0.285574
Si Si8 0.423700 0.507976 0.401569
O O1 0.981961 0.360996 0.164087
O O2 0.925856 0.651455 0.359122
O O3 0.913020 0.698137 0.191466
O O4 0.091253 0.711200 0.972057
O O5 0.358339 0.689345 0.251710
O O6 0.177950 0.715463 0.475757
O O7 0.280301 0.358585 0.296836
O O8 0.343338 0.648235 0.089774
O O9 0.551795 0.432513 0.446543
O O10 0.424981 0.529744 0.788875
O O11 0.239240 0.977039 0.677084
O O12 0.341653 0.031850 0.664459
O O13 0.394928 0.751161 0.464008
O O14 0.130931 0.761782 0.729439
O O15 0.723614 0.559325 0.497495
O O16 0.537828 0.505751 0.753970
#
# Coordination Sequence:
#
# PCOD8055615 Si02
#       8
#     4   4   4   4   4   4   4   4
#     4  11  23  44  68  96 135 175 222 277 335 394
#     4  11  23  44  68  96 135 175 222 277 335 394
#     4  11  22  42  68  97 132 177 219 275 337 393
#     4  10  23  43  66  96 135 173 227 275 328 404
#     4  12  23  43  68  96 137 176 221 280 331 398
#     4  12  23  43  68  96 137 176 221 280 331 398
#     4  11  22  42  68  97 132 177 219 275 337 393
#     4  10  23  43  66  96 135 173 227 275 328 404
#
# _framework density 26.371295
#
# number of rings (size 3 to 8) (size 9 to 14) (size 15 to 20)
#    0.000    1.000    5.000    2.250    0.000    6.000 
#    0.000    0.000    0.000    0.000    0.000    0.000 
#    0.000    0.000    0.000    0.000    0.000    0.000 
#
# Total GULP energy -198397.683859 kJ/mol
# GULP energy per Si atom -12399.855241 kJ/mol
# Density = 2.631127 g / cm^3
# Si number density = 26.371295 Si / 1000 Ang^3
#
#
#
# Elastic Constant Matrix: (Units=GPa)
#
#
# Indices 1 2 3 4 5 6 
#
# 1 125.7867 18.9659 55.2361 0.0000 30.8100 0.0000
# 2 18.9659 55.0645 51.1441 -0.0008 20.1808 0.0001
# 3 55.2361 51.1441 156.9361 -0.0008 29.2685 0.0000
# 4 0.0000 -0.0008 -0.0008 56.7900 0.0002 12.1769
# 5 30.8100 20.1808 29.2685 0.0002 54.5611 0.0001
# 6 0.0000 0.0001 0.0000 12.1769 0.0001 40.5712
#
#
#
# Elastic Compliance Matrix: (Units=1/GPa)
#
#
# Indices 1 2 3 4 5 6 
#
# 1 0.010262 0.000990 -0.003095 0.000000 -0.004501 0.000000
# 2 0.000990 0.027804 -0.008208 0.000000 -0.006439 0.000000
# 3 -0.003095 -0.008208 0.010272 0.000000 -0.000726 0.000000
# 4 0.000000 0.000000 0.000000 0.018820 0.000000 -0.005649
# 5 -0.004501 -0.006439 -0.000726 0.000000 0.023641 0.000000
# 6 0.000000 0.000000 0.000000 -0.005649 0.000000 0.026343
#
#
# Mechanical properties :
#
#
# Convention : Reuss Voigt Hill
#
# Bulk Modulus (GPa) = 36.08793 65.38658 50.73726
# Shear Modulus (GPa) = 34.01217 44.54722 39.27969
#
# Velocity S-wave (km/s) = 3.59519 4.11448 3.86357
# Velocity P-wave (km/s) = 5.56311 6.88625 6.25973
#
# Compressibility (1/GPa) = 0.02771009
#
# Stress axis : x y z
#
# Youngs Moduli (GPa) = 97.44426 35.96664 97.35340
#
# Poissons Ratio (x) = -0.03559 0.30132
# Poissons Ratio (y) = -0.09643 0.79910
# Poissons Ratio (z) = 0.30160 0.29522
#
# Static dielectric constant tensor:
#      x y z
#    x 5.786560 0.000000 0.315530 
#    y 0.000000 5.173870 0.000000 
#    z 0.315530 0.000000 5.179760 
# 
# 
# High freq. dielectric constant tensor:
#      x y z
#    x 2.053040 0.000000 0.032430 
#    y 0.000000 2.101350 0.000000 
#    z 0.032430 0.000000 2.071540 
# 
# From -- ./inp_files/28010.got.cif
#   From: 2010.06.25/outbox.cif.g09.slc.cpg/sg9_15_cif.got.tgz:28010.got - 2010.06.27 21:40:51.
