data_PCOD8055088
_publ_section_title
;
Structure prediction by ZEFSAII (Michael W. Deem and Ramdas Pophale) SiO2 
 PCOD8055088
Probable space group: C C
;
_chemical_formula_sum "Si O2"
_cell_formula_units_Z 28
_cell_length_a 8.865833
_cell_length_b 23.258130
_cell_length_c 8.974603
_cell_angle_alpha 90.000000
_cell_angle_beta 142.366092
_cell_angle_gamma 90.000000
_cell_volume 1129.994424
_symmetry_space_group_name_H-M "C C"
_symmetry_group_IT_number 9
_symmetry_cell_setting 'monoclinic'
loop_
_space_group_symop_operation_xyz
x,y,z
x,-y,1/2+z
1/2+x,1/2+y,z
1/2+x,1/2-y,1/2+z
loop_
_atom_site_type_symbol
_atom_site_label
_atom_site_fract_x
_atom_site_fract_y
_atom_site_fract_z
Si Si1 0.587670 0.030314 0.163990
Si Si2 0.160781 0.423659 0.044808
Si Si3 0.636145 0.771880 0.684414
Si Si4 0.662191 0.389668 0.332158
Si Si5 0.389761 0.811328 0.751703
Si Si6 0.096474 0.779079 0.797551
Si Si7 0.909361 0.873224 0.837563
O O1 0.586641 0.040949 0.339577
O O2 0.828465 0.059666 0.269559
O O3 0.584834 0.962436 0.127428
O O4 0.336981 0.059214 0.910261
O O5 0.453336 0.416813 0.274821
O O6 0.030638 0.361301 0.954898
O O7 0.436569 0.744641 0.409886
O O8 0.570877 0.764811 0.811156
O O9 0.646207 0.839638 0.649060
O O10 0.772222 0.338108 0.512178
O O11 0.556695 0.358565 0.104100
O O12 0.195200 0.778777 0.704889
O O13 0.814695 0.750842 0.570712
O O14 0.062229 0.846701 0.818240
#
# Coordination Sequence:
#
# PCOD8055088 Si02
#       7
#     4   4   4   4   4   4   4
#     4  10  23  41  68 102 134 183 236 291 359 428
#     4  10  23  41  68 102 134 183 236 291 359 428
#     4  12  23  38  72  98 128 180 232 283 344 412
#     4  10  21  43  72  94 140 178 243 285 354 422
#     4  11  24  44  68 102 138 183 235 299 352 428
#     4  12  30  47  68 108 150 190 239 298 372 424
#     4  11  24  44  68 102 138 183 235 299 352 428
#
# _framework density 24.778886
#
# number of rings (size 3 to 8) (size 9 to 14) (size 15 to 20)
#    0.000    1.143    4.286    2.571    4.000    8.000 
#    0.000    0.000    0.000    0.000    0.000    0.000 
#    0.000    0.000    0.000    0.000    0.000    0.000 
#
# Total GULP energy -173480.011147 kJ/mol
# GULP energy per Si atom -12391.429368 kJ/mol
# Density = 2.472249 g / cm^3
# Si number density = 24.778886 Si / 1000 Ang^3
#
#
#
# Elastic Constant Matrix: (Units=GPa)
#
#
# Indices 1 2 3 4 5 6 
#
# 1 85.1692 3.7915 41.0465 0.0000 28.2531 0.0000
# 2 3.7915 49.2002 23.2964 0.0000 17.5926 0.0000
# 3 41.0465 23.2964 100.9560 0.0000 21.5569 0.0000
# 4 0.0000 0.0000 0.0000 21.3546 0.0000 -3.3885
# 5 28.2531 17.5926 21.5569 0.0000 31.4272 0.0000
# 6 0.0000 0.0000 0.0000 -3.3885 0.0000 53.2459
#
#
#
# Elastic Compliance Matrix: (Units=1/GPa)
#
#
# Indices 1 2 3 4 5 6 
#
# 1 0.020617 0.008079 -0.006237 0.000000 -0.018780 0.000000
# 2 0.008079 0.029559 -0.005884 0.000000 -0.019775 0.000000
# 3 -0.006237 -0.005884 0.013940 0.000000 -0.000661 0.000000
# 4 0.000000 0.000000 0.000000 0.047306 0.000000 0.003010
# 5 -0.018780 -0.019775 -0.000661 0.000000 0.060226 0.000000
# 6 0.000000 0.000000 0.000000 0.003010 0.000000 0.018972
#
#
# Mechanical properties :
#
#
# Convention : Reuss Voigt Hill
#
# Bulk Modulus (GPa) = 17.84618 41.28825 29.56722
# Shear Modulus (GPa) = 23.00111 32.35161 27.67636
#
# Velocity S-wave (km/s) = 3.05003 3.61725 3.34568
# Velocity P-wave (km/s) = 4.42961 5.84336 5.18489
#
# Compressibility (1/GPa) = 0.05603439
#
# Stress axis : x y z
#
# Youngs Moduli (GPa) = 48.50306 33.83040 71.73603
#
# Poissons Ratio (x) = -0.27333 0.44741
# Poissons Ratio (y) = -0.39188 0.42206
# Poissons Ratio (z) = 0.30251 0.19904
#
# Static dielectric constant tensor:
#      x y z
#    x 4.564560 0.000000 0.343650 
#    y 0.000000 4.232170 0.000000 
#    z 0.343650 0.000000 4.553390 
# 
# 
# High freq. dielectric constant tensor:
#      x y z
#    x 1.998550 0.000000 0.013800 
#    y 0.000000 1.972480 0.000000 
#    z 0.013800 0.000000 1.996120 
# 
# From -- ./inp_files/833.got.cif
#   From: 2010.06.25/outbox.cif.g09.slc.cpg/sg9_1_cif.got.tgz:833.got - 2010.06.27 21:40:51.
