data_PCOD8055023
_publ_section_title
;
Structure prediction by ZEFSAII (Michael W. Deem and Ramdas Pophale) SiO2 
 PCOD8055023
Probable space group: C C
;
_chemical_formula_sum "Si O2"
_cell_formula_units_Z 32
_cell_length_a 13.301686
_cell_length_b 13.857295
_cell_length_c 8.210655
_cell_angle_alpha 90.000000
_cell_angle_beta 104.644040
_cell_angle_gamma 90.000000
_cell_volume 1464.268518
_symmetry_space_group_name_H-M "C C"
_symmetry_group_IT_number 9
_symmetry_cell_setting 'monoclinic'
loop_
_space_group_symop_operation_xyz
x,y,z
x,-y,1/2+z
1/2+x,1/2+y,z
1/2+x,1/2-y,1/2+z
loop_
_atom_site_type_symbol
_atom_site_label
_atom_site_fract_x
_atom_site_fract_y
_atom_site_fract_z
Si Si1 0.693150 0.695174 0.074300
Si Si2 0.638941 0.493328 0.713450
Si Si3 0.339870 0.684957 0.250866
Si Si4 0.334910 0.107194 0.872803
Si Si5 0.193866 0.702322 0.905130
Si Si6 0.059577 0.876801 0.949929
Si Si7 0.147389 0.629196 0.362330
Si Si8 0.064010 0.449697 0.493574
O O1 0.622767 0.608149 0.111176
O O2 0.729403 0.762453 0.241649
O O3 0.793669 0.647719 0.029426
O O4 0.625319 0.762483 0.923270
O O5 0.754709 0.536993 0.748448
O O6 0.619473 0.467233 0.892047
O O7 0.555674 0.577415 0.629758
O O8 0.355412 0.799309 0.271847
O O9 0.451384 0.636556 0.315413
O O10 0.268995 0.633982 0.360945
O O11 0.293702 0.668043 0.051204
O O12 0.439822 0.044644 0.930051
O O13 0.131520 0.783177 0.981495
O O14 0.113655 0.612601 0.865574
O O15 0.117894 0.554714 0.495302
O O16 0.083615 0.601878 0.175023
#
# Coordination Sequence:
#
# PCOD8055023 Si02
#       8
#     4   4   4   4   4   4   4   4
#     4  10  23  44  63  98 135 180 219 288 333 395
#     4  11  23  41  65  95 137 166 226 276 327 402
#     4  10  22  42  68  94 132 177 217 274 339 397
#     4  11  22  41  67  97 131 178 225 271 339 395
#     4  10  21  42  67  95 137 170 226 283 333 395
#     4  11  22  40  65  99 126 178 214 274 333 397
#     4  10  24  43  66  95 141 171 226 276 337 402
#     4  11  23  41  71 101 135 182 223 282 341 405
#
# _framework density 21.853912999999999
#
# number of rings (size 3 to 8) (size 9 to 14) (size 15 to 20)
#    0.000    1.500    3.750    0.750    1.750    2.000 
#    4.500    1.250    0.000    0.000    0.000    0.000 
#    0.000    0.000    0.000    0.000    0.000    0.000 
#
# Total GULP energy -198236.391058 kJ/mol
# GULP energy per Si atom -12389.774441 kJ/mol
# Density = 2.180417 g / cm^3
# Si number density = 21.853913 Si / 1000 Ang^3
#
#
#
# Elastic Constant Matrix: (Units=GPa)
#
#
# Indices 1 2 3 4 5 6 
#
# 1 78.5570 40.2956 28.6378 0.0000 23.7281 0.0000
# 2 40.2956 108.8390 37.3862 0.0000 5.9175 0.0000
# 3 28.6378 37.3862 84.2839 0.0000 9.6235 0.0000
# 4 0.0000 0.0000 0.0000 45.3352 0.0000 -7.2514
# 5 23.7281 5.9175 9.6235 0.0000 37.6852 0.0000
# 6 0.0000 0.0000 0.0000 -7.2514 0.0000 34.9493
#
#
#
# Elastic Compliance Matrix: (Units=1/GPa)
#
#
# Indices 1 2 3 4 5 6 
#
# 1 0.020133 -0.005825 -0.003001 0.000000 -0.010995 0.000000
# 2 -0.005825 0.012534 -0.003888 0.000000 0.002692 0.000000
# 3 -0.003001 -0.003888 0.014754 0.000000 -0.001267 0.000000
# 4 0.000000 0.000000 0.000000 0.022815 0.000000 0.004734
# 5 -0.010995 0.002692 -0.001267 0.000000 0.033359 0.000000
# 6 0.000000 0.000000 0.000000 0.004734 0.000000 0.029595
#
#
# Mechanical properties :
#
#
# Convention : Reuss Voigt Hill
#
# Bulk Modulus (GPa) = 45.47181 53.81322 49.64252
# Shear Modulus (GPa) = 30.12982 34.61797 32.37390
#
# Velocity S-wave (km/s) = 3.71710 3.98435 3.85304
# Velocity P-wave (km/s) = 6.26696 6.77084 6.52377
#
# Compressibility (1/GPa) = 0.02199165
#
# Stress axis : x y z
#
# Youngs Moduli (GPa) = 49.67021 79.78593 67.77960
#
# Poissons Ratio (x) = 0.46475 0.20344
# Poissons Ratio (y) = 0.28933 0.26351
# Poissons Ratio (z) = 0.14908 0.31019
#
# Static dielectric constant tensor:
#      x y z
#    x 3.738830 0.000000 -0.220250 
#    y 0.000000 4.164500 0.000000 
#    z -0.220250 0.000000 3.978770 
# 
# 
# High freq. dielectric constant tensor:
#      x y z
#    x 1.828800 0.000000 -0.007770 
#    y 0.000000 1.875370 0.000000 
#    z -0.007770 0.000000 1.860120 
# 
# From -- ./inp_files/9286.got.cif
#   From: 2010.06.25/outbox.cif.g09.slc.cpg/sg9_5_cif.got.tgz:9286.got - 2010.06.27 21:40:51.
