data_PCOD8055838
_publ_section_title
;
Structure prediction by ZEFSAII (Michael W. Deem and Ramdas Pophale) SiO2 
 PCOD8055838
Probable space group: C C
;
_chemical_formula_sum "Si O2"
_cell_formula_units_Z 32
_cell_length_a 16.310981
_cell_length_b 10.915361
_cell_length_c 12.286442
_cell_angle_alpha 90.000000
_cell_angle_beta 136.775743
_cell_angle_gamma 90.000000
_cell_volume 1498.108859
_symmetry_space_group_name_H-M "C C"
_symmetry_group_IT_number 9
_symmetry_cell_setting 'monoclinic'
loop_
_space_group_symop_operation_xyz
x,y,z
x,-y,1/2+z
1/2+x,1/2+y,z
1/2+x,1/2-y,1/2+z
loop_
_atom_site_type_symbol
_atom_site_label
_atom_site_fract_x
_atom_site_fract_y
_atom_site_fract_z
Si Si1 0.257110 0.652811 0.013180
Si Si2 0.624332 0.003622 0.042967
Si Si3 0.649138 0.225804 0.215891
Si Si4 0.870077 0.597568 0.271777
Si Si5 0.184183 0.892991 0.050830
Si Si6 0.313916 0.343269 0.318676
Si Si7 0.946076 0.985412 0.283008
Si Si8 0.395570 0.259318 0.088707
O O1 0.143457 0.571376 0.944299
O O2 0.235333 0.796974 0.011700
O O3 0.367237 0.609044 0.196082
O O4 0.285339 0.626384 0.915364
O O5 0.661502 0.091515 0.177712
O O6 0.707189 0.883348 0.134017
O O7 0.491937 0.959437 0.930749
O O8 0.631091 0.323811 0.103057
O O9 0.524981 0.232648 0.161289
O O10 0.775171 0.250267 0.399570
O O11 0.783855 0.483248 0.189746
O O12 0.830793 0.698138 0.322560
O O13 0.880212 0.654950 0.163260
O O14 0.082478 0.976152 0.896909
O O15 0.429278 0.420398 0.385772
O O16 0.903237 0.893835 0.147241
#
# Coordination Sequence:
#
# PCOD8055838 Si02
#       8
#     4   4   4   4   4   4   4   4
#     4  10  24  43  69  95 133 176 222 272 350 397
#     4  10  24  43  70  97 137 174 224 283 335 414
#     4  11  25  43  73 102 137 182 231 280 348 408
#     4  11  26  43  66  98 137 171 231 281 335 406
#     4  11  26  43  66  98 137 171 231 281 335 406
#     4  10  24  43  69  95 133 176 222 272 350 397
#     4  10  24  43  70  97 137 174 224 283 335 414
#     4  11  25  43  73 102 137 182 231 280 348 408
#
# _framework density 21.360264000000001
#
# number of rings (size 3 to 8) (size 9 to 14) (size 15 to 20)
#    0.000    1.500    0.000    2.250   21.000    4.000 
#    0.000    0.000    0.000    0.000    0.000    0.000 
#    0.000    0.000    0.000    0.000    0.000    0.000 
#
# Total GULP energy -198357.176251 kJ/mol
# GULP energy per Si atom -12397.323516 kJ/mol
# Density = 2.131165 g / cm^3
# Si number density = 21.360264 Si / 1000 Ang^3
#
#
#
# Elastic Constant Matrix: (Units=GPa)
#
#
# Indices 1 2 3 4 5 6 
#
# 1 114.2349 38.5261 30.6915 0.0000 -6.2318 0.0000
# 2 38.5261 107.9570 30.7256 0.0000 5.6052 0.0000
# 3 30.6915 30.7256 84.0512 0.0000 11.0350 0.0000
# 4 0.0000 0.0000 0.0000 91.5190 0.0000 26.4860
# 5 -6.2318 5.6052 11.0350 0.0000 47.4355 0.0000
# 6 0.0000 0.0000 0.0000 26.4860 0.0000 38.0755
#
#
#
# Elastic Compliance Matrix: (Units=1/GPa)
#
#
# Indices 1 2 3 4 5 6 
#
# 1 0.010773 -0.003082 -0.003136 0.000000 0.002509 0.000000
# 2 -0.003082 0.011226 -0.002838 0.000000 -0.001071 0.000000
# 3 -0.003136 -0.002838 0.014534 0.000000 -0.003458 0.000000
# 4 0.000000 0.000000 0.000000 0.013681 0.000000 -0.009517
# 5 0.002509 -0.001071 -0.003458 0.000000 0.022342 0.000000
# 6 0.000000 0.000000 0.000000 -0.009517 0.000000 0.032884
#
#
# Mechanical properties :
#
#
# Convention : Reuss Voigt Hill
#
# Bulk Modulus (GPa) = 54.28714 56.23661 55.26188
# Shear Modulus (GPa) = 38.55280 49.15932 43.85606
#
# Velocity S-wave (km/s) = 4.25300 4.80253 4.53610
# Velocity P-wave (km/s) = 7.04184 7.55892 7.30496
#
# Compressibility (1/GPa) = 0.01842057
#
# Stress axis : x y z
#
# Youngs Moduli (GPa) = 92.82554 89.07819 68.80354
#
# Poissons Ratio (x) = 0.27455 0.21580
# Poissons Ratio (y) = 0.28610 0.19524
# Poissons Ratio (z) = 0.29115 0.25278
#
# Static dielectric constant tensor:
#      x y z
#    x 4.105950 0.000000 0.100650 
#    y 0.000000 4.016570 0.000000 
#    z 0.100650 0.000000 3.612740 
# 
# 
# High freq. dielectric constant tensor:
#      x y z
#    x 1.850380 0.000000 0.005950 
#    y 0.000000 1.853600 0.000000 
#    z 0.005950 0.000000 1.825300 
# 
# From -- ./inp_files/18285.got.cif
#   From: 2010.06.25/outbox.cif.g09.slc.cpg/sg9_10_cif.got.tgz:18285.got - 2010.06.27 21:40:51.
