data_PCOD8055167
_publ_section_title
;
Structure prediction by ZEFSAII (Michael W. Deem and Ramdas Pophale) SiO2 
 PCOD8055167
Probable space group: C C
;
_chemical_formula_sum "Si O2"
_cell_formula_units_Z 32
_cell_length_a 14.136797
_cell_length_b 10.920567
_cell_length_c 17.597247
_cell_angle_alpha 90.000000
_cell_angle_beta 29.548919
_cell_angle_gamma 90.000000
_cell_volume 1339.783105
_symmetry_space_group_name_H-M "C C"
_symmetry_group_IT_number 9
_symmetry_cell_setting 'monoclinic'
loop_
_space_group_symop_operation_xyz
x,y,z
x,-y,1/2+z
1/2+x,1/2+y,z
1/2+x,1/2-y,1/2+z
loop_
_atom_site_type_symbol
_atom_site_label
_atom_site_fract_x
_atom_site_fract_y
_atom_site_fract_z
Si Si1 0.962370 0.007606 0.733160
Si Si2 0.869534 0.624491 0.421578
Si Si3 0.384163 0.242817 0.560312
Si Si4 0.680090 0.200486 0.940978
Si Si5 0.436486 0.917921 0.278327
Si Si6 0.776990 0.590980 0.271729
Si Si7 0.095715 0.773015 0.568732
Si Si8 0.041363 0.920441 0.339817
O O1 0.787908 0.089187 0.821920
O O2 0.164674 0.058300 0.564966
O O3 0.931702 0.019265 0.845637
O O4 0.946980 0.869718 0.711479
O O5 0.950548 0.644572 0.449500
O O6 0.827715 0.751194 0.404688
O O7 0.013534 0.530079 0.277204
O O8 0.517242 0.233729 0.540937
O O9 0.164695 0.204303 0.732892
O O10 0.400043 0.376796 0.507606
O O11 0.642009 0.307994 0.906514
O O12 0.480408 0.154235 0.113448
O O13 0.311288 0.821722 0.414441
O O14 0.605889 0.846181 0.116474
O O15 0.295620 0.975412 0.314214
O O16 0.678737 0.533955 0.266637
#
# Coordination Sequence:
#
# PCOD8055167 Si02
#       8
#     4   4   4   4   4   4   4   4
#     4  10  22  39  65  94 134 169 216 265 331 388
#     4   9  20  39  61  96 126 168 216 276 306 390
#     4  11  20  37  66  92 131 165 221 264 321 377
#     4  11  21  38  66  91 123 175 218 261 327 386
#     4  10  22  38  61  92 132 166 214 263 327 383
#     4  11  23  39  63  92 131 165 220 272 318 384
#     4  11  21  39  62  97 129 174 211 266 327 392
#     4  11  23  41  62  98 134 170 214 281 321 388
#
# _framework density 23.884464000000001
#
# number of rings (size 3 to 8) (size 9 to 14) (size 15 to 20)
#    0.000    1.500    5.000    0.000    1.750    1.000 
#    0.000    3.750    0.000    0.000    0.000    0.000 
#    0.000    0.000    0.000    0.000    0.000    0.000 
#
# Total GULP energy -198262.356979 kJ/mol
# GULP energy per Si atom -12391.397311 kJ/mol
# Density = 2.383010 g / cm^3
# Si number density = 23.884464 Si / 1000 Ang^3
#
#
#
# Elastic Constant Matrix: (Units=GPa)
#
#
# Indices 1 2 3 4 5 6 
#
# 1 69.6328 40.1773 25.9522 -0.0019 20.7208 0.0008
# 2 40.1773 111.7510 47.1093 -0.0096 17.8493 0.0024
# 3 25.9522 47.1093 75.4972 0.0008 16.5616 -0.0029
# 4 -0.0019 -0.0096 0.0008 61.8754 -0.0017 19.9945
# 5 20.7208 17.8493 16.5616 -0.0017 28.2256 0.0019
# 6 0.0008 0.0024 -0.0029 19.9945 0.0019 31.7630
#
#
#
# Elastic Compliance Matrix: (Units=1/GPa)
#
#
# Indices 1 2 3 4 5 6 
#
# 1 0.021353 -0.005172 -0.001597 -0.000001 -0.011468 0.000001
# 2 -0.005172 0.013744 -0.006570 0.000003 -0.001039 -0.000003
# 3 -0.001597 -0.006570 0.019196 -0.000003 -0.005936 0.000004
# 4 -0.000001 0.000003 -0.000003 0.020288 0.000002 -0.012771
# 5 -0.011468 -0.001039 -0.005936 0.000002 0.047988 -0.000004
# 6 0.000001 -0.000003 0.000004 -0.012771 -0.000004 0.039523
#
#
# Mechanical properties :
#
#
# Convention : Reuss Voigt Hill
#
# Bulk Modulus (GPa) = 36.21270 53.70654 44.95962
# Shear Modulus (GPa) = 25.25572 33.94895 29.60234
#
# Velocity S-wave (km/s) = 3.25532 3.77421 3.52433
# Velocity P-wave (km/s) = 5.41516 6.44420 5.95196
#
# Compressibility (1/GPa) = 0.02761462
#
# Stress axis : x y z
#
# Youngs Moduli (GPa) = 46.83197 72.76160 52.09322
#
# Poissons Ratio (x) = 0.37632 0.08321
# Poissons Ratio (y) = 0.24221 0.34225
# Poissons Ratio (z) = 0.07480 0.47804
#
# Static dielectric constant tensor:
#      x y z
#    x 3.917380 0.000000 0.474250 
#    y 0.000000 4.647150 0.000010 
#    z 0.474250 0.000010 4.337540 
# 
# 
# High freq. dielectric constant tensor:
#      x y z
#    x 1.907590 0.000000 0.028070 
#    y 0.000000 1.958020 0.000000 
#    z 0.028070 0.000000 1.949900 
# 
# From -- ./inp_files/30713.got.cif
#   From: 2010.06.25/outbox.cif.g09.slc.cpg/sg9_16_cif.got.tgz:30713.got - 2010.06.27 21:40:51.
