data_PCOD8055043
_publ_section_title
;
Structure prediction by ZEFSAII (Michael W. Deem and Ramdas Pophale) SiO2 
 PCOD8055043
Probable space group: C C
;
_chemical_formula_sum "Si O2"
_cell_formula_units_Z 20
_cell_length_a 9.366766
_cell_length_b 10.931345
_cell_length_c 9.829877
_cell_angle_alpha 90.000000
_cell_angle_beta 130.038644
_cell_angle_gamma 90.000000
_cell_volume 770.582901
_symmetry_space_group_name_H-M "C C"
_symmetry_group_IT_number 9
_symmetry_cell_setting 'monoclinic'
loop_
_space_group_symop_operation_xyz
x,y,z
x,-y,1/2+z
1/2+x,1/2+y,z
1/2+x,1/2-y,1/2+z
loop_
_atom_site_type_symbol
_atom_site_label
_atom_site_fract_x
_atom_site_fract_y
_atom_site_fract_z
Si Si1 0.247070 0.126101 0.808340
Si Si2 0.483630 0.604681 0.140832
Si Si3 0.265273 0.697957 0.763510
Si Si4 0.110730 0.330118 0.895916
Si Si5 0.156713 0.367281 0.631594
O O1 0.206643 0.196174 0.926462
O O2 0.177671 0.218218 0.645842
O O3 0.468602 0.095770 0.934779
O O4 0.131309 0.003340 0.725396
O O5 0.587251 0.735427 0.223297
O O6 0.340833 0.579264 0.175122
O O7 0.367241 0.607952 0.929260
O O8 0.203518 0.617171 0.592294
O O9 0.393749 0.809090 0.789829
O O10 0.144020 0.415415 0.782610
#
# Coordination Sequence:
#
# PCOD8055043 Si02
#       5
#     4   4   4   4   4
#     4  10  22  46  77 108 147 202 254 310 391 451
#     4  11  24  45  76 112 156 194 255 324 386 447
#     4  10  21  42  71 108 151 189 243 324 374 453
#     4   9  18  43  73  94 148 196 239 304 380 446
#     4  10  21  46  77 106 150 197 257 316 369 475
#
# _framework density 25.954377000000001
#
# number of rings (size 3 to 8) (size 9 to 14) (size 15 to 20)
#    1.200    0.800    2.000    1.200    0.000    0.000 
#   25.200    0.000    0.000    0.000    0.000    0.000 
#    0.000    0.000    0.000    0.000    0.000    0.000 
#
# Total GULP energy -123912.532319 kJ/mol
# GULP energy per Si atom -12391.253232 kJ/mol
# Density = 2.589530 g / cm^3
# Si number density = 25.954377 Si / 1000 Ang^3
#
#
#
# Elastic Constant Matrix: (Units=GPa)
#
#
# Indices 1 2 3 4 5 6 
#
# 1 153.2251 20.7962 61.4962 0.0000 20.3066 0.0000
# 2 20.7962 78.6396 32.3192 0.0000 22.6391 0.0000
# 3 61.4962 32.3192 168.8294 0.0000 12.5923 0.0000
# 4 0.0000 0.0000 0.0000 39.9023 0.0000 22.2464
# 5 20.3066 22.6391 12.5923 0.0000 45.9345 0.0000
# 6 0.0000 0.0000 0.0000 22.2464 0.0000 5.3239
#
#
#
# Elastic Compliance Matrix: (Units=1/GPa)
#
#
# Indices 1 2 3 4 5 6 
#
# 1 0.007983 -0.000247 -0.002661 0.000000 -0.002678 0.000000
# 2 -0.000247 0.015791 -0.002410 0.000000 -0.007013 0.000000
# 3 -0.002661 -0.002410 0.007327 0.000000 0.000355 0.000000
# 4 0.000000 0.000000 0.000000 -0.018848 0.000000 0.078757
# 5 -0.002678 -0.007013 0.000355 0.000000 0.026313 0.000000
# 6 0.000000 0.000000 0.000000 0.078757 0.000000 -0.141263
#
#
# Mechanical properties :
#
#
# Convention : Reuss Voigt Hill
#
# Bulk Modulus (GPa) = 48.86141 69.99083 59.42612
# Shear Modulus (GPa) = -58.65724 37.30431 -10.67647
#
# Velocity S-wave (km/s) = -4.75912 3.79529 -2.03039
# Velocity P-wave (km/s) = 3.36633 6.79934 4.17725
#
# Compressibility (1/GPa) = 0.02046605
#
# Stress axis : x y z
#
# Youngs Moduli (GPa) = 125.27264 63.32805 136.47872
#
# Poissons Ratio (x) = 0.01561 0.36313
# Poissons Ratio (y) = 0.03088 0.32891
# Poissons Ratio (z) = 0.33332 0.15262
#
# Static dielectric constant tensor:
#      x y z
#    x 4.744940 0.000000 0.071860 
#    y 0.000000 4.059700 0.000000 
#    z 0.071860 0.000000 4.695760 
# 
# 
# High freq. dielectric constant tensor:
#      x y z
#    x 2.042730 0.000000 0.014770 
#    y 0.000000 2.020380 0.000000 
#    z 0.014770 0.000000 2.038150 
# 
# From -- ./inp_files/6817.got.cif
#   From: 2010.06.25/outbox.cif.g09.slc.cpg/sg9_4_cif.got.tgz:6817.got - 2010.06.27 21:40:51.
