data_PCOD8055829
_publ_section_title
;
Structure prediction by ZEFSAII (Michael W. Deem and Ramdas Pophale) SiO2 
 PCOD8055829
Probable space group: C C
;
_chemical_formula_sum "Si O2"
_cell_formula_units_Z 28
_cell_length_a 7.754991
_cell_length_b 24.327051
_cell_length_c 8.534511
_cell_angle_alpha 90.000000
_cell_angle_beta 128.621423
_cell_angle_gamma 90.000000
_cell_volume 1257.940462
_symmetry_space_group_name_H-M "C C"
_symmetry_group_IT_number 9
_symmetry_cell_setting 'monoclinic'
loop_
_space_group_symop_operation_xyz
x,y,z
x,-y,1/2+z
1/2+x,1/2+y,z
1/2+x,1/2-y,1/2+z
loop_
_atom_site_type_symbol
_atom_site_label
_atom_site_fract_x
_atom_site_fract_y
_atom_site_fract_z
Si Si1 0.111800 0.583287 0.454930
Si Si2 0.861779 0.834475 0.302003
Si Si3 0.967123 0.998686 0.715047
Si Si4 0.143265 0.065705 0.059095
Si Si5 0.171247 0.811821 0.200258
Si Si6 0.667186 0.798719 0.503226
Si Si7 0.395881 0.386319 0.839440
O O1 0.163181 0.634670 0.598095
O O2 0.230540 0.529145 0.593150
O O3 0.184546 0.597092 0.320479
O O4 0.854045 0.572515 0.289450
O O5 0.745729 0.794769 0.365014
O O6 0.015246 0.876968 0.483497
O O7 0.018028 0.800799 0.268073
O O8 0.982493 0.938335 0.796425
O O9 0.006015 0.985835 0.554585
O O10 0.157627 0.040684 0.890274
O O11 0.423590 0.824095 0.387543
O O12 0.164645 0.760960 0.078275
O O13 0.085394 0.866333 0.065924
O O14 0.837313 0.837295 0.689324
#
# Coordination Sequence:
#
# PCOD8055829 Si02
#       7
#     4   4   4   4   4   4   4
#     4  10  24  43  65  98 138 181 213 280 341 400
#     4  10  25  45  68 102 137 176 233 274 342 415
#     4  11  23  39  64 100 135 168 226 268 325 418
#     4  11  23  41  65 100 138 179 218 272 338 406
#     4  11  26  46  65  99 134 176 226 290 339 392
#     4  12  24  45  72  95 130 182 227 284 344 394
#     4  11  23  45  63  96 136 168 229 278 329 409
#
# _framework density 22.258604999999999
#
# number of rings (size 3 to 8) (size 9 to 14) (size 15 to 20)
#    0.000    1.143    4.286    0.857    4.000    2.286 
#    0.000    0.000    0.000    0.000    0.000    0.000 
#    0.000    0.000    0.000    0.000    0.000    0.000 
#
# Total GULP energy -173516.873998 kJ/mol
# GULP energy per Si atom -12394.062428 kJ/mol
# Density = 2.220794 g / cm^3
# Si number density = 22.258605 Si / 1000 Ang^3
#
#
#
# Elastic Constant Matrix: (Units=GPa)
#
#
# Indices 1 2 3 4 5 6 
#
# 1 90.8866 30.8915 35.0581 0.0000 -9.5876 0.0000
# 2 30.8915 75.5374 28.0979 0.0000 -8.2924 0.0000
# 3 35.0581 28.0979 110.0668 0.0000 12.1093 0.0000
# 4 0.0000 0.0000 0.0000 37.1683 0.0000 -14.0808
# 5 -9.5876 -8.2924 12.1093 0.0000 39.4681 0.0000
# 6 0.0000 0.0000 0.0000 -14.0808 0.0000 33.0976
#
#
#
# Elastic Compliance Matrix: (Units=1/GPa)
#
#
# Indices 1 2 3 4 5 6 
#
# 1 0.014279 -0.003941 -0.003967 0.000000 0.003858 0.000000
# 2 -0.003941 0.016480 -0.003340 0.000000 0.003530 0.000000
# 3 -0.003967 -0.003340 0.011782 0.000000 -0.005280 0.000000
# 4 0.000000 0.000000 0.000000 0.032074 0.000000 0.013645
# 5 0.003858 0.003530 -0.005280 0.000000 0.028636 0.000000
# 6 0.000000 0.000000 0.000000 0.013645 0.000000 0.036019
#
#
# Mechanical properties :
#
#
# Convention : Reuss Voigt Hill
#
# Bulk Modulus (GPa) = 49.88349 51.62065 50.75207
# Shear Modulus (GPa) = 29.68286 34.10969 31.89627
#
# Velocity S-wave (km/s) = 3.65574 3.91887 3.78959
# Velocity P-wave (km/s) = 6.34655 6.61199 6.48063
#
# Compressibility (1/GPa) = 0.02004671
#
# Stress axis : x y z
#
# Youngs Moduli (GPa) = 70.03244 60.67959 84.87191
#
# Poissons Ratio (x) = 0.23911 0.33665
# Poissons Ratio (y) = 0.27597 0.28350
# Poissons Ratio (z) = 0.27779 0.20269
#
# Static dielectric constant tensor:
#      x y z
#    x 4.035120 0.000000 -0.216430 
#    y 0.000000 3.932410 0.000000 
#    z -0.216430 0.000000 4.205010 
# 
# 
# High freq. dielectric constant tensor:
#      x y z
#    x 1.861900 0.000000 -0.015450 
#    y 0.000000 1.874240 0.000000 
#    z -0.015450 0.000000 1.896640 
# 
# From -- ./inp_files/5725.got.cif
#   From: 2010.06.25/outbox.cif.g09.slc.cpg/sg9_3_cif.got.tgz:5725.got - 2010.06.27 21:40:51.
