data_PCOD8055072
_publ_section_title
;
Structure prediction by ZEFSAII (Michael W. Deem and Ramdas Pophale) SiO2 
 PCOD8055072
Probable space group: C C
;
_chemical_formula_sum "Si O2"
_cell_formula_units_Z 32
_cell_length_a 9.159802
_cell_length_b 10.351199
_cell_length_c 26.053210
_cell_angle_alpha 90.000000
_cell_angle_beta 145.136924
_cell_angle_gamma 90.000000
_cell_volume 1412.027910
_symmetry_space_group_name_H-M "C C"
_symmetry_group_IT_number 9
_symmetry_cell_setting 'monoclinic'
loop_
_space_group_symop_operation_xyz
x,y,z
x,-y,1/2+z
1/2+x,1/2+y,z
1/2+x,1/2-y,1/2+z
loop_
_atom_site_type_symbol
_atom_site_label
_atom_site_fract_x
_atom_site_fract_y
_atom_site_fract_z
Si Si1 0.864020 0.671056 0.834990
Si Si2 0.380190 0.657664 0.759643
Si Si3 0.112234 0.064519 0.392190
Si Si4 0.771826 0.570760 0.251413
Si Si5 0.250494 0.651585 0.137822
Si Si6 0.599461 0.971408 0.488624
Si Si7 0.883246 0.534452 0.579778
Si Si8 0.119115 0.056632 0.605730
O O1 0.566132 0.655245 0.763954
O O2 0.928512 0.554939 0.814223
O O3 0.938050 0.809178 0.832447
O O4 0.042201 0.648346 0.935119
O O5 0.440646 0.555714 0.822801
O O6 0.432661 0.797734 0.800237
O O7 0.084203 0.649529 0.653791
O O8 0.209949 0.058078 0.479391
O O9 0.361589 0.068782 0.427780
O O10 0.534458 0.593658 0.221993
O O11 0.709454 0.546544 0.173772
O O12 0.146285 0.610321 0.052825
O O13 0.246311 0.803285 0.148210
O O14 0.072020 0.587454 0.129245
O O15 0.815405 0.064451 0.527433
O O16 0.686397 0.503744 0.568743
#
# Coordination Sequence:
#
# PCOD8055072 Si02
#       8
#     4   4   4   4   4   4   4   4
#     4  11  24  43  71  99 140 182 233 289 350 413
#     4  11  25  46  71 103 143 183 232 294 353 414
#     4  10  25  46  75 102 141 188 235 287 357 417
#     4  11  25  41  69 100 143 179 229 285 350 413
#     4  10  21  43  67  98 134 180 229 282 346 413
#     4   9  23  44  63 100 139 180 226 297 343 414
#     4  11  23  45  76  98 139 188 230 288 349 416
#     4  11  24  40  70 106 135 184 236 282 352 418
#
# _framework density 22.662443
#
# number of rings (size 3 to 8) (size 9 to 14) (size 15 to 20)
#    0.000    1.500    2.500    0.750    5.250    5.000 
#    0.000    1.250    0.000    0.000    0.000    0.000 
#    0.000    0.000    0.000    0.000    0.000    0.000 
#
# Total GULP energy -198263.614518 kJ/mol
# GULP energy per Si atom -12391.475907 kJ/mol
# Density = 2.261086 g / cm^3
# Si number density = 22.662443 Si / 1000 Ang^3
#
#
#
# Elastic Constant Matrix: (Units=GPa)
#
#
# Indices 1 2 3 4 5 6 
#
# 1 116.2974 61.3574 28.2986 0.0000 -3.0237 0.0000
# 2 61.3574 171.6853 39.3460 0.0000 -5.5548 0.0000
# 3 28.2986 39.3460 71.8315 -0.0001 4.7358 0.0000
# 4 0.0000 0.0000 -0.0001 29.1218 0.0000 3.7788
# 5 -3.0237 -5.5548 4.7358 0.0000 14.8408 0.0000
# 6 0.0000 0.0000 0.0000 3.7788 0.0000 29.0528
#
#
#
# Elastic Compliance Matrix: (Units=1/GPa)
#
#
# Indices 1 2 3 4 5 6 
#
# 1 0.011021 -0.003264 -0.002678 0.000000 0.001878 0.000000
# 2 -0.003264 0.007837 -0.003224 0.000000 0.003297 0.000000
# 3 -0.002678 -0.003224 0.017220 0.000000 -0.007247 0.000000
# 4 0.000000 0.000000 0.000000 0.034928 0.000000 -0.004543
# 5 0.001878 0.003297 -0.007247 0.000000 0.071311 0.000000
# 6 0.000000 0.000000 0.000000 -0.004543 0.000000 0.035011
#
#
# Mechanical properties :
#
#
# Convention : Reuss Voigt Hill
#
# Bulk Modulus (GPa) = 56.35032 68.64647 62.49840
# Shear Modulus (GPa) = 24.80456 29.99056 27.39756
#
# Velocity S-wave (km/s) = 3.31195 3.64175 3.48076
# Velocity P-wave (km/s) = 6.28843 6.93107 6.61756
#
# Compressibility (1/GPa) = 0.01774613
#
# Stress axis : x y z
#
# Youngs Moduli (GPa) = 90.73344 127.60362 58.07171
#
# Poissons Ratio (x) = 0.41655 0.15550
# Poissons Ratio (y) = 0.29619 0.18722
# Poissons Ratio (z) = 0.24295 0.41139
#
# Static dielectric constant tensor:
#      x y z
#    x 4.287940 0.000000 0.029750 
#    y 0.000000 4.000430 0.000000 
#    z 0.029750 0.000000 4.058870 
# 
# 
# High freq. dielectric constant tensor:
#      x y z
#    x 1.900550 0.000000 -0.001940 
#    y 0.000000 1.892710 0.000000 
#    z -0.001940 0.000000 1.887190 
# 
# From -- ./inp_files/35018.got.cif
#   From: 2010.06.25/outbox.cif.g09.slc.cpg/sg9_18_cif.got.tgz:35018.got - 2010.06.27 21:40:51.
