data_PCOD8055857
_publ_section_title
;
Structure prediction by ZEFSAII (Michael W. Deem and Ramdas Pophale) SiO2 
 PCOD8055857
Probable space group: C C
;
_chemical_formula_sum "Si O2"
_cell_formula_units_Z 32
_cell_length_a 6.637714
_cell_length_b 18.275002
_cell_length_c 12.374546
_cell_angle_alpha 90.000000
_cell_angle_beta 95.397687
_cell_angle_gamma 90.000000
_cell_volume 1494.428690
_symmetry_space_group_name_H-M "C C"
_symmetry_group_IT_number 9
_symmetry_cell_setting 'monoclinic'
loop_
_space_group_symop_operation_xyz
x,y,z
x,-y,1/2+z
1/2+x,1/2+y,z
1/2+x,1/2-y,1/2+z
loop_
_atom_site_type_symbol
_atom_site_label
_atom_site_fract_x
_atom_site_fract_y
_atom_site_fract_z
Si Si1 0.861470 0.782607 0.658530
Si Si2 0.428608 0.078157 0.437803
Si Si3 0.667080 0.786332 0.047278
Si Si4 0.673163 0.994031 0.772354
Si Si5 0.371197 0.949039 0.587069
Si Si6 0.007843 0.692238 0.989477
Si Si7 0.067048 0.919069 0.755855
Si Si8 0.595791 0.837735 0.261615
O O1 0.637903 0.793948 0.603257
O O2 0.016490 0.781862 0.563722
O O3 0.926472 0.847320 0.742492
O O4 0.881290 0.702983 0.720246
O O5 0.532566 0.151418 0.485095
O O6 0.603251 0.034638 0.384631
O O7 0.235347 0.096425 0.354455
O O8 0.348899 0.027989 0.530832
O O9 0.749065 0.812148 0.172367
O O10 0.847030 0.759296 0.978815
O O11 0.571561 0.947014 0.671699
O O12 0.917198 0.986689 0.778478
O O13 0.587956 0.075603 0.757486
O O14 0.392310 0.885035 0.498900
O O15 0.170104 0.937567 0.647300
O O16 0.142332 0.689625 0.886557
#
# Coordination Sequence:
#
# PCOD8055857 Si02
#       8
#     4   4   4   4   4   4   4   4
#     4  10  24  44  65 103 133 178 233 281 339 422
#     4  11  25  42  70  99 139 183 227 287 352 408
#     4  10  25  45  64 102 138 174 232 287 334 414
#     4  11  23  45  66  99 139 180 228 288 343 417
#     4  11  21  44  69  97 139 177 234 286 343 412
#     4  12  23  45  75  95 140 189 222 290 351 400
#     4  11  25  42  69 101 136 183 229 282 358 416
#     4  10  24  45  66 102 136 176 235 281 340 411
#
# _framework density 21.412865
#
# number of rings (size 3 to 8) (size 9 to 14) (size 15 to 20)
#    0.750    0.500    5.000    0.000    3.500    2.000 
#    9.000    0.000    0.000    0.000    0.000    0.000 
#    0.000    0.000    0.000    0.000    0.000    0.000 
#
# Total GULP energy -198220.814454 kJ/mol
# GULP energy per Si atom -12388.800903 kJ/mol
# Density = 2.136413 g / cm^3
# Si number density = 21.412865 Si / 1000 Ang^3
#
#
#
# Elastic Constant Matrix: (Units=GPa)
#
#
# Indices 1 2 3 4 5 6 
#
# 1 93.2916 44.7551 34.6744 0.0000 7.9412 0.0000
# 2 44.7551 114.3044 42.7642 0.0000 9.1847 0.0000
# 3 34.6744 42.7642 98.9470 0.0000 -2.1596 0.0000
# 4 0.0000 0.0000 0.0000 33.2032 0.0000 0.8718
# 5 7.9412 9.1847 -2.1596 0.0000 26.6522 0.0000
# 6 0.0000 0.0000 0.0000 0.8718 0.0000 26.6880
#
#
#
# Elastic Compliance Matrix: (Units=1/GPa)
#
#
# Indices 1 2 3 4 5 6 
#
# 1 0.014147 -0.004070 -0.003266 0.000000 -0.003077 0.000000
# 2 -0.004070 0.012044 -0.003850 0.000000 -0.003250 0.000000
# 3 -0.003266 -0.003850 0.012988 0.000000 0.003352 0.000000
# 4 0.000000 0.000000 0.000000 0.030143 0.000000 -0.000985
# 5 -0.003077 -0.003250 0.003352 0.000000 0.039829 0.000000
# 6 0.000000 0.000000 0.000000 -0.000985 0.000000 0.037502
#
#
# Mechanical properties :
#
#
# Convention : Reuss Voigt Hill
#
# Bulk Modulus (GPa) = 59.49761 61.21450 60.35606
# Shear Modulus (GPa) = 28.63238 29.59863 29.11550
#
# Velocity S-wave (km/s) = 3.66068 3.72194 3.69144
# Velocity P-wave (km/s) = 6.76119 6.86442 6.81300
#
# Compressibility (1/GPa) = 0.01680740
#
# Stress axis : x y z
#
# Youngs Moduli (GPa) = 70.68394 83.03128 76.99501
#
# Poissons Ratio (x) = 0.33796 0.25145
# Poissons Ratio (y) = 0.28770 0.29641
# Poissons Ratio (z) = 0.23084 0.31965
#
# Static dielectric constant tensor:
#      x y z
#    x 3.527370 0.000000 -0.100960 
#    y 0.000000 3.824550 0.000000 
#    z -0.100960 0.000000 3.973010 
# 
# 
# High freq. dielectric constant tensor:
#      x y z
#    x 1.810800 0.000000 -0.005930 
#    y 0.000000 1.846360 0.000000 
#    z -0.005930 0.000000 1.846230 
# 
# From -- ./inp_files/13493.got.cif
#   From: 2010.06.25/outbox.cif.g09.slc.cpg/sg9_7_cif.got.tgz:13493.got - 2010.06.27 21:40:51.
