data_PCOD8055677
_publ_section_title
;
Structure prediction by ZEFSAII (Michael W. Deem and Ramdas Pophale) SiO2 
 PCOD8055677
Probable space group: C C
;
_chemical_formula_sum "Si O2"
_cell_formula_units_Z 28
_cell_length_a 22.354167
_cell_length_b 9.313274
_cell_length_c 9.313150
_cell_angle_alpha 90.000000
_cell_angle_beta 37.179487
_cell_angle_gamma 90.000000
_cell_volume 1171.709780
_symmetry_space_group_name_H-M "C C"
_symmetry_group_IT_number 9
_symmetry_cell_setting 'monoclinic'
loop_
_space_group_symop_operation_xyz
x,y,z
x,-y,1/2+z
1/2+x,1/2+y,z
1/2+x,1/2-y,1/2+z
loop_
_atom_site_type_symbol
_atom_site_label
_atom_site_fract_x
_atom_site_fract_y
_atom_site_fract_z
Si Si1 0.656050 0.792586 0.790980
Si Si2 0.761265 0.353625 0.573879
Si Si3 0.312820 0.469410 0.940812
Si Si4 0.018319 0.674754 0.312961
Si Si5 0.445303 0.481751 0.433859
Si Si6 0.974684 0.545722 0.676383
Si Si7 0.166400 0.964336 0.474065
O O1 0.624680 0.774695 0.680440
O O2 0.693509 0.649431 0.795781
O O3 0.738160 0.915085 0.648632
O O4 0.557311 0.838260 0.068464
O O5 0.759237 0.185139 0.537930
O O6 0.866323 0.408339 0.435896
O O7 0.736471 0.441242 0.476292
O O8 0.685045 0.385678 0.851688
O O9 0.356588 0.530337 0.708393
O O10 0.412630 0.459438 0.842869
O O11 0.945472 0.809523 0.447466
O O12 0.974787 0.548748 0.501053
O O13 0.014824 0.606931 0.160316
O O14 0.554923 0.544261 0.249163
#
# Coordination Sequence:
#
# PCOD8055677 Si02
#       7
#     4   4   4   4   4   4   4
#     4  10  26  45  75 104 145 188 244 303 360 437
#     4  12  26  46  74 112 142 197 244 306 365 441
#     4  12  27  47  75 106 147 190 250 294 372 431
#     4  10  23  45  70 105 148 186 246 290 374 424
#     4  12  26  51  69 105 150 198 235 304 365 448
#     4  10  23  44  73 102 150 183 240 309 356 432
#     4  12  27  48  78 104 156 188 251 298 374 435
#
# _framework density 23.896699999999999
#
# number of rings (size 3 to 8) (size 9 to 14) (size 15 to 20)
#    0.857    0.000    1.429    5.143    8.000    1.143 
#    5.143    0.000    0.000    0.000    0.000    0.000 
#    0.000    0.000    0.000    0.000    0.000    0.000 
#
# Total GULP energy -173454.456704 kJ/mol
# GULP energy per Si atom -12389.604050 kJ/mol
# Density = 2.384231 g / cm^3
# Si number density = 23.896700 Si / 1000 Ang^3
#
#
#
# Elastic Constant Matrix: (Units=GPa)
#
#
# Indices 1 2 3 4 5 6 
#
# 1 84.4014 23.2833 26.1579 0.0000 0.6581 0.0000
# 2 23.2833 73.0517 36.2500 0.0000 13.4552 0.0000
# 3 26.1579 36.2500 91.1821 0.0000 -6.6320 0.0000
# 4 0.0000 0.0000 0.0000 31.6121 0.0000 4.5075
# 5 0.6581 13.4552 -6.6320 0.0000 37.4674 0.0000
# 6 0.0000 0.0000 0.0000 4.5075 0.0000 46.1343
#
#
#
# Elastic Compliance Matrix: (Units=1/GPa)
#
#
# Indices 1 2 3 4 5 6 
#
# 1 0.013507 -0.003079 -0.002621 0.000000 0.000404 0.000000
# 2 -0.003079 0.020067 -0.007714 0.000000 -0.008518 0.000000
# 3 -0.002621 -0.007714 0.015186 0.000000 0.005504 0.000000
# 4 0.000000 0.000000 0.000000 0.032080 0.000000 -0.003134
# 5 0.000404 -0.008518 0.005504 0.000000 0.030716 0.000000
# 6 0.000000 0.000000 0.000000 -0.003134 0.000000 0.021982
#
#
# Mechanical properties :
#
#
# Convention : Reuss Voigt Hill
#
# Bulk Modulus (GPa) = 45.59613 46.66862 46.13237
# Shear Modulus (GPa) = 29.81924 33.90568 31.86246
#
# Velocity S-wave (km/s) = 3.53631 3.77084 3.65546
# Velocity P-wave (km/s) = 5.98297 6.20731 6.09617
#
# Compressibility (1/GPa) = 0.02193169
#
# Stress axis : x y z
#
# Youngs Moduli (GPa) = 74.03731 49.83328 65.84916
#
# Poissons Ratio (x) = 0.15341 0.17262
# Poissons Ratio (y) = 0.22793 0.50797
# Poissons Ratio (z) = 0.19408 0.38442
#
# Static dielectric constant tensor:
#      x y z
#    x 4.235850 0.000000 -0.000940 
#    y 0.000000 4.086550 0.000000 
#    z -0.000940 0.000000 4.054280 
# 
# 
# High freq. dielectric constant tensor:
#      x y z
#    x 1.952910 0.000000 -0.004560 
#    y 0.000000 1.937050 0.000000 
#    z -0.004560 0.000000 1.941390 
# 
# From -- ./inp_files/11408.got.cif
#   From: 2010.06.25/outbox.cif.g09.slc.cpg/sg9_6_cif.got.tgz:11408.got - 2010.06.27 21:40:51.
