data_PCOD8055458
_publ_section_title
;
Structure prediction by ZEFSAII (Michael W. Deem and Ramdas Pophale) SiO2 
 PCOD8055458
Probable space group: C C
;
_chemical_formula_sum "Si O2"
_cell_formula_units_Z 32
_cell_length_a 5.624981
_cell_length_b 18.290127
_cell_length_c 13.935860
_cell_angle_alpha 90.000000
_cell_angle_beta 82.649685
_cell_angle_gamma 90.000000
_cell_volume 1421.961986
_symmetry_space_group_name_H-M "C C"
_symmetry_group_IT_number 9
_symmetry_cell_setting 'monoclinic'
loop_
_space_group_symop_operation_xyz
x,y,z
x,-y,1/2+z
1/2+x,1/2+y,z
1/2+x,1/2-y,1/2+z
loop_
_atom_site_type_symbol
_atom_site_label
_atom_site_fract_x
_atom_site_fract_y
_atom_site_fract_z
Si Si1 0.850540 0.127455 0.253390
Si Si2 0.427350 0.461329 0.223189
Si Si3 0.726540 0.279781 0.496665
Si Si4 0.527256 0.872833 0.596670
Si Si5 0.367738 0.361703 0.398936
Si Si6 0.654618 0.720056 0.351966
Si Si7 0.451031 0.039199 0.626351
Si Si8 0.514710 0.138349 0.449471
O O1 0.684039 0.158355 0.176653
O O2 0.725864 0.122611 0.363529
O O3 0.064100 0.186951 0.255147
O O4 0.948786 0.048550 0.219424
O O5 0.390187 0.433450 0.333114
O O6 0.189519 0.436452 0.174700
O O7 0.689220 0.430690 0.175243
O O8 0.613571 0.346528 0.442082
O O9 0.547350 0.210626 0.516180
O O10 0.807817 0.315542 0.593659
O O11 0.946072 0.247540 0.429220
O O12 0.665734 0.876323 0.488668
O O13 0.429927 0.952119 0.628508
O O14 0.325186 0.290964 0.331241
O O15 0.778957 0.651890 0.398966
O O16 0.485670 0.067630 0.516841
#
# Coordination Sequence:
#
# PCOD8055458 Si02
#       8
#     4   4   4   4   4   4   4   4
#     4  10  23  42  68 100 132 176 228 280 340 412
#     4  11  27  45  68 103 138 179 234 279 340 406
#     4   9  21  41  66  96 134 169 235 270 347 406
#     4  10  23  42  68 100 132 176 228 280 340 412
#     4  10  22  45  66  97 135 180 221 286 340 406
#     4   9  21  41  66  96 134 169 235 270 347 406
#     4  11  27  45  68 103 138 179 234 279 340 406
#     4  10  22  45  66  97 135 180 221 286 340 406
#
# _framework density 22.504117000000001
#
# number of rings (size 3 to 8) (size 9 to 14) (size 15 to 20)
#    0.000    2.000    0.000    0.750   14.000    1.000 
#   13.500    0.000    0.000    0.000    0.000    0.000 
#    0.000    0.000    0.000    0.000    0.000    0.000 
#
# Total GULP energy -198263.749915 kJ/mol
# GULP energy per Si atom -12391.484370 kJ/mol
# Density = 2.245290 g / cm^3
# Si number density = 22.504117 Si / 1000 Ang^3
#
#
#
# Elastic Constant Matrix: (Units=GPa)
#
#
# Indices 1 2 3 4 5 6 
#
# 1 125.0842 21.7997 38.7413 0.0000 21.4626 0.0000
# 2 21.7997 44.6241 27.1531 0.0000 28.4993 0.0000
# 3 38.7413 27.1531 101.9457 0.0000 16.0177 0.0000
# 4 0.0000 0.0000 0.0000 34.3778 0.0000 11.9247
# 5 21.4626 28.4993 16.0177 0.0000 44.0377 0.0000
# 6 0.0000 0.0000 0.0000 11.9247 0.0000 17.8279
#
#
#
# Elastic Compliance Matrix: (Units=1/GPa)
#
#
# Indices 1 2 3 4 5 6 
#
# 1 0.009579 -0.001033 -0.002902 0.000000 -0.002944 0.000000
# 2 -0.001033 0.043125 -0.007199 0.000000 -0.024786 0.000000
# 3 -0.002902 -0.007199 0.012595 0.000000 0.001492 0.000000
# 4 0.000000 0.000000 0.000000 0.037876 0.000000 -0.025335
# 5 -0.002944 -0.024786 0.001492 0.000000 0.039641 0.000000
# 6 0.000000 0.000000 0.000000 -0.025335 0.000000 0.073038
#
#
# Mechanical properties :
#
#
# Convention : Reuss Voigt Hill
#
# Bulk Modulus (GPa) = 23.23998 49.67136 36.45567
# Shear Modulus (GPa) = 19.80469 31.51267 25.65868
#
# Velocity S-wave (km/s) = 2.96978 3.74613 3.38031
# Velocity P-wave (km/s) = 4.70200 6.38994 5.60982
#
# Compressibility (1/GPa) = 0.04302930
#
# Stress axis : x y z
#
# Youngs Moduli (GPa) = 104.39759 23.18862 79.39593
#
# Poissons Ratio (x) = 0.02396 0.23044
# Poissons Ratio (y) = 0.10785 0.57158
# Poissons Ratio (z) = 0.30300 0.16694
#
# Static dielectric constant tensor:
#      x y z
#    x 4.577620 0.000000 0.433420 
#    y 0.000000 4.268530 0.000000 
#    z 0.433420 0.000000 4.007220 
# 
# 
# High freq. dielectric constant tensor:
#      x y z
#    x 1.904140 0.000000 0.011800 
#    y 0.000000 1.878180 0.000000 
#    z 0.011800 0.000000 1.876130 
# 
# From -- ./inp_files/13361.got.cif
#   From: 2010.06.25/outbox.cif.g09.slc.cpg/sg9_7_cif.got.tgz:13361.got - 2010.06.27 21:40:51.
