data_PCOD8055398
_publ_section_title
;
Structure prediction by ZEFSAII (Michael W. Deem and Ramdas Pophale) SiO2 
 PCOD8055398
Probable space group: C C
;
_chemical_formula_sum "Si O2"
_cell_formula_units_Z 32
_cell_length_a 15.025446
_cell_length_b 10.485520
_cell_length_c 9.791128
_cell_angle_alpha 90.000000
_cell_angle_beta 112.991832
_cell_angle_gamma 90.000000
_cell_volume 1420.046059
_symmetry_space_group_name_H-M "C C"
_symmetry_group_IT_number 9
_symmetry_cell_setting 'monoclinic'
loop_
_space_group_symop_operation_xyz
x,y,z
x,-y,1/2+z
1/2+x,1/2+y,z
1/2+x,1/2-y,1/2+z
loop_
_atom_site_type_symbol
_atom_site_label
_atom_site_fract_x
_atom_site_fract_y
_atom_site_fract_z
Si Si1 0.531780 0.340927 0.224880
Si Si2 0.838557 0.919169 0.218076
Si Si3 0.163609 0.276147 0.013804
Si Si4 0.778812 0.430003 0.987901
Si Si5 0.468024 0.916181 0.575434
Si Si6 0.156619 0.031359 0.156730
Si Si7 0.074661 0.471079 0.383602
Si Si8 0.777062 0.135754 0.983625
O O1 0.452875 0.387812 0.288260
O O2 0.632487 0.289996 0.351547
O O3 0.475589 0.233568 0.107242
O O4 0.559844 0.458467 0.144534
O O5 0.777833 0.809228 0.098945
O O6 0.805571 0.926802 0.355587
O O7 0.823903 0.055447 0.135126
O O8 0.129254 0.178428 0.110485
O O9 0.107470 0.407607 0.993120
O O10 0.867139 0.525769 0.063553
O O11 0.696165 0.459341 0.047529
O O12 0.811631 0.282145 0.015651
O O13 0.740507 0.465525 0.817119
O O14 0.485127 0.924576 0.422479
O O15 0.547303 0.990919 0.713853
O O16 0.160406 0.367696 0.427084
#
# Coordination Sequence:
#
# PCOD8055398 Si02
#       8
#     4   4   4   4   4   4   4   4
#     4  11  26  43  72  98 143 186 239 288 359 427
#     4  11  25  46  72 102 142 186 237 293 359 424
#     4  10  22  44  70  94 137 182 226 290 354 413
#     4  12  26  43  72 101 146 183 242 291 359 422
#     4  11  24  43  68 105 134 184 238 290 350 426
#     4  12  24  44  67 103 137 186 229 294 355 417
#     4  10  22  43  70  97 136 179 233 289 350 421
#     4  11  25  46  69 104 141 188 234 295 358 426
#
# _framework density 22.534479000000001
#
# number of rings (size 3 to 8) (size 9 to 14) (size 15 to 20)
#    0.000    1.000    2.500    3.750    5.250    2.000 
#    2.250    0.000    0.000    0.000    0.000    0.000 
#    0.000    0.000    0.000    0.000    0.000    0.000 
#
# Total GULP energy -198340.837154 kJ/mol
# GULP energy per Si atom -12396.302322 kJ/mol
# Density = 2.248319 g / cm^3
# Si number density = 22.534479 Si / 1000 Ang^3
#
#
#
# Elastic Constant Matrix: (Units=GPa)
#
#
# Indices 1 2 3 4 5 6 
#
# 1 95.2187 23.3139 10.3821 0.0000 -15.4461 0.0000
# 2 23.3139 122.5860 22.1607 0.0000 2.3557 0.0000
# 3 10.3821 22.1607 73.6512 0.0000 -12.6547 0.0000
# 4 0.0000 0.0000 0.0000 37.5905 0.0000 -0.7755
# 5 -15.4461 2.3557 -12.6547 0.0000 36.8412 0.0000
# 6 0.0000 0.0000 0.0000 -0.7755 0.0000 30.5075
#
#
#
# Elastic Compliance Matrix: (Units=1/GPa)
#
#
# Indices 1 2 3 4 5 6 
#
# 1 0.011917 -0.002348 -0.000095 0.000000 0.005114 0.000000
# 2 -0.002348 0.009172 -0.002868 0.000000 -0.002556 0.000000
# 3 -0.000095 -0.002868 0.015387 0.000000 0.005429 0.000000
# 4 0.000000 0.000000 0.000000 0.026616 0.000000 0.000677
# 5 0.005114 -0.002556 0.005429 0.000000 0.031316 0.000000
# 6 0.000000 0.000000 0.000000 0.000677 0.000000 0.032796
#
#
# Mechanical properties :
#
#
# Convention : Reuss Voigt Hill
#
# Bulk Modulus (GPa) = 38.67792 44.79660 41.73726
# Shear Modulus (GPa) = 34.14330 36.69444 35.41887
#
# Velocity S-wave (km/s) = 3.89673 4.03968 3.96885
# Velocity P-wave (km/s) = 6.11940 6.45608 6.29000
#
# Compressibility (1/GPa) = 0.02585455
#
# Stress axis : x y z
#
# Youngs Moduli (GPa) = 83.91509 109.03289 64.99189
#
# Poissons Ratio (x) = 0.25596 0.00616
# Poissons Ratio (y) = 0.19699 0.18638
# Poissons Ratio (z) = 0.00796 0.31269
#
# Static dielectric constant tensor:
#      x y z
#    x 3.858730 0.000000 0.094900 
#    y 0.000000 4.182590 0.000000 
#    z 0.094900 0.000000 4.056950 
# 
# 
# High freq. dielectric constant tensor:
#      x y z
#    x 1.877670 0.000000 -0.000260 
#    y 0.000000 1.895860 0.000000 
#    z -0.000260 0.000000 1.889910 
# 
# From -- ./inp_files/9288.got.cif
#   From: 2010.06.25/outbox.cif.g09.slc.cpg/sg9_5_cif.got.tgz:9288.got - 2010.06.27 21:40:51.
