data_PCOD8055787
_publ_section_title
;
Structure prediction by ZEFSAII (Michael W. Deem and Ramdas Pophale) SiO2 
 PCOD8055787
Probable space group: C C
;
_chemical_formula_sum "Si O2"
_cell_formula_units_Z 28
_cell_length_a 5.039845
_cell_length_b 29.318085
_cell_length_c 8.852258
_cell_angle_alpha 90.000000
_cell_angle_beta 87.067180
_cell_angle_gamma 90.000000
_cell_volume 1306.284087
_symmetry_space_group_name_H-M "C C"
_symmetry_group_IT_number 9
_symmetry_cell_setting 'monoclinic'
loop_
_space_group_symop_operation_xyz
x,y,z
x,-y,1/2+z
1/2+x,1/2+y,z
1/2+x,1/2-y,1/2+z
loop_
_atom_site_type_symbol
_atom_site_label
_atom_site_fract_x
_atom_site_fract_y
_atom_site_fract_z
Si Si1 0.352360 0.384407 0.816770
Si Si2 0.606744 0.115497 0.645724
Si Si3 0.387158 0.936759 0.732955
Si Si4 0.986106 0.717956 0.585885
Si Si5 0.483412 0.718012 0.375511
Si Si6 0.729374 0.501380 0.981300
Si Si7 0.072077 0.063210 0.729629
O O1 0.599103 0.414863 0.763654
O O2 0.441482 0.332174 0.808991
O O3 0.110094 0.397209 0.711536
O O4 0.229493 0.396970 0.981193
O O5 0.514805 0.167612 0.653935
O O6 0.360883 0.084843 0.699028
O O7 0.849765 0.102882 0.750713
O O8 0.408370 0.966298 0.581210
O O9 0.428995 0.970567 0.874528
O O10 0.246028 0.733299 0.489691
O O11 0.969863 0.749977 0.730937
O O12 0.745877 0.721184 0.472149
O O13 0.529686 0.470576 0.088059
O O14 0.550203 0.533678 0.881387
#
# Coordination Sequence:
#
# PCOD8055787 Si02
#       7
#     4   4   4   4   4   4   4
#     4  11  21  41  66  90 126 171 212 252 329 395
#     4  11  21  41  66  90 126 171 212 252 329 395
#     4  11  23  40  62  90 127 168 215 264 318 380
#     4  11  24  45  73 101 134 175 222 273 340 404
#     4  11  24  45  73 101 134 175 222 273 340 404
#     4  10  24  40  62  92 128 168 218 272 320 368
#     4  11  23  40  62  90 127 168 215 264 318 380
#
# _framework density 21.434843999999998
#
# number of rings (size 3 to 8) (size 9 to 14) (size 15 to 20)
#    0.000    1.143    2.857    4.286    0.000    8.000 
#    7.714    0.000    0.000    0.000    0.000    0.000 
#    0.000    0.000    0.000    0.000    0.000    0.000 
#
# Total GULP energy -173514.806623 kJ/mol
# GULP energy per Si atom -12393.914759 kJ/mol
# Density = 2.138606 g / cm^3
# Si number density = 21.434844 Si / 1000 Ang^3
#
#
#
# Elastic Constant Matrix: (Units=GPa)
#
#
# Indices 1 2 3 4 5 6 
#
# 1 106.9872 33.3671 11.8095 0.0000 9.4906 0.0000
# 2 33.3671 103.4003 57.7081 0.0000 9.6799 0.0000
# 3 11.8095 57.7081 97.5892 0.0000 11.3349 0.0000
# 4 0.0000 0.0000 0.0000 12.4538 0.0000 12.0700
# 5 9.4906 9.6799 11.3349 0.0000 31.4421 0.0000
# 6 0.0000 0.0000 0.0000 12.0700 0.0000 27.9440
#
#
#
# Elastic Compliance Matrix: (Units=1/GPa)
#
#
# Indices 1 2 3 4 5 6 
#
# 1 0.010652 -0.003950 0.001335 0.000000 -0.002480 0.000000
# 2 -0.003950 0.015962 -0.008901 0.000000 -0.000513 0.000000
# 3 0.001335 -0.008901 0.015736 0.000000 -0.003336 0.000000
# 4 0.000000 0.000000 0.000000 0.138116 0.000000 -0.059657
# 5 -0.002480 -0.000513 -0.003336 0.000000 0.033913 0.000000
# 6 0.000000 0.000000 0.000000 -0.059657 0.000000 0.061554
#
#
# Mechanical properties :
#
#
# Convention : Reuss Voigt Hill
#
# Bulk Modulus (GPa) = 51.76759 57.08290 54.42524
# Shear Modulus (GPa) = 16.37172 28.04078 22.20625
#
# Velocity S-wave (km/s) = 2.76667 3.62081 3.22217
# Velocity P-wave (km/s) = 5.86596 6.64598 6.26812
#
# Compressibility (1/GPa) = 0.01931711
#
# Stress axis : x y z
#
# Youngs Moduli (GPa) = 93.88332 62.65048 63.54672
#
# Poissons Ratio (x) = 0.24747 -0.08483
# Poissons Ratio (y) = 0.37084 0.56563
# Poissons Ratio (z) = -0.12533 0.55766
#
# Static dielectric constant tensor:
#      x y z
#    x 3.990560 0.000000 0.125060 
#    y 0.000000 4.031470 0.000000 
#    z 0.125060 0.000000 3.937580 
# 
# 
# High freq. dielectric constant tensor:
#      x y z
#    x 1.846610 0.000000 0.001210 
#    y 0.000000 1.848310 0.000000 
#    z 0.001210 0.000000 1.835680 
# 
# From -- ./inp_files/4244.got.cif
#   From: 2010.06.25/outbox.cif.g09.slc.cpg/sg9_3_cif.got.tgz:4244.got - 2010.06.27 21:40:51.
