data_PCOD8055583
_publ_section_title
;
Structure prediction by ZEFSAII (Michael W. Deem and Ramdas Pophale) SiO2 
 PCOD8055583
Probable space group: C C
;
_chemical_formula_sum "Si O2"
_cell_formula_units_Z 24
_cell_length_a 18.864977
_cell_length_b 6.305846
_cell_length_c 10.285932
_cell_angle_alpha 90.000000
_cell_angle_beta 117.115200
_cell_angle_gamma 90.000000
_cell_volume 1089.126058
_symmetry_space_group_name_H-M "C C"
_symmetry_group_IT_number 9
_symmetry_cell_setting 'monoclinic'
loop_
_space_group_symop_operation_xyz
x,y,z
x,-y,1/2+z
1/2+x,1/2+y,z
1/2+x,1/2-y,1/2+z
loop_
_atom_site_type_symbol
_atom_site_label
_atom_site_fract_x
_atom_site_fract_y
_atom_site_fract_z
Si Si1 0.186110 0.678809 0.805380
Si Si2 0.894765 0.122227 0.258833
Si Si3 0.408841 0.672575 0.552117
Si Si4 0.054363 0.994794 0.791740
Si Si5 0.310547 0.962671 0.037286
Si Si6 0.679580 0.203697 0.504087
O O1 0.112825 0.838257 0.765538
O O2 0.184444 0.603103 0.653260
O O3 0.267576 0.805771 0.900650
O O4 0.179944 0.478910 0.895756
O O5 0.878145 0.061171 0.394145
O O6 0.847993 0.337417 0.189561
O O7 0.990627 0.147312 0.319453
O O8 0.862573 0.938915 0.134829
O O9 0.504047 0.639339 0.646480
O O10 0.384366 0.919674 0.526988
O O11 0.099320 0.157693 0.924209
O O12 0.251617 0.136387 0.044416
#
# Coordination Sequence:
#
# PCOD8055583 Si02
#       6
#     4   4   4   4   4   4
#     4  11  25  45  68  96 132 176 221 268 323 389
#     4  10  23  42  66  98 132 169 214 269 327 385
#     4  10  23  42  66  98 132 169 214 269 327 385
#     4   9  24  44  68  95 128 168 220 269 326 382
#     4  11  24  42  68  99 132 174 218 269 324 390
#     4  11  25  45  68  96 132 176 221 268 323 389
#
# _framework density 22.036017999999999
#
# number of rings (size 3 to 8) (size 9 to 14) (size 15 to 20)
#    1.000    0.667    0.000    3.000    2.333   13.333 
#    0.000    0.000    0.000    0.000    0.000    0.000 
#    0.000    0.000    0.000    0.000    0.000    0.000 
#
# Total GULP energy -148706.245078 kJ/mol
# GULP energy per Si atom -12392.187090 kJ/mol
# Density = 2.198586 g / cm^3
# Si number density = 22.036018 Si / 1000 Ang^3
#
#
#
# Elastic Constant Matrix: (Units=GPa)
#
#
# Indices 1 2 3 4 5 6 
#
# 1 47.0908 48.3279 60.3642 0.0000 13.9094 0.0000
# 2 48.3279 108.4210 72.5156 0.0000 16.1869 0.0000
# 3 60.3642 72.5156 187.5150 0.0000 -17.4375 0.0000
# 4 0.0000 0.0000 0.0000 43.0261 0.0000 8.5637
# 5 13.9094 16.1869 -17.4375 0.0000 43.9761 0.0000
# 6 0.0000 0.0000 0.0000 8.5637 0.0000 43.8778
#
#
#
# Elastic Compliance Matrix: (Units=1/GPa)
#
#
# Indices 1 2 3 4 5 6 
#
# 1 0.064092 -0.013593 -0.017438 0.000000 -0.022183 0.000000
# 2 -0.013593 0.017597 -0.002732 0.000000 -0.003261 0.000000
# 3 -0.017438 -0.002732 0.013092 0.000000 0.011713 0.000000
# 4 0.000000 0.000000 0.000000 0.024181 0.000000 -0.004719
# 5 -0.022183 -0.003261 0.011713 0.000000 0.035601 0.000000
# 6 0.000000 0.000000 0.000000 -0.004719 0.000000 0.023712
#
#
# Mechanical properties :
#
#
# Convention : Reuss Voigt Hill
#
# Bulk Modulus (GPa) = 36.69299 78.38247 57.53773
# Shear Modulus (GPa) = 19.61653 36.96394 28.29024
#
# Velocity S-wave (km/s) = 2.98686 4.10009 3.58693
# Velocity P-wave (km/s) = 5.34628 7.61982 6.58196
#
# Compressibility (1/GPa) = 0.02725316
#
# Stress axis : x y z
#
# Youngs Moduli (GPa) = 15.60257 56.82854 76.37998
#
# Poissons Ratio (x) = 0.77249 1.33194
# Poissons Ratio (y) = 0.21209 0.20869
# Poissons Ratio (z) = 0.27208 0.15527
#
# Static dielectric constant tensor:
#      x y z
#    x 3.909190 0.000000 0.274140 
#    y 0.000000 3.913380 0.000000 
#    z 0.274140 0.000000 4.038200 
# 
# 
# High freq. dielectric constant tensor:
#      x y z
#    x 1.860310 0.000000 0.016240 
#    y 0.000000 1.858520 0.000000 
#    z 0.016240 0.000000 1.879250 
# 
# From -- ./inp_files/19619.got.cif
#   From: 2010.06.25/outbox.cif.g09.slc.cpg/sg9_10_cif.got.tgz:19619.got - 2010.06.27 21:40:51.
