data_PCOD8055460
_publ_section_title
;
Structure prediction by ZEFSAII (Michael W. Deem and Ramdas Pophale) SiO2 
 PCOD8055460
Probable space group: C C
;
_chemical_formula_sum "Si O2"
_cell_formula_units_Z 28
_cell_length_a 6.656021
_cell_length_b 16.710600
_cell_length_c 14.078814
_cell_angle_alpha 90.000000
_cell_angle_beta 120.160899
_cell_angle_gamma 90.000000
_cell_volume 1353.932496
_symmetry_space_group_name_H-M "C C"
_symmetry_group_IT_number 9
_symmetry_cell_setting 'monoclinic'
loop_
_space_group_symop_operation_xyz
x,y,z
x,-y,1/2+z
1/2+x,1/2+y,z
1/2+x,1/2-y,1/2+z
loop_
_atom_site_type_symbol
_atom_site_label
_atom_site_fract_x
_atom_site_fract_y
_atom_site_fract_z
Si Si1 0.559340 0.622702 0.064700
Si Si2 0.816243 0.239474 0.324769
Si Si3 0.125811 0.723366 0.474020
Si Si4 0.734463 0.491353 0.225975
Si Si5 0.396386 0.651338 0.699697
Si Si6 0.649961 0.119913 0.840401
Si Si7 0.149893 0.149848 0.291126
O O1 0.694357 0.538849 0.116130
O O2 0.570086 0.674526 0.165082
O O3 0.655297 0.682670 0.007293
O O4 0.305925 0.596229 0.968001
O O5 0.810032 0.213125 0.433079
O O6 0.559503 0.269308 0.234517
O O7 0.998844 0.306923 0.341137
O O8 0.912460 0.160465 0.295109
O O9 0.189858 0.664558 0.575602
O O10 0.860859 0.704527 0.380167
O O11 0.538631 0.426213 0.200950
O O12 0.724972 0.556408 0.309720
O O13 0.989294 0.455327 0.278206
O O14 0.297075 0.641391 0.781642
#
# Coordination Sequence:
#
# PCOD8055460 Si02
#       7
#     4   4   4   4   4   4   4
#     4  10  22  45  67  96 134 176 226 273 337 407
#     4  11  22  41  68 103 132 176 227 282 337 405
#     4  12  23  41  69 103 135 175 227 285 337 406
#     4   9  26  44  64  98 135 182 226 273 348 402
#     4  11  25  45  67 100 136 179 227 282 346 404
#     4  11  22  47  67  95 141 176 223 287 337 409
#     4  10  24  43  64 103 131 176 230 276 336 409
#
# _framework density 20.680499999999999
#
# number of rings (size 3 to 8) (size 9 to 14) (size 15 to 20)
#    0.857    0.571    2.857    1.714    4.000    3.429 
#    5.143    0.000    0.000    0.000    0.000    0.000 
#    0.000    0.000    0.000    0.000    0.000    0.000 
#
# Total GULP energy -173435.845645 kJ/mol
# GULP energy per Si atom -12388.274689 kJ/mol
# Density = 2.063343 g / cm^3
# Si number density = 20.680500 Si / 1000 Ang^3
#
#
#
# Elastic Constant Matrix: (Units=GPa)
#
#
# Indices 1 2 3 4 5 6 
#
# 1 126.0836 44.8229 63.5884 0.0000 0.6417 0.0000
# 2 44.8229 81.3074 38.9069 0.0000 5.7297 0.0000
# 3 63.5884 38.9069 156.1957 0.0000 11.0432 0.0000
# 4 0.0000 0.0000 0.0000 36.1779 0.0000 -0.0261
# 5 0.6417 5.7297 11.0432 0.0000 32.1491 0.0000
# 6 0.0000 0.0000 0.0000 -0.0261 0.0000 32.3460
#
#
#
# Elastic Compliance Matrix: (Units=1/GPa)
#
#
# Indices 1 2 3 4 5 6 
#
# 1 0.011409 -0.004694 -0.003606 0.000000 0.001848 0.000000
# 2 -0.004694 0.015950 -0.001914 0.000000 -0.002092 0.000000
# 3 -0.003606 -0.001914 0.008525 0.000000 -0.002515 0.000000
# 4 0.000000 0.000000 0.000000 0.027641 0.000000 0.000022
# 5 0.001848 -0.002092 -0.002515 0.000000 0.032305 0.000000
# 6 0.000000 0.000000 0.000000 0.000022 0.000000 0.030916
#
#
# Mechanical properties :
#
#
# Convention : Reuss Voigt Hill
#
# Bulk Modulus (GPa) = 64.70242 73.13590 68.91916
# Shear Modulus (GPa) = 32.82404 34.55249 33.68827
#
# Velocity S-wave (km/s) = 3.98829 4.09195 4.04045
# Velocity P-wave (km/s) = 7.25005 7.60045 7.42731
#
# Compressibility (1/GPa) = 0.01545537
#
# Stress axis : x y z
#
# Youngs Moduli (GPa) = 87.64698 62.69517 117.30304
#
# Poissons Ratio (x) = 0.29431 0.42301
# Poissons Ratio (y) = 0.41144 0.22453
# Poissons Ratio (z) = 0.31607 0.12000
#
# Static dielectric constant tensor:
#      x y z
#    x 3.829470 0.000000 0.054920 
#    y 0.000000 3.759090 0.000000 
#    z 0.054920 0.000000 3.832410 
# 
# 
# High freq. dielectric constant tensor:
#      x y z
#    x 1.802710 0.000000 0.004240 
#    y 0.000000 1.808290 0.000000 
#    z 0.004240 0.000000 1.813830 
# 
# From -- ./inp_files/21898.got.cif
#   From: 2010.06.25/outbox.cif.g09.slc.cpg/sg9_11_cif.got.tgz:21898.got - 2010.06.27 21:40:51.
