data_PCOD8055265
_publ_section_title
;
Structure prediction by ZEFSAII (Michael W. Deem and Ramdas Pophale) SiO2 
 PCOD8055265
Probable space group: C C
;
_chemical_formula_sum "Si O2"
_cell_formula_units_Z 32
_cell_length_a 13.618301
_cell_length_b 8.324545
_cell_length_c 13.618979
_cell_angle_alpha 90.000000
_cell_angle_beta 73.560532
_cell_angle_gamma 90.000000
_cell_volume 1480.814285
_symmetry_space_group_name_H-M "C C"
_symmetry_group_IT_number 9
_symmetry_cell_setting 'monoclinic'
loop_
_space_group_symop_operation_xyz
x,y,z
x,-y,1/2+z
1/2+x,1/2+y,z
1/2+x,1/2-y,1/2+z
loop_
_atom_site_type_symbol
_atom_site_label
_atom_site_fract_x
_atom_site_fract_y
_atom_site_fract_z
Si Si1 0.818100 0.164030 0.854280
Si Si2 0.008403 0.156514 0.661389
Si Si3 0.254689 0.688842 0.411347
Si Si4 0.633147 0.375579 0.847269
Si Si5 0.574574 0.625420 0.031879
Si Si6 0.391984 0.834768 0.024323
Si Si7 0.697107 0.338301 0.217168
Si Si8 0.952936 0.688394 0.968150
O O1 0.909082 0.125722 0.754334
O O2 0.738570 0.283299 0.828983
O O3 0.864586 0.258456 0.930137
O O4 0.762683 0.002416 0.905314
O O5 0.970518 0.233134 0.570128
O O6 0.100259 0.256159 0.692003
O O7 0.063401 0.983727 0.630898
O O8 0.160954 0.736497 0.509671
O O9 0.236315 0.753871 0.305818
O O10 0.351917 0.761173 0.438891
O O11 0.650403 0.483621 0.746863
O O12 0.604504 0.503080 0.938100
O O13 0.543742 0.241786 0.868339
O O14 0.465390 0.709245 0.055184
O O15 0.291550 0.859135 0.117480
O O16 0.452077 0.998995 0.986008
#
# Coordination Sequence:
#
# PCOD8055265 Si02
#       8
#     4   4   4   4   4   4   4   4
#     4  12  23  40  68 100 134 176 222 273 329 396
#     4  11  23  43  66  96 134 175 219 275 332 392
#     4  11  23  42  68  99 133 175 221 273 333 392
#     4  10  22  41  63  91 131 170 212 269 327 386
#     4  10  22  41  63  91 131 170 212 269 327 386
#     4  12  23  40  68 100 134 176 222 273 329 396
#     4  11  23  43  66  96 134 175 219 275 332 392
#     4  11  23  42  68  99 133 175 221 273 333 392
#
# _framework density 21.609729999999999
#
# number of rings (size 3 to 8) (size 9 to 14) (size 15 to 20)
#    0.000    1.000    0.000    9.750    0.000    0.000 
#    0.000    1.250    0.000    3.000    0.000    0.000 
#    0.000    0.000    0.000    0.000    0.000    0.000 
#
# Total GULP energy -198246.452784 kJ/mol
# GULP energy per Si atom -12390.403299 kJ/mol
# Density = 2.156055 g / cm^3
# Si number density = 21.609730 Si / 1000 Ang^3
#
#
#
# Elastic Constant Matrix: (Units=GPa)
#
#
# Indices 1 2 3 4 5 6 
#
# 1 143.6701 23.8229 47.9127 0.0000 -1.2070 0.0000
# 2 23.8229 105.7187 35.8182 0.0000 -7.3699 0.0000
# 3 47.9127 35.8182 95.5856 0.0000 -18.2870 0.0000
# 4 0.0000 0.0000 0.0000 27.3704 0.0000 -2.2712
# 5 -1.2070 -7.3699 -18.2870 0.0000 56.5492 0.0000
# 6 0.0000 0.0000 0.0000 -2.2712 0.0000 32.2903
#
#
#
# Elastic Compliance Matrix: (Units=1/GPa)
#
#
# Indices 1 2 3 4 5 6 
#
# 1 0.008469 -0.000546 -0.004285 0.000000 -0.001276 0.000000
# 2 -0.000546 0.010870 -0.003764 0.000000 0.000188 0.000000
# 3 -0.004285 -0.003764 0.014826 0.000000 0.004212 0.000000
# 4 0.000000 0.000000 0.000000 0.036750 0.000000 0.002585
# 5 -0.001276 0.000188 0.004212 0.000000 0.019043 0.000000
# 6 0.000000 0.000000 0.000000 0.002585 0.000000 0.031151
#
#
# Mechanical properties :
#
#
# Convention : Reuss Voigt Hill
#
# Bulk Modulus (GPa) = 58.90465 62.23135 60.56800
# Shear Modulus (GPa) = 34.73250 39.07003 36.90126
#
# Velocity S-wave (km/s) = 4.01342 4.25665 4.13682
# Velocity P-wave (km/s) = 6.98529 7.28142 7.13489
#
# Compressibility (1/GPa) = 0.01697659
#
# Stress axis : x y z
#
# Youngs Moduli (GPa) = 118.07631 91.99324 67.44935
#
# Poissons Ratio (x) = 0.05020 0.28901
# Poissons Ratio (y) = 0.06443 0.25387
# Poissons Ratio (z) = 0.50594 0.34626
#
# Static dielectric constant tensor:
#      x y z
#    x 4.288790 0.000000 -0.209270 
#    y 0.000000 4.189550 0.000000 
#    z -0.209270 0.000000 4.187750 
# 
# 
# High freq. dielectric constant tensor:
#      x y z
#    x 1.874040 0.000000 -0.003900 
#    y 0.000000 1.847840 0.000000 
#    z -0.003900 0.000000 1.854380 
# 
# From -- ./inp_files/24198.got.cif
#   From: 2010.06.25/outbox.cif.g09.slc.cpg/sg9_13_cif.got.tgz:24198.got - 2010.06.27 21:40:51.
