data_PCOD8055582
_publ_section_title
;
Structure prediction by ZEFSAII (Michael W. Deem and Ramdas Pophale) SiO2 
 PCOD8055582
Probable space group: C C
;
_chemical_formula_sum "Si O2"
_cell_formula_units_Z 28
_cell_length_a 14.816664
_cell_length_b 14.441787
_cell_length_c 8.779958
_cell_angle_alpha 90.000000
_cell_angle_beta 39.073755
_cell_angle_gamma 90.000000
_cell_volume 1184.200052
_symmetry_space_group_name_H-M "C C"
_symmetry_group_IT_number 9
_symmetry_cell_setting 'monoclinic'
loop_
_space_group_symop_operation_xyz
x,y,z
x,-y,1/2+z
1/2+x,1/2+y,z
1/2+x,1/2-y,1/2+z
loop_
_atom_site_type_symbol
_atom_site_label
_atom_site_fract_x
_atom_site_fract_y
_atom_site_fract_z
Si Si1 0.301660 0.693585 0.892040
Si Si2 0.201171 0.296890 0.039867
Si Si3 0.108471 0.396696 0.878427
Si Si4 0.132002 0.009434 0.251221
Si Si5 0.110298 0.806748 0.945172
Si Si6 0.283892 0.891379 0.283945
Si Si7 0.823020 0.058679 0.593235
O O1 0.245176 0.780077 0.869281
O O2 0.464293 0.715718 0.729262
O O3 0.306978 0.602223 0.780788
O O4 0.197568 0.680368 0.170091
O O5 0.105400 0.362812 0.057826
O O6 0.272336 0.216107 0.845772
O O7 0.100293 0.250547 0.299683
O O8 0.322072 0.361514 0.963323
O O9 0.187076 0.493743 0.750526
O O10 0.948823 0.409802 0.025379
O O11 0.127410 0.085251 0.391083
O O12 0.971526 0.000095 0.390014
O O13 0.188450 0.914967 0.257885
O O14 0.240974 0.041476 0.978369
#
# Coordination Sequence:
#
# PCOD8055582 Si02
#       7
#     4   4   4   4   4   4   4
#     4  10  23  42  66  98 131 182 232 296 355 429
#     4  10  25  46  74 100 146 190 245 295 375 434
#     4  12  27  40  73 104 143 179 249 304 361 423
#     4  10  25  45  71  99 140 185 242 297 367 433
#     4   9  22  44  68  93 134 188 233 287 365 434
#     4  11  28  44  71 108 144 189 244 311 362 436
#     4  10  24  47  73  94 142 191 239 288 373 441
#
# _framework density 23.644656000000001
#
# number of rings (size 3 to 8) (size 9 to 14) (size 15 to 20)
#    0.000    1.714    0.000    0.857   22.000    2.286 
#    0.000    0.000    0.000    0.000    0.000    0.000 
#    0.000    0.000    0.000    0.000    0.000    0.000 
#
# Total GULP energy -173594.541692 kJ/mol
# GULP energy per Si atom -12399.610121 kJ/mol
# Density = 2.359084 g / cm^3
# Si number density = 23.644656 Si / 1000 Ang^3
#
#
#
# Elastic Constant Matrix: (Units=GPa)
#
#
# Indices 1 2 3 4 5 6 
#
# 1 91.8963 46.9134 29.7110 0.0000 -17.0820 0.0000
# 2 46.9134 99.5207 25.3433 0.0000 -7.1036 0.0000
# 3 29.7110 25.3433 114.3798 0.0000 -25.2260 0.0000
# 4 0.0000 0.0000 0.0000 28.2499 0.0000 9.2848
# 5 -17.0820 -7.1036 -25.2260 0.0000 44.1873 0.0000
# 6 0.0000 0.0000 0.0000 9.2848 0.0000 45.1609
#
#
#
# Elastic Compliance Matrix: (Units=1/GPa)
#
#
# Indices 1 2 3 4 5 6 
#
# 1 0.015545 -0.006612 -0.001695 0.000000 0.003979 0.000000
# 2 -0.006612 0.013468 -0.001548 0.000000 -0.001275 0.000000
# 3 -0.001695 -0.001548 0.010670 0.000000 0.005187 0.000000
# 4 0.000000 0.000000 0.000000 0.037964 0.000000 -0.007805
# 5 0.003979 -0.001275 0.005187 0.000000 0.026925 0.000000
# 6 0.000000 0.000000 0.000000 -0.007805 0.000000 0.023748
#
#
# Mechanical properties :
#
#
# Convention : Reuss Voigt Hill
#
# Bulk Modulus (GPa) = 50.06785 56.63691 53.35238
# Shear Modulus (GPa) = 32.32308 37.10822 34.71565
#
# Velocity S-wave (km/s) = 3.70135 3.96588 3.83590
# Velocity P-wave (km/s) = 6.28393 6.70644 6.49862
#
# Compressibility (1/GPa) = 0.01997290
#
# Stress axis : x y z
#
# Youngs Moduli (GPa) = 64.32934 74.24889 93.71934
#
# Poissons Ratio (x) = 0.49094 0.15890
# Poissons Ratio (y) = 0.42535 0.14505
# Poissons Ratio (z) = 0.10907 0.11492
#
# Static dielectric constant tensor:
#      x y z
#    x 4.220240 0.000000 0.043270 
#    y 0.000000 4.190970 0.000000 
#    z 0.043270 0.000000 4.198060 
# 
# 
# High freq. dielectric constant tensor:
#      x y z
#    x 1.936460 0.000000 0.004290 
#    y 0.000000 1.933520 0.000000 
#    z 0.004290 0.000000 1.932940 
# 
# From -- ./inp_files/7512.got.cif
#   From: 2010.06.25/outbox.cif.g09.slc.cpg/sg9_4_cif.got.tgz:7512.got - 2010.06.27 21:40:51.
