data_PCOD8055406
_publ_section_title
;
Structure prediction by ZEFSAII (Michael W. Deem and Ramdas Pophale) SiO2 
 PCOD8055406
Probable space group: C C
;
_chemical_formula_sum "Si O2"
_cell_formula_units_Z 24
_cell_length_a 14.148280
_cell_length_b 14.077952
_cell_length_c 10.783677
_cell_angle_alpha 90.000000
_cell_angle_beta 148.370882
_cell_angle_gamma 90.000000
_cell_volume 1126.388373
_symmetry_space_group_name_H-M "C C"
_symmetry_group_IT_number 9
_symmetry_cell_setting 'monoclinic'
loop_
_space_group_symop_operation_xyz
x,y,z
x,-y,1/2+z
1/2+x,1/2+y,z
1/2+x,1/2-y,1/2+z
loop_
_atom_site_type_symbol
_atom_site_label
_atom_site_fract_x
_atom_site_fract_y
_atom_site_fract_z
Si Si1 0.399240 0.651241 0.399260
Si Si2 0.198117 0.008206 0.640602
Si Si3 0.908551 0.645655 0.500148
Si Si4 0.497151 0.150265 0.882166
Si Si5 0.196689 0.691512 0.639060
Si Si6 0.985124 0.145332 0.778622
O O1 0.537783 0.572946 0.508593
O O2 0.447161 0.751259 0.391250
O O3 0.407146 0.657179 0.555536
O O4 0.198959 0.619523 0.140264
O O5 0.362264 0.069796 0.775710
O O6 0.267017 0.941070 0.830346
O O7 0.126500 0.941330 0.448500
O O8 0.986396 0.658341 0.722980
O O9 0.814841 0.745022 0.363759
O O10 0.069750 0.625495 0.582151
O O11 0.323621 0.625357 0.696106
O O12 0.078851 0.755188 0.414688
#
# Coordination Sequence:
#
# PCOD8055406 Si02
#       6
#     4   4   4   4   4   4
#     4  12  25  44  68  99 135 177 217 274 339 390
#     4  11  26  44  67 102 132 176 223 278 324 385
#     4  10  22  44  66 101 133 171 229 268 326 400
#     4  12  25  44  68  99 135 177 217 274 339 390
#     4   9  20  40  73  92 132 182 213 274 334 383
#     4  10  22  44  66 101 133 171 229 268 326 400
#
# _framework density 21.307037000000001
#
# number of rings (size 3 to 8) (size 9 to 14) (size 15 to 20)
#    0.000    1.333    1.667    3.000    2.333    1.333 
#   12.000    0.000    0.000    0.000    0.000    0.000 
#    0.000    0.000    0.000    0.000    0.000    0.000 
#
# Total GULP energy -148835.769618 kJ/mol
# GULP energy per Si atom -12402.980801 kJ/mol
# Density = 2.125854 g / cm^3
# Si number density = 21.307037 Si / 1000 Ang^3
#
#
#
# Elastic Constant Matrix: (Units=GPa)
#
#
# Indices 1 2 3 4 5 6 
#
# 1 122.5590 67.4775 95.8698 0.0000 -3.0103 0.0000
# 2 67.4775 109.2942 55.7036 0.0000 2.1158 0.0000
# 3 95.8698 55.7036 178.7868 0.0000 -9.2646 0.0000
# 4 0.0000 0.0000 0.0000 17.9241 0.0000 12.8030
# 5 -3.0103 2.1158 -9.2646 0.0000 54.7005 0.0000
# 6 0.0000 0.0000 0.0000 12.8030 0.0000 23.6827
#
#
#
# Elastic Compliance Matrix: (Units=1/GPa)
#
#
# Indices 1 2 3 4 5 6 
#
# 1 0.017932 -0.007337 -0.007328 0.000000 0.000029 0.000000
# 2 -0.007337 0.013933 -0.000460 0.000000 -0.001021 0.000000
# 3 -0.007328 -0.000460 0.009731 0.000000 0.001263 0.000000
# 4 0.000000 0.000000 0.000000 0.090887 0.000000 -0.049134
# 5 0.000029 -0.001021 0.001263 0.000000 0.018536 0.000000
# 6 0.000000 0.000000 0.000000 -0.049134 0.000000 0.068787
#
#
# Mechanical properties :
#
#
# Convention : Reuss Voigt Hill
#
# Bulk Modulus (GPa) = 88.12679 94.30462 91.21571
# Shear Modulus (GPa) = 19.69763 32.03407 25.86585
#
# Velocity S-wave (km/s) = 3.04380 3.88164 3.48797
# Velocity P-wave (km/s) = 7.33506 8.02779 7.68923
#
# Compressibility (1/GPa) = 0.01134729
#
# Stress axis : x y z
#
# Youngs Moduli (GPa) = 55.76756 71.77028 102.75952
#
# Poissons Ratio (x) = 0.52655 0.75302
# Poissons Ratio (y) = 0.40914 0.04727
# Poissons Ratio (z) = 0.40867 0.03301
#
# Static dielectric constant tensor:
#      x y z
#    x 3.768800 0.000000 0.207550 
#    y 0.000000 3.810220 0.000000 
#    z 0.207550 0.000000 4.163820 
# 
# 
# High freq. dielectric constant tensor:
#      x y z
#    x 1.838580 0.000000 0.008570 
#    y 0.000000 1.832170 0.000000 
#    z 0.008570 0.000000 1.855190 
# 
# From -- ./inp_files/9623.got.cif
#   From: 2010.06.25/outbox.cif.g09.slc.cpg/sg9_5_cif.got.tgz:9623.got - 2010.06.27 21:40:51.
