data_PCOD8055213
_publ_section_title
;
Structure prediction by ZEFSAII (Michael W. Deem and Ramdas Pophale) SiO2 
 PCOD8055213
Probable space group: C C
;
_chemical_formula_sum "Si O2"
_cell_formula_units_Z 32
_cell_length_a 23.688588
_cell_length_b 12.163121
_cell_length_c 10.144740
_cell_angle_alpha 90.000000
_cell_angle_beta 148.928514
_cell_angle_gamma 90.000000
_cell_volume 1508.568321
_symmetry_space_group_name_H-M "C C"
_symmetry_group_IT_number 9
_symmetry_cell_setting 'monoclinic'
loop_
_space_group_symop_operation_xyz
x,y,z
x,-y,1/2+z
1/2+x,1/2+y,z
1/2+x,1/2-y,1/2+z
loop_
_atom_site_type_symbol
_atom_site_label
_atom_site_fract_x
_atom_site_fract_y
_atom_site_fract_z
Si Si1 0.743590 0.554760 0.079860
Si Si2 0.911995 0.228859 0.680213
Si Si3 0.071549 0.251008 0.763575
Si Si4 0.484067 0.692956 0.326187
Si Si5 0.470075 0.149397 0.559209
Si Si6 0.313647 0.504766 0.988111
Si Si7 0.219545 0.892133 0.253214
Si Si8 0.669967 0.987843 0.950482
O O1 0.861212 0.583159 0.373377
O O2 0.712705 0.444935 0.095602
O O3 0.657371 0.651075 0.937961
O O4 0.757562 0.529396 0.951238
O O5 0.798074 0.285856 0.409259
O O6 0.009393 0.260646 0.777145
O O7 0.895420 0.098410 0.647485
O O8 0.951330 0.265748 0.902795
O O9 0.139252 0.361005 0.871402
O O10 0.978436 0.238777 0.464475
O O11 0.495093 0.788872 0.243473
O O12 0.382148 0.614123 0.091893
O O13 0.596862 0.630088 0.546583
O O14 0.566785 0.065684 0.718530
O O15 0.263115 0.517151 0.031623
O O16 0.217144 0.490637 0.689911
#
# Coordination Sequence:
#
# PCOD8055213 Si02
#       8
#     4   4   4   4   4   4   4   4
#     4  10  22  40  61  90 124 162 208 258 313 379
#     4  11  23  41  64  94 128 166 213 266 323 392
#     4  11  23  41  64  94 128 166 213 266 323 392
#     4  11  24  41  63  90 123 164 208 261 320 383
#     4  11  24  41  63  90 123 164 208 261 320 383
#     4  12  24  42  65  94 128 168 215 269 327 392
#     4  10  22  40  61  90 124 162 208 258 313 379
#     4  12  24  42  65  94 128 168 215 269 327 392
#
# _framework density 21.212164000000001
#
# number of rings (size 3 to 8) (size 9 to 14) (size 15 to 20)
#    0.000    1.000    0.000    8.250    0.000    8.000 
#    0.000    1.250    0.000    0.000    0.000    0.000 
#    0.000    0.000    0.000    0.000    0.000    0.000 
#
# Total GULP energy -198428.477498 kJ/mol
# GULP energy per Si atom -12401.779844 kJ/mol
# Density = 2.116388 g / cm^3
# Si number density = 21.212164 Si / 1000 Ang^3
#
#
#
# Elastic Constant Matrix: (Units=GPa)
#
#
# Indices 1 2 3 4 5 6 
#
# 1 102.5453 20.6359 9.2588 0.0000 -3.1747 0.0000
# 2 20.6359 63.2642 15.2978 0.0000 -10.7991 0.0000
# 3 9.2588 15.2978 87.0538 0.0000 0.9377 0.0000
# 4 0.0000 0.0000 0.0000 35.3147 0.0000 -12.7124
# 5 -3.1747 -10.7991 0.9377 0.0000 44.5205 0.0000
# 6 0.0000 0.0000 0.0000 -12.7124 0.0000 73.7268
#
#
#
# Elastic Compliance Matrix: (Units=1/GPa)
#
#
# Indices 1 2 3 4 5 6 
#
# 1 0.010461 -0.003290 -0.000534 0.000000 -0.000041 0.000000
# 2 -0.003290 0.018313 -0.002914 0.000000 0.004269 0.000000
# 3 -0.000534 -0.002914 0.012067 0.000000 -0.000999 0.000000
# 4 0.000000 0.000000 0.000000 0.030191 0.000000 0.005206
# 5 -0.000041 0.004269 -0.000999 0.000000 0.023515 0.000000
# 6 0.000000 0.000000 0.000000 0.005206 0.000000 0.014461
#
#
# Mechanical properties :
#
#
# Convention : Reuss Voigt Hill
#
# Bulk Modulus (GPa) = 36.54380 38.13870 37.34125
# Shear Modulus (GPa) = 37.99221 44.55712 41.27467
#
# Velocity S-wave (km/s) = 4.23668 4.58814 4.41591
# Velocity P-wave (km/s) = 6.41855 6.78872 6.60623
#
# Compressibility (1/GPa) = 0.02736443
#
# Stress axis : x y z
#
# Youngs Moduli (GPa) = 95.59490 54.60526 82.87194
#
# Poissons Ratio (x) = 0.17965 0.04425
# Poissons Ratio (y) = 0.31451 0.24151
# Poissons Ratio (z) = 0.05105 0.15913
#
# Static dielectric constant tensor:
#      x y z
#    x 3.998110 0.000000 -0.146480 
#    y 0.000000 3.556540 0.000000 
#    z -0.146480 0.000000 3.923430 
# 
# 
# High freq. dielectric constant tensor:
#      x y z
#    x 1.848890 0.000000 -0.002120 
#    y 0.000000 1.825530 0.000000 
#    z -0.002120 0.000000 1.844750 
# 
# From -- ./inp_files/16204.got.cif
#   From: 2010.06.25/outbox.cif.g09.slc.cpg/sg9_9_cif.got.tgz:16204.got - 2010.06.27 21:40:51.
