data_PCOD8055178
_publ_section_title
;
Structure prediction by ZEFSAII (Michael W. Deem and Ramdas Pophale) SiO2 
 PCOD8055178
Probable space group: C C
;
_chemical_formula_sum "Si O2"
_cell_formula_units_Z 28
_cell_length_a 7.376535
_cell_length_b 17.345579
_cell_length_c 9.107505
_cell_angle_alpha 90.000000
_cell_angle_beta 94.437433
_cell_angle_gamma 90.000000
_cell_volume 1161.814622
_symmetry_space_group_name_H-M "C C"
_symmetry_group_IT_number 9
_symmetry_cell_setting 'monoclinic'
loop_
_space_group_symop_operation_xyz
x,y,z
x,-y,1/2+z
1/2+x,1/2+y,z
1/2+x,1/2-y,1/2+z
loop_
_atom_site_type_symbol
_atom_site_label
_atom_site_fract_x
_atom_site_fract_y
_atom_site_fract_z
Si Si1 0.517160 0.660489 0.008940
Si Si2 0.828726 0.273230 0.378398
Si Si3 0.544914 0.537757 0.777459
Si Si4 0.151574 0.532117 0.695851
Si Si5 0.326543 0.875398 0.107063
Si Si6 0.118009 0.391586 0.497422
Si Si7 0.071309 0.861923 0.835580
O O1 0.608906 0.667006 0.173876
O O2 0.618521 0.727848 0.921621
O O3 0.575251 0.581132 0.933183
O O4 0.297732 0.663114 0.998099
O O5 0.836147 0.299174 0.208282
O O6 0.906837 0.187284 0.396506
O O7 0.946846 0.334078 0.482733
O O8 0.358390 0.560221 0.681910
O O9 0.706701 0.557185 0.676329
O O10 0.518720 0.450417 0.823768
O O11 0.122452 0.442371 0.647179
O O12 0.105294 0.545597 0.865110
O O13 0.024532 0.588587 0.592428
O O14 0.250186 0.850029 0.944946
#
# Coordination Sequence:
#
# PCOD8055178 Si02
#       7
#     4   4   4   4   4   4   4
#     4  10  23  46  69  94 140 182 225 290 346 402
#     4  10  26  48  61  97 147 185 221 294 349 417
#     4  10  22  44  69 100 137 176 232 293 340 414
#     4  10  22  38  67 100 130 174 226 289 341 402
#     4  10  25  43  68 102 141 175 234 290 349 411
#     4  10  22  41  68  98 137 174 235 286 346 420
#     4  12  24  42  74 101 136 186 239 276 355 426
#
# _framework density 24.100228999999999
#
# number of rings (size 3 to 8) (size 9 to 14) (size 15 to 20)
#    0.000    1.714    1.429    0.857   12.000    0.000 
#   10.286    1.429    0.000    0.000    0.000    0.000 
#    0.000    0.000    0.000    0.000    0.000    0.000 
#
# Total GULP energy -173541.558395 kJ/mol
# GULP energy per Si atom -12395.825600 kJ/mol
# Density = 2.404538 g / cm^3
# Si number density = 24.100229 Si / 1000 Ang^3
#
#
#
# Elastic Constant Matrix: (Units=GPa)
#
#
# Indices 1 2 3 4 5 6 
#
# 1 107.8578 32.3022 35.8658 0.0000 24.2069 0.0000
# 2 32.3022 102.0770 22.8312 0.0000 5.6765 0.0000
# 3 35.8658 22.8312 104.1862 0.0000 33.3594 0.0000
# 4 0.0000 0.0000 0.0000 14.9011 0.0000 8.3529
# 5 24.2069 5.6765 33.3594 0.0000 33.0323 0.0000
# 6 0.0000 0.0000 0.0000 8.3529 0.0000 27.7688
#
#
#
# Elastic Compliance Matrix: (Units=1/GPa)
#
#
# Indices 1 2 3 4 5 6 
#
# 1 0.012251 -0.003206 -0.001207 0.000000 -0.007208 0.000000
# 2 -0.003206 0.011153 -0.002186 0.000000 0.002640 0.000000
# 3 -0.001207 -0.002186 0.014911 0.000000 -0.013798 0.000000
# 4 0.000000 0.000000 0.000000 0.080720 0.000000 -0.024281
# 5 -0.007208 0.002640 -0.013798 0.000000 0.049037 0.000000
# 6 0.000000 0.000000 0.000000 -0.024281 0.000000 0.043315
#
#
# Mechanical properties :
#
#
# Convention : Reuss Voigt Hill
#
# Bulk Modulus (GPa) = 39.81314 55.12436 47.46875
# Shear Modulus (GPa) = 21.46328 30.01521 25.73925
#
# Velocity S-wave (km/s) = 2.98750 3.53290 3.27159
# Velocity P-wave (km/s) = 5.33441 6.29003 5.83182
#
# Compressibility (1/GPa) = 0.02511733
#
# Stress axis : x y z
#
# Youngs Moduli (GPa) = 81.62867 89.66102 67.06573
#
# Poissons Ratio (x) = 0.28745 0.08094
# Poissons Ratio (y) = 0.26170 0.14659
# Poissons Ratio (z) = 0.09851 0.19598
#
# Static dielectric constant tensor:
#      x y z
#    x 4.456120 0.000000 0.335930 
#    y 0.000000 4.096730 0.000000 
#    z 0.335930 0.000000 4.423820 
# 
# 
# High freq. dielectric constant tensor:
#      x y z
#    x 1.956450 0.000000 0.017480 
#    y 0.000000 1.940330 0.000000 
#    z 0.017480 0.000000 1.953840 
# 
# From -- ./inp_files/5406.got.cif
#   From: 2010.06.25/outbox.cif.g09.slc.cpg/sg9_3_cif.got.tgz:5406.got - 2010.06.27 21:40:51.
