data_PCOD8055049
_publ_section_title
;
Structure prediction by ZEFSAII (Michael W. Deem and Ramdas Pophale) SiO2 
 PCOD8055049
Probable space group: C C
;
_chemical_formula_sum "Si O2"
_cell_formula_units_Z 28
_cell_length_a 11.576552
_cell_length_b 9.251944
_cell_length_c 11.285810
_cell_angle_alpha 90.000000
_cell_angle_beta 82.536413
_cell_angle_gamma 90.000000
_cell_volume 1198.532377
_symmetry_space_group_name_H-M "C C"
_symmetry_group_IT_number 9
_symmetry_cell_setting 'monoclinic'
loop_
_space_group_symop_operation_xyz
x,y,z
x,-y,1/2+z
1/2+x,1/2+y,z
1/2+x,1/2-y,1/2+z
loop_
_atom_site_type_symbol
_atom_site_label
_atom_site_fract_x
_atom_site_fract_y
_atom_site_fract_z
Si Si1 0.715120 0.859041 0.383110
Si Si2 0.774029 0.590737 0.515891
Si Si3 0.575080 0.677789 0.709716
Si Si4 0.053315 0.714242 0.707528
Si Si5 0.583451 0.383921 0.461689
Si Si6 0.006096 0.442950 0.579846
Si Si7 0.925357 0.951972 0.830560
O O1 0.795722 0.739148 0.438881
O O2 0.002345 0.971828 0.216279
O O3 0.669253 0.776319 0.272046
O O4 0.792110 0.998775 0.339168
O O5 0.702085 0.645058 0.639653
O O6 0.700665 0.477305 0.449971
O O7 0.891607 0.506953 0.533043
O O8 0.494857 0.788845 0.646349
O O9 0.591518 0.723349 0.846023
O O10 0.066769 0.788350 0.578794
O O11 0.034769 0.546421 0.686044
O O12 0.944875 0.782130 0.798327
O O13 0.478001 0.500171 0.452196
O O14 0.108952 0.425115 0.471530
#
# Coordination Sequence:
#
# PCOD8055049 Si02
#       7
#     4   4   4   4   4   4   4
#     4  11  26  48  73 112 151 188 252 308 369 448
#     4  11  22  48  75 106 145 195 251 307 369 451
#     4   9  23  44  72 105 140 192 247 302 364 439
#     4  12  25  46  70 109 144 197 242 297 383 433
#     4  10  21  42  75 104 139 194 246 298 369 437
#     4  11  28  45  72 109 151 191 250 306 376 437
#     4  10  23  45  75 101 146 189 250 300 364 441
#
# _framework density 23.361908
#
# number of rings (size 3 to 8) (size 9 to 14) (size 15 to 20)
#    0.857    0.571    2.857    0.857    4.000    4.571 
#    2.571    0.000    0.000    0.000    0.000    0.000 
#    0.000    0.000    0.000    0.000    0.000    0.000 
#
# Total GULP energy -173438.338047 kJ/mol
# GULP energy per Si atom -12388.452718 kJ/mol
# Density = 2.330873 g / cm^3
# Si number density = 23.361908 Si / 1000 Ang^3
#
#
#
# Elastic Constant Matrix: (Units=GPa)
#
#
# Indices 1 2 3 4 5 6 
#
# 1 113.9417 35.0681 48.4138 0.0000 11.4548 0.0000
# 2 35.0681 65.6215 22.4182 0.0000 9.4814 0.0000
# 3 48.4138 22.4182 108.5293 0.0000 19.0591 0.0000
# 4 0.0000 0.0000 0.0000 39.4258 0.0000 -1.0255
# 5 11.4548 9.4814 19.0591 0.0000 24.4605 0.0000
# 6 0.0000 0.0000 0.0000 -1.0255 0.0000 48.3057
#
#
#
# Elastic Compliance Matrix: (Units=1/GPa)
#
#
# Indices 1 2 3 4 5 6 
#
# 1 0.012192 -0.004975 -0.004341 0.000000 -0.000399 0.000000
# 2 -0.004975 0.018827 -0.000924 0.000000 -0.004248 0.000000
# 3 -0.004341 -0.000924 0.012653 0.000000 -0.007468 0.000000
# 4 0.000000 0.000000 0.000000 0.025378 0.000000 0.000539
# 5 -0.000399 -0.004248 -0.007468 0.000000 0.048535 0.000000
# 6 0.000000 0.000000 0.000000 0.000539 0.000000 0.020713
#
#
# Mechanical properties :
#
#
# Convention : Reuss Voigt Hill
#
# Bulk Modulus (GPa) = 43.11725 55.54363 49.33044
# Shear Modulus (GPa) = 30.02865 34.58456 32.30661
#
# Velocity S-wave (km/s) = 3.58909 3.85175 3.72274
# Velocity P-wave (km/s) = 5.97258 6.60365 6.29603
#
# Compressibility (1/GPa) = 0.02319257
#
# Stress axis : x y z
#
# Youngs Moduli (GPa) = 82.01988 53.11570 79.03329
#
# Poissons Ratio (x) = 0.26424 0.34310
# Poissons Ratio (y) = 0.40803 0.07300
# Poissons Ratio (z) = 0.35606 0.04906
#
# Static dielectric constant tensor:
#      x y z
#    x 3.919330 0.000000 0.195800 
#    y 0.000000 4.384500 0.000000 
#    z 0.195800 0.000000 4.316260 
# 
# 
# High freq. dielectric constant tensor:
#      x y z
#    x 1.905410 0.000000 0.009740 
#    y 0.000000 1.927700 0.000000 
#    z 0.009740 0.000000 1.932350 
# 
# From -- ./inp_files/15942.got.cif
#   From: 2010.06.25/outbox.cif.g09.slc.cpg/sg9_8_cif.got.tgz:15942.got - 2010.06.27 21:40:51.
