data_PCOD8055610
_publ_section_title
;
Structure prediction by ZEFSAII (Michael W. Deem and Ramdas Pophale) SiO2 
 PCOD8055610
Probable space group: C C
;
_chemical_formula_sum "Si O2"
_cell_formula_units_Z 32
_cell_length_a 9.394363
_cell_length_b 20.699211
_cell_length_c 15.191332
_cell_angle_alpha 90.000000
_cell_angle_beta 29.883274
_cell_angle_gamma 90.000000
_cell_volume 1471.807163
_symmetry_space_group_name_H-M "C C"
_symmetry_group_IT_number 9
_symmetry_cell_setting 'monoclinic'
loop_
_space_group_symop_operation_xyz
x,y,z
x,-y,1/2+z
1/2+x,1/2+y,z
1/2+x,1/2-y,1/2+z
loop_
_atom_site_type_symbol
_atom_site_label
_atom_site_fract_x
_atom_site_fract_y
_atom_site_fract_z
Si Si1 0.646010 0.726198 0.289530
Si Si2 0.726224 0.136858 0.798317
Si Si3 0.870087 0.425126 0.346561
Si Si4 0.345766 0.843180 0.941319
Si Si5 0.190513 0.363060 0.508078
Si Si6 0.715541 0.945980 0.665759
Si Si7 0.561914 0.801463 0.156950
Si Si8 0.177247 0.773631 0.212070
O O1 0.691291 0.785873 0.333317
O O2 0.554072 0.755674 0.245370
O O3 0.389408 0.681635 0.460604
O O4 0.917054 0.681255 0.141769
O O5 0.454500 0.108563 0.893375
O O6 0.029236 0.132165 0.581966
O O7 0.742467 0.102331 0.884914
O O8 0.545407 0.450171 0.518435
O O9 0.093113 0.483008 0.217921
O O10 0.907894 0.370789 0.251293
O O11 0.312967 0.806689 0.052685
O O12 0.546380 0.906822 0.833281
O O13 0.504583 0.794028 0.786722
O O14 0.160409 0.414750 0.600383
O O15 0.465770 0.319780 0.379695
O O16 0.430112 0.761023 0.146068
#
# Coordination Sequence:
#
# PCOD8055610 Si02
#       8
#     4   4   4   4   4   4   4   4
#     4  11  22  37  66 101 140 174 212 270 347 394
#     4  10  23  43  66 103 141 177 221 276 338 414
#     4  11  27  48  70  95 133 183 236 272 348 398
#     4  11  24  38  71  97 143 178 221 278 337 406
#     4  11  23  42  69 103 134 178 226 278 342 403
#     4  12  27  48  71  95 134 186 232 287 333 410
#     4  11  24  41  66 101 142 171 220 281 331 415
#     4  11  22  41  65 109 137 177 220 278 348 402
#
# _framework density 21.741979000000001
#
# number of rings (size 3 to 8) (size 9 to 14) (size 15 to 20)
#    0.000    1.000    3.750    2.250   10.500    1.000 
#    2.250    1.250    0.000    0.000    0.000    0.000 
#    0.000    0.000    0.000    0.000    0.000    0.000 
#
# Total GULP energy -198278.616786 kJ/mol
# GULP energy per Si atom -12392.413549 kJ/mol
# Density = 2.169249 g / cm^3
# Si number density = 21.741979 Si / 1000 Ang^3
#
#
#
# Elastic Constant Matrix: (Units=GPa)
#
#
# Indices 1 2 3 4 5 6 
#
# 1 73.6019 14.3141 34.1795 -0.0717 -16.2533 0.0181
# 2 14.3141 75.5390 29.9710 -0.0928 -15.6101 0.0299
# 3 34.1795 29.9710 123.6558 -0.2025 -23.7424 0.0751
# 4 -0.0717 -0.0928 -0.2025 33.9953 -0.0024 -11.0587
# 5 -16.2533 -15.6101 -23.7424 -0.0024 32.8864 -0.0295
# 6 0.0181 0.0299 0.0751 -11.0587 -0.0295 20.1038
#
#
#
# Elastic Compliance Matrix: (Units=1/GPa)
#
#
# Indices 1 2 3 4 5 6 
#
# 1 0.016466 -0.000675 -0.003351 0.000019 0.005398 0.000017
# 2 -0.000675 0.015449 -0.002570 0.000029 0.005144 0.000011
# 3 -0.003351 -0.002570 0.010546 0.000050 0.004737 0.000002
# 4 0.000019 0.000029 0.000050 0.035827 0.000079 0.019708
# 5 0.005398 0.005144 0.004737 0.000079 0.038938 0.000071
# 6 0.000017 0.000011 0.000002 0.019708 0.000071 0.060583
#
#
# Mechanical properties :
#
#
# Convention : Reuss Voigt Hill
#
# Bulk Modulus (GPa) = 34.16690 47.74731 40.95711
# Shear Modulus (GPa) = 24.90568 30.35257 27.62913
#
# Velocity S-wave (km/s) = 3.38821 3.74041 3.56866
# Velocity P-wave (km/s) = 5.57274 6.37674 5.98825
#
# Compressibility (1/GPa) = 0.02926809
#
# Stress axis : x y z
#
# Youngs Moduli (GPa) = 60.73025 64.72975 94.82352
#
# Poissons Ratio (x) = 0.04369 0.31778
# Poissons Ratio (y) = 0.04099 0.24371
# Poissons Ratio (z) = 0.20353 0.16636
#
# Static dielectric constant tensor:
#      x y z
#    x 3.975470 0.000060 -0.099940 
#    y 0.000060 3.805510 0.000860 
#    z -0.099940 0.000860 4.231450 
# 
# 
# High freq. dielectric constant tensor:
#      x y z
#    x 1.862540 0.000000 -0.010550 
#    y 0.000000 1.824730 0.000010 
#    z -0.010550 0.000010 1.872390 
# 
# From -- ./inp_files/23783.got.cif
#   From: 2010.06.25/outbox.cif.g09.slc.cpg/sg9_12_cif.got.tgz:23783.got - 2010.06.27 21:40:51.
