data_PCOD8055000
_publ_section_title
;
Structure prediction by ZEFSAII (Michael W. Deem and Ramdas Pophale) SiO2 
 PCOD8055000
Probable space group: C C
;
_chemical_formula_sum "Si O2"
_cell_formula_units_Z 32
_cell_length_a 8.490548
_cell_length_b 11.674182
_cell_length_c 14.480438
_cell_angle_alpha 90.000000
_cell_angle_beta 112.975384
_cell_angle_gamma 90.000000
_cell_volume 1321.445073
_symmetry_space_group_name_H-M "C C"
_symmetry_group_IT_number 9
_symmetry_cell_setting 'monoclinic'
loop_
_space_group_symop_operation_xyz
x,y,z
x,-y,1/2+z
1/2+x,1/2+y,z
1/2+x,1/2-y,1/2+z
loop_
_atom_site_type_symbol
_atom_site_label
_atom_site_fract_x
_atom_site_fract_y
_atom_site_fract_z
Si Si1 0.369610 0.466253 0.506650
Si Si2 0.106514 0.766711 0.533527
Si Si3 0.494090 0.697749 0.348959
Si Si4 0.661145 0.649746 0.566841
Si Si5 0.468761 0.242163 0.170939
Si Si6 0.031833 0.628222 0.696009
Si Si7 0.162596 0.362348 0.867804
Si Si8 0.849643 0.991041 0.204688
O O1 0.468118 0.363462 0.480799
O O2 0.501495 0.569227 0.548211
O O3 0.221800 0.506248 0.401188
O O4 0.304216 0.446599 0.596354
O O5 0.303690 0.807954 0.579972
O O6 0.086343 0.675644 0.448274
O O7 0.073140 0.719304 0.626872
O O8 0.653604 0.692858 0.458295
O O9 0.537590 0.805574 0.294822
O O10 0.319371 0.717653 0.367420
O O11 0.474005 0.576338 0.289952
O O12 0.628002 0.751313 0.634665
O O13 0.838733 0.585762 0.630453
O O14 0.511558 0.147756 0.258900
O O15 0.436311 0.366520 0.212116
O O16 0.169317 0.524224 0.719783
#
# Coordination Sequence:
#
# PCOD8055000 Si02
#       8
#     4   4   4   4   4   4   4   4
#     4  10  21  43  65  97 137 182 231 286 355 424
#     4  11  22  42  71  97 138 187 226 301 359 415
#     4  11  22  42  69  99 142 184 233 298 354 422
#     4  10  22  42  63  98 142 174 238 289 345 436
#     4  10  21  41  68  97 140 187 232 292 359 424
#     4  11  22  42  68 100 138 181 231 299 362 420
#     4  11  22  40  71 102 137 186 239 291 359 426
#     4  10  22  42  67 100 138 183 234 292 357 431
#
# _framework density 24.215913
#
# number of rings (size 3 to 8) (size 9 to 14) (size 15 to 20)
#    0.000    1.500    7.500    0.000    3.500    3.000 
#    0.000    0.000    2.750    0.000    0.000    0.000 
#    0.000    0.000    0.000    0.000    0.000    0.000 
#
# Total GULP energy -198283.237327 kJ/mol
# GULP energy per Si atom -12392.702333 kJ/mol
# Density = 2.416080 g / cm^3
# Si number density = 24.215913 Si / 1000 Ang^3
#
#
#
# Elastic Constant Matrix: (Units=GPa)
#
#
# Indices 1 2 3 4 5 6 
#
# 1 85.7388 25.6856 29.7529 0.0000 -10.5276 0.0000
# 2 25.6856 40.8762 28.4954 0.0000 9.8001 0.0000
# 3 29.7529 28.4954 128.8269 0.0000 1.5204 0.0000
# 4 0.0000 0.0000 0.0000 27.6286 0.0000 -4.6883
# 5 -10.5276 9.8001 1.5204 0.0000 39.4256 0.0000
# 6 0.0000 0.0000 0.0000 -4.6883 0.0000 40.2074
#
#
#
# Elastic Compliance Matrix: (Units=1/GPa)
#
#
# Indices 1 2 3 4 5 6 
#
# 1 0.016323 -0.010975 -0.001427 0.000000 0.007142 0.000000
# 2 -0.010975 0.038338 -0.005801 0.000000 -0.012237 0.000000
# 3 -0.001427 -0.005801 0.009367 0.000000 0.000700 0.000000
# 4 0.000000 0.000000 0.000000 0.036925 0.000000 0.004306
# 5 0.007142 -0.012237 0.000700 0.000000 0.030286 0.000000
# 6 0.000000 0.000000 0.000000 0.004306 0.000000 0.025373
#
#
# Mechanical properties :
#
#
# Convention : Reuss Voigt Hill
#
# Bulk Modulus (GPa) = 36.20155 47.03442 41.61798
# Shear Modulus (GPa) = 24.72503 32.88620 28.80561
#
# Velocity S-wave (km/s) = 3.19881 3.68916 3.45270
# Velocity P-wave (km/s) = 5.35025 6.13283 5.75486
#
# Compressibility (1/GPa) = 0.02762313
#
# Stress axis : x y z
#
# Youngs Moduli (GPa) = 61.26281 26.08376 106.76114
#
# Poissons Ratio (x) = 0.28626 0.15231
# Poissons Ratio (y) = 0.67234 0.61932
# Poissons Ratio (z) = 0.08740 0.15131
#
# Static dielectric constant tensor:
#      x y z
#    x 4.750810 0.000000 -0.047500 
#    y 0.000000 4.281980 0.000000 
#    z -0.047500 0.000000 4.723000 
# 
# 
# High freq. dielectric constant tensor:
#      x y z
#    x 1.958380 0.000000 -0.013380 
#    y 0.000000 1.934580 0.000000 
#    z -0.013380 0.000000 1.981670 
# 
# From -- ./inp_files/22815.got.cif
#   From: 2010.06.25/outbox.cif.g09.slc.cpg/sg9_12_cif.got.tgz:22815.got - 2010.06.27 21:40:51.
