data_PCOD8055745
_publ_section_title
;
Structure prediction by ZEFSAII (Michael W. Deem and Ramdas Pophale) SiO2 
 PCOD8055745
Probable space group: C C
;
_chemical_formula_sum "Si O2"
_cell_formula_units_Z 32
_cell_length_a 6.057246
_cell_length_b 20.484093
_cell_length_c 11.213370
_cell_angle_alpha 90.000000
_cell_angle_beta 109.477298
_cell_angle_gamma 90.000000
_cell_volume 1311.703123
_symmetry_space_group_name_H-M "C C"
_symmetry_group_IT_number 9
_symmetry_cell_setting 'monoclinic'
loop_
_space_group_symop_operation_xyz
x,y,z
x,-y,1/2+z
1/2+x,1/2+y,z
1/2+x,1/2-y,1/2+z
loop_
_atom_site_type_symbol
_atom_site_label
_atom_site_fract_x
_atom_site_fract_y
_atom_site_fract_z
Si Si1 0.332110 0.273939 0.048660
Si Si2 0.413533 0.519979 0.861714
Si Si3 0.847372 0.272823 0.816537
Si Si4 0.705106 0.932595 0.541557
Si Si5 0.916628 0.500252 0.174911
Si Si6 0.113932 0.093358 0.268099
Si Si7 0.604060 0.384987 0.197783
Si Si8 0.001681 0.312368 0.380219
O O1 0.358008 0.231072 0.174484
O O2 0.403682 0.349990 0.081347
O O3 0.506951 0.239807 0.987372
O O4 0.081516 0.271203 0.937664
O O5 0.137662 0.508711 0.799575
O O6 0.583150 0.458321 0.870803
O O7 0.488588 0.579007 0.789346
O O8 0.421641 0.535272 0.004329
O O9 0.711352 0.338273 0.831472
O O10 0.696297 0.209188 0.821269
O O11 0.558308 0.884286 0.435319
O O12 0.847758 0.896286 0.672005
O O13 0.518800 0.985038 0.560453
O O14 0.783804 0.564157 0.198238
O O15 0.757312 0.435011 0.146540
O O16 0.751613 0.322059 0.270932
#
# Coordination Sequence:
#
# PCOD8055745 Si02
#       8
#     4   4   4   4   4   4   4   4
#     4  12  28  48  76 114 153 201 260 313 385 453
#     4  10  23  46  70 107 143 198 245 314 389 447
#     4  12  28  50  76 114 153 203 258 318 375 459
#     4  11  23  43  79 101 143 196 248 309 385 457
#     4  10  23  46  71 107 145 193 248 316 384 450
#     4  10  25  46  68 108 148 185 253 309 376 447
#     4  11  25  48  73 111 149 195 255 316 383 458
#     4  12  27  47  79 104 152 203 251 313 389 451
#
# _framework density 24.395765000000001
#
# number of rings (size 3 to 8) (size 9 to 14) (size 15 to 20)
#    0.000    1.000    2.500    2.250    7.000    2.000 
#   18.000    0.000    0.000    0.000    0.000    0.000 
#    0.000    0.000    0.000    0.000    0.000    0.000 
#
# Total GULP energy -198336.998743 kJ/mol
# GULP energy per Si atom -12396.062421 kJ/mol
# Density = 2.434024 g / cm^3
# Si number density = 24.395765 Si / 1000 Ang^3
#
#
#
# Elastic Constant Matrix: (Units=GPa)
#
#
# Indices 1 2 3 4 5 6 
#
# 1 111.0520 39.7384 41.6944 0.0000 -8.6261 0.0000
# 2 39.7384 119.3042 36.6192 0.0000 -5.0987 0.0000
# 3 41.6944 36.6192 104.6588 0.0000 5.9400 0.0000
# 4 0.0000 0.0000 0.0000 35.7051 0.0000 0.8498
# 5 -8.6261 -5.0987 5.9400 0.0000 51.6668 0.0000
# 6 0.0000 0.0000 0.0000 0.8498 0.0000 49.0858
#
#
#
# Elastic Compliance Matrix: (Units=1/GPa)
#
#
# Indices 1 2 3 4 5 6 
#
# 1 0.011520 -0.002579 -0.003807 0.000000 0.002107 0.000000
# 2 -0.002579 0.010057 -0.002540 0.000000 0.000854 0.000000
# 3 -0.003807 -0.002540 0.012089 0.000000 -0.002276 0.000000
# 4 0.000000 0.000000 0.000000 0.028019 0.000000 -0.000485
# 5 0.002107 0.000854 -0.002276 0.000000 0.020052 0.000000
# 6 0.000000 0.000000 0.000000 -0.000485 0.000000 0.020381
#
#
# Mechanical properties :
#
#
# Convention : Reuss Voigt Hill
#
# Bulk Modulus (GPa) = 63.22866 63.45766 63.34316
# Shear Modulus (GPa) = 39.92272 41.75574 40.83923
#
# Velocity S-wave (km/s) = 4.04971 4.14163 4.09593
# Velocity P-wave (km/s) = 6.91672 6.99565 6.95629
#
# Compressibility (1/GPa) = 0.01581561
#
# Stress axis : x y z
#
# Youngs Moduli (GPa) = 86.80195 99.43319 82.71752
#
# Poissons Ratio (x) = 0.25642 0.31489
# Poissons Ratio (y) = 0.22384 0.21010
# Poissons Ratio (z) = 0.33044 0.25256
#
# Static dielectric constant tensor:
#      x y z
#    x 4.559950 0.000000 -0.071690 
#    y 0.000000 4.291520 0.000000 
#    z -0.071690 0.000000 4.444600 
# 
# 
# High freq. dielectric constant tensor:
#      x y z
#    x 1.984740 0.000000 0.003410 
#    y 0.000000 1.965780 0.000000 
#    z 0.003410 0.000000 1.974430 
# 
# From -- ./inp_files/13554.got.cif
#   From: 2010.06.25/outbox.cif.g09.slc.cpg/sg9_7_cif.got.tgz:13554.got - 2010.06.27 21:40:51.
