data_PCOD8055718
_publ_section_title
;
Structure prediction by ZEFSAII (Michael W. Deem and Ramdas Pophale) SiO2 
 PCOD8055718
Probable space group: C C
;
_chemical_formula_sum "Si O2"
_cell_formula_units_Z 32
_cell_length_a 13.369367
_cell_length_b 13.889676
_cell_length_c 9.456769
_cell_angle_alpha 90.000000
_cell_angle_beta 52.929903
_cell_angle_gamma 90.000000
_cell_volume 1401.178500
_symmetry_space_group_name_H-M "C C"
_symmetry_group_IT_number 9
_symmetry_cell_setting 'monoclinic'
loop_
_space_group_symop_operation_xyz
x,y,z
x,-y,1/2+z
1/2+x,1/2+y,z
1/2+x,1/2-y,1/2+z
loop_
_atom_site_type_symbol
_atom_site_label
_atom_site_fract_x
_atom_site_fract_y
_atom_site_fract_z
Si Si1 0.468140 0.030959 0.921300
Si Si2 0.468533 0.577258 0.439020
Si Si3 0.362143 0.434511 0.334008
Si Si4 0.450880 0.235447 0.801545
Si Si5 0.692685 0.499326 0.577004
Si Si6 0.575593 0.310433 0.209870
Si Si7 0.679880 0.691285 0.924606
Si Si8 0.581700 0.100261 0.104480
O O1 0.483407 0.130237 0.827099
O O2 0.562577 0.952492 0.771733
O O3 0.329497 0.988789 0.026768
O O4 0.493551 0.047033 0.065702
O O5 0.365796 0.533044 0.418924
O O6 0.434341 0.547610 0.625964
O O7 0.460306 0.692420 0.426979
O O8 0.604123 0.534884 0.281861
O O9 0.435289 0.350924 0.360135
O O10 0.221198 0.405503 0.426274
O O11 0.558814 0.260930 0.598806
O O12 0.311109 0.241682 0.854570
O O13 0.647846 0.604854 0.559063
O O14 0.687426 0.421960 0.455211
O O15 0.658951 0.293099 0.276918
O O16 0.555639 0.213713 0.138068
#
# Coordination Sequence:
#
# PCOD8055718 Si02
#       8
#     4   4   4   4   4   4   4   4
#     4  11  27  48  71 108 146 193 234 310 363 437
#     4  10  23  45  73 102 138 190 233 307 352 448
#     4  11  26  44  70 103 144 183 244 298 365 431
#     4  10  24  44  72 102 142 186 241 296 374 431
#     4   9  24  46  76 103 145 184 251 292 372 431
#     4  11  27  44  74 103 142 194 245 296 358 444
#     4  10  24  43  74 107 137 191 237 306 359 442
#     4  12  29  46  72 106 150 195 239 307 371 428
#
# _framework density 22.837917000000001
#
# number of rings (size 3 to 8) (size 9 to 14) (size 15 to 20)
#    0.000    1.500    0.000    1.500   22.750    0.000 
#    4.500    0.000    0.000    0.000    0.000    0.000 
#    0.000    0.000    0.000    0.000    0.000    0.000 
#
# Total GULP energy -198386.636200 kJ/mol
# GULP energy per Si atom -12399.164762 kJ/mol
# Density = 2.278594 g / cm^3
# Si number density = 22.837917 Si / 1000 Ang^3
#
#
#
# Elastic Constant Matrix: (Units=GPa)
#
#
# Indices 1 2 3 4 5 6 
#
# 1 99.0054 31.4099 34.3898 0.0000 -10.4998 0.0000
# 2 31.4099 141.0556 34.3778 0.0000 -4.3657 0.0000
# 3 34.3898 34.3778 73.7604 0.0000 -2.7931 0.0000
# 4 0.0000 0.0000 0.0000 29.0049 0.0000 -1.3121
# 5 -10.4998 -4.3657 -2.7931 0.0000 43.7023 0.0000
# 6 0.0000 0.0000 0.0000 -1.3121 0.0000 29.9615
#
#
#
# Elastic Compliance Matrix: (Units=1/GPa)
#
#
# Indices 1 2 3 4 5 6 
#
# 1 0.012612 -0.001489 -0.005089 0.000000 0.002556 0.000000
# 2 -0.001489 0.008187 -0.003112 0.000000 0.000261 0.000000
# 3 -0.005089 -0.003112 0.017365 0.000000 -0.000424 0.000000
# 4 0.000000 0.000000 0.000000 0.034545 0.000000 0.001513
# 5 0.002556 0.000261 -0.000424 0.000000 0.023495 0.000000
# 6 0.000000 0.000000 0.000000 0.001513 0.000000 0.033442
#
#
# Mechanical properties :
#
#
# Convention : Reuss Voigt Hill
#
# Bulk Modulus (GPa) = 53.23810 57.13068 55.18439
# Shear Modulus (GPa) = 32.19825 34.77668 33.48747
#
# Velocity S-wave (km/s) = 3.75888 3.90649 3.83340
# Velocity P-wave (km/s) = 6.49622 6.73926 6.61885
#
# Compressibility (1/GPa) = 0.01878354
#
# Stress axis : x y z
#
# Youngs Moduli (GPa) = 79.29168 122.13809 57.58855
#
# Poissons Ratio (x) = 0.18185 0.29309
# Poissons Ratio (y) = 0.11805 0.17921
# Poissons Ratio (z) = 0.40354 0.38008
#
# Static dielectric constant tensor:
#      x y z
#    x 4.248310 0.000000 -0.079050 
#    y 0.000000 4.253830 0.000000 
#    z -0.079050 0.000000 3.906130 
# 
# 
# High freq. dielectric constant tensor:
#      x y z
#    x 1.912780 0.000000 -0.005900 
#    y 0.000000 1.909280 0.000000 
#    z -0.005900 0.000000 1.889620 
# 
# From -- ./inp_files/9680.got.cif
#   From: 2010.06.25/outbox.cif.g09.slc.cpg/sg9_5_cif.got.tgz:9680.got - 2010.06.27 21:40:51.
