data_PCOD8055491
_publ_section_title
;
Structure prediction by ZEFSAII (Michael W. Deem and Ramdas Pophale) SiO2 
 PCOD8055491
Probable space group: C C
;
_chemical_formula_sum "Si O2"
_cell_formula_units_Z 32
_cell_length_a 8.655706
_cell_length_b 27.483818
_cell_length_c 5.712577
_cell_angle_alpha 90.000000
_cell_angle_beta 107.533846
_cell_angle_gamma 90.000000
_cell_volume 1295.836345
_symmetry_space_group_name_H-M "C C"
_symmetry_group_IT_number 9
_symmetry_cell_setting 'monoclinic'
loop_
_space_group_symop_operation_xyz
x,y,z
x,-y,1/2+z
1/2+x,1/2+y,z
1/2+x,1/2-y,1/2+z
loop_
_atom_site_type_symbol
_atom_site_label
_atom_site_fract_x
_atom_site_fract_y
_atom_site_fract_z
Si Si1 0.497050 0.975356 0.686590
Si Si2 0.355581 0.309969 0.822468
Si Si3 0.842251 0.977830 0.132596
Si Si4 0.178057 0.945374 0.362759
Si Si5 0.841178 0.376530 0.102413
Si Si6 0.651958 0.110381 0.466063
Si Si7 0.683551 0.709914 0.747647
Si Si8 0.088635 0.852661 0.592868
O O1 0.299700 0.972353 0.600741
O O2 0.561933 0.919530 0.714660
O O3 0.555214 0.004139 0.475651
O O4 0.227857 0.339574 0.916316
O O5 0.259413 0.261325 0.715571
O O6 0.411412 0.342910 0.626564
O O7 0.520025 0.296528 0.028138
O O8 0.038085 0.982879 0.215654
O O9 0.776398 0.005257 0.339850
O O10 0.797179 0.921553 0.139102
O O11 0.293909 0.928001 0.201826
O O12 0.079906 0.898051 0.411590
O O13 0.819766 0.330811 0.262474
O O14 0.725826 0.368287 0.832424
O O15 0.027058 0.378227 0.115437
O O16 0.637627 0.699295 0.996924
#
# Coordination Sequence:
#
# PCOD8055491 Si02
#       8
#     4   4   4   4   4   4   4   4
#     4  12  26  47  76 113 151 200 265 326 382 459
#     4  11  27  46  75 108 154 194 252 312 388 464
#     4  12  29  49  74 111 158 203 263 327 389 466
#     4  11  24  47  77 107 145 204 257 312 390 457
#     4  10  23  45  75 108 145 192 252 311 375 471
#     4  12  26  49  73 107 157 202 251 322 399 450
#     4  10  25  47  72 113 143 198 253 308 383 459
#     4  10  22  46  72 105 147 189 253 306 372 474
#
# _framework density 24.694476999999999
#
# number of rings (size 3 to 8) (size 9 to 14) (size 15 to 20)
#    0.000    1.000    1.250    4.500    7.000    2.000 
#    6.750    0.000    0.000    0.000    0.000    0.000 
#    0.000    0.000    0.000    0.000    0.000    0.000 
#
# Total GULP energy -198348.006277 kJ/mol
# GULP energy per Si atom -12396.750392 kJ/mol
# Density = 2.463827 g / cm^3
# Si number density = 24.694477 Si / 1000 Ang^3
#
#
#
# Elastic Constant Matrix: (Units=GPa)
#
#
# Indices 1 2 3 4 5 6 
#
# 1 146.6699 31.2175 61.3391 0.0000 -19.9019 0.0000
# 2 31.2175 86.7960 34.2699 0.0000 -3.4135 0.0000
# 3 61.3391 34.2699 121.1656 0.0000 0.5793 0.0000
# 4 0.0000 0.0000 0.0000 26.3120 0.0000 10.1451
# 5 -19.9019 -3.4135 0.5793 0.0000 40.3187 0.0000
# 6 0.0000 0.0000 0.0000 10.1451 0.0000 42.6422
#
#
#
# Elastic Compliance Matrix: (Units=1/GPa)
#
#
# Indices 1 2 3 4 5 6 
#
# 1 0.009652 -0.001518 -0.004480 0.000000 0.004700 0.000000
# 2 -0.001518 0.013262 -0.002984 0.000000 0.000416 0.000000
# 3 -0.004480 -0.002984 0.011378 0.000000 -0.002627 0.000000
# 4 0.000000 0.000000 0.000000 0.041844 0.000000 -0.009955
# 5 0.004700 0.000416 -0.002627 0.000000 0.027196 0.000000
# 6 0.000000 0.000000 0.000000 -0.009955 0.000000 0.025819
#
#
# Mechanical properties :
#
#
# Convention : Reuss Voigt Hill
#
# Bulk Modulus (GPa) = 61.24522 67.58715 64.41618
# Shear Modulus (GPa) = 32.77456 37.04158 34.90807
#
# Velocity S-wave (km/s) = 3.64703 3.87718 3.76386
# Velocity P-wave (km/s) = 6.52606 6.89000 6.71050
#
# Compressibility (1/GPa) = 0.01632780
#
# Stress axis : x y z
#
# Youngs Moduli (GPa) = 103.60192 75.40346 87.89243
#
# Poissons Ratio (x) = 0.11447 0.39372
# Poissons Ratio (y) = 0.15728 0.26231
# Poissons Ratio (z) = 0.46409 0.22504
#
# Static dielectric constant tensor:
#      x y z
#    x 4.761680 0.000000 -0.090880 
#    y 0.000000 4.431370 0.000000 
#    z -0.090880 0.000000 4.447890 
# 
# 
# High freq. dielectric constant tensor:
#      x y z
#    x 2.017570 0.000000 0.005470 
#    y 0.000000 1.971730 0.000000 
#    z 0.005470 0.000000 1.984010 
# 
# From -- ./inp_files/1420.got.cif
#   From: 2010.06.25/outbox.cif.g09.slc.cpg/sg9_1_cif.got.tgz:1420.got - 2010.06.27 21:40:51.
