data_PCOD8055349
_publ_section_title
;
Structure prediction by ZEFSAII (Michael W. Deem and Ramdas Pophale) SiO2 
 PCOD8055349
Probable space group: C C
;
_chemical_formula_sum "Si O2"
_cell_formula_units_Z 32
_cell_length_a 10.775070
_cell_length_b 9.587761
_cell_length_c 25.634434
_cell_angle_alpha 90.000000
_cell_angle_beta 150.421358
_cell_angle_gamma 90.000000
_cell_volume 1307.229284
_symmetry_space_group_name_H-M "C C"
_symmetry_group_IT_number 9
_symmetry_cell_setting 'monoclinic'
loop_
_space_group_symop_operation_xyz
x,y,z
x,-y,1/2+z
1/2+x,1/2+y,z
1/2+x,1/2-y,1/2+z
loop_
_atom_site_type_symbol
_atom_site_label
_atom_site_fract_x
_atom_site_fract_y
_atom_site_fract_z
Si Si1 0.133040 0.871181 0.503490
Si Si2 0.358826 0.520320 0.279178
Si Si3 0.591772 0.820085 0.341918
Si Si4 0.947740 0.527292 0.210737
Si Si5 0.301012 0.591204 0.599150
Si Si6 0.622806 0.685001 0.808702
Si Si7 0.184461 0.341001 0.488070
Si Si8 0.928109 0.561894 0.549426
O O1 0.221858 0.964778 0.586126
O O2 0.306413 0.732200 0.566577
O O3 0.848023 0.823131 0.402838
O O4 0.178262 0.963953 0.466572
O O5 0.514235 0.664809 0.331735
O O6 0.545890 0.393201 0.333767
O O7 0.221610 0.504427 0.284435
O O8 0.140776 0.524822 0.156584
O O9 0.630418 0.901748 0.410452
O O10 0.392521 0.900794 0.231704
O O11 0.971987 0.669608 0.252563
O O12 0.530577 0.595516 0.724322
O O13 0.334127 0.457411 0.574997
O O14 0.024072 0.583698 0.525650
O O15 0.922136 0.703563 0.918769
O O16 0.376205 0.211620 0.556360
#
# Coordination Sequence:
#
# PCOD8055349 Si02
#       8
#     4   4   4   4   4   4   4   4
#     4  10  22  42  69  96 132 178 223 277 333 397
#     4  10  23  46  69  95 132 179 224 281 337 391
#     4  12  24  42  68  99 137 178 224 274 334 403
#     4  10  23  46  65  97 139 174 222 281 334 392
#     4  10  23  46  65  97 139 174 222 281 334 392
#     4  10  22  42  69  96 132 178 223 277 333 397
#     4  12  24  42  68  99 137 178 224 274 334 403
#     4  10  23  46  69  95 132 179 224 281 337 391
#
# _framework density 24.479255999999999
#
# number of rings (size 3 to 8) (size 9 to 14) (size 15 to 20)
#    0.000    1.500    2.500    1.500    0.000    5.000 
#    9.000    0.000    0.000    0.000    0.000    0.000 
#    0.000    0.000    0.000    0.000    0.000    0.000 
#
# Total GULP energy -198333.527563 kJ/mol
# GULP energy per Si atom -12395.845473 kJ/mol
# Density = 2.442354 g / cm^3
# Si number density = 24.479256 Si / 1000 Ang^3
#
#
#
# Elastic Constant Matrix: (Units=GPa)
#
#
# Indices 1 2 3 4 5 6 
#
# 1 80.9047 63.5225 1.7850 -0.0001 -5.1935 0.0001
# 2 63.5225 115.2524 -4.1780 -0.0001 -17.3750 0.0001
# 3 1.7850 -4.1780 44.5883 -0.0002 5.8793 0.0002
# 4 -0.0001 -0.0001 -0.0002 34.5505 0.0000 2.6347
# 5 -5.1935 -17.3750 5.8793 0.0000 33.8532 0.0000
# 6 0.0001 0.0001 0.0002 2.6347 0.0000 29.4388
#
#
#
# Elastic Compliance Matrix: (Units=1/GPa)
#
#
# Indices 1 2 3 4 5 6 
#
# 1 0.022212 -0.012731 -0.001709 0.000000 -0.002830 0.000000
# 2 -0.012731 0.016704 0.001230 0.000000 0.006406 0.000000
# 3 -0.001709 0.001230 0.023091 0.000000 -0.003641 0.000000
# 4 0.000000 0.000000 0.000000 0.029142 0.000000 -0.002608
# 5 -0.002830 0.006406 -0.003641 0.000000 0.033026 0.000000
# 6 0.000000 0.000000 0.000000 -0.002608 0.000000 0.034202
#
#
# Mechanical properties :
#
#
# Convention : Reuss Voigt Hill
#
# Bulk Modulus (GPa) = 28.09989 40.33382 34.21685
# Shear Modulus (GPa) = 25.42473 31.54289 28.48381
#
# Velocity S-wave (km/s) = 3.22626 3.59354 3.41484
# Velocity P-wave (km/s) = 5.03809 5.80780 5.43658
#
# Compressibility (1/GPa) = 0.03558733
#
# Stress axis : x y z
#
# Youngs Moduli (GPa) = 45.02073 59.86664 43.30659
#
# Poissons Ratio (x) = 0.76216 0.07401
# Poissons Ratio (y) = 0.57316 -0.05327
# Poissons Ratio (z) = 0.07694 -0.07364
#
# Static dielectric constant tensor:
#      x y z
#    x 4.687130 0.000000 0.066310 
#    y 0.000000 4.416580 0.000000 
#    z 0.066310 0.000000 4.469680 
# 
# 
# High freq. dielectric constant tensor:
#      x y z
#    x 1.969200 0.000000 0.004690 
#    y 0.000000 1.963030 0.000000 
#    z 0.004690 0.000000 1.984250 
# 
# From -- ./inp_files/37271.got.cif
#   From: 2010.06.25/outbox.cif.g09.slc.cpg/sg9_19_cif.got.tgz:37271.got - 2010.06.27 21:40:51.
