data_PCOD8055232
_publ_section_title
;
Structure prediction by ZEFSAII (Michael W. Deem and Ramdas Pophale) SiO2 
 PCOD8055232
Probable space group: C C
;
_chemical_formula_sum "Si O2"
_cell_formula_units_Z 32
_cell_length_a 20.759582
_cell_length_b 11.479710
_cell_length_c 10.627161
_cell_angle_alpha 90.000000
_cell_angle_beta 38.553253
_cell_angle_gamma 90.000000
_cell_volume 1578.422721
_symmetry_space_group_name_H-M "C C"
_symmetry_group_IT_number 9
_symmetry_cell_setting 'monoclinic'
loop_
_space_group_symop_operation_xyz
x,y,z
x,-y,1/2+z
1/2+x,1/2+y,z
1/2+x,1/2-y,1/2+z
loop_
_atom_site_type_symbol
_atom_site_label
_atom_site_fract_x
_atom_site_fract_y
_atom_site_fract_z
Si Si1 0.547990 0.691049 0.703450
Si Si2 0.074251 0.650257 0.933307
Si Si3 0.333125 0.352607 0.463046
Si Si4 0.770368 0.357313 0.901046
Si Si5 0.413509 0.201901 0.978766
Si Si6 0.923561 0.457596 0.229940
Si Si7 0.880373 0.241980 0.140683
Si Si8 0.799640 0.884440 0.001519
O O1 0.579061 0.800210 0.567942
O O2 0.648692 0.612472 0.579244
O O3 0.457661 0.624318 0.763652
O O4 0.500427 0.727348 0.912295
O O5 0.185360 0.663633 0.700120
O O6 0.000508 0.723001 0.951585
O O7 0.027451 0.519147 0.017948
O O8 0.287010 0.276196 0.420836
O O9 0.307699 0.279906 0.629921
O O10 0.282956 0.478546 0.541736
O O11 0.816224 0.364242 0.690337
O O12 0.834477 0.445411 0.893391
O O13 0.379423 0.328291 0.979402
O O14 0.453286 0.116314 0.807667
O O15 0.871342 0.372168 0.207278
O O16 0.843276 0.146380 0.297830
#
# Coordination Sequence:
#
# PCOD8055232 Si02
#       8
#     4   4   4   4   4   4   4   4
#     4  10  22  44  60  95 126 170 210 255 330 381
#     4  11  23  39  74  92 124 175 215 267 321 383
#     4  10  24  41  63  91 132 167 212 263 324 383
#     4  11  22  39  68  92 127 172 206 266 325 384
#     4  10  22  42  63  96 129 158 224 263 315 384
#     4  10  22  40  65  97 124 167 213 275 304 387
#     4   9  23  44  60  92 133 159 213 267 314 383
#     4  11  24  43  63  95 131 168 213 270 319 383
#
# _framework density 20.273402000000001
#
# number of rings (size 3 to 8) (size 9 to 14) (size 15 to 20)
#    0.750    1.000    3.750    0.000   10.500    1.000 
#    9.000    0.000    0.000    0.000    0.000    0.000 
#    0.000    0.000    0.000    0.000    0.000    0.000 
#
# Total GULP energy -198232.883704 kJ/mol
# GULP energy per Si atom -12389.555231 kJ/mol
# Density = 2.022726 g / cm^3
# Si number density = 20.273402 Si / 1000 Ang^3
#
#
#
# Elastic Constant Matrix: (Units=GPa)
#
#
# Indices 1 2 3 4 5 6 
#
# 1 74.4301 19.4709 44.1668 0.0000 2.2236 0.0000
# 2 19.4709 77.7788 19.9109 0.0000 11.1883 0.0000
# 3 44.1668 19.9109 119.1949 0.0000 3.8980 0.0000
# 4 0.0000 0.0000 0.0000 23.9285 0.0000 4.5036
# 5 2.2236 11.1883 3.8980 0.0000 34.6676 0.0000
# 6 0.0000 0.0000 0.0000 4.5036 0.0000 23.2081
#
#
#
# Elastic Compliance Matrix: (Units=1/GPa)
#
#
# Indices 1 2 3 4 5 6 
#
# 1 0.017834 -0.002968 -0.006129 0.000000 0.000503 0.000000
# 2 -0.002968 0.014531 -0.001185 0.000000 -0.004366 0.000000
# 3 -0.006129 -0.001185 0.010873 0.000000 -0.000447 0.000000
# 4 0.000000 0.000000 0.000000 0.043375 0.000000 -0.008417
# 5 0.000503 -0.004366 -0.000447 0.000000 0.030273 0.000000
# 6 0.000000 0.000000 0.000000 -0.008417 0.000000 0.044722
#
#
# Mechanical properties :
#
#
# Convention : Reuss Voigt Hill
#
# Bulk Modulus (GPa) = 44.10138 48.72232 46.41185
# Shear Modulus (GPa) = 26.35338 28.88453 27.61895
#
# Velocity S-wave (km/s) = 3.60932 3.77868 3.69497
# Velocity P-wave (km/s) = 6.25861 6.56679 6.41455
#
# Compressibility (1/GPa) = 0.02267503
#
# Stress axis : x y z
#
# Youngs Moduli (GPa) = 56.07384 68.81690 91.96958
#
# Poissons Ratio (x) = 0.20424 0.56366
# Poissons Ratio (y) = 0.16642 0.10897
# Poissons Ratio (z) = 0.34367 0.08154
#
# Static dielectric constant tensor:
#      x y z
#    x 3.596040 0.000000 0.103110 
#    y 0.000000 3.412800 0.000000 
#    z 0.103110 0.000000 3.723520 
# 
# 
# High freq. dielectric constant tensor:
#      x y z
#    x 1.788260 0.000000 0.009210 
#    y 0.000000 1.771920 0.000000 
#    z 0.009210 0.000000 1.790600 
# 
# From -- ./inp_files/18118.got.cif
#   From: 2010.06.25/outbox.cif.g09.slc.cpg/sg9_10_cif.got.tgz:18118.got - 2010.06.27 21:40:51.
