data_PCOD8055058
_publ_section_title
;
Structure prediction by ZEFSAII (Michael W. Deem and Ramdas Pophale) SiO2 
 PCOD8055058
Probable space group: C C
;
_chemical_formula_sum "Si O2"
_cell_formula_units_Z 32
_cell_length_a 11.450517
_cell_length_b 8.313306
_cell_length_c 30.455640
_cell_angle_alpha 90.000000
_cell_angle_beta 149.625807
_cell_angle_gamma 90.000000
_cell_volume 1465.927528
_symmetry_space_group_name_H-M "C C"
_symmetry_group_IT_number 9
_symmetry_cell_setting 'monoclinic'
loop_
_space_group_symop_operation_xyz
x,y,z
x,-y,1/2+z
1/2+x,1/2+y,z
1/2+x,1/2-y,1/2+z
loop_
_atom_site_type_symbol
_atom_site_label
_atom_site_fract_x
_atom_site_fract_y
_atom_site_fract_z
Si Si1 0.935640 0.191832 0.040700
Si Si2 0.102014 0.976211 0.161942
Si Si3 0.551967 0.433064 0.949038
Si Si4 0.526537 0.771456 0.297653
Si Si5 0.245691 0.538653 0.264926
Si Si6 0.237559 0.557286 0.421129
Si Si7 0.790381 0.296066 0.582823
Si Si8 0.762377 0.308211 0.785339
O O1 0.092766 0.259818 0.052585
O O2 0.729062 0.311876 0.984126
O O3 0.081227 0.148821 0.131231
O O4 0.853413 0.009572 0.002682
O O5 0.310498 0.872638 0.208375
O O6 0.872936 0.867914 0.086914
O O7 0.157263 0.029575 0.230042
O O8 0.347026 0.470535 0.847698
O O9 0.422193 0.353135 0.949100
O O10 0.693521 0.588379 0.012797
O O11 0.437067 0.618393 0.296034
O O12 0.682746 0.698994 0.309798
O O13 0.670684 0.889529 0.375256
O O14 0.195444 0.352880 0.236716
O O15 0.001994 0.629244 0.179948
O O16 0.039436 0.679026 0.371018
#
# Coordination Sequence:
#
# PCOD8055058 Si02
#       8
#     4   4   4   4   4   4   4   4
#     4  11  23  42  65  92 134 172 214 269 333 385
#     4  10  24  41  65  94 128 172 214 273 328 388
#     4  11  23  43  67  96 132 173 222 267 330 389
#     4  10  21  43  64  93 132 168 217 270 325 386
#     4  11  22  42  71  95 130 177 216 271 329 390
#     4  10  23  40  61  95 130 168 212 274 318 387
#     4  10  25  44  64  97 137 169 217 279 326 388
#     4  11  23  39  67  96 127 171 220 261 333 389
#
# _framework density 21.829183
#
# number of rings (size 3 to 8) (size 9 to 14) (size 15 to 20)
#    0.000    1.500    2.500    1.500    3.500    5.000 
#    2.250    0.000    0.000    0.000    0.000    0.000 
#    0.000    0.000    0.000    0.000    0.000    0.000 
#
# Total GULP energy -198284.295660 kJ/mol
# GULP energy per Si atom -12392.768479 kJ/mol
# Density = 2.177950 g / cm^3
# Si number density = 21.829183 Si / 1000 Ang^3
#
#
#
# Elastic Constant Matrix: (Units=GPa)
#
#
# Indices 1 2 3 4 5 6 
#
# 1 141.3281 40.3491 26.1302 0.0000 19.0538 0.0000
# 2 40.3491 56.0451 11.6152 0.0001 4.6579 -0.0001
# 3 26.1302 11.6152 78.9216 0.0001 2.6046 0.0000
# 4 0.0000 0.0001 0.0001 38.5929 0.0000 1.8001
# 5 19.0538 4.6579 2.6046 0.0000 34.1444 0.0000
# 6 0.0000 -0.0001 0.0000 1.8001 0.0000 35.7020
#
#
#
# Elastic Compliance Matrix: (Units=1/GPa)
#
#
# Indices 1 2 3 4 5 6 
#
# 1 0.009882 -0.006286 -0.002199 0.000000 -0.004489 0.000000
# 2 -0.006286 0.022586 -0.001260 0.000000 0.000523 0.000000
# 3 -0.002199 -0.001260 0.013572 0.000000 0.000364 0.000000
# 4 0.000000 0.000000 0.000000 0.025973 0.000000 -0.001310
# 5 -0.004489 0.000523 0.000364 0.000000 0.031694 0.000000
# 6 0.000000 0.000000 0.000000 -0.001310 0.000000 0.028076
#
#
# Mechanical properties :
#
#
# Convention : Reuss Voigt Hill
#
# Bulk Modulus (GPa) = 37.66318 48.05377 42.85847
# Shear Modulus (GPa) = 31.22634 34.90121 33.06377
#
# Velocity S-wave (km/s) = 3.78628 4.00288 3.89608
# Velocity P-wave (km/s) = 6.03370 6.58979 6.31787
#
# Compressibility (1/GPa) = 0.02655113
#
# Stress axis : x y z
#
# Youngs Moduli (GPa) = 101.19355 44.27555 73.68002
#
# Poissons Ratio (x) = 0.27830 0.16199
# Poissons Ratio (y) = 0.63607 0.09285
# Poissons Ratio (z) = 0.22248 0.05579
#
# Static dielectric constant tensor:
#      x y z
#    x 3.912460 0.000000 0.100530 
#    y 0.000000 3.747450 0.000000 
#    z 0.100530 0.000000 4.064260 
# 
# 
# High freq. dielectric constant tensor:
#      x y z
#    x 1.863940 0.000000 0.002790 
#    y 0.000000 1.845340 0.000000 
#    z 0.002790 0.000000 1.868550 
# 
# From -- ./inp_files/29798.got.cif
#   From: 2010.06.25/outbox.cif.g09.slc.cpg/sg9_15_cif.got.tgz:29798.got - 2010.06.27 21:40:51.
