data_PCOD8055819
_publ_section_title
;
Structure prediction by ZEFSAII (Michael W. Deem and Ramdas Pophale) SiO2 
 PCOD8055819
Probable space group: C C
;
_chemical_formula_sum "Si O2"
_cell_formula_units_Z 32
_cell_length_a 14.616058
_cell_length_b 12.144395
_cell_length_c 18.291377
_cell_angle_alpha 90.000000
_cell_angle_beta 150.969675
_cell_angle_gamma 90.000000
_cell_volume 1575.571771
_symmetry_space_group_name_H-M "C C"
_symmetry_group_IT_number 9
_symmetry_cell_setting 'monoclinic'
loop_
_space_group_symop_operation_xyz
x,y,z
x,-y,1/2+z
1/2+x,1/2+y,z
1/2+x,1/2-y,1/2+z
loop_
_atom_site_type_symbol
_atom_site_label
_atom_site_fract_x
_atom_site_fract_y
_atom_site_fract_z
Si Si1 0.046260 0.352767 0.380590
Si Si2 0.284943 0.174147 0.829036
Si Si3 0.595763 0.815096 0.162751
Si Si4 0.488201 0.382577 0.006311
Si Si5 0.271693 0.984948 0.104674
Si Si6 0.488401 0.621983 0.981784
Si Si7 0.290962 0.984065 0.945802
Si Si8 0.472051 0.312888 0.709367
O O1 0.269526 0.358838 0.545400
O O2 0.957865 0.364024 0.399199
O O3 0.975293 0.458173 0.282835
O O4 0.983019 0.236868 0.298825
O O5 0.089809 0.162154 0.649893
O O6 0.284766 0.101673 0.902323
O O7 0.311955 0.302763 0.868150
O O8 0.819202 0.835517 0.311870
O O9 0.533674 0.790915 0.202535
O O10 0.537141 0.708729 0.076993
O O11 0.482164 0.921496 0.055082
O O12 0.633777 0.384955 0.037894
O O13 0.417375 0.507831 0.970343
O O14 0.179203 0.099491 0.068716
O O15 0.283936 0.997606 0.027391
O O16 0.113120 0.913396 0.795605
#
# Coordination Sequence:
#
# PCOD8055819 Si02
#       8
#     4   4   4   4   4   4   4   4
#     4  11  20  38  63  96 132 173 216 288 334 392
#     4  11  23  39  65  96 137 170 224 268 336 406
#     4  12  22  40  68 100 127 173 223 293 327 389
#     4   9  22  42  65  92 131 176 214 267 329 410
#     4   9  22  44  62  95 133 171 227 274 333 405
#     4  10  24  42  68  93 136 169 227 273 345 397
#     4  12  24  39  63 104 129 175 231 278 334 399
#     4  12  21  36  66  98 133 161 232 289 330 386
#
# _framework density 20.310086999999999
#
# number of rings (size 3 to 8) (size 9 to 14) (size 15 to 20)
#    0.750    0.500    3.750    3.000    1.750    1.000 
#    0.000    1.250    0.000    1.500    0.000    0.000 
#    0.000    0.000    0.000    0.000    0.000    0.000 
#
# Total GULP energy -198333.173965 kJ/mol
# GULP energy per Si atom -12395.823373 kJ/mol
# Density = 2.026386 g / cm^3
# Si number density = 20.310087 Si / 1000 Ang^3
#
#
#
# Elastic Constant Matrix: (Units=GPa)
#
#
# Indices 1 2 3 4 5 6 
#
# 1 62.0702 26.6089 28.1233 -0.0209 -13.4978 -0.0049
# 2 26.6089 92.5738 37.3936 -0.0486 -14.2064 -0.0115
# 3 28.1233 37.3936 130.8111 -0.0548 2.5027 -0.0163
# 4 -0.0209 -0.0486 -0.0548 32.1434 -0.0129 6.8747
# 5 -13.4978 -14.2064 2.5027 -0.0129 30.9501 -0.0032
# 6 -0.0049 -0.0115 -0.0163 6.8747 -0.0032 33.3326
#
#
#
# Elastic Compliance Matrix: (Units=1/GPa)
#
#
# Indices 1 2 3 4 5 6 
#
# 1 0.020926 -0.003304 -0.003706 0.000006 0.007909 0.000000
# 2 -0.003304 0.013912 -0.003366 0.000015 0.005217 0.000000
# 3 -0.003706 -0.003366 0.009479 0.000007 -0.003928 0.000001
# 4 0.000006 0.000015 0.000007 0.032546 0.000022 -0.006712
# 5 0.007909 0.005217 -0.003928 0.000022 0.038472 0.000000
# 6 0.000000 0.000000 0.000001 -0.006712 0.000000 0.031385
#
#
# Mechanical properties :
#
#
# Convention : Reuss Voigt Hill
#
# Bulk Modulus (GPa) = 42.43661 52.18963 47.31312
# Shear Modulus (GPa) = 28.51796 32.17386 30.34591
#
# Velocity S-wave (km/s) = 3.75123 3.98443 3.86959
# Velocity P-wave (km/s) = 6.30096 6.84980 6.58110
#
# Compressibility (1/GPa) = 0.02356456
#
# Stress axis : x y z
#
# Youngs Moduli (GPa) = 47.78684 71.87835 105.49894
#
# Poissons Ratio (x) = 0.23751 0.39095
# Poissons Ratio (y) = 0.15790 0.35515
# Poissons Ratio (z) = 0.17708 0.24197
#
# Static dielectric constant tensor:
#      x y z
#    x 3.484490 0.000000 0.019570 
#    y 0.000000 3.547600 0.000010 
#    z 0.019570 0.000010 3.818900 
# 
# 
# High freq. dielectric constant tensor:
#      x y z
#    x 1.770900 0.000000 -0.007940 
#    y 0.000000 1.777750 0.000000 
#    z -0.007940 0.000000 1.804940 
# 
# From -- ./inp_files/12198.got.cif
#   From: 2010.06.25/outbox.cif.g09.slc.cpg/sg9_7_cif.got.tgz:12198.got - 2010.06.27 21:40:51.
