data_PCOD8055762
_publ_section_title
;
Structure prediction by ZEFSAII (Michael W. Deem and Ramdas Pophale) SiO2 
 PCOD8055762
Probable space group: C C
;
_chemical_formula_sum "Si O2"
_cell_formula_units_Z 32
_cell_length_a 8.371031
_cell_length_b 15.617000
_cell_length_c 10.403893
_cell_angle_alpha 90.000000
_cell_angle_beta 105.119975
_cell_angle_gamma 90.000000
_cell_volume 1313.020550
_symmetry_space_group_name_H-M "C C"
_symmetry_group_IT_number 9
_symmetry_cell_setting 'monoclinic'
loop_
_space_group_symop_operation_xyz
x,y,z
x,-y,1/2+z
1/2+x,1/2+y,z
1/2+x,1/2-y,1/2+z
loop_
_atom_site_type_symbol
_atom_site_label
_atom_site_fract_x
_atom_site_fract_y
_atom_site_fract_z
Si Si1 0.197790 0.911518 0.183380
Si Si2 0.039724 0.585736 0.646938
Si Si3 0.634598 0.005297 0.917558
Si Si4 0.750035 0.829303 0.545387
Si Si5 0.781353 0.761377 0.282743
Si Si6 0.081073 0.898760 0.712642
Si Si7 0.164413 0.752626 0.299473
Si Si8 0.412164 0.382037 0.945274
O O1 0.350271 0.885856 0.122872
O O2 0.225694 0.852280 0.316252
O O3 0.173581 0.011278 0.207601
O O4 0.028932 0.870758 0.092099
O O5 0.044938 0.557457 0.499430
O O6 0.183043 0.656839 0.701431
O O7 0.058230 0.508728 0.757087
O O8 0.618192 0.099193 0.975156
O O9 0.820845 0.972771 0.937737
O O10 0.760090 0.760783 0.432636
O O11 0.691024 0.784833 0.662079
O O12 0.920469 0.883015 0.592227
O O13 0.707899 0.676238 0.204588
O O14 0.974963 0.754503 0.298617
O O15 0.029608 0.889494 0.848499
O O16 0.279803 0.696175 0.417509
#
# Coordination Sequence:
#
# PCOD8055762 Si02
#       8
#     4   4   4   4   4   4   4   4
#     4  12  27  45  74 110 149 198 252 316 380 455
#     4  11  26  46  74 112 155 196 254 316 383 461
#     4  11  24  46  74 109 144 199 247 320 374 450
#     4  10  23  47  71 103 152 194 254 311 378 453
#     4  11  26  46  76 108 154 198 253 311 391 453
#     4  11  25  45  72 110 146 196 254 313 376 458
#     4  11  26  46  74 107 146 199 251 316 385 453
#     4  11  25  45  75 103 154 196 249 311 383 451
#
# _framework density 24.371286999999999
#
# number of rings (size 3 to 8) (size 9 to 14) (size 15 to 20)
#    0.000    1.000    1.250    4.500    8.750    4.000 
#    0.000    0.000    0.000    0.000    0.000    0.000 
#    0.000    0.000    0.000    0.000    0.000    0.000 
#
# Total GULP energy -198257.856363 kJ/mol
# GULP energy per Si atom -12391.116023 kJ/mol
# Density = 2.431582 g / cm^3
# Si number density = 24.371287 Si / 1000 Ang^3
#
#
#
# Elastic Constant Matrix: (Units=GPa)
#
#
# Indices 1 2 3 4 5 6 
#
# 1 124.2621 52.9373 6.2077 0.0000 3.7732 0.0000
# 2 52.9373 129.3015 40.7577 0.0000 6.6333 0.0000
# 3 6.2077 40.7577 63.5262 0.0000 0.3850 0.0000
# 4 0.0000 0.0000 0.0000 36.1828 0.0000 3.4652
# 5 3.7732 6.6333 0.3850 0.0000 26.3519 0.0000
# 6 0.0000 0.0000 0.0000 3.4652 0.0000 43.9087
#
#
#
# Elastic Compliance Matrix: (Units=1/GPa)
#
#
# Indices 1 2 3 4 5 6 
#
# 1 0.009960 -0.004710 0.002050 0.000000 -0.000270 0.000000
# 2 -0.004710 0.012070 -0.007270 0.000000 -0.002258 0.000000
# 3 0.002050 -0.007270 0.020198 0.000000 0.001241 0.000000
# 4 0.000000 0.000000 0.000000 0.027848 0.000000 -0.002198
# 5 -0.000270 -0.002258 0.001241 0.000000 0.038537 0.000000
# 6 0.000000 0.000000 0.000000 -0.002198 0.000000 0.022948
#
#
# Mechanical properties :
#
#
# Convention : Reuss Voigt Hill
#
# Bulk Modulus (GPa) = 44.70630 57.43281 51.06956
# Shear Modulus (GPa) = 31.47129 35.76783 33.61956
#
# Velocity S-wave (km/s) = 3.59740 3.83511 3.71816
# Velocity P-wave (km/s) = 5.96982 6.57478 6.27959
#
# Compressibility (1/GPa) = 0.02236821
#
# Stress axis : x y z
#
# Youngs Moduli (GPa) = 100.40324 82.85314 49.51022
#
# Poissons Ratio (x) = 0.39024 -0.10151
# Poissons Ratio (y) = 0.47291 0.35993
# Poissons Ratio (z) = -0.20586 0.60232
#
# Static dielectric constant tensor:
#      x y z
#    x 4.405270 0.000000 0.091950 
#    y 0.000000 4.563040 0.000000 
#    z 0.091950 0.000000 4.471330 
# 
# 
# High freq. dielectric constant tensor:
#      x y z
#    x 1.976570 0.000000 0.002100 
#    y 0.000000 1.978480 0.000000 
#    z 0.002100 0.000000 1.963450 
# 
# From -- ./inp_files/14673.got.cif
#   From: 2010.06.25/outbox.cif.g09.slc.cpg/sg9_8_cif.got.tgz:14673.got - 2010.06.27 21:40:51.
