data_PCOD8055402
_publ_section_title
;
Structure prediction by ZEFSAII (Michael W. Deem and Ramdas Pophale) SiO2 
 PCOD8055402
Probable space group: C C
;
_chemical_formula_sum "Si O2"
_cell_formula_units_Z 28
_cell_length_a 5.461264
_cell_length_b 17.367432
_cell_length_c 13.855880
_cell_angle_alpha 90.000000
_cell_angle_beta 58.249634
_cell_angle_gamma 90.000000
_cell_volume 1117.532153
_symmetry_space_group_name_H-M "C C"
_symmetry_group_IT_number 9
_symmetry_cell_setting 'monoclinic'
loop_
_space_group_symop_operation_xyz
x,y,z
x,-y,1/2+z
1/2+x,1/2+y,z
1/2+x,1/2-y,1/2+z
loop_
_atom_site_type_symbol
_atom_site_label
_atom_site_fract_x
_atom_site_fract_y
_atom_site_fract_z
Si Si1 0.569600 0.728195 0.847440
Si Si2 0.859794 0.390741 0.872445
Si Si3 0.765325 0.976217 0.648542
Si Si4 0.729020 0.641750 0.987384
Si Si5 0.660859 0.769948 0.133964
Si Si6 0.186058 0.412138 0.002782
Si Si7 0.311213 0.380295 0.260594
O O1 0.345132 0.797228 0.875140
O O2 0.551101 0.704854 0.962919
O O3 0.512409 0.646980 0.805261
O O4 0.879009 0.759661 0.749375
O O5 0.036674 0.419115 0.743339
O O6 0.020762 0.423314 0.935383
O O7 0.533995 0.418307 0.925198
O O8 0.041266 0.931172 0.553345
O O9 0.600290 0.019327 0.594576
O O10 0.893996 0.037700 0.698877
O O11 0.988448 0.612069 0.867941
O O12 0.821777 0.692526 0.062085
O O13 0.858845 0.815114 0.168924
O O14 0.584293 0.829892 0.064371
#
# Coordination Sequence:
#
# PCOD8055402 Si02
#       7
#     4   4   4   4   4   4   4
#     4  11  24  42  73 105 141 186 252 302 359 449
#     4  12  26  48  74 112 145 197 251 305 363 453
#     4  11  26  47  72 107 151 199 240 311 380 440
#     4  11  22  45  68 103 139 194 239 304 368 441
#     4  10  22  43  71 101 142 189 241 301 369 432
#     4  11  27  47  74 105 156 191 244 306 378 433
#     4  10  25  44  68 105 144 186 249 307 363 450
#
# _framework density 25.055206999999999
#
# number of rings (size 3 to 8) (size 9 to 14) (size 15 to 20)
#    0.000    1.143    2.857    1.714    8.000    2.286 
#    2.571    0.000    0.000    0.000    0.000    0.000 
#    0.000    0.000    0.000    0.000    0.000    0.000 
#
# Total GULP energy -173567.231191 kJ/mol
# GULP energy per Si atom -12397.659371 kJ/mol
# Density = 2.499818 g / cm^3
# Si number density = 25.055207 Si / 1000 Ang^3
#
#
#
# Elastic Constant Matrix: (Units=GPa)
#
#
# Indices 1 2 3 4 5 6 
#
# 1 86.6835 16.0009 29.7512 0.0000 2.4927 0.0000
# 2 16.0009 127.3996 58.6932 0.0000 1.1761 0.0000
# 3 29.7512 58.6932 113.1944 0.0000 9.4403 0.0000
# 4 0.0000 0.0000 0.0000 45.3646 0.0000 -3.3634
# 5 2.4927 1.1761 9.4403 0.0000 15.8343 0.0000
# 6 0.0000 0.0000 0.0000 -3.3634 0.0000 26.2319
#
#
#
# Elastic Compliance Matrix: (Units=1/GPa)
#
#
# Indices 1 2 3 4 5 6 
#
# 1 0.012681 -0.000076 -0.003291 0.000000 -0.000029 0.000000
# 2 -0.000076 0.010412 -0.005593 0.000000 0.002573 0.000000
# 3 -0.003291 -0.005593 0.013177 0.000000 -0.006922 0.000000
# 4 0.000000 0.000000 0.000000 0.022255 0.000000 0.002853
# 5 -0.000029 0.002573 -0.006922 0.000000 0.067094 0.000000
# 6 0.000000 0.000000 0.000000 0.002853 0.000000 0.038487
#
#
# Mechanical properties :
#
#
# Convention : Reuss Voigt Hill
#
# Bulk Modulus (GPa) = 54.50066 59.57423 57.03745
# Shear Modulus (GPa) = 26.57540 32.34165 29.45852
#
# Velocity S-wave (km/s) = 3.26033 3.59669 3.43263
# Velocity P-wave (km/s) = 5.99771 6.40914 6.20683
#
# Compressibility (1/GPa) = 0.01834840
#
# Stress axis : x y z
#
# Youngs Moduli (GPa) = 78.86040 96.04279 75.89017
#
# Poissons Ratio (x) = 0.00732 0.24975
# Poissons Ratio (y) = 0.00601 0.42448
# Poissons Ratio (z) = 0.25953 0.53721
#
# Static dielectric constant tensor:
#      x y z
#    x 4.101360 0.000000 0.177970 
#    y 0.000000 4.519570 0.000000 
#    z 0.177970 0.000000 4.826970 
# 
# 
# High freq. dielectric constant tensor:
#      x y z
#    x 1.969850 0.000000 0.004470 
#    y 0.000000 2.005020 0.000000 
#    z 0.004470 0.000000 2.020670 
# 
# From -- ./inp_files/13089.got.cif
#   From: 2010.06.25/outbox.cif.g09.slc.cpg/sg9_7_cif.got.tgz:13089.got - 2010.06.27 21:40:51.
