data_PCOD8055018
_publ_section_title
;
Structure prediction by ZEFSAII (Michael W. Deem and Ramdas Pophale) SiO2 
 PCOD8055018
Probable space group: C C
;
_chemical_formula_sum "Si O2"
_cell_formula_units_Z 28
_cell_length_a 9.540341
_cell_length_b 16.973357
_cell_length_c 9.572854
_cell_angle_alpha 90.000000
_cell_angle_beta 131.010661
_cell_angle_gamma 90.000000
_cell_volume 1169.722066
_symmetry_space_group_name_H-M "C C"
_symmetry_group_IT_number 9
_symmetry_cell_setting 'monoclinic'
loop_
_space_group_symop_operation_xyz
x,y,z
x,-y,1/2+z
1/2+x,1/2+y,z
1/2+x,1/2-y,1/2+z
loop_
_atom_site_type_symbol
_atom_site_label
_atom_site_fract_x
_atom_site_fract_y
_atom_site_fract_z
Si Si1 0.591130 0.195402 0.294850
Si Si2 0.402469 0.041633 0.119011
Si Si3 0.781683 0.809055 0.624004
Si Si4 0.268343 0.559422 0.909467
Si Si5 0.183461 0.024111 0.236946
Si Si6 0.809457 0.814343 0.205884
Si Si7 0.688011 0.691584 0.340596
O O1 0.426463 0.134293 0.159996
O O2 0.695908 0.209230 0.217607
O O3 0.720799 0.160028 0.500818
O O4 0.509225 0.277216 0.299146
O O5 0.261885 0.003348 0.136664
O O6 0.607868 0.000933 0.257183
O O7 0.289092 0.038424 0.901655
O O8 0.685731 0.881705 0.475884
O O9 0.797023 0.729918 0.540759
O O10 0.993113 0.832506 0.781018
O O11 0.336594 0.608843 0.819114
O O12 0.457729 0.516819 0.088859
O O13 0.270182 0.108727 0.342470
O O14 0.680457 0.751324 0.203989
#
# Coordination Sequence:
#
# PCOD8055018 Si02
#       7
#     4   4   4   4   4   4   4
#     4  12  24  42  68 114 139 181 250 313 361 428
#     4  12  26  44  74 103 148 192 247 304 374 445
#     4  10  22  38  66  98 140 181 239 300 367 423
#     4  10  25  47  70 102 146 203 237 299 379 454
#     4  11  25  46  68 105 143 194 248 298 374 446
#     4  11  23  43  75 100 145 187 246 304 366 443
#     4  10  21  42  65  96 135 196 237 290 369 449
#
# _framework density 23.937311000000001
#
# number of rings (size 3 to 8) (size 9 to 14) (size 15 to 20)
#    0.000    1.143    1.429    5.143    4.000    4.571 
#    2.571    0.000    0.000    0.000    0.000    0.000 
#    0.000    0.000    0.000    0.000    0.000    0.000 
#
# Total GULP energy -173520.921794 kJ/mol
# GULP energy per Si atom -12394.351557 kJ/mol
# Density = 2.388283 g / cm^3
# Si number density = 23.937311 Si / 1000 Ang^3
#
#
#
# Elastic Constant Matrix: (Units=GPa)
#
#
# Indices 1 2 3 4 5 6 
#
# 1 135.7086 3.8833 33.0199 0.0000 -15.8851 0.0000
# 2 3.8833 31.8009 7.9466 0.0000 8.4966 0.0000
# 3 33.0199 7.9466 109.7837 0.0000 -0.7049 0.0000
# 4 0.0000 0.0000 0.0000 27.9830 0.0000 2.9031
# 5 -15.8851 8.4966 -0.7049 0.0000 43.9228 0.0000
# 6 0.0000 0.0000 0.0000 2.9031 0.0000 32.9409
#
#
#
# Elastic Compliance Matrix: (Units=1/GPa)
#
#
# Indices 1 2 3 4 5 6 
#
# 1 0.008369 -0.001286 -0.002403 0.000000 0.003237 0.000000
# 2 -0.001286 0.034025 -0.002121 0.000000 -0.007081 0.000000
# 3 -0.002403 -0.002121 0.009983 0.000000 -0.000299 0.000000
# 4 0.000000 0.000000 0.000000 0.036066 0.000000 -0.003178
# 5 0.003237 -0.007081 -0.000299 0.000000 0.025303 0.000000
# 6 0.000000 0.000000 0.000000 -0.003178 0.000000 0.030638
#
#
# Mechanical properties :
#
#
# Convention : Reuss Voigt Hill
#
# Bulk Modulus (GPa) = 24.53677 40.77697 32.65687
# Shear Modulus (GPa) = 29.48274 36.46557 32.97416
#
# Velocity S-wave (km/s) = 3.51332 3.90728 3.71552
# Velocity P-wave (km/s) = 5.17016 6.11782 5.66384
#
# Compressibility (1/GPa) = 0.04075515
#
# Stress axis : x y z
#
# Youngs Moduli (GPa) = 119.48559 29.39033 100.16716
#
# Poissons Ratio (x) = 0.03781 0.24073
# Poissons Ratio (y) = 0.15370 0.21250
# Poissons Ratio (z) = 0.28716 0.06235
#
# Static dielectric constant tensor:
#      x y z
#    x 4.230080 0.000000 -0.184970 
#    y 0.000000 4.237350 0.000000 
#    z -0.184970 0.000000 4.291120 
# 
# 
# High freq. dielectric constant tensor:
#      x y z
#    x 1.954310 0.000000 -0.009170 
#    y 0.000000 1.933360 0.000000 
#    z -0.009170 0.000000 1.952980 
# 
# From -- ./inp_files/5713.got.cif
#   From: 2010.06.25/outbox.cif.g09.slc.cpg/sg9_3_cif.got.tgz:5713.got - 2010.06.27 21:40:51.
