data_PCOD8055663
_publ_section_title
;
Structure prediction by ZEFSAII (Michael W. Deem and Ramdas Pophale) SiO2 
 PCOD8055663
Probable space group: C C
;
_chemical_formula_sum "Si O2"
_cell_formula_units_Z 20
_cell_length_a 5.538268
_cell_length_b 16.675878
_cell_length_c 8.128688
_cell_angle_alpha 90.000000
_cell_angle_beta 87.256890
_cell_angle_gamma 90.000000
_cell_volume 749.868671
_symmetry_space_group_name_H-M "C C"
_symmetry_group_IT_number 9
_symmetry_cell_setting 'monoclinic'
loop_
_space_group_symop_operation_xyz
x,y,z
x,-y,1/2+z
1/2+x,1/2+y,z
1/2+x,1/2-y,1/2+z
loop_
_atom_site_type_symbol
_atom_site_label
_atom_site_fract_x
_atom_site_fract_y
_atom_site_fract_z
Si Si1 0.580450 0.959308 0.832840
Si Si2 0.589616 0.785348 0.341655
Si Si3 0.339867 0.159993 0.548527
Si Si4 0.461212 0.576625 0.780769
Si Si5 0.827046 0.408555 0.530621
O O1 0.363703 0.934492 0.716802
O O2 0.576891 0.887612 0.968072
O O3 0.840391 0.987469 0.748665
O O4 0.518517 0.043244 0.915967
O O5 0.424313 0.773918 0.181455
O O6 0.701965 0.702240 0.401029
O O7 0.416296 0.817044 0.495483
O O8 0.793966 0.845896 0.274538
O O9 0.174284 0.090812 0.638905
O O10 0.561890 0.575682 0.965909
#
# Coordination Sequence:
#
# PCOD8055663 Si02
#       5
#     4   4   4   4   4
#     4  11  24  45  72 106 147 196 255 304 360 451
#     4  10  25  45  70 110 150 194 244 304 376 452
#     4  11  26  46  75 112 151 194 253 295 384 445
#     4  10  24  48  72 103 155 194 246 313 362 440
#     4  10  23  44  69 109 141 196 256 294 374 436
#
# _framework density 26.671334999999999
#
# number of rings (size 3 to 8) (size 9 to 14) (size 15 to 20)
#    0.000    1.600    0.000    3.600    5.600   11.200 
#    3.600    2.000    0.000    0.000    0.000    0.000 
#    0.000    0.000    0.000    0.000    0.000    0.000 
#
# Total GULP energy -123881.344600 kJ/mol
# GULP energy per Si atom -12388.134460 kJ/mol
# Density = 2.661063 g / cm^3
# Si number density = 26.671335 Si / 1000 Ang^3
#
#
#
# Elastic Constant Matrix: (Units=GPa)
#
#
# Indices 1 2 3 4 5 6 
#
# 1 87.6583 42.0155 40.5501 0.0000 26.8045 0.0000
# 2 42.0155 119.2331 53.9616 0.0000 3.8908 0.0000
# 3 40.5501 53.9616 115.4128 0.0000 15.7778 0.0000
# 4 0.0000 0.0000 0.0000 42.1720 0.0000 8.0351
# 5 26.8045 3.8908 15.7778 0.0000 32.9601 0.0000
# 6 0.0000 0.0000 0.0000 8.0351 0.0000 41.1267
#
#
#
# Elastic Compliance Matrix: (Units=1/GPa)
#
#
# Indices 1 2 3 4 5 6 
#
# 1 0.019301 -0.005250 -0.002424 0.000000 -0.013916 0.000000
# 2 -0.005250 0.012111 -0.004501 0.000000 0.004994 0.000000
# 3 -0.002424 -0.004501 0.012068 0.000000 -0.003274 0.000000
# 4 0.000000 0.000000 0.000000 0.024629 0.000000 -0.004812
# 5 -0.013916 0.004994 -0.003274 0.000000 0.042635 0.000000
# 6 0.000000 0.000000 0.000000 -0.004812 0.000000 0.025255
#
#
# Mechanical properties :
#
#
# Convention : Reuss Voigt Hill
#
# Bulk Modulus (GPa) = 52.27331 66.15097 59.21214
# Shear Modulus (GPa) = 29.98931 35.63689 32.81310
#
# Velocity S-wave (km/s) = 3.35685 3.65930 3.51133
# Velocity P-wave (km/s) = 5.88780 6.53530 6.21998
#
# Compressibility (1/GPa) = 0.01913022
#
# Stress axis : x y z
#
# Youngs Moduli (GPa) = 51.81037 82.57064 82.86238
#
# Poissons Ratio (x) = 0.43350 0.20088
# Poissons Ratio (y) = 0.27201 0.37293
# Poissons Ratio (z) = 0.12560 0.37162
#
# Static dielectric constant tensor:
#      x y z
#    x 4.858580 0.000000 0.279960 
#    y 0.000000 4.455590 0.000000 
#    z 0.279960 0.000000 4.876520 
# 
# 
# High freq. dielectric constant tensor:
#      x y z
#    x 2.065110 0.000000 0.009070 
#    y 0.000000 2.053990 0.000000 
#    z 0.009070 0.000000 2.075300 
# 
# From -- ./inp_files/3603.got.cif
#   From: 2010.06.25/outbox.cif.g09.slc.cpg/sg9_2_cif.got.tgz:3603.got - 2010.06.27 21:40:51.
