data_PCOD8055640
_publ_section_title
;
Structure prediction by ZEFSAII (Michael W. Deem and Ramdas Pophale) SiO2 
 PCOD8055640
Probable space group: C C
;
_chemical_formula_sum "Si O2"
_cell_formula_units_Z 24
_cell_length_a 7.071530
_cell_length_b 22.324964
_cell_length_c 7.816441
_cell_angle_alpha 90.000000
_cell_angle_beta 121.502005
_cell_angle_gamma 90.000000
_cell_volume 1052.130675
_symmetry_space_group_name_H-M "C C"
_symmetry_group_IT_number 9
_symmetry_cell_setting 'monoclinic'
loop_
_space_group_symop_operation_xyz
x,y,z
x,-y,1/2+z
1/2+x,1/2+y,z
1/2+x,1/2-y,1/2+z
loop_
_atom_site_type_symbol
_atom_site_label
_atom_site_fract_x
_atom_site_fract_y
_atom_site_fract_z
Si Si1 0.266020 0.579026 0.156130
Si Si2 0.040777 0.805888 0.780015
Si Si3 0.016010 0.713034 0.465491
Si Si4 0.491570 0.693328 0.652392
Si Si5 0.509030 0.500741 0.523954
Si Si6 0.752229 0.421937 0.379957
O O1 0.369832 0.642150 0.149004
O O2 0.392607 0.558621 0.386359
O O3 0.313745 0.526465 0.045467
O O4 0.004337 0.585696 0.057857
O O5 0.995085 0.751047 0.630777
O O6 0.294476 0.827765 0.860182
O O7 0.016385 0.785612 0.966621
O O8 0.236590 0.671882 0.568108
O O9 0.036238 0.751799 0.301371
O O10 0.665120 0.641693 0.775267
O O11 0.596176 0.445119 0.457058
O O12 0.725279 0.527454 0.721324
#
# Coordination Sequence:
#
# PCOD8055640 Si02
#       6
#     4   4   4   4   4   4
#     4  11  23  42  68  97 130 170 216 268 328 392
#     4  11  23  43  67  97 130 177 220 270 333 388
#     4  10  25  44  64  96 134 174 221 276 324 392
#     4  11  23  43  67  97 130 177 220 270 333 388
#     4  10  23  44  62 100 130 170 213 268 330 384
#     4  11  23  42  68  97 130 170 216 268 328 392
#
# _framework density 22.810856000000001
#
# number of rings (size 3 to 8) (size 9 to 14) (size 15 to 20)
#    0.000    1.333    1.667    3.000    0.000    9.333 
#   12.000    0.000    0.000    0.000    0.000    0.000 
#    0.000    0.000    0.000    0.000    0.000    0.000 
#
# Total GULP energy -148730.528238 kJ/mol
# GULP energy per Si atom -12394.210687 kJ/mol
# Density = 2.275894 g / cm^3
# Si number density = 22.810856 Si / 1000 Ang^3
#
#
#
# Elastic Constant Matrix: (Units=GPa)
#
#
# Indices 1 2 3 4 5 6 
#
# 1 122.9756 32.2350 40.8200 0.0000 29.1031 0.0000
# 2 32.2350 51.6552 12.3228 0.0000 -1.0085 0.0000
# 3 40.8200 12.3228 90.6614 0.0000 -3.1677 0.0000
# 4 0.0000 0.0000 0.0000 7.1474 0.0000 11.2618
# 5 29.1031 -1.0085 -3.1677 0.0000 51.9037 0.0000
# 6 0.0000 0.0000 0.0000 11.2618 0.0000 35.6794
#
#
#
# Elastic Compliance Matrix: (Units=1/GPa)
#
#
# Indices 1 2 3 4 5 6 
#
# 1 0.013892 -0.007513 -0.005523 0.000000 -0.008272 0.000000
# 2 -0.007513 0.024074 0.000275 0.000000 0.004697 0.000000
# 3 -0.005523 0.000275 0.013617 0.000000 0.003933 0.000000
# 4 0.000000 0.000000 0.000000 0.278337 0.000000 -0.087854
# 5 -0.008272 0.004697 0.003933 0.000000 0.024236 0.000000
# 6 0.000000 0.000000 0.000000 -0.087854 0.000000 0.055757
#
#
# Mechanical properties :
#
#
# Convention : Reuss Voigt Hill
#
# Bulk Modulus (GPa) = 38.37251 48.44977 43.41114
# Shear Modulus (GPa) = 11.25816 30.94041 21.09928
#
# Velocity S-wave (km/s) = 2.22399 3.68692 3.04463
# Velocity P-wave (km/s) = 4.84287 6.27777 5.60642
#
# Compressibility (1/GPa) = 0.02606032
#
# Stress axis : x y z
#
# Youngs Moduli (GPa) = 71.98376 41.53881 73.43932
#
# Poissons Ratio (x) = 0.31209 0.40558
# Poissons Ratio (y) = 0.54083 -0.02018
# Poissons Ratio (z) = 0.39754 -0.01141
#
# Static dielectric constant tensor:
#      x y z
#    x 4.273360 0.000000 0.033990 
#    y 0.000000 3.739630 0.000000 
#    z 0.033990 0.000000 4.501300 
# 
# 
# High freq. dielectric constant tensor:
#      x y z
#    x 1.912810 0.000000 0.001100 
#    y 0.000000 1.879590 0.000000 
#    z 0.001100 0.000000 1.917850 
# 
# From -- ./inp_files/3916.got.cif
#   From: 2010.06.25/outbox.cif.g09.slc.cpg/sg9_2_cif.got.tgz:3916.got - 2010.06.27 21:40:51.
