data_PCOD8055905
_publ_section_title
;
Structure prediction by ZEFSAII (Michael W. Deem and Ramdas Pophale) SiO2 
 PCOD8055905
Probable space group: C C
;
_chemical_formula_sum "Si O2"
_cell_formula_units_Z 28
_cell_length_a 7.577337
_cell_length_b 12.210731
_cell_length_c 13.559533
_cell_angle_alpha 90.000000
_cell_angle_beta 105.814665
_cell_angle_gamma 90.000000
_cell_volume 1207.104872
_symmetry_space_group_name_H-M "C C"
_symmetry_group_IT_number 9
_symmetry_cell_setting 'monoclinic'
loop_
_space_group_symop_operation_xyz
x,y,z
x,-y,1/2+z
1/2+x,1/2+y,z
1/2+x,1/2-y,1/2+z
loop_
_atom_site_type_symbol
_atom_site_label
_atom_site_fract_x
_atom_site_fract_y
_atom_site_fract_z
Si Si1 0.596700 0.212563 0.196380
Si Si2 0.348687 0.096213 0.022808
Si Si3 0.555305 0.407871 0.649663
Si Si4 0.260955 0.919335 0.288776
Si Si5 0.705157 0.973083 0.046005
Si Si6 0.253360 0.303836 0.217786
Si Si7 0.154003 0.493203 0.818802
O O1 0.476726 0.198431 0.077934
O O2 0.742329 0.311669 0.215646
O O3 0.448374 0.242763 0.259871
O O4 0.695771 0.098167 0.241654
O O5 0.187474 0.069385 0.075463
O O6 0.492204 0.995889 0.038260
O O7 0.261932 0.119261 0.902758
O O8 0.593543 0.497975 0.741005
O O9 0.341064 0.423497 0.589718
O O10 0.588102 0.285113 0.695579
O O11 0.437644 0.987668 0.286003
O O12 0.756581 0.863959 0.112118
O O13 0.729759 0.950080 0.933721
O O14 0.242194 0.390162 0.304762
#
# Coordination Sequence:
#
# PCOD8055905 Si02
#       7
#     4   4   4   4   4   4   4
#     4  11  23  42  70  89 140 173 217 284 336 385
#     4  10  24  46  63 103 139 170 227 287 327 399
#     4  11  24  44  69 100 134 182 227 275 345 403
#     4  11  23  43  70  96 137 178 225 278 341 398
#     4  11  24  43  69  98 133 178 230 272 345 403
#     4  11  23  43  67  95 136 171 224 281 328 405
#     4  11  25  43  64 101 131 176 226 281 336 403
#
# _framework density 23.195996999999998
#
# number of rings (size 3 to 8) (size 9 to 14) (size 15 to 20)
#    0.000    1.143    5.714    0.000    8.000    0.000 
#    0.000    1.429    0.000    0.000    0.000    0.000 
#    0.000    0.000    0.000    0.000    0.000    0.000 
#
# Total GULP energy -173535.072696 kJ/mol
# GULP energy per Si atom -12395.362335 kJ/mol
# Density = 2.314320 g / cm^3
# Si number density = 23.195997 Si / 1000 Ang^3
#
#
#
# Elastic Constant Matrix: (Units=GPa)
#
#
# Indices 1 2 3 4 5 6 
#
# 1 55.9823 2.4755 12.0498 0.0000 6.1675 0.0000
# 2 2.4755 125.0752 29.7283 0.0000 3.6421 0.0000
# 3 12.0498 29.7283 120.3615 0.0000 -4.8586 0.0000
# 4 0.0000 0.0000 0.0000 31.0026 0.0000 -3.8460
# 5 6.1675 3.6421 -4.8586 0.0000 30.1962 0.0000
# 6 0.0000 0.0000 0.0000 -3.8460 0.0000 36.2571
#
#
#
# Elastic Compliance Matrix: (Units=1/GPa)
#
#
# Indices 1 2 3 4 5 6 
#
# 1 0.018769 0.000253 -0.002111 0.000000 -0.004204 0.000000
# 2 0.000253 0.008554 -0.002196 0.000000 -0.001437 0.000000
# 3 -0.002111 -0.002196 0.009150 0.000000 0.002168 0.000000
# 4 0.000000 0.000000 0.000000 0.032685 0.000000 0.003467
# 5 -0.004204 -0.001437 0.002168 0.000000 0.034498 0.000000
# 6 0.000000 0.000000 0.000000 0.003467 0.000000 0.027949
#
#
# Mechanical properties :
#
#
# Convention : Reuss Voigt Hill
#
# Bulk Modulus (GPa) = 35.25632 43.32514 39.29073
# Shear Modulus (GPa) = 33.51930 36.63555 35.07743
#
# Velocity S-wave (km/s) = 3.80550 3.97847 3.89294
# Velocity P-wave (km/s) = 5.87720 6.31052 6.09771
#
# Compressibility (1/GPa) = 0.02836371
#
# Stress axis : x y z
#
# Youngs Moduli (GPa) = 53.27900 116.90451 109.29448
#
# Poissons Ratio (x) = -0.02954 0.23074
# Poissons Ratio (y) = -0.01346 0.24002
# Poissons Ratio (z) = 0.11248 0.25673
#
# Static dielectric constant tensor:
#      x y z
#    x 4.129840 0.000000 0.095200 
#    y 0.000000 4.067650 0.000000 
#    z 0.095200 0.000000 4.228750 
# 
# 
# High freq. dielectric constant tensor:
#      x y z
#    x 1.919150 0.000000 0.009040 
#    y 0.000000 1.914250 0.000000 
#    z 0.009040 0.000000 1.908100 
# 
# From -- ./inp_files/22541.got.cif
#   From: 2010.06.25/outbox.cif.g09.slc.cpg/sg9_12_cif.got.tgz:22541.got - 2010.06.27 21:40:51.
