data_PCOD8055690
_publ_section_title
;
Structure prediction by ZEFSAII (Michael W. Deem and Ramdas Pophale) SiO2 
 PCOD8055690
Probable space group: C C
;
_chemical_formula_sum "Si O2"
_cell_formula_units_Z 32
_cell_length_a 13.190363
_cell_length_b 6.717312
_cell_length_c 18.128292
_cell_angle_alpha 90.000000
_cell_angle_beta 91.017142
_cell_angle_gamma 90.000000
_cell_volume 1605.982166
_symmetry_space_group_name_H-M "C C"
_symmetry_group_IT_number 9
_symmetry_cell_setting 'monoclinic'
loop_
_space_group_symop_operation_xyz
x,y,z
x,-y,1/2+z
1/2+x,1/2+y,z
1/2+x,1/2-y,1/2+z
loop_
_atom_site_type_symbol
_atom_site_label
_atom_site_fract_x
_atom_site_fract_y
_atom_site_fract_z
Si Si1 0.851740 0.328150 0.750000
Si Si2 0.571984 0.435962 0.571863
Si Si3 0.570158 0.239248 0.197655
Si Si4 0.352538 0.364452 0.526133
Si Si5 0.793823 0.066935 0.874533
Si Si6 0.726630 0.337665 0.315609
Si Si7 0.211965 0.600921 0.634984
Si Si8 0.700954 0.393802 0.951733
O O1 0.808601 0.547782 0.766407
O O2 0.769886 0.212635 0.700397
O O3 0.959165 0.348625 0.711783
O O4 0.865046 0.211797 0.827157
O O5 0.561555 0.581381 0.640439
O O6 0.465381 0.327255 0.556175
O O7 0.653539 0.263164 0.585200
O O8 0.603207 0.566903 0.500810
O O9 0.618954 0.331979 0.272381
O O10 0.634838 0.056977 0.167965
O O11 0.355380 0.492752 0.449548
O O12 0.291258 0.486475 0.585677
O O13 0.298085 0.150372 0.507661
O O14 0.765157 0.885717 0.822920
O O15 0.692806 0.194275 0.899837
O O16 0.716552 0.419703 0.398184
#
# Coordination Sequence:
#
# PCOD8055690 Si02
#       8
#     4   4   4   4   4   4   4   4
#     4  11  24  42  64  98 129 166 221 262 323 379
#     4  12  24  42  70  93 130 176 208 267 329 378
#     4  12  25  40  67  99 125 175 218 262 325 387
#     4  10  23  45  64  94 132 164 218 266 314 389
#     4   9  21  45  65  90 133 166 209 276 308 377
#     4  11  22  44  68  92 133 171 213 272 320 377
#     4  12  24  43  65  96 133 167 218 267 316 389
#     4   9  23  41  65  96 125 169 217 264 319 382
#
# _framework density 19.925502999999999
#
# number of rings (size 3 to 8) (size 9 to 14) (size 15 to 20)
#    0.750    0.500    5.000    0.750    1.750    3.000 
#    4.500    0.000    0.000    0.000    0.000    0.000 
#    0.000    0.000    0.000    0.000    0.000    0.000 
#
# Total GULP energy -198309.051253 kJ/mol
# GULP energy per Si atom -12394.315703 kJ/mol
# Density = 1.988015 g / cm^3
# Si number density = 19.925503 Si / 1000 Ang^3
#
#
#
# Elastic Constant Matrix: (Units=GPa)
#
#
# Indices 1 2 3 4 5 6 
#
# 1 108.7626 32.9884 31.9728 0.0000 -0.6242 0.0000
# 2 32.9884 84.6138 28.0609 0.0000 -0.3095 0.0000
# 3 31.9728 28.0609 84.5038 0.0000 -6.8831 0.0000
# 4 0.0000 0.0000 0.0000 37.2702 0.0000 4.1980
# 5 -0.6242 -0.3095 -6.8831 0.0000 20.4551 0.0000
# 6 0.0000 0.0000 0.0000 4.1980 0.0000 22.6882
#
#
#
# Elastic Compliance Matrix: (Units=1/GPa)
#
#
# Indices 1 2 3 4 5 6 
#
# 1 0.011121 -0.003284 -0.003181 0.000000 -0.000781 0.000000
# 2 -0.003284 0.014285 -0.003590 0.000000 -0.001092 0.000000
# 3 -0.003181 -0.003590 0.014618 0.000000 0.004767 0.000000
# 4 0.000000 0.000000 0.000000 0.027402 0.000000 -0.005070
# 5 -0.000781 -0.001092 0.004767 0.000000 0.050452 0.000000
# 6 0.000000 0.000000 0.000000 -0.005070 0.000000 0.045014
#
#
# Mechanical properties :
#
#
# Convention : Reuss Voigt Hill
#
# Bulk Modulus (GPa) = 50.21483 51.54716 50.88099
# Shear Modulus (GPa) = 26.36586 28.40657 27.38621
#
# Velocity S-wave (km/s) = 3.64156 3.77986 3.71135
# Velocity P-wave (km/s) = 6.55265 6.70641 6.62998
#
# Compressibility (1/GPa) = 0.01991444
#
# Stress axis : x y z
#
# Youngs Moduli (GPa) = 89.92077 70.00226 68.40969
#
# Poissons Ratio (x) = 0.22986 0.21760
# Poissons Ratio (y) = 0.29527 0.24560
# Poissons Ratio (z) = 0.28603 0.25132
#
# Static dielectric constant tensor:
#      x y z
#    x 3.439120 0.000000 0.022360 
#    y 0.000000 3.552340 0.000000 
#    z 0.022360 0.000000 3.846070 
# 
# 
# High freq. dielectric constant tensor:
#      x y z
#    x 1.757670 0.000000 -0.004200 
#    y 0.000000 1.775010 0.000000 
#    z -0.004200 0.000000 1.799420 
# 
# From -- ./inp_files/33025.got.cif
#   From: 2010.06.25/outbox.cif.g09.slc.cpg/sg9_17_cif.got.tgz:33025.got - 2010.06.27 21:40:51.
