data_PCOD8055972
_publ_section_title
;
Structure prediction by ZEFSAII (Michael W. Deem and Ramdas Pophale) SiO2 
 PCOD8055972
Probable space group: C C
;
_chemical_formula_sum "Si O2"
_cell_formula_units_Z 32
_cell_length_a 19.147206
_cell_length_b 6.474839
_cell_length_c 11.693943
_cell_angle_alpha 90.000000
_cell_angle_beta 68.566380
_cell_angle_gamma 90.000000
_cell_volume 1349.494499
_symmetry_space_group_name_H-M "C C"
_symmetry_group_IT_number 9
_symmetry_cell_setting 'monoclinic'
loop_
_space_group_symop_operation_xyz
x,y,z
x,-y,1/2+z
1/2+x,1/2+y,z
1/2+x,1/2-y,1/2+z
loop_
_atom_site_type_symbol
_atom_site_label
_atom_site_fract_x
_atom_site_fract_y
_atom_site_fract_z
Si Si1 0.754010 0.410540 0.655240
Si Si2 0.616305 0.445495 0.139197
Si Si3 0.987951 0.843729 0.612459
Si Si4 0.678018 0.216737 0.904071
Si Si5 0.079628 0.358180 0.851270
Si Si6 0.818549 0.257254 0.967888
Si Si7 0.388054 0.378027 0.032302
Si Si8 0.940275 0.441997 0.324025
O O1 0.689296 0.402881 0.595141
O O2 0.709484 0.395210 0.801333
O O3 0.797078 0.625904 0.600589
O O4 0.808636 0.213592 0.620260
O O5 0.541626 0.581829 0.183666
O O6 0.624294 0.308878 0.249182
O O7 0.613990 0.314326 0.022875
O O8 0.036254 0.751945 0.480193
O O9 0.938509 0.664250 0.700214
O O10 0.936789 0.039920 0.609613
O O11 0.747531 0.157706 0.945323
O O12 0.640979 0.024008 0.859395
O O13 0.019113 0.446238 0.797855
O O14 0.866880 0.413173 0.860458
O O15 0.874738 0.074146 0.960791
O O16 0.434840 0.213206 0.933629
#
# Coordination Sequence:
#
# PCOD8055972 Si02
#       8
#     4   4   4   4   4   4   4   4
#     4  10  25  45  71 100 143 176 243 286 345 421
#     4  11  25  47  70 106 142 181 240 293 346 424
#     4  12  25  43  76 100 142 192 231 287 365 409
#     4  11  25  42  73 100 140 188 230 283 361 405
#     4  12  25  46  72 104 144 182 240 292 349 424
#     4  10  25  46  68 102 144 182 236 293 342 424
#     4  11  25  46  69 105 140 186 234 292 348 418
#     4  11  25  45  71 105 143 181 240 292 346 425
#
# _framework density 23.712585000000001
#
# number of rings (size 3 to 8) (size 9 to 14) (size 15 to 20)
#    0.000    1.000    1.250    3.750    8.750    0.000 
#    2.250    0.000    0.000    0.000    0.000    0.000 
#    0.000    0.000    0.000    0.000    0.000    0.000 
#
# Total GULP energy -198356.274788 kJ/mol
# GULP energy per Si atom -12397.267174 kJ/mol
# Density = 2.365861 g / cm^3
# Si number density = 23.712585 Si / 1000 Ang^3
#
#
#
# Elastic Constant Matrix: (Units=GPa)
#
#
# Indices 1 2 3 4 5 6 
#
# 1 119.4298 38.6592 13.8925 0.0000 -4.5343 0.0000
# 2 38.6592 73.8377 26.2890 0.0000 -4.3720 0.0000
# 3 13.8925 26.2890 116.9756 0.0000 -9.4132 0.0000
# 4 0.0000 0.0000 0.0000 35.7485 0.0000 9.5083
# 5 -4.5343 -4.3720 -9.4132 0.0000 29.0157 0.0000
# 6 0.0000 0.0000 0.0000 9.5083 0.0000 50.2113
#
#
#
# Elastic Compliance Matrix: (Units=1/GPa)
#
#
# Indices 1 2 3 4 5 6 
#
# 1 0.010100 -0.005257 0.000046 0.000000 0.000801 0.000000
# 2 -0.005257 0.017497 -0.003247 0.000000 0.000762 0.000000
# 3 0.000046 -0.003247 0.009482 0.000000 0.002594 0.000000
# 4 0.000000 0.000000 0.000000 0.029457 0.000000 -0.005578
# 5 0.000801 0.000762 0.002594 0.000000 0.035546 0.000000
# 6 0.000000 0.000000 0.000000 -0.005578 0.000000 0.020972
#
#
# Mechanical properties :
#
#
# Convention : Reuss Voigt Hill
#
# Bulk Modulus (GPa) = 49.59380 51.99161 50.79270
# Shear Modulus (GPa) = 34.08586 38.42193 36.25390
#
# Velocity S-wave (km/s) = 3.79550 4.02968 3.91434
# Velocity P-wave (km/s) = 6.33780 6.60488 6.47272
#
# Compressibility (1/GPa) = 0.02016381
#
# Stress axis : x y z
#
# Youngs Moduli (GPa) = 99.01150 57.15380 105.46686
#
# Poissons Ratio (x) = 0.30046 -0.00490
# Poissons Ratio (y) = 0.52051 0.34240
# Poissons Ratio (z) = -0.00460 0.18555
#
# Static dielectric constant tensor:
#      x y z
#    x 4.434500 0.000000 -0.110400 
#    y 0.000000 4.262280 0.000000 
#    z -0.110400 0.000000 4.165810 
# 
# 
# High freq. dielectric constant tensor:
#      x y z
#    x 1.955140 0.000000 -0.009720 
#    y 0.000000 1.933700 0.000000 
#    z -0.009720 0.000000 1.939830 
# 
# From -- ./inp_files/19793.got.cif
#   From: 2010.06.25/outbox.cif.g09.slc.cpg/sg9_10_cif.got.tgz:19793.got - 2010.06.27 21:40:51.
