data_PCOD8055360
_publ_section_title
;
Structure prediction by ZEFSAII (Michael W. Deem and Ramdas Pophale) SiO2 
 PCOD8055360
Probable space group: C C
;
_chemical_formula_sum "Si O2"
_cell_formula_units_Z 32
_cell_length_a 11.536230
_cell_length_b 9.414508
_cell_length_c 14.346280
_cell_angle_alpha 90.000000
_cell_angle_beta 114.145016
_cell_angle_gamma 90.000000
_cell_volume 1421.804668
_symmetry_space_group_name_H-M "C C"
_symmetry_group_IT_number 9
_symmetry_cell_setting 'monoclinic'
loop_
_space_group_symop_operation_xyz
x,y,z
x,-y,1/2+z
1/2+x,1/2+y,z
1/2+x,1/2-y,1/2+z
loop_
_atom_site_type_symbol
_atom_site_label
_atom_site_fract_x
_atom_site_fract_y
_atom_site_fract_z
Si Si1 0.898420 0.679742 0.508030
Si Si2 0.222159 0.161488 0.691328
Si Si3 0.666157 0.833499 0.037987
Si Si4 0.773560 0.025091 0.216768
Si Si5 0.503671 0.816875 0.248618
Si Si6 0.738751 0.045809 0.903553
Si Si7 0.203904 0.974776 0.505768
Si Si8 0.055831 0.991250 0.785421
O O1 0.964820 0.685702 0.629242
O O2 0.806544 0.813923 0.464053
O O3 0.817379 0.533730 0.476731
O O4 0.013578 0.677904 0.471070
O O5 0.194951 0.329814 0.670823
O O6 0.373292 0.157857 0.764355
O O7 0.182308 0.085457 0.582256
O O8 0.140054 0.088960 0.745218
O O9 0.734151 0.679971 0.057671
O O10 0.687413 0.897436 0.148841
O O11 0.733453 0.932216 0.984150
O O12 0.907786 0.006850 0.207187
O O13 0.812625 0.015064 0.338394
O O14 0.596840 0.939102 0.314555
O O15 0.588348 0.675718 0.294525
O O16 0.080554 0.956951 0.399532
#
# Coordination Sequence:
#
# PCOD8055360 Si02
#       8
#     4   4   4   4   4   4   4   4
#     4  11  24  47  71 103 144 186 238 284 359 417
#     4  10  24  44  69  99 139 180 232 288 348 414
#     4  12  26  45  70 104 143 184 239 291 351 428
#     4  11  26  45  67 105 142 181 235 296 354 420
#     4  10  22  42  70  99 139 181 234 287 346 420
#     4  12  24  45  72 101 145 187 225 299 356 409
#     4  11  24  43  69 103 133 182 236 284 345 422
#     4  11  22  43  70  98 133 181 233 281 355 416
#
# _framework density 22.506609000000001
#
# number of rings (size 3 to 8) (size 9 to 14) (size 15 to 20)
#    0.000    1.000    2.500    4.500    1.750    2.000 
#    6.750    0.000    0.000    0.000    0.000    0.000 
#    0.000    0.000    0.000    0.000    0.000    0.000 
#
# Total GULP energy -198279.526321 kJ/mol
# GULP energy per Si atom -12392.470395 kJ/mol
# Density = 2.245538 g / cm^3
# Si number density = 22.506609 Si / 1000 Ang^3
#
#
#
# Elastic Constant Matrix: (Units=GPa)
#
#
# Indices 1 2 3 4 5 6 
#
# 1 116.2409 67.7278 23.0635 0.0000 -5.8667 0.0000
# 2 67.7278 154.8673 50.2416 0.0000 -7.1188 0.0000
# 3 23.0635 50.2416 99.0987 0.0000 -0.2777 0.0000
# 4 0.0000 0.0000 0.0000 25.5361 0.0000 -4.4441
# 5 -5.8667 -7.1188 -0.2777 0.0000 25.0898 0.0000
# 6 0.0000 0.0000 0.0000 -4.4441 0.0000 38.6059
#
#
#
# Elastic Compliance Matrix: (Units=1/GPa)
#
#
# Indices 1 2 3 4 5 6 
#
# 1 0.011588 -0.004948 -0.000185 0.000000 0.001304 0.000000
# 2 -0.004948 0.009959 -0.003893 0.000000 0.001626 0.000000
# 3 -0.000185 -0.003893 0.012105 0.000000 -0.001014 0.000000
# 4 0.000000 0.000000 0.000000 0.039961 0.000000 0.004600
# 5 0.001304 0.001626 -0.001014 0.000000 0.040612 0.000000
# 6 0.000000 0.000000 0.000000 0.004600 0.000000 0.026432
#
#
# Mechanical properties :
#
#
# Convention : Reuss Voigt Hill
#
# Bulk Modulus (GPa) = 64.10038 72.47475 68.28756
# Shear Modulus (GPa) = 30.50500 33.12463 31.81481
#
# Velocity S-wave (km/s) = 3.68554 3.84053 3.76383
# Velocity P-wave (km/s) = 6.83034 7.20678 7.02108
#
# Compressibility (1/GPa) = 0.01560053
#
# Stress axis : x y z
#
# Youngs Moduli (GPa) = 86.29446 100.41537 82.61271
#
# Poissons Ratio (x) = 0.49685 0.01526
# Poissons Ratio (y) = 0.42698 0.32159
# Poissons Ratio (z) = 0.01594 0.39089
#
# Static dielectric constant tensor:
#      x y z
#    x 4.419460 0.000000 0.023210 
#    y 0.000000 4.083260 0.000000 
#    z 0.023210 0.000000 3.951440 
# 
# 
# High freq. dielectric constant tensor:
#      x y z
#    x 1.889520 0.000000 0.001030 
#    y 0.000000 1.888420 0.000000 
#    z 0.001030 0.000000 1.886870 
# 
# From -- ./inp_files/24187.got.cif
#   From: 2010.06.25/outbox.cif.g09.slc.cpg/sg9_13_cif.got.tgz:24187.got - 2010.06.27 21:40:51.
