data_PCOD8055528
_publ_section_title
;
Structure prediction by ZEFSAII (Michael W. Deem and Ramdas Pophale) SiO2 
 PCOD8055528
Probable space group: C C
;
_chemical_formula_sum "Si O2"
_cell_formula_units_Z 28
_cell_length_a 16.521104
_cell_length_b 10.679260
_cell_length_c 8.126163
_cell_angle_alpha 90.000000
_cell_angle_beta 63.334009
_cell_angle_gamma 90.000000
_cell_volume 1281.230740
_symmetry_space_group_name_H-M "C C"
_symmetry_group_IT_number 9
_symmetry_cell_setting 'monoclinic'
loop_
_space_group_symop_operation_xyz
x,y,z
x,-y,1/2+z
1/2+x,1/2+y,z
1/2+x,1/2-y,1/2+z
loop_
_atom_site_type_symbol
_atom_site_label
_atom_site_fract_x
_atom_site_fract_y
_atom_site_fract_z
Si Si1 0.006510 0.883318 0.095190
Si Si2 0.724108 0.721681 0.150152
Si Si3 0.945558 0.504787 0.683714
Si Si4 0.349678 0.243603 0.354179
Si Si5 0.548768 0.855805 0.350922
Si Si6 0.285379 0.828925 0.250850
Si Si7 0.118003 0.963652 0.282961
O O1 0.088826 0.883126 0.151258
O O2 0.908205 0.871060 0.270522
O O3 0.011836 0.767973 0.968065
O O4 0.024634 0.007712 0.969442
O O5 0.779481 0.726311 0.269228
O O6 0.654579 0.839389 0.211484
O O7 0.669648 0.591381 0.187560
O O8 0.788876 0.736027 0.929099
O O9 0.915281 0.378122 0.805803
O O10 0.856534 0.556960 0.673282
O O11 0.029819 0.473723 0.486900
O O12 0.984814 0.618496 0.753945
O O13 0.302381 0.260451 0.576408
O O14 0.183460 0.879421 0.331914
#
# Coordination Sequence:
#
# PCOD8055528 Si02
#       7
#     4   4   4   4   4   4   4
#     4  10  23  40  62  97 134 165 211 272 323 378
#     4  11  23  41  65  98 131 166 217 271 317 382
#     4  11  20  41  66  95 129 168 216 267 319 384
#     4  11  23  41  65  98 131 166 217 271 317 382
#     4  10  23  40  62  97 134 165 211 272 323 378
#     4  12  20  36  72  96 122 170 220 268 322 368
#     4  11  20  41  66  95 129 168 216 267 319 384
#
# _framework density 21.853985999999999
#
# number of rings (size 3 to 8) (size 9 to 14) (size 15 to 20)
#    0.000    1.143    4.286    4.286    0.000    1.143 
#    5.143    1.429    0.000    0.000    0.000    0.000 
#    0.000    0.000    0.000    0.000    0.000    0.000 
#
# Total GULP energy -173443.471102 kJ/mol
# GULP energy per Si atom -12388.819364 kJ/mol
# Density = 2.180425 g / cm^3
# Si number density = 21.853986 Si / 1000 Ang^3
#
#
#
# Elastic Constant Matrix: (Units=GPa)
#
#
# Indices 1 2 3 4 5 6 
#
# 1 71.7689 25.1045 20.3538 0.0000 -10.8897 0.0000
# 2 25.1045 32.7869 20.3987 0.0000 -13.7279 0.0000
# 3 20.3538 20.3987 148.6950 0.0000 -12.8775 0.0000
# 4 0.0000 0.0000 0.0000 21.5543 0.0000 -10.5605
# 5 -10.8897 -13.7279 -12.8775 0.0000 32.6745 0.0000
# 6 0.0000 0.0000 0.0000 -10.5605 0.0000 44.1328
#
#
#
# Elastic Compliance Matrix: (Units=1/GPa)
#
#
# Indices 1 2 3 4 5 6 
#
# 1 0.019091 -0.014140 -0.000659 0.000000 0.000162 0.000000
# 2 -0.014140 0.049758 -0.003611 0.000000 0.014769 0.000000
# 3 -0.000659 -0.003611 0.007413 0.000000 0.001185 0.000000
# 4 0.000000 0.000000 0.000000 0.052556 0.000000 0.012576
# 5 0.000162 0.014769 0.001185 0.000000 0.037331 0.000000
# 6 0.000000 0.000000 0.000000 0.012576 0.000000 0.025668
#
#
# Mechanical properties :
#
#
# Convention : Reuss Voigt Hill
#
# Bulk Modulus (GPa) = 25.35436 42.77385 34.06411
# Shear Modulus (GPa) = 20.67946 32.16524 26.42235
#
# Velocity S-wave (km/s) = 3.07946 3.84060 3.48090
# Velocity P-wave (km/s) = 4.92656 6.26753 5.63707
#
# Compressibility (1/GPa) = 0.03944095
#
# Stress axis : x y z
#
# Youngs Moduli (GPa) = 52.37997 20.09747 134.88957
#
# Poissons Ratio (x) = 0.28417 0.08895
# Poissons Ratio (y) = 0.74064 0.48714
# Poissons Ratio (z) = 0.03454 0.07258
#
# Static dielectric constant tensor:
#      x y z
#    x 3.969000 0.000000 -0.174440 
#    y 0.000000 3.701100 0.000000 
#    z -0.174440 0.000000 4.480680 
# 
# 
# High freq. dielectric constant tensor:
#      x y z
#    x 1.856010 0.000000 0.007890 
#    y 0.000000 1.808220 0.000000 
#    z 0.007890 0.000000 1.878900 
# 
# From -- ./inp_files/8921.got.cif
#   From: 2010.06.25/outbox.cif.g09.slc.cpg/sg9_5_cif.got.tgz:8921.got - 2010.06.27 21:40:51.
