data_PCOD8055169
_publ_section_title
;
Structure prediction by ZEFSAII (Michael W. Deem and Ramdas Pophale) SiO2 
 PCOD8055169
Probable space group: C C
;
_chemical_formula_sum "Si O2"
_cell_formula_units_Z 32
_cell_length_a 27.852274
_cell_length_b 9.533795
_cell_length_c 11.500087
_cell_angle_alpha 90.000000
_cell_angle_beta 147.491240
_cell_angle_gamma 90.000000
_cell_volume 1641.150189
_symmetry_space_group_name_H-M "C C"
_symmetry_group_IT_number 9
_symmetry_cell_setting 'monoclinic'
loop_
_space_group_symop_operation_xyz
x,y,z
x,-y,1/2+z
1/2+x,1/2+y,z
1/2+x,1/2-y,1/2+z
loop_
_atom_site_type_symbol
_atom_site_label
_atom_site_fract_x
_atom_site_fract_y
_atom_site_fract_z
Si Si1 0.548230 0.264342 0.011320
Si Si2 0.060218 0.909232 0.486489
Si Si3 0.904932 0.635357 0.558311
Si Si4 0.412621 0.656405 0.856712
Si Si5 0.332365 0.843539 0.345463
Si Si6 0.760219 0.400702 0.955457
Si Si7 0.469132 0.363486 0.073012
Si Si8 0.248926 0.785359 0.405649
O O1 0.541877 0.426980 0.965961
O O2 0.503947 0.253091 0.047848
O O3 0.651773 0.218585 0.229239
O O4 0.496224 0.161377 0.816990
O O5 0.159169 0.860389 0.719777
O O6 0.994594 0.815963 0.434455
O O7 0.049525 0.890931 0.326413
O O8 0.907765 0.739564 0.455572
O O9 0.896379 0.478861 0.491246
O O10 0.821042 0.656573 0.473914
O O11 0.320737 0.672302 0.596655
O O12 0.424293 0.500921 0.928111
O O13 0.393433 0.709728 0.494360
O O14 0.254371 0.830682 0.281172
O O15 0.289352 0.823458 0.131669
O O16 0.766676 0.565283 0.004232
#
# Coordination Sequence:
#
# PCOD8055169 Si02
#       8
#     4   4   4   4   4   4   4   4
#     4  10  22  38  62  90 120 157 204 248 297 350
#     4  10  22  38  63  92 117 159 205 246 295 355
#     4  11  22  38  63  88 121 155 200 247 299 350
#     4  11  22  38  63  88 121 155 200 247 299 350
#     4  11  22  40  62  86 126 157 197 248 301 356
#     4  10  22  38  63  92 117 159 205 246 295 355
#     4  11  22  40  62  86 126 157 197 248 301 356
#     4  10  22  38  62  90 120 157 204 248 297 350
#
# _framework density 19.498521
#
# number of rings (size 3 to 8) (size 9 to 14) (size 15 to 20)
#    0.000    1.500    5.000    0.000    3.500    3.000 
#    0.000    2.500    0.000    0.000    0.000    0.000 
#    0.000    0.000    0.000    0.000    0.000    0.000 
#
# Total GULP energy -198312.372411 kJ/mol
# GULP energy per Si atom -12394.523276 kJ/mol
# Density = 1.945414 g / cm^3
# Si number density = 19.498521 Si / 1000 Ang^3
#
#
#
# Elastic Constant Matrix: (Units=GPa)
#
#
# Indices 1 2 3 4 5 6 
#
# 1 86.5259 34.3864 57.5728 0.0000 1.1744 0.0000
# 2 34.3864 54.3296 41.9501 0.0000 2.8004 0.0000
# 3 57.5728 41.9501 150.7878 0.0000 5.7415 0.0000
# 4 0.0000 0.0000 0.0000 22.8125 0.0000 -0.2803
# 5 1.1744 2.8004 5.7415 0.0000 38.3117 0.0000
# 6 0.0000 0.0000 0.0000 -0.2803 0.0000 25.8228
#
#
#
# Elastic Compliance Matrix: (Units=1/GPa)
#
#
# Indices 1 2 3 4 5 6 
#
# 1 0.017677 -0.007632 -0.004653 0.000000 0.000713 0.000000
# 2 -0.007632 0.026758 -0.004490 0.000000 -0.001049 0.000000
# 3 -0.004653 -0.004490 0.009695 0.000000 -0.000982 0.000000
# 4 0.000000 0.000000 0.000000 0.043841 0.000000 0.000476
# 5 0.000713 -0.001049 -0.000982 0.000000 0.026304 0.000000
# 6 0.000000 0.000000 0.000000 0.000476 0.000000 0.038731
#
#
# Mechanical properties :
#
#
# Convention : Reuss Voigt Hill
#
# Bulk Modulus (GPa) = 48.59331 62.16243 55.37787
# Shear Modulus (GPa) = 24.58026 27.90501 26.24263
#
# Velocity S-wave (km/s) = 3.55438 3.78714 3.67260
# Velocity P-wave (km/s) = 6.46687 7.14654 6.81518
#
# Compressibility (1/GPa) = 0.02057896
#
# Stress axis : x y z
#
# Youngs Moduli (GPa) = 56.57188 37.37234 103.14516
#
# Poissons Ratio (x) = 0.28522 0.47994
# Poissons Ratio (y) = 0.43175 0.46315
# Poissons Ratio (z) = 0.26323 0.16781
#
# Static dielectric constant tensor:
#      x y z
#    x 3.784610 0.000000 -0.040160 
#    y 0.000000 3.356820 0.000000 
#    z -0.040160 0.000000 3.546670 
# 
# 
# High freq. dielectric constant tensor:
#      x y z
#    x 1.776250 0.000000 -0.009730 
#    y 0.000000 1.732730 0.000000 
#    z -0.009730 0.000000 1.765190 
# 
# From -- ./inp_files/16178.got.cif
#   From: 2010.06.25/outbox.cif.g09.slc.cpg/sg9_9_cif.got.tgz:16178.got - 2010.06.27 21:40:51.
