data_PCOD8055057
_publ_section_title
;
Structure prediction by ZEFSAII (Michael W. Deem and Ramdas Pophale) SiO2 
 PCOD8055057
Probable space group: C C
;
_chemical_formula_sum "Si O2"
_cell_formula_units_Z 24
_cell_length_a 13.306066
_cell_length_b 7.503982
_cell_length_c 13.887639
_cell_angle_alpha 90.000000
_cell_angle_beta 123.433211
_cell_angle_gamma 90.000000
_cell_volume 1157.207187
_symmetry_space_group_name_H-M "C C"
_symmetry_group_IT_number 9
_symmetry_cell_setting 'monoclinic'
loop_
_space_group_symop_operation_xyz
x,y,z
x,-y,1/2+z
1/2+x,1/2+y,z
1/2+x,1/2-y,1/2+z
loop_
_atom_site_type_symbol
_atom_site_label
_atom_site_fract_x
_atom_site_fract_y
_atom_site_fract_z
Si Si1 0.704400 0.574919 0.087610
Si Si2 0.412198 0.002336 0.052902
Si Si3 0.582627 0.218240 0.036015
Si Si4 0.830241 0.298146 0.828936
Si Si5 0.666295 0.972664 0.748844
Si Si6 0.089407 0.383128 0.912475
O O1 0.826939 0.531331 0.097298
O O2 0.603689 0.422306 0.016119
O O3 0.732836 0.589026 0.216147
O O4 0.659399 0.765185 0.027379
O O5 0.539461 0.920716 0.159950
O O6 0.450079 0.185170 0.014888
O O7 0.345560 0.870706 0.944568
O O8 0.684381 0.168051 0.170577
O O9 0.593176 0.088591 0.949131
O O10 0.782486 0.097462 0.814489
O O11 0.954860 0.304207 0.835905
O O12 0.652004 0.866771 0.841893
#
# Coordination Sequence:
#
# PCOD8055057 Si02
#       6
#     4   4   4   4   4   4
#     4  12  22  41  69  91 128 181 215 263 344 377
#     4   9  22  38  63  97 129 166 218 273 313 397
#     4   9  22  42  58  95 128 162 222 267 317 389
#     4  11  20  42  67  91 133 174 211 276 327 387
#     4  10  21  43  64  92 136 167 212 279 319 381
#     4  11  23  42  63  96 130 168 226 266 322 397
#
# _framework density 20.739588000000001
#
# number of rings (size 3 to 8) (size 9 to 14) (size 15 to 20)
#    1.000    0.667    3.333    1.000    2.333    1.333 
#    3.000    1.667    0.000    0.000    0.000    0.000 
#    0.000    0.000    0.000    0.000    0.000    0.000 
#
# Total GULP energy -148687.759043 kJ/mol
# GULP energy per Si atom -12390.646587 kJ/mol
# Density = 2.069238 g / cm^3
# Si number density = 20.739588 Si / 1000 Ang^3
#
#
#
# Elastic Constant Matrix: (Units=GPa)
#
#
# Indices 1 2 3 4 5 6 
#
# 1 64.4675 16.2174 1.5887 0.0000 -3.7119 0.0000
# 2 16.2174 65.0294 17.8833 0.0000 2.1629 0.0000
# 3 1.5887 17.8833 96.0227 0.0000 -2.1842 0.0000
# 4 0.0000 0.0000 0.0000 23.0613 0.0000 3.0302
# 5 -3.7119 2.1629 -2.1842 0.0000 28.3503 0.0000
# 6 0.0000 0.0000 0.0000 3.0302 0.0000 28.4120
#
#
#
# Elastic Compliance Matrix: (Units=1/GPa)
#
#
# Indices 1 2 3 4 5 6 
#
# 1 0.016760 -0.004432 0.000607 0.000000 0.002579 0.000000
# 2 -0.004432 0.017442 -0.003224 0.000000 -0.002159 0.000000
# 3 0.000607 -0.003224 0.011031 0.000000 0.001175 0.000000
# 4 0.000000 0.000000 0.000000 0.043979 0.000000 -0.004690
# 5 0.002579 -0.002159 0.001175 0.000000 0.035866 0.000000
# 6 0.000000 0.000000 0.000000 -0.004690 0.000000 0.035697
#
#
# Mechanical properties :
#
#
# Convention : Reuss Voigt Hill
#
# Bulk Modulus (GPa) = 32.11944 32.98870 32.55407
# Shear Modulus (GPa) = 26.99026 28.62007 27.80516
#
# Velocity S-wave (km/s) = 3.61139 3.71883 3.66550
# Velocity P-wave (km/s) = 5.73674 5.86347 5.80045
#
# Compressibility (1/GPa) = 0.03113380
#
# Stress axis : x y z
#
# Youngs Moduli (GPa) = 59.66492 57.33450 90.65063
#
# Poissons Ratio (x) = 0.25413 -0.05501
# Poissons Ratio (y) = 0.26446 0.29227
# Poissons Ratio (z) = -0.03621 0.18485
#
# Static dielectric constant tensor:
#      x y z
#    x 3.660500 0.000000 -0.035120 
#    y 0.000000 3.392610 0.000000 
#    z -0.035120 0.000000 3.801330 
# 
# 
# High freq. dielectric constant tensor:
#      x y z
#    x 1.804250 0.000000 -0.007750 
#    y 0.000000 1.778800 0.000000 
#    z -0.007750 0.000000 1.824480 
# 
# From -- ./inp_files/19967.got.cif
#   From: 2010.06.25/outbox.cif.g09.slc.cpg/sg9_10_cif.got.tgz:19967.got - 2010.06.27 21:40:51.
