data_PCOD8055380
_publ_section_title
;
Structure prediction by ZEFSAII (Michael W. Deem and Ramdas Pophale) SiO2 
 PCOD8055380
Probable space group: C C
;
_chemical_formula_sum "Si O2"
_cell_formula_units_Z 32
_cell_length_a 8.629838
_cell_length_b 8.869658
_cell_length_c 25.141030
_cell_angle_alpha 90.000000
_cell_angle_beta 47.319021
_cell_angle_gamma 90.000000
_cell_volume 1414.693814
_symmetry_space_group_name_H-M "C C"
_symmetry_group_IT_number 9
_symmetry_cell_setting 'monoclinic'
loop_
_space_group_symop_operation_xyz
x,y,z
x,-y,1/2+z
1/2+x,1/2+y,z
1/2+x,1/2-y,1/2+z
loop_
_atom_site_type_symbol
_atom_site_label
_atom_site_fract_x
_atom_site_fract_y
_atom_site_fract_z
Si Si1 0.297160 0.630525 0.784460
Si Si2 0.613237 0.878379 0.530484
Si Si3 0.839579 0.374201 0.355195
Si Si4 0.740935 0.448876 0.158842
Si Si5 0.702330 0.549970 0.484328
Si Si6 0.809611 0.877393 0.600966
Si Si7 0.882372 0.526880 0.240849
Si Si8 0.177124 0.458611 0.912656
O O1 0.488735 0.549505 0.707547
O O2 0.318646 0.809299 0.776662
O O3 0.290724 0.577532 0.847342
O O4 0.083327 0.582950 0.806040
O O5 0.613043 0.717988 0.501677
O O6 0.749156 0.874581 0.552556
O O7 0.368189 0.920102 0.598865
O O8 0.716956 0.994875 0.464555
O O9 0.705942 0.483728 0.424070
O O10 0.797519 0.407025 0.303395
O O11 0.783139 0.202892 0.380414
O O12 0.834524 0.289893 0.118092
O O13 0.764217 0.474348 0.215938
O O14 0.536010 0.453562 0.557497
O O15 0.927056 0.544816 0.460749
O O16 0.634427 0.974162 0.673171
#
# Coordination Sequence:
#
# PCOD8055380 Si02
#       8
#     4   4   4   4   4   4   4   4
#     4  10  23  42  64  95 128 165 211 261 316 378
#     4  11  23  42  65  91 126 167 210 263 316 374
#     4  11  24  42  64  95 129 167 212 261 317 376
#     4  10  22  43  66  92 128 167 210 262 317 374
#     4  11  24  41  64  93 127 166 212 261 314 378
#     4  10  24  43  63  92 127 165 212 260 314 377
#     4  10  23  42  65  91 127 166 207 262 318 375
#     4  11  25  41  65  95 128 167 212 262 314 376
#
# _framework density 22.619736
#
# number of rings (size 3 to 8) (size 9 to 14) (size 15 to 20)
#    0.000    1.500    0.000    3.750    0.000   17.000 
#    0.000    2.500    0.000    0.000    0.000    0.000 
#    0.000    0.000    0.000    0.000    0.000    0.000 
#
# Total GULP energy -198406.370252 kJ/mol
# GULP energy per Si atom -12400.398141 kJ/mol
# Density = 2.256825 g / cm^3
# Si number density = 22.619736 Si / 1000 Ang^3
#
#
#
# Elastic Constant Matrix: (Units=GPa)
#
#
# Indices 1 2 3 4 5 6 
#
# 1 55.3762 46.9539 40.8252 0.0000 -0.0797 0.0000
# 2 46.9539 144.8082 80.2299 0.0000 10.5849 0.0000
# 3 40.8252 80.2299 126.6526 0.0000 4.4853 0.0000
# 4 0.0000 0.0000 0.0000 56.1333 0.0000 1.4427
# 5 -0.0797 10.5849 4.4853 0.0000 56.5427 0.0000
# 6 0.0000 0.0000 0.0000 1.4427 0.0000 30.1702
#
#
#
# Elastic Compliance Matrix: (Units=1/GPa)
#
#
# Indices 1 2 3 4 5 6 
#
# 1 0.026815 -0.006147 -0.004805 0.000000 0.001570 0.000000
# 2 -0.006147 0.012171 -0.005663 0.000000 -0.001838 0.000000
# 3 -0.004805 -0.005663 0.013031 0.000000 0.000020 0.000000
# 4 0.000000 0.000000 0.000000 0.017837 0.000000 -0.000853
# 5 0.001570 -0.001838 0.000020 0.000000 0.018030 0.000000
# 6 0.000000 0.000000 0.000000 -0.000853 0.000000 0.033186
#
#
# Mechanical properties :
#
#
# Convention : Reuss Voigt Hill
#
# Bulk Modulus (GPa) = 53.23060 73.65056 63.44058
# Shear Modulus (GPa) = 31.14013 39.15779 35.14896
#
# Velocity S-wave (km/s) = 3.71439 4.16520 3.94624
# Velocity P-wave (km/s) = 6.47916 7.46746 6.99079
#
# Compressibility (1/GPa) = 0.01878619
#
# Stress axis : x y z
#
# Youngs Moduli (GPa) = 37.29190 82.16262 76.73844
#
# Poissons Ratio (x) = 0.50508 0.36874
# Poissons Ratio (y) = 0.22925 0.43459
# Poissons Ratio (z) = 0.17919 0.46531
#
# Static dielectric constant tensor:
#      x y z
#    x 3.911070 0.000000 -0.126950 
#    y 0.000000 3.994570 0.000000 
#    z -0.126950 0.000000 4.522770 
# 
# 
# High freq. dielectric constant tensor:
#      x y z
#    x 1.879330 0.000000 -0.006410 
#    y 0.000000 1.889370 0.000000 
#    z -0.006410 0.000000 1.921390 
# 
# From -- ./inp_files/36314.got.cif
#   From: 2010.06.25/outbox.cif.g09.slc.cpg/sg9_19_cif.got.tgz:36314.got - 2010.06.27 21:40:51.
