data_PCOD8055385
_publ_section_title
;
Structure prediction by ZEFSAII (Michael W. Deem and Ramdas Pophale) SiO2 
 PCOD8055385
Probable space group: C C
;
_chemical_formula_sum "Si O2"
_cell_formula_units_Z 28
_cell_length_a 8.357245
_cell_length_b 22.241921
_cell_length_c 10.848408
_cell_angle_alpha 90.000000
_cell_angle_beta 38.685830
_cell_angle_gamma 90.000000
_cell_volume 1260.421893
_symmetry_space_group_name_H-M "C C"
_symmetry_group_IT_number 9
_symmetry_cell_setting 'monoclinic'
loop_
_space_group_symop_operation_xyz
x,y,z
x,-y,1/2+z
1/2+x,1/2+y,z
1/2+x,1/2-y,1/2+z
loop_
_atom_site_type_symbol
_atom_site_label
_atom_site_fract_x
_atom_site_fract_y
_atom_site_fract_z
Si Si1 0.241350 0.136207 0.937170
Si Si2 0.283377 0.702648 0.094021
Si Si3 0.797189 0.868852 0.152080
Si Si4 0.641189 0.422973 0.753890
Si Si5 0.148270 0.059727 0.769838
Si Si6 0.667779 0.107812 0.991908
Si Si7 0.257586 0.168289 0.523032
O O1 0.529390 0.164806 0.776053
O O2 0.267224 0.079538 0.828628
O O3 0.125138 0.111712 0.134722
O O4 0.049673 0.187424 0.002795
O O5 0.044700 0.668164 0.298599
O O6 0.283406 0.674795 0.954522
O O7 0.236040 0.773661 0.125764
O O8 0.712903 0.908428 0.320849
O O9 0.883209 0.911576 0.986911
O O10 0.034093 0.826024 0.051895
O O11 0.717844 0.492472 0.689205
O O12 0.868952 0.396274 0.702405
O O13 0.231057 0.106230 0.613196
O O14 0.837281 0.061394 0.970120
#
# Coordination Sequence:
#
# PCOD8055385 Si02
#       7
#     4   4   4   4   4   4   4
#     4  10  25  42  65 103 140 171 235 286 335 408
#     4  11  22  46  72  98 136 179 238 283 341 417
#     4  10  22  43  67  98 137 176 230 273 344 398
#     4  11  23  41  67  97 140 184 220 287 345 400
#     4  10  24  40  65  99 140 178 231 278 344 410
#     4   9  21  42  62  97 127 178 231 272 333 417
#     4  11  23  44  74  96 136 188 225 285 348 420
#
# _framework density 22.214784999999999
#
# number of rings (size 3 to 8) (size 9 to 14) (size 15 to 20)
#    0.000    1.714    1.429    2.571    8.000    0.000 
#    5.143    8.571    3.143    0.000    0.000    0.000 
#    0.000    0.000    0.000    0.000    0.000    0.000 
#
# Total GULP energy -173438.702504 kJ/mol
# GULP energy per Si atom -12388.478750 kJ/mol
# Density = 2.216422 g / cm^3
# Si number density = 22.214785 Si / 1000 Ang^3
#
#
#
# Elastic Constant Matrix: (Units=GPa)
#
#
# Indices 1 2 3 4 5 6 
#
# 1 141.4854 45.8543 58.1607 0.0000 -26.1721 0.0000
# 2 45.8543 120.5289 33.9679 0.0000 -6.3861 0.0000
# 3 58.1607 33.9679 112.6761 0.0000 -14.0328 0.0000
# 4 0.0000 0.0000 0.0000 28.7211 0.0000 1.7448
# 5 -26.1721 -6.3861 -14.0328 0.0000 43.3394 0.0000
# 6 0.0000 0.0000 0.0000 1.7448 0.0000 22.7624
#
#
#
# Elastic Compliance Matrix: (Units=1/GPa)
#
#
# Indices 1 2 3 4 5 6 
#
# 1 0.010410 -0.002583 -0.004021 0.000000 0.004604 0.000000
# 2 -0.002583 0.009717 -0.001680 0.000000 -0.000672 0.000000
# 3 -0.004021 -0.001680 0.011591 0.000000 0.001077 0.000000
# 4 0.000000 0.000000 0.000000 0.034981 0.000000 -0.002681
# 5 0.004604 -0.000672 0.001077 0.000000 0.026104 0.000000
# 6 0.000000 0.000000 0.000000 -0.002681 0.000000 0.044138
#
#
# Mechanical properties :
#
#
# Convention : Reuss Voigt Hill
#
# Bulk Modulus (GPa) = 66.00641 72.29512 69.15076
# Shear Modulus (GPa) = 31.53427 34.74508 33.13968
#
# Velocity S-wave (km/s) = 3.77174 3.95910 3.86655
# Velocity P-wave (km/s) = 6.98178 7.31530 7.15049
#
# Compressibility (1/GPa) = 0.01515004
#
# Stress axis : x y z
#
# Youngs Moduli (GPa) = 96.06547 102.90944 86.27258
#
# Poissons Ratio (x) = 0.26582 0.34691
# Poissons Ratio (y) = 0.24814 0.14492
# Poissons Ratio (z) = 0.38629 0.17287
#
# Static dielectric constant tensor:
#      x y z
#    x 4.280590 0.000000 -0.267230 
#    y 0.000000 3.600730 0.000000 
#    z -0.267230 0.000000 4.190470 
# 
# 
# High freq. dielectric constant tensor:
#      x y z
#    x 1.887440 0.000000 -0.012710 
#    y 0.000000 1.834760 0.000000 
#    z -0.012710 0.000000 1.893690 
# 
# From -- ./inp_files/15452.got.cif
#   From: 2010.06.25/outbox.cif.g09.slc.cpg/sg9_8_cif.got.tgz:15452.got - 2010.06.27 21:40:51.
