data_PCOD8055273
_publ_section_title
;
Structure prediction by ZEFSAII (Michael W. Deem and Ramdas Pophale) SiO2 
 PCOD8055273
Probable space group: C C
;
_chemical_formula_sum "Si O2"
_cell_formula_units_Z 28
_cell_length_a 18.879193
_cell_length_b 5.091074
_cell_length_c 14.120739
_cell_angle_alpha 90.000000
_cell_angle_beta 84.819690
_cell_angle_gamma 90.000000
_cell_volume 1351.676450
_symmetry_space_group_name_H-M "C C"
_symmetry_group_IT_number 9
_symmetry_cell_setting 'monoclinic'
loop_
_space_group_symop_operation_xyz
x,y,z
x,-y,1/2+z
1/2+x,1/2+y,z
1/2+x,1/2-y,1/2+z
loop_
_atom_site_type_symbol
_atom_site_label
_atom_site_fract_x
_atom_site_fract_y
_atom_site_fract_z
Si Si1 0.136630 0.662966 0.875000
Si Si2 0.342441 0.340130 0.898190
Si Si3 0.784366 0.654472 0.302713
Si Si4 0.058631 0.642274 0.241124
Si Si5 0.265639 0.776331 0.598258
Si Si6 0.499797 0.353964 0.819662
Si Si7 0.174576 0.704538 0.080722
O O1 0.199006 0.818030 0.813009
O O2 0.116865 0.396352 0.819253
O O3 0.065538 0.844080 0.886496
O O4 0.162189 0.595093 0.976779
O O5 0.320945 0.629450 0.865526
O O6 0.426938 0.305127 0.883310
O O7 0.303425 0.133621 0.836121
O O8 0.321416 0.292786 0.009369
O O9 0.809018 0.667369 0.189824
O O10 0.013678 0.370717 0.237458
O O11 0.098718 0.729934 0.141233
O O12 0.000099 0.862950 0.270744
O O13 0.219104 0.519987 0.627596
O O14 0.215902 0.019884 0.573847
#
# Coordination Sequence:
#
# PCOD8055273 Si02
#       7
#     4   4   4   4   4   4   4
#     4  10  23  39  68  94 125 170 215 268 318 377
#     4  12  25  46  63  99 135 174 213 271 335 394
#     4  12  24  42  72  93 131 172 224 270 328 383
#     4  10  22  41  64  90 133 163 221 257 326 377
#     4  12  24  40  67 101 129 166 219 273 324 393
#     4  10  24  44  63  89 139 169 210 269 324 395
#     4  12  22  38  69 100 126 162 222 276 319 377
#
# _framework density 20.715015999999999
#
# number of rings (size 3 to 8) (size 9 to 14) (size 15 to 20)
#    0.857    0.000    4.286    3.429    4.000    0.000 
#    5.143    0.000    0.000    0.000    0.000    0.000 
#    0.000    0.000    0.000    0.000    0.000    0.000 
#
# Total GULP energy -173561.271366 kJ/mol
# GULP energy per Si atom -12397.233669 kJ/mol
# Density = 2.066787 g / cm^3
# Si number density = 20.715016 Si / 1000 Ang^3
#
#
#
# Elastic Constant Matrix: (Units=GPa)
#
#
# Indices 1 2 3 4 5 6 
#
# 1 87.5062 12.4890 20.4210 0.0000 -28.3299 0.0000
# 2 12.4890 100.3183 8.0928 0.0000 -13.8225 0.0000
# 3 20.4210 8.0928 124.2967 0.0000 -9.3729 0.0000
# 4 0.0000 0.0000 0.0000 27.5327 0.0000 -1.9787
# 5 -28.3299 -13.8225 -9.3729 0.0000 34.7217 0.0000
# 6 0.0000 0.0000 0.0000 -1.9787 0.0000 23.6767
#
#
#
# Elastic Compliance Matrix: (Units=1/GPa)
#
#
# Indices 1 2 3 4 5 6 
#
# 1 0.015862 -0.000126 -0.001659 0.000000 0.012443 0.000000
# 2 -0.000126 0.010565 -0.000365 0.000000 0.004004 0.000000
# 3 -0.001659 -0.000365 0.008400 0.000000 0.000768 0.000000
# 4 0.000000 0.000000 0.000000 0.036540 0.000000 0.003054
# 5 0.012443 0.004004 0.000768 0.000000 0.040755 0.000000
# 6 0.000000 0.000000 0.000000 0.003054 0.000000 0.042491
#
#
# Mechanical properties :
#
#
# Convention : Reuss Voigt Hill
#
# Bulk Modulus (GPa) = 32.76040 43.79188 38.27614
# Shear Modulus (GPa) = 29.57037 35.26080 32.41558
#
# Velocity S-wave (km/s) = 3.78231 4.13023 3.96009
# Velocity P-wave (km/s) = 5.90962 6.62806 6.27912
#
# Compressibility (1/GPa) = 0.03052466
#
# Stress axis : x y z
#
# Youngs Moduli (GPa) = 63.04541 94.65046 119.05348
#
# Poissons Ratio (x) = 0.01195 0.19756
# Poissons Ratio (y) = 0.00796 0.04348
# Poissons Ratio (z) = 0.10462 0.03457
#
# Static dielectric constant tensor:
#      x y z
#    x 3.532540 0.000000 -0.139340 
#    y 0.000000 3.738390 0.000000 
#    z -0.139340 0.000000 3.659040 
# 
# 
# High freq. dielectric constant tensor:
#      x y z
#    x 1.792100 0.000000 -0.014900 
#    y 0.000000 1.821390 0.000000 
#    z -0.014900 0.000000 1.807310 
# 
# From -- ./inp_files/26271.got.cif
#   From: 2010.06.25/outbox.cif.g09.slc.cpg/sg9_14_cif.got.tgz:26271.got - 2010.06.27 21:40:51.
