data_PCOD8055133
_publ_section_title
;
Structure prediction by ZEFSAII (Michael W. Deem and Ramdas Pophale) SiO2 
 PCOD8055133
Probable space group: C C
;
_chemical_formula_sum "Si O2"
_cell_formula_units_Z 32
_cell_length_a 10.723581
_cell_length_b 9.064522
_cell_length_c 12.716255
_cell_angle_alpha 90.000000
_cell_angle_beta 63.809356
_cell_angle_gamma 90.000000
_cell_volume 1109.165567
_symmetry_space_group_name_H-M "C C"
_symmetry_group_IT_number 9
_symmetry_cell_setting 'monoclinic'
loop_
_space_group_symop_operation_xyz
x,y,z
x,-y,1/2+z
1/2+x,1/2+y,z
1/2+x,1/2-y,1/2+z
loop_
_atom_site_type_symbol
_atom_site_label
_atom_site_fract_x
_atom_site_fract_y
_atom_site_fract_z
Si Si1 0.471350 0.715091 0.350770
Si Si2 0.619465 0.050883 0.709999
Si Si3 0.009705 0.104159 0.777305
Si Si4 0.593063 0.479513 0.544967
Si Si5 0.342702 0.877080 0.823752
Si Si6 0.546107 0.844185 0.017283
Si Si7 0.841332 0.400514 0.581980
Si Si8 0.744121 0.199229 0.266446
O O1 0.621226 0.796300 0.277617
O O2 0.485851 0.540100 0.358153
O O3 0.407681 0.773142 0.483228
O O4 0.387835 0.748543 0.268893
O O5 0.626090 0.088377 0.586157
O O6 0.466524 0.990439 0.804247
O O7 0.746871 0.936772 0.681948
O O8 0.167212 0.159102 0.745302
O O9 0.892800 0.221929 0.856525
O O10 0.993610 0.081201 0.655263
O O11 0.692874 0.567029 0.424974
O O12 0.515084 0.334374 0.526254
O O13 0.683759 0.409157 0.604818
O O14 0.344242 0.848921 0.699506
O O15 0.656407 0.881150 0.888395
O O16 0.405633 0.933974 0.045206
#
# Coordination Sequence:
#
# PCOD8055133 Si02
#       8
#     4   4   4   4   4   4   4   4
#     4  12  23  49  73 111 151 196 261 318 385 463
#     4  10  21  45  72 105 151 197 255 315 380 464
#     4  11  28  47  74 121 152 202 271 316 391 478
#     4  12  24  44  77 108 152 208 261 319 402 458
#     4  10  24  50  69 110 164 199 258 326 393 462
#     4  11  22  42  77 107 149 204 260 319 388 461
#     4  11  24  44  78 107 156 206 255 328 389 464
#     4  11  24  47  72 105 157 200 243 325 388 452
#
# _framework density 28.850515000000001
#
# number of rings (size 3 to 8) (size 9 to 14) (size 15 to 20)
#    0.000    1.000    5.000    0.750    5.250    2.000 
#    6.750    0.000    0.000    0.000    0.000    0.000 
#    0.000    0.000    0.000    0.000    0.000    0.000 
#
# Total GULP energy -198221.463657 kJ/mol
# GULP energy per Si atom -12388.841479 kJ/mol
# Density = 2.878485 g / cm^3
# Si number density = 28.850515 Si / 1000 Ang^3
#
#
#
# Elastic Constant Matrix: (Units=GPa)
#
#
# Indices 1 2 3 4 5 6 
#
# 1 64.1921 54.4326 5.0454 0.0000 -2.4129 0.0000
# 2 54.4326 211.7955 41.0751 0.0000 5.3088 0.0000
# 3 5.0454 41.0751 94.7292 0.0000 15.0467 0.0000
# 4 0.0000 0.0000 0.0000 40.8605 0.0000 16.7786
# 5 -2.4129 5.3088 15.0467 0.0000 27.5794 0.0000
# 6 0.0000 0.0000 0.0000 16.7786 0.0000 43.5561
#
#
#
# Elastic Compliance Matrix: (Units=1/GPa)
#
#
# Indices 1 2 3 4 5 6 
#
# 1 0.020193 -0.005424 0.000909 0.000000 0.002315 0.000000
# 2 -0.005424 0.006614 -0.002520 0.000000 -0.000373 0.000000
# 3 0.000909 -0.002520 0.012603 0.000000 -0.006311 0.000000
# 4 0.000000 0.000000 0.000000 0.029072 0.000000 -0.011199
# 5 0.002315 -0.000373 -0.006311 0.000000 0.039977 0.000000
# 6 0.000000 0.000000 0.000000 -0.011199 0.000000 0.027273
#
#
# Mechanical properties :
#
#
# Convention : Reuss Voigt Hill
#
# Bulk Modulus (GPa) = 39.46339 63.53590 51.49965
# Shear Modulus (GPa) = 31.59597 40.41012 36.00304
#
# Velocity S-wave (km/s) = 3.31291 3.74662 3.53642
# Velocity P-wave (km/s) = 5.32373 6.38643 5.87914
#
# Compressibility (1/GPa) = 0.02533994
#
# Stress axis : x y z
#
# Youngs Moduli (GPa) = 49.52160 151.20541 79.34630
#
# Poissons Ratio (x) = 0.82014 -0.07210
# Poissons Ratio (y) = 0.26861 0.19992
# Poissons Ratio (z) = -0.04500 0.38097
#
# Static dielectric constant tensor:
#      x y z
#    x 5.479310 0.000000 0.260740 
#    y 0.000000 5.940170 0.000000 
#    z 0.260740 0.000000 5.395310 
# 
# 
# High freq. dielectric constant tensor:
#      x y z
#    x 2.155460 0.000000 0.014950 
#    y 0.000000 2.191270 0.000000 
#    z 0.014950 0.000000 2.182400 
# 
# From -- ./inp_files/24368.got.cif
#   From: 2010.06.25/outbox.cif.g09.slc.cpg/sg9_13_cif.got.tgz:24368.got - 2010.06.27 21:40:51.
