data_PCOD8055500
_publ_section_title
;
Structure prediction by ZEFSAII (Michael W. Deem and Ramdas Pophale) SiO2 
 PCOD8055500
Probable space group: C C
;
_chemical_formula_sum "Si O2"
_cell_formula_units_Z 24
_cell_length_a 22.630353
_cell_length_b 6.331497
_cell_length_c 14.212868
_cell_angle_alpha 90.000000
_cell_angle_beta 151.112990
_cell_angle_gamma 90.000000
_cell_volume 983.789105
_symmetry_space_group_name_H-M "C C"
_symmetry_group_IT_number 9
_symmetry_cell_setting 'monoclinic'
loop_
_space_group_symop_operation_xyz
x,y,z
x,-y,1/2+z
1/2+x,1/2+y,z
1/2+x,1/2-y,1/2+z
loop_
_atom_site_type_symbol
_atom_site_label
_atom_site_fract_x
_atom_site_fract_y
_atom_site_fract_z
Si Si1 0.210500 0.267388 0.338200
Si Si2 0.905684 0.484291 0.653630
Si Si3 0.872893 0.182224 0.759839
Si Si4 0.586481 0.387258 0.082925
Si Si5 0.676359 0.024313 0.103933
Si Si6 0.483767 0.009260 0.057554
O O1 0.223399 0.384883 0.256909
O O2 0.112698 0.393584 0.265326
O O3 0.341781 0.220164 0.572014
O O4 0.169885 0.023269 0.268592
O O5 0.830047 0.303733 0.605121
O O6 0.916489 0.423976 0.559158
O O7 0.035387 0.477478 0.886208
O O8 0.762961 0.025973 0.636842
O O9 0.901158 0.347879 0.882747
O O10 0.992264 0.044856 0.900615
O O11 0.676833 0.272589 0.133422
O O12 0.507892 0.218241 0.031780
#
# Coordination Sequence:
#
# PCOD8055500 Si02
#       6
#     4   4   4   4   4   4
#     4  10  23  47  70 103 143 187 254 306 363 447
#     4  12  24  46  72 105 149 194 241 306 379 436
#     4  11  24  47  69 108 148 189 251 307 368 452
#     4  10  22  47  69  98 143 195 239 310 370 423
#     4  11  24  46  70 101 146 189 246 311 364 444
#     4  10  23  47  70 103 147 192 247 310 368 446
#
# _framework density 24.395474
#
# number of rings (size 3 to 8) (size 9 to 14) (size 15 to 20)
#    0.000    1.333    6.667    0.000    4.667    1.333 
#   12.000    0.000    0.000    0.000    0.000    0.000 
#    0.000    0.000    0.000    0.000    0.000    0.000 
#
# Total GULP energy -148732.902343 kJ/mol
# GULP energy per Si atom -12394.408529 kJ/mol
# Density = 2.433995 g / cm^3
# Si number density = 24.395474 Si / 1000 Ang^3
#
#
#
# Elastic Constant Matrix: (Units=GPa)
#
#
# Indices 1 2 3 4 5 6 
#
# 1 136.6354 38.6085 32.2481 0.0000 -8.3353 0.0000
# 2 38.6085 116.3548 39.0617 0.0000 -12.7872 0.0000
# 3 32.2481 39.0617 81.1851 0.0000 -1.1990 0.0000
# 4 0.0000 0.0000 0.0000 49.9499 0.0000 -2.8455
# 5 -8.3353 -12.7872 -1.1990 0.0000 27.3812 0.0000
# 6 0.0000 0.0000 0.0000 -2.8455 0.0000 34.2775
#
#
#
# Elastic Compliance Matrix: (Units=1/GPa)
#
#
# Indices 1 2 3 4 5 6 
#
# 1 0.008518 -0.001811 -0.002488 0.000000 0.001638 0.000000
# 2 -0.001811 0.011241 -0.004623 0.000000 0.004496 0.000000
# 3 -0.002488 -0.004623 0.015497 0.000000 -0.002238 0.000000
# 4 0.000000 0.000000 0.000000 0.020115 0.000000 0.001670
# 5 0.001638 0.004496 -0.002238 0.000000 0.039022 0.000000
# 6 0.000000 0.000000 0.000000 0.001670 0.000000 0.029312
#
#
# Mechanical properties :
#
#
# Convention : Reuss Voigt Hill
#
# Bulk Modulus (GPa) = 57.43027 61.55688 59.49358
# Shear Modulus (GPa) = 33.93214 37.27219 35.60216
#
# Velocity S-wave (km/s) = 3.73355 3.91299 3.82432
# Velocity P-wave (km/s) = 6.49448 6.76040 6.62878
#
# Compressibility (1/GPa) = 0.01741242
#
# Stress axis : x y z
#
# Youngs Moduli (GPa) = 117.40419 88.95660 64.52869
#
# Poissons Ratio (x) = 0.16111 0.16053
# Poissons Ratio (y) = 0.21263 0.29831
# Poissons Ratio (z) = 0.29207 0.41124
#
# Static dielectric constant tensor:
#      x y z
#    x 4.304930 0.000000 0.218140 
#    y 0.000000 4.557930 0.000000 
#    z 0.218140 0.000000 4.457380 
# 
# 
# High freq. dielectric constant tensor:
#      x y z
#    x 1.957520 0.000000 0.010100 
#    y 0.000000 1.974440 0.000000 
#    z 0.010100 0.000000 1.971130 
# 
# From -- ./inp_files/25300.got.cif
#   From: 2010.06.25/outbox.cif.g09.slc.cpg/sg9_13_cif.got.tgz:25300.got - 2010.06.27 21:40:51.
