data_PCOD8055865
_publ_section_title
;
Structure prediction by ZEFSAII (Michael W. Deem and Ramdas Pophale) SiO2 
 PCOD8055865
Probable space group: C C
;
_chemical_formula_sum "Si O2"
_cell_formula_units_Z 32
_cell_length_a 11.696249
_cell_length_b 8.976765
_cell_length_c 13.402667
_cell_angle_alpha 90.000000
_cell_angle_beta 90.988088
_cell_angle_gamma 90.000000
_cell_volume 1406.996785
_symmetry_space_group_name_H-M "C C"
_symmetry_group_IT_number 9
_symmetry_cell_setting 'monoclinic'
loop_
_space_group_symop_operation_xyz
x,y,z
x,-y,1/2+z
1/2+x,1/2+y,z
1/2+x,1/2-y,1/2+z
loop_
_atom_site_type_symbol
_atom_site_label
_atom_site_fract_x
_atom_site_fract_y
_atom_site_fract_z
Si Si1 0.638670 0.354079 0.665180
Si Si2 0.535859 0.059281 0.389235
Si Si3 0.713571 0.939755 0.261905
Si Si4 0.933740 0.759357 0.859622
Si Si5 0.881903 0.858700 0.650106
Si Si6 0.709274 0.248127 0.470566
Si Si7 0.142267 0.027024 0.362443
Si Si8 0.821088 0.252928 0.931564
O O1 0.634676 0.193469 0.720049
O O2 0.512594 0.406858 0.628478
O O3 0.724566 0.338723 0.573869
O O4 0.687534 0.468487 0.748032
O O5 0.620952 0.108650 0.482212
O O6 0.432838 0.175428 0.381487
O O7 0.621345 0.065672 0.294160
O O8 0.491340 0.890966 0.401994
O O9 0.783229 0.884780 0.361363
O O10 0.801787 0.001186 0.180246
O O11 0.885363 0.744755 0.745278
O O12 0.831520 0.801887 0.932587
O O13 0.016133 0.902058 0.865631
O O14 0.835169 0.789555 0.547495
O O15 0.642610 0.355887 0.392440
O O16 0.225654 0.119107 0.435389
#
# Coordination Sequence:
#
# PCOD8055865 Si02
#       8
#     4   4   4   4   4   4   4   4
#     4  10  24  44  67  99 139 177 226 282 333 409
#     4  12  23  43  71  98 134 184 223 284 341 400
#     4  11  25  45  68 101 140 182 223 283 341 405
#     4  11  24  46  68  98 140 180 221 284 339 400
#     4  11  23  40  72  98 136 179 223 278 341 401
#     4  12  25  42  74 102 131 183 230 274 345 404
#     4  10  24  47  66  96 146 173 218 290 334 395
#     4  11  24  43  70 102 136 180 228 279 340 406
#
# _framework density 22.743479000000001
#
# number of rings (size 3 to 8) (size 9 to 14) (size 15 to 20)
#    0.000    1.000    7.500    0.000    5.250    2.000 
#    0.000    5.000    0.000    0.000    0.000    0.000 
#    0.000    0.000    0.000    0.000    0.000    0.000 
#
# Total GULP energy -198252.676886 kJ/mol
# GULP energy per Si atom -12390.792305 kJ/mol
# Density = 2.269171 g / cm^3
# Si number density = 22.743479 Si / 1000 Ang^3
#
#
#
# Elastic Constant Matrix: (Units=GPa)
#
#
# Indices 1 2 3 4 5 6 
#
# 1 115.0601 19.6047 24.8366 0.0000 -7.6928 0.0000
# 2 19.6047 45.4775 -6.8670 0.0000 -0.5018 0.0000
# 3 24.8366 -6.8670 88.7428 0.0000 -4.1753 0.0000
# 4 0.0000 0.0000 0.0000 25.2939 0.0000 -4.4293
# 5 -7.6928 -0.5018 -4.1753 0.0000 34.2295 0.0000
# 6 0.0000 0.0000 0.0000 -4.4293 0.0000 35.0214
#
#
#
# Elastic Compliance Matrix: (Units=1/GPa)
#
#
# Indices 1 2 3 4 5 6 
#
# 1 0.010342 -0.004919 -0.003187 0.000000 0.001863 0.000000
# 2 -0.004919 0.024598 0.003264 0.000000 -0.000347 0.000000
# 3 -0.003187 0.003264 0.012453 0.000000 0.000851 0.000000
# 4 0.000000 0.000000 0.000000 0.040431 0.000000 0.005113
# 5 0.001863 -0.000347 0.000851 0.000000 0.029732 0.000000
# 6 0.000000 0.000000 0.000000 0.005113 0.000000 0.029201
#
#
# Mechanical properties :
#
#
# Convention : Reuss Voigt Hill
#
# Bulk Modulus (GPa) = 26.51931 36.04767 31.28349
# Shear Modulus (GPa) = 29.58386 33.02270 31.30328
#
# Velocity S-wave (km/s) = 3.61052 3.81460 3.71396
# Velocity P-wave (km/s) = 5.39135 5.94017 5.67240
#
# Compressibility (1/GPa) = 0.03770837
#
# Stress axis : x y z
#
# Youngs Moduli (GPa) = 96.69480 40.65314 80.30098
#
# Poissons Ratio (x) = 0.19997 0.25595
# Poissons Ratio (y) = 0.47563 -0.26209
# Poissons Ratio (z) = 0.30820 -0.13268
#
# Static dielectric constant tensor:
#      x y z
#    x 4.324020 0.000000 -0.018510 
#    y 0.000000 3.992240 0.000000 
#    z -0.018510 0.000000 4.188170 
# 
# 
# High freq. dielectric constant tensor:
#      x y z
#    x 1.912210 0.000000 -0.004160 
#    y 0.000000 1.884810 0.000000 
#    z -0.004160 0.000000 1.889350 
# 
# From -- ./inp_files/24235.got.cif
#   From: 2010.06.25/outbox.cif.g09.slc.cpg/sg9_13_cif.got.tgz:24235.got - 2010.06.27 21:40:51.
