data_PCOD8055960
_publ_section_title
;
Structure prediction by ZEFSAII (Michael W. Deem and Ramdas Pophale) SiO2 
 PCOD8055960
Probable space group: C C
;
_chemical_formula_sum "Si O2"
_cell_formula_units_Z 28
_cell_length_a 28.886788
_cell_length_b 4.637131
_cell_length_c 8.609275
_cell_angle_alpha 90.000000
_cell_angle_beta 121.073439
_cell_angle_gamma 90.000000
_cell_volume 987.747263
_symmetry_space_group_name_H-M "C C"
_symmetry_group_IT_number 9
_symmetry_cell_setting 'monoclinic'
loop_
_space_group_symop_operation_xyz
x,y,z
x,-y,1/2+z
1/2+x,1/2+y,z
1/2+x,1/2-y,1/2+z
loop_
_atom_site_type_symbol
_atom_site_label
_atom_site_fract_x
_atom_site_fract_y
_atom_site_fract_z
Si Si1 0.670100 0.713416 0.229140
Si Si2 0.735243 0.103790 0.568708
Si Si3 0.525575 0.500801 0.759162
Si Si4 0.377636 0.809492 0.296869
Si Si5 0.451794 0.679850 0.883560
Si Si6 0.096805 0.284587 0.638640
Si Si7 0.814072 0.104865 0.465736
O O1 0.689130 0.718612 0.080796
O O2 0.655831 0.379249 0.239381
O O3 0.711810 0.836445 0.428098
O O4 0.612403 0.879746 0.148769
O O5 0.778029 0.285746 0.532453
O O6 0.770383 0.982730 0.766881
O O7 0.481948 0.704160 0.771845
O O8 0.495078 0.266790 0.595568
O O9 0.565088 0.721713 0.740895
O O10 0.560231 0.302776 0.931701
O O11 0.435152 0.652606 0.381151
O O12 0.357565 0.789318 0.442023
O O13 0.394433 0.143312 0.291969
O O14 0.338666 0.676409 0.096468
#
# Coordination Sequence:
#
# PCOD8055960 Si02
#       7
#     4   4   4   4   4   4   4
#     4  11  22  41  67  98 136 178 227 280 342 419
#     4   9  20  42  67 100 136 178 227 283 347 413
#     4  10  25  44  67  99 138 180 232 290 350 413
#     4  11  24  45  68  97 134 180 233 286 351 416
#     4  11  26  44  68  97 134 180 233 290 348 416
#     4  11  24  42  67  98 136 180 227 283 346 413
#     4   9  21  44  68  99 138 180 229 290 350 416
#
# _framework density 28.347328999999998
#
# number of rings (size 3 to 8) (size 9 to 14) (size 15 to 20)
#    0.000    1.714    0.000    2.571    0.000   11.429 
#    0.000   32.857    0.000    0.000    0.000    0.000 
#    0.000    0.000    0.000    0.000    0.000    0.000 
#
# Total GULP energy -173515.311202 kJ/mol
# GULP energy per Si atom -12393.950800 kJ/mol
# Density = 2.828281 g / cm^3
# Si number density = 28.347329 Si / 1000 Ang^3
#
#
#
# Elastic Constant Matrix: (Units=GPa)
#
#
# Indices 1 2 3 4 5 6 
#
# 1 214.8203 19.5007 50.1927 0.0000 -40.5879 0.0000
# 2 19.5007 52.0007 -24.7807 0.0000 -11.2133 0.0000
# 3 50.1927 -24.7807 -32.1013 0.0000 -17.6210 0.0000
# 4 0.0000 0.0000 0.0000 18.8596 0.0000 -6.9522
# 5 -40.5879 -11.2133 -17.6210 0.0000 55.2453 0.0000
# 6 0.0000 0.0000 0.0000 -6.9522 0.0000 17.5259
#
#
#
# Elastic Compliance Matrix: (Units=1/GPa)
#
#
# Indices 1 2 3 4 5 6 
#
# 1 0.004591 0.001082 0.003720 0.000000 0.004779 0.000000
# 2 0.001082 0.014331 -0.009705 0.000000 0.000608 0.000000
# 3 0.003720 -0.009705 -0.015541 0.000000 -0.004194 0.000000
# 4 0.000000 0.000000 0.000000 0.062105 0.000000 0.024636
# 5 0.004779 0.000608 -0.004194 0.000000 0.020398 0.000000
# 6 0.000000 0.000000 0.000000 0.024636 0.000000 0.066831
#
#
# Mechanical properties :
#
#
# Convention : Reuss Voigt Hill
#
# Bulk Modulus (GPa) = -155.58198 36.06057 -59.76071
# Shear Modulus (GPa) = 31.17599 30.97996 31.07798
#
# Velocity S-wave (km/s) = 3.31990 3.30945 3.31468
# Velocity P-wave (km/s) = 6.34883 5.22990 2.54518
#
# Compressibility (1/GPa) = -0.00642748
#
# Stress axis : x y z
#
# Youngs Moduli (GPa) = 217.83547 69.77917 -64.34584
#
# Poissons Ratio (x) = -0.07547 0.23935
# Poissons Ratio (y) = -0.23561 -0.62450
# Poissons Ratio (z) = -0.81030 0.67723
#
# Static dielectric constant tensor:
#      x y z
#    x 7.344440 0.000000 -0.745780 
#    y 0.000000 4.644940 0.000000 
#    z -0.745780 0.000000 5.746070 
# 
# 
# High freq. dielectric constant tensor:
#      x y z
#    x 2.175120 0.000000 0.000960 
#    y 0.000000 2.106310 0.000000 
#    z 0.000960 0.000000 2.181190 
# 
# From -- ./inp_files/12607.got.cif
#   From: 2010.06.25/outbox.cif.g09.slc.cpg/sg9_7_cif.got.tgz:12607.got - 2010.06.27 21:40:51.
