data_PCOD8055778
_publ_section_title
;
Structure prediction by ZEFSAII (Michael W. Deem and Ramdas Pophale) SiO2 
 PCOD8055778
Probable space group: C C
;
_chemical_formula_sum "Si O2"
_cell_formula_units_Z 28
_cell_length_a 8.931941
_cell_length_b 5.131131
_cell_length_c 30.680172
_cell_angle_alpha 90.000000
_cell_angle_beta 61.459853
_cell_angle_gamma 90.000000
_cell_volume 1235.235825
_symmetry_space_group_name_H-M "C C"
_symmetry_group_IT_number 9
_symmetry_cell_setting 'monoclinic'
loop_
_space_group_symop_operation_xyz
x,y,z
x,-y,1/2+z
1/2+x,1/2+y,z
1/2+x,1/2-y,1/2+z
loop_
_atom_site_type_symbol
_atom_site_label
_atom_site_fract_x
_atom_site_fract_y
_atom_site_fract_z
Si Si1 0.203090 0.315692 0.417690
Si Si2 0.690158 0.310613 0.463885
Si Si3 0.238694 0.782873 0.269165
Si Si4 0.896967 0.841928 0.007605
Si Si5 0.815201 0.232351 0.616692
Si Si6 0.346198 0.717209 0.806138
Si Si7 0.421361 0.769302 0.153849
O O1 0.274280 0.602819 0.418504
O O2 0.218205 0.253238 0.364610
O O3 0.007374 0.350448 0.461007
O O4 0.282975 0.082628 0.436435
O O5 0.714850 0.191126 0.509334
O O6 0.484892 0.370719 0.491737
O O7 0.323518 0.559937 0.286454
O O8 0.292867 0.751722 0.211868
O O9 0.035344 0.762405 0.299415
O O10 0.305385 0.059015 0.277233
O O11 0.887363 0.743233 0.058062
O O12 0.612120 0.268034 0.645083
O O13 0.904776 0.451161 0.633328
O O14 0.867909 0.952461 0.627564
#
# Coordination Sequence:
#
# PCOD8055778 Si02
#       7
#     4   4   4   4   4   4   4
#     4  10  26  40  66  95 137 171 220 268 325 399
#     4  10  24  39  64  88 140 168 217 265 321 382
#     4  12  26  47  71 100 135 174 228 285 336 402
#     4  10  26  40  66  95 135 173 221 266 328 395
#     4  12  26  43  74  98 137 177 227 273 344 400
#     4  12  26  43  74 100 135 179 225 272 346 397
#     4  12  26  48  69 102 133 176 226 287 338 395
#
# _framework density 22.667736999999999
#
# number of rings (size 3 to 8) (size 9 to 14) (size 15 to 20)
#    0.857    0.000    0.000    6.000   10.000    0.000 
#    0.000    0.000    0.000    0.000    0.000    0.000 
#    0.000    0.000    0.000    0.000    0.000    0.000 
#
# Total GULP energy -173476.183014 kJ/mol
# GULP energy per Si atom -12391.155930 kJ/mol
# Density = 2.261614 g / cm^3
# Si number density = 22.667737 Si / 1000 Ang^3
#
#
#
# Elastic Constant Matrix: (Units=GPa)
#
#
# Indices 1 2 3 4 5 6 
#
# 1 89.6409 36.9173 13.0752 0.0000 9.3782 0.0000
# 2 36.9173 114.0258 31.4124 0.0000 1.3840 -0.0001
# 3 13.0752 31.4124 108.7402 0.0000 8.8841 -0.0001
# 4 0.0000 0.0000 0.0000 29.0902 0.0000 3.7712
# 5 9.3782 1.3840 8.8841 0.0000 31.1373 -0.0001
# 6 0.0000 -0.0001 -0.0001 3.7712 -0.0001 26.5966
#
#
#
# Elastic Compliance Matrix: (Units=1/GPa)
#
#
# Indices 1 2 3 4 5 6 
#
# 1 0.013311 -0.004246 -0.000063 0.000000 -0.003802 0.000000
# 2 -0.004246 0.010887 -0.002764 0.000000 0.001584 0.000000
# 3 -0.000063 -0.002764 0.010229 0.000000 -0.002777 0.000000
# 4 0.000000 0.000000 0.000000 0.035020 0.000000 -0.004966
# 5 -0.003802 0.001584 -0.002777 0.000000 0.033983 0.000000
# 6 0.000000 0.000000 0.000000 -0.004966 0.000000 0.038303
#
#
# Mechanical properties :
#
#
# Convention : Reuss Voigt Hill
#
# Bulk Modulus (GPa) = 49.30755 52.80184 51.05470
# Shear Modulus (GPa) = 30.74287 32.76495 31.75391
#
# Velocity S-wave (km/s) = 3.68671 3.80602 3.74684
# Velocity P-wave (km/s) = 6.31838 6.53137 6.42576
#
# Compressibility (1/GPa) = 0.02028087
#
# Stress axis : x y z
#
# Youngs Moduli (GPa) = 75.12374 91.85415 97.76053
#
# Poissons Ratio (x) = 0.39002 0.00619
# Poissons Ratio (y) = 0.31898 0.27019
# Poissons Ratio (z) = 0.00476 0.25386
#
# Static dielectric constant tensor:
#      x y z
#    x 4.174820 0.000000 0.015220 
#    y 0.000000 4.176060 0.000000 
#    z 0.015220 0.000000 4.098560 
# 
# 
# High freq. dielectric constant tensor:
#      x y z
#    x 1.890050 0.000000 0.008010 
#    y 0.000000 1.907550 0.000000 
#    z 0.008010 0.000000 1.900800 
# 
# From -- ./inp_files/36279.got.cif
#   From: 2010.06.25/outbox.cif.g09.slc.cpg/sg9_19_cif.got.tgz:36279.got - 2010.06.27 21:40:51.
