data_PCOD8055523
_publ_section_title
;
Structure prediction by ZEFSAII (Michael W. Deem and Ramdas Pophale) SiO2 
 PCOD8055523
Probable space group: C C
;
_chemical_formula_sum "Si O2"
_cell_formula_units_Z 28
_cell_length_a 10.577972
_cell_length_b 25.645907
_cell_length_c 5.167351
_cell_angle_alpha 90.000000
_cell_angle_beta 57.286794
_cell_angle_gamma 90.000000
_cell_volume 1179.461704
_symmetry_space_group_name_H-M "C C"
_symmetry_group_IT_number 9
_symmetry_cell_setting 'monoclinic'
loop_
_space_group_symop_operation_xyz
x,y,z
x,-y,1/2+z
1/2+x,1/2+y,z
1/2+x,1/2-y,1/2+z
loop_
_atom_site_type_symbol
_atom_site_label
_atom_site_fract_x
_atom_site_fract_y
_atom_site_fract_z
Si Si1 0.114900 0.885580 0.149730
Si Si2 0.155065 0.533675 0.666889
Si Si3 0.294029 0.186664 0.755271
Si Si4 0.924632 0.113103 0.346107
Si Si5 0.539415 0.800489 0.612736
Si Si6 0.387773 0.896708 0.541017
Si Si7 0.830797 0.776378 0.055116
O O1 0.180905 0.826570 0.140109
O O2 0.037553 0.907833 0.496583
O O3 0.264143 0.917304 0.889145
O O4 0.993462 0.886987 0.057159
O O5 0.178601 0.490077 0.424364
O O6 0.276683 0.578674 0.496027
O O7 0.985228 0.555573 0.823031
O O8 0.465528 0.199525 0.478402
O O9 0.292363 0.133766 0.927676
O O10 0.237220 0.237575 0.969041
O O11 0.884454 0.173415 0.332297
O O12 0.507505 0.857297 0.530893
O O13 0.719030 0.793294 0.413639
O O14 0.469193 0.754388 0.520268
#
# Coordination Sequence:
#
# PCOD8055523 Si02
#       7
#     4   4   4   4   4   4   4
#     4  11  24  46  76 104 147 188 242 292 376 431
#     4  12  29  52  79 109 143 191 253 310 372 433
#     4  10  23  41  72 105 150 191 246 292 355 447
#     4  12  26  47  74 108 149 197 236 310 370 428
#     4  10  23  38  65 102 147 189 243 287 354 438
#     4  10  23  48  73 106 143 191 242 308 359 437
#     4  11  24  40  63 106 149 197 242 287 364 434
#
# _framework density 23.739640999999999
#
# number of rings (size 3 to 8) (size 9 to 14) (size 15 to 20)
#    0.000    1.143    2.857    1.714   10.000    3.429 
#    0.000    4.286    0.000    0.000    0.000    0.000 
#    0.000    0.000    0.000    0.000    0.000    0.000 
#
# Total GULP energy -173516.204360 kJ/mol
# GULP energy per Si atom -12394.014597 kJ/mol
# Density = 2.368561 g / cm^3
# Si number density = 23.739641 Si / 1000 Ang^3
#
#
#
# Elastic Constant Matrix: (Units=GPa)
#
#
# Indices 1 2 3 4 5 6 
#
# 1 65.1969 15.3871 19.9458 0.0000 3.2086 0.0000
# 2 15.3871 73.1799 22.7653 0.0000 -2.9211 0.0000
# 3 19.9458 22.7653 155.9435 0.0000 -7.3858 0.0000
# 4 0.0000 0.0000 0.0000 31.6502 0.0000 -3.1984
# 5 3.2086 -2.9211 -7.3858 0.0000 37.3413 0.0000
# 6 0.0000 0.0000 0.0000 -3.1984 0.0000 19.5486
#
#
#
# Elastic Compliance Matrix: (Units=1/GPa)
#
#
# Indices 1 2 3 4 5 6 
#
# 1 0.016702 -0.003036 -0.001789 0.000000 -0.002026 0.000000
# 2 -0.003036 0.014886 -0.001733 0.000000 0.001083 0.000000
# 3 -0.001789 -0.001733 0.006961 0.000000 0.001395 0.000000
# 4 0.000000 0.000000 0.000000 0.032127 0.000000 0.005256
# 5 -0.002026 0.001083 0.001395 0.000000 0.027315 0.000000
# 6 0.000000 0.000000 0.000000 0.005256 0.000000 0.052014
#
#
# Mechanical properties :
#
#
# Convention : Reuss Voigt Hill
#
# Bulk Modulus (GPa) = 39.32227 45.61297 42.46762
# Shear Modulus (GPa) = 29.13785 33.45615 31.29700
#
# Velocity S-wave (km/s) = 3.50722 3.75813 3.63484
# Velocity P-wave (km/s) = 5.74462 6.17146 5.96186
#
# Compressibility (1/GPa) = 0.02543088
#
# Stress axis : x y z
#
# Youngs Moduli (GPa) = 59.87394 67.17797 143.66738
#
# Poissons Ratio (x) = 0.20396 0.25702
# Poissons Ratio (y) = 0.18179 0.24905
# Poissons Ratio (z) = 0.10711 0.11645
#
# Static dielectric constant tensor:
#      x y z
#    x 4.009300 0.000000 -0.054710 
#    y 0.000000 4.002420 0.000000 
#    z -0.054710 0.000000 4.596190 
# 
# 
# High freq. dielectric constant tensor:
#      x y z
#    x 1.929520 0.000000 -0.010050 
#    y 0.000000 1.904000 0.000000 
#    z -0.010050 0.000000 1.969140 
# 
# From -- ./inp_files/2028.got.cif
#   From: 2010.06.25/outbox.cif.g09.slc.cpg/sg9_2_cif.got.tgz:2028.got - 2010.06.27 21:40:51.
