data_PCOD8055338
_publ_section_title
;
Structure prediction by ZEFSAII (Michael W. Deem and Ramdas Pophale) SiO2 
 PCOD8055338
Probable space group: C C
;
_chemical_formula_sum "Si O2"
_cell_formula_units_Z 32
_cell_length_a 10.428741
_cell_length_b 19.146360
_cell_length_c 8.038062
_cell_angle_alpha 90.000000
_cell_angle_beta 119.192256
_cell_angle_gamma 90.000000
_cell_volume 1401.127741
_symmetry_space_group_name_H-M "C C"
_symmetry_group_IT_number 9
_symmetry_cell_setting 'monoclinic'
loop_
_space_group_symop_operation_xyz
x,y,z
x,-y,1/2+z
1/2+x,1/2+y,z
1/2+x,1/2-y,1/2+z
loop_
_atom_site_type_symbol
_atom_site_label
_atom_site_fract_x
_atom_site_fract_y
_atom_site_fract_z
Si Si1 0.950520 0.583975 0.372450
Si Si2 0.371356 0.548553 0.155732
Si Si3 0.441765 0.694062 0.272289
Si Si4 0.696353 0.819497 0.018727
Si Si5 0.438939 0.589299 0.824068
Si Si6 0.671991 0.673837 0.137090
Si Si7 0.054378 0.553090 0.071681
Si Si8 0.118635 0.702697 0.086137
O O1 0.790045 0.617934 0.275813
O O2 0.058664 0.642063 0.524555
O O3 0.025725 0.568602 0.244302
O O4 0.938872 0.507876 0.451633
O O5 0.425486 0.612186 0.307682
O O6 0.478974 0.483112 0.255630
O O7 0.214321 0.522117 0.126868
O O8 0.369233 0.573724 0.962899
O O9 0.559081 0.701906 0.201935
O O10 0.279324 0.719388 0.106760
O O11 0.501407 0.736873 0.469905
O O12 0.834828 0.868845 0.132991
O O13 0.746045 0.744516 0.120947
O O14 0.652560 0.805548 0.801309
O O15 0.586607 0.634146 0.935729
O O16 0.047938 0.628972 0.974155
#
# Coordination Sequence:
#
# PCOD8055338 Si02
#       8
#     4   4   4   4   4   4   4   4
#     4  11  24  42  66  98 131 177 225 274 337 399
#     4  10  22  42  69 102 131 179 233 275 339 402
#     4  10  25  45  68 101 132 174 231 278 343 404
#     4  11  25  42  70  93 136 178 226 278 334 409
#     4  11  24  42  69  97 134 183 225 281 339 405
#     4  11  27  43  62 101 140 174 220 280 347 392
#     4  10  22  42  67  97 130 172 224 274 332 404
#     4  10  25  44  69 103 128 179 228 280 343 399
#
# _framework density 22.838747999999999
#
# number of rings (size 3 to 8) (size 9 to 14) (size 15 to 20)
#    0.000    1.500    1.250    1.500   15.750    2.000 
#    2.250    0.000    0.000    0.000    0.000    0.000 
#    0.000    0.000    0.000    0.000    0.000    0.000 
#
# Total GULP energy -198217.456153 kJ/mol
# GULP energy per Si atom -12388.591010 kJ/mol
# Density = 2.278677 g / cm^3
# Si number density = 22.838748 Si / 1000 Ang^3
#
#
#
# Elastic Constant Matrix: (Units=GPa)
#
#
# Indices 1 2 3 4 5 6 
#
# 1 38.0618 24.9164 0.0314 0.0000 6.2034 0.0000
# 2 24.9164 185.2697 74.8400 0.0000 24.9633 0.0000
# 3 0.0314 74.8400 75.5011 0.0000 20.2188 0.0000
# 4 0.0000 0.0000 0.0000 53.0816 0.0000 11.5729
# 5 6.2034 24.9633 20.2188 0.0000 37.6129 0.0000
# 6 0.0000 0.0000 0.0000 11.5729 0.0000 26.8810
#
#
#
# Elastic Compliance Matrix: (Units=1/GPa)
#
#
# Indices 1 2 3 4 5 6 
#
# 1 0.031570 -0.006849 0.008123 0.000000 -0.005027 0.000000
# 2 -0.006849 0.010550 -0.010375 0.000000 -0.000295 0.000000
# 3 0.008123 -0.010375 0.025747 0.000000 -0.008294 0.000000
# 4 0.000000 0.000000 0.000000 0.020790 0.000000 -0.008951
# 5 -0.005027 -0.000295 -0.008294 0.000000 0.032070 0.000000
# 6 0.000000 0.000000 0.000000 -0.008951 0.000000 0.041054
#
#
# Mechanical properties :
#
#
# Convention : Reuss Voigt Hill
#
# Bulk Modulus (GPa) = 20.13631 55.37871 37.75751
# Shear Modulus (GPa) = 25.44021 36.78476 31.11248
#
# Velocity S-wave (km/s) = 3.34114 4.01762 3.69489
# Velocity P-wave (km/s) = 4.87034 6.76920 5.89670
#
# Compressibility (1/GPa) = 0.04966152
#
# Stress axis : x y z
#
# Youngs Moduli (GPa) = 31.67610 94.79043 38.83932
#
# Poissons Ratio (x) = 0.64927 -0.31548
# Poissons Ratio (y) = 0.21697 0.40298
# Poissons Ratio (z) = -0.25729 0.98349
#
# Static dielectric constant tensor:
#      x y z
#    x 4.051330 0.000000 0.102840 
#    y 0.000000 4.786230 0.000000 
#    z 0.102840 0.000000 3.861460 
# 
# 
# High freq. dielectric constant tensor:
#      x y z
#    x 1.884510 0.000000 0.000680 
#    y 0.000000 1.930610 0.000000 
#    z 0.000680 0.000000 1.877950 
# 
# From -- ./inp_files/8044.got.cif
#   From: 2010.06.25/outbox.cif.g09.slc.cpg/sg9_5_cif.got.tgz:8044.got - 2010.06.27 21:40:51.
