data_PCOD8055771
_publ_section_title
;
Structure prediction by ZEFSAII (Michael W. Deem and Ramdas Pophale) SiO2 
 PCOD8055771
Probable space group: C C
;
_chemical_formula_sum "Si O2"
_cell_formula_units_Z 20
_cell_length_a 18.382175
_cell_length_b 5.312996
_cell_length_c 25.879082
_cell_angle_alpha 90.000000
_cell_angle_beta 160.553742
_cell_angle_gamma 90.000000
_cell_volume 841.450261
_symmetry_space_group_name_H-M "C C"
_symmetry_group_IT_number 9
_symmetry_cell_setting 'monoclinic'
loop_
_space_group_symop_operation_xyz
x,y,z
x,-y,1/2+z
1/2+x,1/2+y,z
1/2+x,1/2-y,1/2+z
loop_
_atom_site_type_symbol
_atom_site_label
_atom_site_fract_x
_atom_site_fract_y
_atom_site_fract_z
Si Si1 0.800020 0.554430 0.189490
Si Si2 0.575097 0.683692 0.681482
Si Si3 0.739056 0.956324 0.701705
Si Si4 0.143374 0.588041 0.332501
Si Si5 0.858156 0.717737 0.401674
O O1 0.846669 0.296520 0.251033
O O2 0.929716 0.538865 0.223217
O O3 0.875138 0.793555 0.276170
O O4 0.541391 0.587170 0.002112
O O5 0.713144 0.913611 0.746812
O O6 0.333008 0.686509 0.496925
O O7 0.571113 0.712614 0.740425
O O8 0.693496 0.411937 0.749210
O O9 0.492112 0.977892 0.514456
O O10 0.218148 0.334502 0.354450
#
# Coordination Sequence:
#
# PCOD8055771 Si02
#       5
#     4   4   4   4   4
#     4  10  24  49  72 113 147 200 256 313 379 454
#     4  12  24  48  77 111 155 204 254 318 389 459
#     4  10  23  49  75 104 150 198 247 312 381 448
#     4  12  27  46  78 113 151 206 258 321 380 463
#     4  10  24  46  78 103 157 194 255 308 391 444
#
# _framework density 23.768488000000001
#
# number of rings (size 3 to 8) (size 9 to 14) (size 15 to 20)
#    1.200    0.000    4.000    0.000    8.400    1.600 
#    3.600    0.000    0.000    0.000    0.000    0.000 
#    0.000    0.000    0.000    0.000    0.000    0.000 
#
# Total GULP energy -123897.038221 kJ/mol
# GULP energy per Si atom -12389.703822 kJ/mol
# Density = 2.371439 g / cm^3
# Si number density = 23.768488 Si / 1000 Ang^3
#
#
#
# Elastic Constant Matrix: (Units=GPa)
#
#
# Indices 1 2 3 4 5 6 
#
# 1 161.9041 48.8396 61.8563 -0.0341 29.0215 0.0063
# 2 48.8396 136.9482 26.2925 -0.1334 14.9015 0.1059
# 3 61.8563 26.2925 90.8240 -0.0235 -0.5128 -0.0010
# 4 -0.0341 -0.1334 -0.0235 26.7527 -0.0552 -5.6399
# 5 29.0215 14.9015 -0.5128 -0.0552 45.2073 0.0261
# 6 0.0063 0.1059 -0.0010 -5.6399 0.0261 42.1264
#
#
#
# Elastic Compliance Matrix: (Units=1/GPa)
#
#
# Indices 1 2 3 4 5 6 
#
# 1 0.010299 -0.001752 -0.006542 -0.000013 -0.006108 0.000005
# 2 -0.001752 0.008342 -0.001231 0.000032 -0.001638 -0.000015
# 3 -0.006542 -0.001231 0.015849 0.000010 0.004785 0.000003
# 4 -0.000013 0.000032 0.000010 0.038465 0.000042 0.005150
# 5 -0.006108 -0.001638 0.004785 0.000042 0.026636 -0.000006
# 6 0.000005 -0.000015 0.000003 0.005150 -0.000006 0.024428
#
#
# Mechanical properties :
#
#
# Convention : Reuss Voigt Hill
#
# Bulk Modulus (GPa) = 64.76472 73.73924 69.25198
# Shear Modulus (GPa) = 33.73489 39.66314 36.69901
#
# Velocity S-wave (km/s) = 3.77146 4.08944 3.93366
# Velocity P-wave (km/s) = 6.80239 7.30680 7.05910
#
# Compressibility (1/GPa) = 0.01544050
#
# Stress axis : x y z
#
# Youngs Moduli (GPa) = 97.09383 119.88130 63.09654
#
# Poissons Ratio (x) = 0.21009 0.41275
# Poissons Ratio (y) = 0.17015 0.07764
# Poissons Ratio (z) = 0.63515 0.14751
#
# Static dielectric constant tensor:
#      x y z
#    x 4.132820 -0.000710 -0.027330 
#    y -0.000710 4.375110 -0.000150 
#    z -0.027330 -0.000150 3.951360 
# 
# 
# High freq. dielectric constant tensor:
#      x y z
#    x 1.936940 -0.000010 -0.007850 
#    y -0.000010 1.957230 0.000000 
#    z -0.007850 0.000000 1.926350 
# 
# From -- ./inp_files/18697.got.cif
#   From: 2010.06.25/outbox.cif.g09.slc.cpg/sg9_10_cif.got.tgz:18697.got - 2010.06.27 21:40:51.
