data_PCOD8055026
_publ_section_title
;
Structure prediction by ZEFSAII (Michael W. Deem and Ramdas Pophale) SiO2 
 PCOD8055026
Probable space group: C C
;
_chemical_formula_sum "Si O2"
_cell_formula_units_Z 28
_cell_length_a 5.184418
_cell_length_b 22.760305
_cell_length_c 11.687684
_cell_angle_alpha 90.000000
_cell_angle_beta 110.362247
_cell_angle_gamma 90.000000
_cell_volume 1292.954184
_symmetry_space_group_name_H-M "C C"
_symmetry_group_IT_number 9
_symmetry_cell_setting 'monoclinic'
loop_
_space_group_symop_operation_xyz
x,y,z
x,-y,1/2+z
1/2+x,1/2+y,z
1/2+x,1/2-y,1/2+z
loop_
_atom_site_type_symbol
_atom_site_label
_atom_site_fract_x
_atom_site_fract_y
_atom_site_fract_z
Si Si1 0.762670 0.883134 0.688740
Si Si2 0.145030 0.512181 0.690663
Si Si3 0.650718 0.343749 0.559424
Si Si4 0.602614 0.789344 0.071456
Si Si5 0.072409 0.939114 0.106694
Si Si6 0.897522 0.125351 0.783069
Si Si7 0.005493 0.834941 0.944201
O O1 0.742528 0.947746 0.743444
O O2 0.463132 0.864431 0.600335
O O3 0.969313 0.885380 0.613047
O O4 0.875322 0.836612 0.798008
O O5 0.285076 0.526925 0.588235
O O6 0.242799 0.563820 0.793652
O O7 0.815668 0.513705 0.630693
O O8 0.632522 0.278583 0.608549
O O9 0.536192 0.344847 0.412821
O O10 0.680559 0.829058 0.193005
O O11 0.291551 0.800821 0.984989
O O12 0.796729 0.801686 0.994075
O O13 0.123295 0.892571 0.220255
O O14 0.051287 0.902553 0.987274
#
# Coordination Sequence:
#
# PCOD8055026 Si02
#       7
#     4   4   4   4   4   4   4
#     4  12  28  42  65 107 138 175 221 281 352 385
#     4  10  21  42  67  99 136 172 224 276 335 406
#     4  12  28  45  66 105 143 174 221 291 329 408
#     4  11  24  46  74  94 129 181 229 283 326 403
#     4   9  19  41  67  96 121 179 225 265 319 410
#     4   9  24  43  71  96 133 180 233 257 357 384
#     4  11  22  45  68  97 130 175 233 267 334 406
#
# _framework density 21.655830999999999
#
# number of rings (size 3 to 8) (size 9 to 14) (size 15 to 20)
#    0.857    0.571    1.429    2.571    6.000    2.286 
#    0.000    0.000    0.000    0.000    0.000    0.000 
#    0.000    0.000    0.000    0.000    0.000    0.000 
#
# Total GULP energy -173535.072467 kJ/mol
# GULP energy per Si atom -12395.362319 kJ/mol
# Density = 2.160654 g / cm^3
# Si number density = 21.655831 Si / 1000 Ang^3
#
#
#
# Elastic Constant Matrix: (Units=GPa)
#
#
# Indices 1 2 3 4 5 6 
#
# 1 143.1937 15.5550 29.1618 0.0000 14.8705 0.0000
# 2 15.5550 115.8199 24.5917 0.0000 15.6063 0.0000
# 3 29.1618 24.5917 107.3601 0.0000 8.8252 0.0000
# 4 0.0000 0.0000 0.0000 19.0944 0.0000 2.5164
# 5 14.8705 15.6063 8.8252 0.0000 31.5773 0.0000
# 6 0.0000 0.0000 0.0000 2.5164 0.0000 34.1887
#
#
#
# Elastic Compliance Matrix: (Units=1/GPa)
#
#
# Indices 1 2 3 4 5 6 
#
# 1 0.007685 -0.000249 -0.001784 0.000000 -0.002997 0.000000
# 2 -0.000249 0.009605 -0.001793 0.000000 -0.004128 0.000000
# 3 -0.001784 -0.001793 0.010305 0.000000 -0.001154 0.000000
# 4 0.000000 0.000000 0.000000 0.052884 0.000000 -0.003892
# 5 -0.002997 -0.004128 -0.001154 0.000000 0.035443 0.000000
# 6 0.000000 0.000000 0.000000 -0.003892 0.000000 0.029536
#
#
# Mechanical properties :
#
#
# Convention : Reuss Voigt Hill
#
# Bulk Modulus (GPa) = 50.14642 56.11007 53.12825
# Shear Modulus (GPa) = 31.29755 36.77644 34.03700
#
# Velocity S-wave (km/s) = 3.80574 4.12542 3.96880
# Velocity P-wave (km/s) = 6.52057 6.97555 6.75189
#
# Compressibility (1/GPa) = 0.01994160
#
# Stress axis : x y z
#
# Youngs Moduli (GPa) = 130.11986 104.11737 97.04471
#
# Poissons Ratio (x) = 0.02598 0.17313
# Poissons Ratio (y) = 0.03246 0.17399
# Poissons Ratio (z) = 0.23213 0.18667
#
# Static dielectric constant tensor:
#      x y z
#    x 3.890240 0.000000 0.039880 
#    y 0.000000 3.872160 0.000000 
#    z 0.039880 0.000000 3.520880 
# 
# 
# High freq. dielectric constant tensor:
#      x y z
#    x 1.860920 0.000000 0.002030 
#    y 0.000000 1.853870 0.000000 
#    z 0.002030 0.000000 1.823180 
# 
# From -- ./inp_files/13689.got.cif
#   From: 2010.06.25/outbox.cif.g09.slc.cpg/sg9_7_cif.got.tgz:13689.got - 2010.06.27 21:40:51.
