data_PCOD8055335
_publ_section_title
;
Structure prediction by ZEFSAII (Michael W. Deem and Ramdas Pophale) SiO2 
 PCOD8055335
Probable space group: C C
;
_chemical_formula_sum "Si O2"
_cell_formula_units_Z 28
_cell_length_a 11.909926
_cell_length_b 7.892061
_cell_length_c 20.009319
_cell_angle_alpha 90.000000
_cell_angle_beta 33.151043
_cell_angle_gamma 90.000000
_cell_volume 1028.486192
_symmetry_space_group_name_H-M "C C"
_symmetry_group_IT_number 9
_symmetry_cell_setting 'monoclinic'
loop_
_space_group_symop_operation_xyz
x,y,z
x,-y,1/2+z
1/2+x,1/2+y,z
1/2+x,1/2-y,1/2+z
loop_
_atom_site_type_symbol
_atom_site_label
_atom_site_fract_x
_atom_site_fract_y
_atom_site_fract_z
Si Si1 0.684190 0.588131 0.394480
Si Si2 0.056302 0.373909 0.541066
Si Si3 0.933671 0.146342 0.397370
Si Si4 0.746854 0.085739 0.715482
Si Si5 0.187023 0.045943 0.662962
Si Si6 0.093178 0.882832 0.572640
Si Si7 0.136509 0.580382 0.142331
O O1 0.685508 0.787448 0.416656
O O2 0.504783 0.550204 0.429583
O O3 0.655291 0.472935 0.472986
O O4 0.895852 0.540414 0.253800
O O5 0.914594 0.230690 0.646138
O O6 0.908740 0.521620 0.587706
O O7 0.215002 0.424017 0.524326
O O8 0.685145 0.190628 0.521705
O O9 0.034431 0.338520 0.349046
O O10 0.001967 0.042798 0.297420
O O11 0.733000 0.063765 0.641744
O O12 0.841856 0.913112 0.702822
O O13 0.197977 0.964846 0.584829
O O14 0.162654 0.245913 0.669313
#
# Coordination Sequence:
#
# PCOD8055335 Si02
#       7
#     4   4   4   4   4   4   4
#     4  11  20  41  70  91 129 182 219 262 339 401
#     4  10  22  43  65  90 132 180 210 270 339 390
#     4  11  22  42  71  99 134 187 218 273 342 397
#     4  10  22  42  67  94 135 169 220 277 329 394
#     4  11  22  43  67  98 135 171 224 277 333 397
#     4  11  22  44  70  99 136 178 223 279 336 398
#     4  12  22  43  64  99 131 169 224 278 330 393
#
# _framework density 27.224477
#
# number of rings (size 3 to 8) (size 9 to 14) (size 15 to 20)
#    0.000    1.143    8.571    0.000    0.000    0.000 
#   15.429    0.000    0.000    0.000    0.000    0.000 
#    0.000    0.000    0.000    0.000    0.000    0.000 
#
# Total GULP energy -173441.213856 kJ/mol
# GULP energy per Si atom -12388.658133 kJ/mol
# Density = 2.716251 g / cm^3
# Si number density = 27.224477 Si / 1000 Ang^3
#
#
#
# Elastic Constant Matrix: (Units=GPa)
#
#
# Indices 1 2 3 4 5 6 
#
# 1 204.2581 40.6477 16.0558 0.0000 15.6304 0.0000
# 2 40.6477 92.4989 18.6366 0.0000 0.8504 0.0000
# 3 16.0558 18.6366 68.2839 -0.0004 14.1302 0.0001
# 4 0.0000 0.0000 -0.0004 35.3108 0.0001 5.3590
# 5 15.6304 0.8504 14.1302 0.0001 44.5415 0.0000
# 6 0.0000 0.0000 0.0001 5.3590 0.0000 39.7467
#
#
#
# Elastic Compliance Matrix: (Units=1/GPa)
#
#
# Indices 1 2 3 4 5 6 
#
# 1 0.005525 -0.002354 -0.000283 0.000000 -0.001804 0.000000
# 2 -0.002354 0.012472 -0.003181 0.000000 0.001597 0.000000
# 3 -0.000283 -0.003181 0.016639 0.000000 -0.005118 0.000000
# 4 0.000000 0.000000 0.000000 0.028912 0.000000 -0.003898
# 5 -0.001804 0.001597 -0.005118 0.000000 0.024677 0.000000
# 6 0.000000 0.000000 0.000000 -0.003898 0.000000 0.025685
#
#
# Mechanical properties :
#
#
# Convention : Reuss Voigt Hill
#
# Bulk Modulus (GPa) = 43.48106 57.30234 50.39170
# Shear Modulus (GPa) = 37.53453 43.23321 40.38387
#
# Velocity S-wave (km/s) = 3.71712 3.98933 3.85563
# Velocity P-wave (km/s) = 5.86759 6.50488 6.19444
#
# Compressibility (1/GPa) = 0.02299852
#
# Stress axis : x y z
#
# Youngs Moduli (GPa) = 181.01105 80.18225 60.10122
#
# Poissons Ratio (x) = 0.18875 0.01702
# Poissons Ratio (y) = 0.42611 0.19117
# Poissons Ratio (z) = 0.05127 0.25505
#
# Static dielectric constant tensor:
#      x y z
#    x 5.351440 0.000000 -0.532770 
#    y 0.000000 5.157170 0.000000 
#    z -0.532770 0.000000 5.729000 
# 
# 
# High freq. dielectric constant tensor:
#      x y z
#    x 2.126560 0.000000 -0.000910 
#    y 0.000000 2.092650 0.000000 
#    z -0.000910 0.000000 2.094270 
# 
# From -- ./inp_files/24048.got.cif
#   From: 2010.06.25/outbox.cif.g09.slc.cpg/sg9_13_cif.got.tgz:24048.got - 2010.06.27 21:40:51.
