data_PCOD8055543
_publ_section_title
;
Structure prediction by ZEFSAII (Michael W. Deem and Ramdas Pophale) SiO2 
 PCOD8055543
Probable space group: C C
;
_chemical_formula_sum "Si O2"
_cell_formula_units_Z 28
_cell_length_a 15.445617
_cell_length_b 7.626430
_cell_length_c 16.393642
_cell_angle_alpha 90.000000
_cell_angle_beta 33.513741
_cell_angle_gamma 90.000000
_cell_volume 1066.224884
_symmetry_space_group_name_H-M "C C"
_symmetry_group_IT_number 9
_symmetry_cell_setting 'monoclinic'
loop_
_space_group_symop_operation_xyz
x,y,z
x,-y,1/2+z
1/2+x,1/2+y,z
1/2+x,1/2-y,1/2+z
loop_
_atom_site_type_symbol
_atom_site_label
_atom_site_fract_x
_atom_site_fract_y
_atom_site_fract_z
Si Si1 0.086230 0.581855 0.513150
Si Si2 0.086129 0.358740 0.202623
Si Si3 0.149793 0.089287 0.398361
Si Si4 0.041790 0.269627 0.782903
Si Si5 0.457561 0.268126 0.171997
Si Si6 0.784422 0.757006 0.732668
Si Si7 0.429172 0.416812 0.926368
O O1 0.123636 0.626019 0.577357
O O2 0.235312 0.584617 0.333218
O O3 0.010718 0.390432 0.569619
O O4 0.968953 0.733862 0.568829
O O5 0.990823 0.524611 0.317688
O O6 0.981154 0.188194 0.303577
O O7 0.265390 0.356559 0.095870
O O8 0.271457 0.243893 0.332201
O O9 0.010838 0.066131 0.575126
O O10 0.070618 0.134523 0.374729
O O11 0.245199 0.910693 0.319816
O O12 0.201315 0.260104 0.709874
O O13 0.060545 0.216869 0.673406
O O14 0.919372 0.127712 0.916802
#
# Coordination Sequence:
#
# PCOD8055543 Si02
#       7
#     4   4   4   4   4   4   4
#     4  10  23  41  62  98 125 175 218 276 337 403
#     4  11  25  45  69 102 138 181 233 284 350 410
#     4  10  23  41  62  98 125 175 218 276 337 403
#     4  10  26  42  68 102 134 184 230 286 340 414
#     4  10  23  41  65  92 134 167 227 273 340 400
#     4  10  23  41  65  92 134 167 227 273 340 400
#     4  11  25  45  69 102 138 181 233 284 350 410
#
# _framework density 26.260874999999999
#
# number of rings (size 3 to 8) (size 9 to 14) (size 15 to 20)
#    0.000    1.714    0.000    1.714   12.000    2.286 
#    0.000    0.000    0.000    0.000    0.000    0.000 
#    0.000    0.000    0.000    0.000    0.000    0.000 
#
# Total GULP energy -173438.097538 kJ/mol
# GULP energy per Si atom -12388.435538 kJ/mol
# Density = 2.620110 g / cm^3
# Si number density = 26.260875 Si / 1000 Ang^3
#
#
#
# Elastic Constant Matrix: (Units=GPa)
#
#
# Indices 1 2 3 4 5 6 
#
# 1 91.4832 15.0513 4.5502 0.0000 15.5132 0.0000
# 2 15.0513 65.1108 19.6511 0.0000 0.1124 0.0000
# 3 4.5502 19.6511 101.6057 0.0001 -4.6059 0.0000
# 4 0.0000 0.0000 0.0001 32.8087 0.0000 0.0647
# 5 15.5132 0.1124 -4.6059 0.0000 33.8241 0.0000
# 6 0.0000 0.0000 0.0000 0.0647 0.0000 25.1913
#
#
#
# Elastic Compliance Matrix: (Units=1/GPa)
#
#
# Indices 1 2 3 4 5 6 
#
# 1 0.012366 -0.002765 -0.000277 0.000000 -0.005700 0.000000
# 2 -0.002765 0.016937 -0.003116 0.000000 0.000788 0.000000
# 3 -0.000277 -0.003116 0.010528 0.000000 0.001571 0.000000
# 4 0.000000 0.000000 0.000000 0.030480 0.000000 -0.000078
# 5 -0.005700 0.000788 0.001571 0.000000 0.032390 0.000000
# 6 0.000000 0.000000 0.000000 -0.000078 0.000000 0.039697
#
#
# Mechanical properties :
#
#
# Convention : Reuss Voigt Hill
#
# Bulk Modulus (GPa) = 36.34500 37.41166 36.87833
# Shear Modulus (GPa) = 30.50885 32.96128 31.73507
#
# Velocity S-wave (km/s) = 3.41216 3.54665 3.48005
# Velocity P-wave (km/s) = 5.42160 5.57214 5.49739
#
# Compressibility (1/GPa) = 0.02751410
#
# Stress axis : x y z
#
# Youngs Moduli (GPa) = 80.86481 59.04324 94.98213
#
# Poissons Ratio (x) = 0.16326 0.02635
# Poissons Ratio (y) = 0.22360 0.29598
# Poissons Ratio (z) = 0.02243 0.18399
#
# Static dielectric constant tensor:
#      x y z
#    x 4.635970 0.000000 -0.149320 
#    y 0.000000 4.840210 0.000000 
#    z -0.149320 0.000000 4.674790 
# 
# 
# High freq. dielectric constant tensor:
#      x y z
#    x 2.051510 0.000000 -0.000080 
#    y 0.000000 2.055710 0.000000 
#    z -0.000080 0.000000 2.046040 
# 
# From -- ./inp_files/10363.got.cif
#   From: 2010.06.25/outbox.cif.g09.slc.cpg/sg9_6_cif.got.tgz:10363.got - 2010.06.27 21:40:51.
