data_PCOD8055033
_publ_section_title
;
Structure prediction by ZEFSAII (Michael W. Deem and Ramdas Pophale) SiO2 
 PCOD8055033
Probable space group: C C
;
_chemical_formula_sum "Si O2"
_cell_formula_units_Z 32
_cell_length_a 13.332815
_cell_length_b 13.567281
_cell_length_c 18.870267
_cell_angle_alpha 90.000000
_cell_angle_beta 152.787948
_cell_angle_gamma 90.000000
_cell_volume 1560.916520
_symmetry_space_group_name_H-M "C C"
_symmetry_group_IT_number 9
_symmetry_cell_setting 'monoclinic'
loop_
_space_group_symop_operation_xyz
x,y,z
x,-y,1/2+z
1/2+x,1/2+y,z
1/2+x,1/2-y,1/2+z
loop_
_atom_site_type_symbol
_atom_site_label
_atom_site_fract_x
_atom_site_fract_y
_atom_site_fract_z
Si Si1 0.399980 0.736507 0.803020
Si Si2 0.820780 0.369240 0.626190
Si Si3 0.831905 0.735878 0.581510
Si Si4 0.856140 0.727573 0.755041
Si Si5 0.146527 0.967718 0.121269
Si Si6 0.720731 0.099268 0.274882
Si Si7 0.697625 0.613093 0.275386
Si Si8 0.028347 0.408058 0.099811
O O1 0.429077 0.788168 0.745508
O O2 0.374926 0.818637 0.847722
O O3 0.174744 0.676074 0.655991
O O4 0.605098 0.668688 0.950564
O O5 0.759277 0.468806 0.629783
O O6 0.998286 0.388688 0.678192
O O7 0.746144 0.728115 0.608062
O O8 0.612782 0.758564 0.399820
O O9 0.994579 0.826736 0.677693
O O10 0.937264 0.634424 0.617753
O O11 0.807127 0.617511 0.752331
O O12 0.756025 0.809194 0.744289
O O13 0.094424 0.034438 0.156559
O O14 0.923558 0.916537 0.954830
O O15 0.686313 0.001128 0.207518
O O16 0.825060 0.563468 0.421200
#
# Coordination Sequence:
#
# PCOD8055033 Si02
#       8
#     4   4   4   4   4   4   4   4
#     4  10  21  42  69  96 133 168 221 267 330 393
#     4  11  24  44  68  97 132 179 214 274 334 398
#     4  11  24  42  73  95 135 175 226 277 340 394
#     4  12  26  47  63  96 138 181 222 281 336 401
#     4  11  26  46  67  98 137 175 226 275 336 400
#     4  12  28  42  68  95 137 178 223 272 337 400
#     4  10  23  41  70 105 126 173 225 281 323 400
#     4  11  22  42  68 102 128 171 227 273 328 400
#
# _framework density 20.500775000000001
#
# number of rings (size 3 to 8) (size 9 to 14) (size 15 to 20)
#    0.000    1.000    5.000    0.750    7.000    0.000 
#    0.000    0.000    0.000    0.000    0.000    0.000 
#    0.000    0.000    0.000    0.000    0.000    0.000 
#
# Total GULP energy -198413.620894 kJ/mol
# GULP energy per Si atom -12400.851306 kJ/mol
# Density = 2.045411 g / cm^3
# Si number density = 20.500775 Si / 1000 Ang^3
#
#
#
# Elastic Constant Matrix: (Units=GPa)
#
#
# Indices 1 2 3 4 5 6 
#
# 1 79.7755 20.4273 24.7440 0.0498 -6.9610 0.0189
# 2 20.4273 92.7420 35.4853 0.0807 -9.3473 0.0317
# 3 24.7440 35.4853 91.8297 0.0443 -1.5190 -0.0039
# 4 0.0498 0.0807 0.0443 34.9727 0.0189 -5.6504
# 5 -6.9610 -9.3473 -1.5190 0.0189 28.7497 0.0068
# 6 0.0189 0.0317 -0.0039 -5.6504 0.0068 30.9488
#
#
#
# Elastic Compliance Matrix: (Units=1/GPa)
#
#
# Indices 1 2 3 4 5 6 
#
# 1 0.014168 -0.001645 -0.003137 -0.000016 0.002730 -0.000011
# 2 -0.001645 0.013287 -0.004630 -0.000028 0.003677 -0.000019
# 3 -0.003137 -0.004630 0.013499 0.000000 -0.001552 0.000009
# 4 -0.000016 -0.000028 0.000000 0.029463 -0.000033 0.005379
# 5 0.002730 0.003677 -0.001552 -0.000033 0.036557 -0.000020
# 6 -0.000011 -0.000019 0.000009 0.005379 -0.000020 0.033294
#
#
# Mechanical properties :
#
#
# Convention : Reuss Voigt Hill
#
# Bulk Modulus (GPa) = 45.18977 47.29559 46.24268
# Shear Modulus (GPa) = 30.03579 31.18028 30.60803
#
# Velocity S-wave (km/s) = 3.83182 3.90414 3.86815
# Velocity P-wave (km/s) = 6.45507 6.59116 6.52347
#
# Compressibility (1/GPa) = 0.02212890
#
# Stress axis : x y z
#
# Youngs Moduli (GPa) = 70.58387 75.25978 74.08214
#
# Poissons Ratio (x) = 0.12382 0.23237
# Poissons Ratio (y) = 0.11613 0.34303
# Poissons Ratio (z) = 0.22139 0.34848
#
# Static dielectric constant tensor:
#      x y z
#    x 3.583230 -0.000030 -0.065020 
#    y -0.000030 3.788600 -0.000030 
#    z -0.065020 -0.000030 3.666270 
# 
# 
# High freq. dielectric constant tensor:
#      x y z
#    x 1.797220 0.000000 -0.003450 
#    y 0.000000 1.803760 0.000000 
#    z -0.003450 0.000000 1.811830 
# 
# From -- ./inp_files/7492.got.cif
#   From: 2010.06.25/outbox.cif.g09.slc.cpg/sg9_4_cif.got.tgz:7492.got - 2010.06.27 21:40:51.
