data_PCOD8055055
_publ_section_title
;
Structure prediction by ZEFSAII (Michael W. Deem and Ramdas Pophale) SiO2 
 PCOD8055055
Probable space group: C C
;
_chemical_formula_sum "Si O2"
_cell_formula_units_Z 32
_cell_length_a 13.245960
_cell_length_b 8.196861
_cell_length_c 14.154165
_cell_angle_alpha 90.000000
_cell_angle_beta 75.243453
_cell_angle_gamma 90.000000
_cell_volume 1486.104335
_symmetry_space_group_name_H-M "C C"
_symmetry_group_IT_number 9
_symmetry_cell_setting 'monoclinic'
loop_
_space_group_symop_operation_xyz
x,y,z
x,-y,1/2+z
1/2+x,1/2+y,z
1/2+x,1/2-y,1/2+z
loop_
_atom_site_type_symbol
_atom_site_label
_atom_site_fract_x
_atom_site_fract_y
_atom_site_fract_z
Si Si1 0.923250 0.201608 0.231550
Si Si2 0.631283 0.642321 0.405074
Si Si3 0.299680 0.025504 0.223734
Si Si4 0.294647 0.538641 0.118744
Si Si5 0.605931 0.891282 0.256904
Si Si6 0.980193 0.719525 0.255602
Si Si7 0.919571 0.988539 0.407072
Si Si8 0.170250 0.143735 0.613649
O O1 0.853748 0.357828 0.234407
O O2 0.900928 0.072099 0.152929
O O3 0.044467 0.256600 0.207632
O O4 0.887098 0.119371 0.337031
O O5 0.717043 0.547361 0.325810
O O6 0.614075 0.821819 0.362254
O O7 0.526926 0.535902 0.431952
O O8 0.672441 0.653724 0.501156
O O9 0.237174 0.010814 0.138327
O O10 0.388085 0.167259 0.204092
O O11 0.222143 0.398420 0.183672
O O12 0.222002 0.694978 0.141707
O O13 0.325901 0.501486 0.004321
O O14 0.544013 0.061557 0.276206
O O15 0.929971 0.807438 0.359165
O O16 0.052437 0.852593 0.184338
#
# Coordination Sequence:
#
# PCOD8055055 Si02
#       8
#     4   4   4   4   4   4   4   4
#     4   9  22  43  60  89 131 161 219 264 322 392
#     4  11  23  40  65  94 129 164 216 268 327 393
#     4  10  21  43  64  88 128 172 206 274 319 386
#     4  10  22  40  66  91 126 169 217 267 324 388
#     4   9  22  43  62  91 127 172 210 266 327 387
#     4  10  21  43  66  87 133 171 210 272 323 383
#     4  11  23  40  64  96 124 169 216 271 326 387
#     4  10  22  42  61  96 126 168 220 260 326 398
#
# _framework density 21.532806999999998
#
# number of rings (size 3 to 8) (size 9 to 14) (size 15 to 20)
#    0.000    2.000    1.250    0.750    5.250    0.000 
#   20.250    0.000    0.000    0.000    0.000    0.000 
#    0.000    0.000    0.000    0.000    0.000    0.000 
#
# Total GULP energy -198321.805251 kJ/mol
# GULP energy per Si atom -12395.112828 kJ/mol
# Density = 2.148380 g / cm^3
# Si number density = 21.532807 Si / 1000 Ang^3
#
#
#
# Elastic Constant Matrix: (Units=GPa)
#
#
# Indices 1 2 3 4 5 6 
#
# 1 110.7775 49.1941 55.4628 0.0000 13.4238 0.0000
# 2 49.1941 65.2674 33.3093 0.0000 2.9716 0.0000
# 3 55.4628 33.3093 126.1394 0.0000 11.0477 0.0000
# 4 0.0000 0.0000 0.0000 27.8824 0.0000 -0.4277
# 5 13.4238 2.9716 11.0477 0.0000 40.4523 0.0000
# 6 0.0000 0.0000 0.0000 -0.4277 0.0000 12.7478
#
#
#
# Elastic Compliance Matrix: (Units=1/GPa)
#
#
# Indices 1 2 3 4 5 6 
#
# 1 0.015770 -0.009645 -0.004089 0.000000 -0.003408 0.000000
# 2 -0.009645 0.023606 -0.002173 0.000000 0.002060 0.000000
# 3 -0.004089 -0.002173 0.010416 0.000000 -0.001328 0.000000
# 4 0.000000 0.000000 0.000000 0.035883 0.000000 0.001204
# 5 -0.003408 0.002060 -0.001328 0.000000 0.026063 0.000000
# 6 0.000000 0.000000 0.000000 0.001204 0.000000 0.078485
#
#
# Mechanical properties :
#
#
# Convention : Reuss Voigt Hill
#
# Bulk Modulus (GPa) = 55.62090 64.23517 59.92804
# Shear Modulus (GPa) = 21.92692 27.16439 24.54566
#
# Velocity S-wave (km/s) = 3.19455 3.55566 3.37993
# Velocity P-wave (km/s) = 6.28440 6.83762 6.56684
#
# Compressibility (1/GPa) = 0.01797885
#
# Stress axis : x y z
#
# Youngs Moduli (GPa) = 63.41080 42.36127 96.00813
#
# Poissons Ratio (x) = 0.40856 0.39255
# Poissons Ratio (y) = 0.61157 0.20867
# Poissons Ratio (z) = 0.25927 0.09207
#
# Static dielectric constant tensor:
#      x y z
#    x 4.511260 0.000000 0.127670 
#    y 0.000000 3.991300 0.000000 
#    z 0.127670 0.000000 3.571040 
# 
# 
# High freq. dielectric constant tensor:
#      x y z
#    x 1.869310 0.000000 0.002100 
#    y 0.000000 1.849580 0.000000 
#    z 0.002100 0.000000 1.821460 
# 
# From -- ./inp_files/17752.got.cif
#   From: 2010.06.25/outbox.cif.g09.slc.cpg/sg9_9_cif.got.tgz:17752.got - 2010.06.27 21:40:51.
