data_PCOD8055661
_publ_section_title
;
Structure prediction by ZEFSAII (Michael W. Deem and Ramdas Pophale) SiO2 
 PCOD8055661
Probable space group: C C
;
_chemical_formula_sum "Si O2"
_cell_formula_units_Z 32
_cell_length_a 6.534204
_cell_length_b 16.669191
_cell_length_c 14.367131
_cell_angle_alpha 90.000000
_cell_angle_beta 64.711169
_cell_angle_gamma 90.000000
_cell_volume 1414.898736
_symmetry_space_group_name_H-M "C C"
_symmetry_group_IT_number 9
_symmetry_cell_setting 'monoclinic'
loop_
_space_group_symop_operation_xyz
x,y,z
x,-y,1/2+z
1/2+x,1/2+y,z
1/2+x,1/2-y,1/2+z
loop_
_atom_site_type_symbol
_atom_site_label
_atom_site_fract_x
_atom_site_fract_y
_atom_site_fract_z
Si Si1 0.552840 0.600786 0.339270
Si Si2 0.311041 0.381083 0.703373
Si Si3 0.650555 0.146072 0.530785
Si Si4 0.253055 0.555600 0.695032
Si Si5 0.417716 0.223844 0.327803
Si Si6 0.161111 0.141009 0.685351
Si Si7 0.532603 0.305429 0.493730
Si Si8 0.786496 0.564488 0.847758
O O1 0.521372 0.604716 0.233649
O O2 0.301364 0.592116 0.432518
O O3 0.679048 0.681772 0.349562
O O4 0.691970 0.523410 0.345082
O O5 0.243459 0.463256 0.663466
O O6 0.361685 0.316919 0.612847
O O7 0.103915 0.346145 0.804463
O O8 0.717843 0.119732 0.620666
O O9 0.373888 0.142865 0.571156
O O10 0.712388 0.238495 0.494334
O O11 0.500007 0.567732 0.689421
O O12 0.057522 0.562442 0.812478
O O13 0.501889 0.280001 0.225347
O O14 0.400078 0.275533 0.426642
O O15 0.264663 0.123975 0.765238
O O16 0.660576 0.390870 0.456672
#
# Coordination Sequence:
#
# PCOD8055661 Si02
#       8
#     4   4   4   4   4   4   4   4
#     4  12  25  44  72 105 136 188 234 289 357 415
#     4  12  24  47  69 103 145 182 234 298 345 423
#     4  11  25  40  70 101 140 175 240 281 347 419
#     4  11  24  44  74  99 138 188 228 291 353 415
#     4  11  25  44  72 100 143 183 232 290 355 416
#     4  10  23  44  68  99 136 184 226 290 345 413
#     4  11  25  47  66 102 147 180 232 299 343 417
#     4  10  23  46  67 103 141 178 240 282 347 424
#
# _framework density 22.616461000000001
#
# number of rings (size 3 to 8) (size 9 to 14) (size 15 to 20)
#    0.000    1.000    5.000    0.750    5.250    0.000 
#    2.250    0.000    0.000    0.000    0.000    0.000 
#    0.000    0.000    0.000    0.000    0.000    0.000 
#
# Total GULP energy -198259.776546 kJ/mol
# GULP energy per Si atom -12391.236034 kJ/mol
# Density = 2.256499 g / cm^3
# Si number density = 22.616461 Si / 1000 Ang^3
#
#
#
# Elastic Constant Matrix: (Units=GPa)
#
#
# Indices 1 2 3 4 5 6 
#
# 1 97.1059 33.5082 47.0886 0.0000 -18.4054 0.0000
# 2 33.5082 98.1170 31.0839 0.0000 -4.4166 0.0000
# 3 47.0886 31.0839 104.0733 0.0000 -13.8476 0.0000
# 4 0.0000 0.0000 0.0000 38.1067 0.0000 0.2931
# 5 -18.4054 -4.4166 -13.8476 0.0000 32.9726 0.0000
# 6 0.0000 0.0000 0.0000 0.2931 0.0000 35.4395
#
#
#
# Elastic Compliance Matrix: (Units=1/GPa)
#
#
# Indices 1 2 3 4 5 6 
#
# 1 0.014957 -0.003256 -0.005023 0.000000 0.005804 0.000000
# 2 -0.003256 0.011966 -0.002256 0.000000 -0.001162 0.000000
# 3 -0.005023 -0.002256 0.012860 0.000000 0.002295 0.000000
# 4 0.000000 0.000000 0.000000 0.026244 0.000000 -0.000217
# 5 0.005804 -0.001162 0.002295 0.000000 0.034376 0.000000
# 6 0.000000 0.000000 0.000000 -0.000217 0.000000 0.028219
#
#
# Mechanical properties :
#
#
# Convention : Reuss Voigt Hill
#
# Bulk Modulus (GPa) = 53.43161 58.07307 55.75234
# Shear Modulus (GPa) = 32.06598 33.81145 32.93871
#
# Velocity S-wave (km/s) = 3.76947 3.87071 3.82043
# Velocity P-wave (km/s) = 6.52852 6.76089 6.64572
#
# Compressibility (1/GPa) = 0.01871551
#
# Stress axis : x y z
#
# Youngs Moduli (GPa) = 66.85775 83.57019 77.75875
#
# Poissons Ratio (x) = 0.27207 0.39057
# Poissons Ratio (y) = 0.21766 0.17539
# Poissons Ratio (z) = 0.33582 0.18849
#
# Static dielectric constant tensor:
#      x y z
#    x 3.960940 0.000000 -0.305260 
#    y 0.000000 4.131980 0.000000 
#    z -0.305260 0.000000 4.050770 
# 
# 
# High freq. dielectric constant tensor:
#      x y z
#    x 1.873290 0.000000 -0.018410 
#    y 0.000000 1.905310 0.000000 
#    z -0.018410 0.000000 1.886030 
# 
# From -- ./inp_files/21941.got.cif
#   From: 2010.06.25/outbox.cif.g09.slc.cpg/sg9_11_cif.got.tgz:21941.got - 2010.06.27 21:40:51.
