data_PCOD8055551
_publ_section_title
;
Structure prediction by ZEFSAII (Michael W. Deem and Ramdas Pophale) SiO2 
 PCOD8055551
Probable space group: C C
;
_chemical_formula_sum "Si O2"
_cell_formula_units_Z 28
_cell_length_a 14.044076
_cell_length_b 16.846160
_cell_length_c 4.855891
_cell_angle_alpha 90.000000
_cell_angle_beta 84.902504
_cell_angle_gamma 90.000000
_cell_volume 1144.305432
_symmetry_space_group_name_H-M "C C"
_symmetry_group_IT_number 9
_symmetry_cell_setting 'monoclinic'
loop_
_space_group_symop_operation_xyz
x,y,z
x,-y,1/2+z
1/2+x,1/2+y,z
1/2+x,1/2-y,1/2+z
loop_
_atom_site_type_symbol
_atom_site_label
_atom_site_fract_x
_atom_site_fract_y
_atom_site_fract_z
Si Si1 0.458690 0.295357 0.608370
Si Si2 0.536389 0.555087 0.333029
Si Si3 0.839211 0.755768 0.118506
Si Si4 0.551833 0.054259 0.497934
Si Si5 0.709415 0.344764 0.957021
Si Si6 0.148763 0.714209 0.383680
Si Si7 0.347162 0.051607 0.702277
O O1 0.455230 0.382569 0.755750
O O2 0.402407 0.301836 0.332676
O O3 0.567416 0.266195 0.555750
O O4 0.403406 0.237106 0.833702
O O5 0.528476 0.523457 0.646654
O O6 0.634768 0.604598 0.297533
O O7 0.801264 0.672065 0.240527
O O8 0.742268 0.800089 0.047832
O O9 0.613593 0.124970 0.351618
O O10 0.444752 0.090862 0.556656
O O11 0.571868 0.021326 0.797737
O O12 0.751656 0.396220 0.194550
O O13 0.669580 0.260966 0.092074
O O14 0.343200 0.029890 0.024321
#
# Coordination Sequence:
#
# PCOD8055551 Si02
#       7
#     4   4   4   4   4   4   4
#     4  12  27  49  74 107 155 200 253 309 370 455
#     4  12  26  46  74 109 158 206 247 310 386 456
#     4  12  27  45  75 110 142 194 262 305 377 436
#     4  10  25  45  70 101 143 192 238 303 384 440
#     4  12  25  45  75 115 145 191 251 318 383 444
#     4  12  27  49  76 112 149 196 256 319 375 453
#     4  10  23  41  66 104 146 183 231 296 375 450
#
# _framework density 24.468993999999999
#
# number of rings (size 3 to 8) (size 9 to 14) (size 15 to 20)
#    0.000    0.571    2.857    4.286    4.000    2.286 
#    0.000    4.286    0.000    0.000    0.000    0.000 
#    0.000    0.000    0.000    0.000    0.000    0.000 
#
# Total GULP energy -173442.507287 kJ/mol
# GULP energy per Si atom -12388.750520 kJ/mol
# Density = 2.441330 g / cm^3
# Si number density = 24.468994 Si / 1000 Ang^3
#
#
#
# Elastic Constant Matrix: (Units=GPa)
#
#
# Indices 1 2 3 4 5 6 
#
# 1 92.3763 18.6843 22.4593 0.0000 5.9122 0.0000
# 2 18.6843 76.9964 20.5100 0.0000 -6.7559 0.0000
# 3 22.4593 20.5100 94.9380 0.0000 5.9741 0.0000
# 4 0.0000 0.0000 0.0000 38.8675 0.0000 1.5544
# 5 5.9122 -6.7559 5.9741 0.0000 39.9524 0.0000
# 6 0.0000 0.0000 0.0000 1.5544 0.0000 35.9774
#
#
#
# Elastic Compliance Matrix: (Units=1/GPa)
#
#
# Indices 1 2 3 4 5 6 
#
# 1 0.011978 -0.002490 -0.002178 0.000000 -0.001868 0.000000
# 2 -0.002490 0.014616 -0.002773 0.000000 0.003255 0.000000
# 3 -0.002178 -0.002773 0.011768 0.000000 -0.001906 0.000000
# 4 0.000000 0.000000 0.000000 0.025773 0.000000 -0.001114
# 5 -0.001868 0.003255 -0.001906 0.000000 0.026142 0.000000
# 6 0.000000 0.000000 0.000000 -0.001114 0.000000 0.027843
#
#
# Mechanical properties :
#
#
# Convention : Reuss Voigt Hill
#
# Bulk Modulus (GPa) = 42.59234 43.06865 42.83049
# Shear Modulus (GPa) = 35.50390 36.46991 35.98690
#
# Velocity S-wave (km/s) = 3.81330 3.86483 3.83915
# Velocity P-wave (km/s) = 6.06900 6.12825 6.09870
#
# Compressibility (1/GPa) = 0.02347840
#
# Stress axis : x y z
#
# Youngs Moduli (GPa) = 83.48572 68.41684 84.97953
#
# Poissons Ratio (x) = 0.17038 0.18509
# Poissons Ratio (y) = 0.20791 0.23568
# Poissons Ratio (z) = 0.18184 0.18974
#
# Static dielectric constant tensor:
#      x y z
#    x 4.633000 0.000000 0.086050 
#    y 0.000000 4.235650 0.000000 
#    z 0.086050 0.000000 4.410330 
# 
# 
# High freq. dielectric constant tensor:
#      x y z
#    x 1.968760 0.000000 0.009420 
#    y 0.000000 1.963150 0.000000 
#    z 0.009420 0.000000 1.987240 
# 
# From -- ./inp_files/2393.got.cif
#   From: 2010.06.25/outbox.cif.g09.slc.cpg/sg9_2_cif.got.tgz:2393.got - 2010.06.27 21:40:51.
