data_PCOD8055693
_publ_section_title
;
Structure prediction by ZEFSAII (Michael W. Deem and Ramdas Pophale) SiO2 
 PCOD8055693
Probable space group: C C
;
_chemical_formula_sum "Si O2"
_cell_formula_units_Z 24
_cell_length_a 7.270383
_cell_length_b 11.295292
_cell_length_c 13.968852
_cell_angle_alpha 90.000000
_cell_angle_beta 75.906811
_cell_angle_gamma 90.000000
_cell_volume 1112.609750
_symmetry_space_group_name_H-M "C C"
_symmetry_group_IT_number 9
_symmetry_cell_setting 'monoclinic'
loop_
_space_group_symop_operation_xyz
x,y,z
x,-y,1/2+z
1/2+x,1/2+y,z
1/2+x,1/2-y,1/2+z
loop_
_atom_site_type_symbol
_atom_site_label
_atom_site_fract_x
_atom_site_fract_y
_atom_site_fract_z
Si Si1 0.192660 0.828603 0.035660
Si Si2 0.872083 0.066737 0.301411
Si Si3 0.887326 0.682925 0.716506
Si Si4 0.291036 0.404820 0.142314
Si Si5 0.190985 0.006392 0.879087
Si Si6 0.297258 0.572677 0.980413
O O1 0.289044 0.842033 0.127112
O O2 0.964931 0.839774 0.068415
O O3 0.214852 0.702910 0.981379
O O4 0.282844 0.927220 0.952429
O O5 0.809324 0.190528 0.263194
O O6 0.869916 0.956034 0.230496
O O7 0.733731 0.020231 0.404701
O O8 0.086993 0.079703 0.314744
O O9 0.844248 0.584514 0.802888
O O10 0.114758 0.684929 0.675985
O O11 0.223302 0.517466 0.088751
O O12 0.027514 0.088352 0.948298
#
# Coordination Sequence:
#
# PCOD8055693 Si02
#       6
#     4   4   4   4   4   4
#     4  11  22  49  68  98 141 174 227 279 328 403
#     4  10  23  45  65 101 138 166 234 277 322 411
#     4  12  25  43  74  97 136 186 214 281 343 388
#     4  11  24  42  68 104 132 177 228 272 336 401
#     4   9  24  43  67 101 135 177 224 279 326 405
#     4   9  22  44  68  95 136 178 217 286 327 396
#
# _framework density 21.570903999999999
#
# number of rings (size 3 to 8) (size 9 to 14) (size 15 to 20)
#    1.000    0.667    3.333    0.000    2.333    5.333 
#    0.000    0.000    0.000    0.000    0.000    0.000 
#    0.000    0.000    0.000    0.000    0.000    0.000 
#
# Total GULP energy -148681.406040 kJ/mol
# GULP energy per Si atom -12390.117170 kJ/mol
# Density = 2.152181 g / cm^3
# Si number density = 21.570904 Si / 1000 Ang^3
#
#
#
# Elastic Constant Matrix: (Units=GPa)
#
#
# Indices 1 2 3 4 5 6 
#
# 1 69.8373 45.6833 38.3223 0.0000 -0.9104 0.0000
# 2 45.6833 124.3380 55.4288 0.0000 6.9306 0.0000
# 3 38.3223 55.4288 107.8042 0.0000 12.9918 0.0000
# 4 0.0000 0.0000 0.0000 47.1314 0.0000 1.6662
# 5 -0.9104 6.9306 12.9918 0.0000 30.3019 0.0000
# 6 0.0000 0.0000 0.0000 1.6662 0.0000 28.1376
#
#
#
# Elastic Compliance Matrix: (Units=1/GPa)
#
#
# Indices 1 2 3 4 5 6 
#
# 1 0.020798 -0.005648 -0.004977 0.000000 0.004051 0.000000
# 2 -0.005648 0.011968 -0.004002 0.000000 -0.001191 0.000000
# 3 -0.004977 -0.004002 0.013720 0.000000 -0.005116 0.000000
# 4 0.000000 0.000000 0.000000 0.021262 0.000000 -0.001259
# 5 0.004051 -0.001191 -0.005116 0.000000 0.035589 0.000000
# 6 0.000000 0.000000 0.000000 -0.001259 0.000000 0.035614
#
#
# Mechanical properties :
#
#
# Convention : Reuss Voigt Hill
#
# Bulk Modulus (GPa) = 58.03713 64.53868 61.28790
# Shear Modulus (GPa) = 28.74388 31.95053 30.34720
#
# Velocity S-wave (km/s) = 3.65434 3.85279 3.75488
# Velocity P-wave (km/s) = 6.69099 7.05523 6.87552
#
# Compressibility (1/GPa) = 0.01723035
#
# Stress axis : x y z
#
# Youngs Moduli (GPa) = 48.08210 83.55311 72.88738
#
# Poissons Ratio (x) = 0.47194 0.36277
# Poissons Ratio (y) = 0.27158 0.29172
# Poissons Ratio (z) = 0.23931 0.33440
#
# Static dielectric constant tensor:
#      x y z
#    x 3.548680 0.000000 0.096430 
#    y 0.000000 3.564730 0.000000 
#    z 0.096430 0.000000 4.042300 
# 
# 
# High freq. dielectric constant tensor:
#      x y z
#    x 1.822180 0.000000 0.010240 
#    y 0.000000 1.834290 0.000000 
#    z 0.010240 0.000000 1.864400 
# 
# From -- ./inp_files/22447.got.cif
#   From: 2010.06.25/outbox.cif.g09.slc.cpg/sg9_12_cif.got.tgz:22447.got - 2010.06.27 21:40:51.
