data_PCOD8055449
_publ_section_title
;
Structure prediction by ZEFSAII (Michael W. Deem and Ramdas Pophale) SiO2 
 PCOD8055449
Probable space group: C C
;
_chemical_formula_sum "Si O2"
_cell_formula_units_Z 28
_cell_length_a 19.364159
_cell_length_b 9.316248
_cell_length_c 9.681872
_cell_angle_alpha 90.000000
_cell_angle_beta 131.606636
_cell_angle_gamma 90.000000
_cell_volume 1305.986555
_symmetry_space_group_name_H-M "C C"
_symmetry_group_IT_number 9
_symmetry_cell_setting 'monoclinic'
loop_
_space_group_symop_operation_xyz
x,y,z
x,-y,1/2+z
1/2+x,1/2+y,z
1/2+x,1/2-y,1/2+z
loop_
_atom_site_type_symbol
_atom_site_label
_atom_site_fract_x
_atom_site_fract_y
_atom_site_fract_z
Si Si1 0.716490 0.964101 0.688460
Si Si2 0.225197 0.213786 0.500847
Si Si3 0.483306 0.078250 0.280196
Si Si4 0.847208 0.199045 0.924699
Si Si5 0.142236 0.663541 0.353266
Si Si6 0.533549 0.174514 0.648798
Si Si7 0.780380 0.395762 0.592126
O O1 0.728987 0.805889 0.645094
O O2 0.654329 0.949351 0.744425
O O3 0.815535 0.035305 0.855098
O O4 0.668118 0.076196 0.524970
O O5 0.315448 0.255051 0.534346
O O6 0.133118 0.248108 0.289284
O O7 0.232862 0.048545 0.556753
O O8 0.534115 0.197468 0.246436
O O9 0.516779 0.089966 0.483023
O O10 0.372787 0.094077 0.121333
O O11 0.516600 0.926249 0.259861
O O12 0.802440 0.318493 0.764681
O O13 0.957521 0.198661 0.057697
O O14 0.204371 0.802343 0.408503
#
# Coordination Sequence:
#
# PCOD8055449 Si02
#       7
#     4   4   4   4   4   4   4
#     4  11  22  40  70  92 132 173 221 259 332 387
#     4  12  23  41  66  99 131 171 216 280 322 385
#     4  11  21  42  67  94 127 181 212 261 328 400
#     4  10  22  45  62  95 134 172 217 270 320 396
#     4  11  22  42  66  98 124 174 219 269 317 399
#     4  11  23  39  71  94 133 171 222 265 329 389
#     4  10  25  41  68  96 133 168 221 272 330 384
#
# _framework density 21.439731999999999
#
# number of rings (size 3 to 8) (size 9 to 14) (size 15 to 20)
#    0.000    1.143    4.286    2.571    2.000    0.000 
#    2.571    1.429    0.000    0.000    0.000    0.000 
#    0.000    0.000    0.000    0.000    0.000    0.000 
#
# Total GULP energy -173500.647142 kJ/mol
# GULP energy per Si atom -12392.903367 kJ/mol
# Density = 2.139093 g / cm^3
# Si number density = 21.439732 Si / 1000 Ang^3
#
#
#
# Elastic Constant Matrix: (Units=GPa)
#
#
# Indices 1 2 3 4 5 6 
#
# 1 140.6130 47.7417 38.6992 0.0000 5.3591 0.0000
# 2 47.7417 116.2020 36.0653 0.0000 14.8432 0.0000
# 3 38.6992 36.0653 58.3915 0.0000 -1.3056 0.0000
# 4 0.0000 0.0000 0.0000 30.0930 0.0000 6.4050
# 5 5.3591 14.8432 -1.3056 0.0000 33.7972 0.0000
# 6 0.0000 0.0000 0.0000 6.4050 0.0000 30.6615
#
#
#
# Elastic Compliance Matrix: (Units=1/GPa)
#
#
# Indices 1 2 3 4 5 6 
#
# 1 0.009195 -0.002223 -0.004736 0.000000 -0.000665 0.000000
# 2 -0.002223 0.012075 -0.006101 0.000000 -0.005186 0.000000
# 3 -0.004736 -0.006101 0.024130 0.000000 0.004362 0.000000
# 4 0.000000 0.000000 0.000000 0.034777 0.000000 -0.007265
# 5 -0.000665 -0.005186 0.004362 0.000000 0.032140 0.000000
# 6 0.000000 0.000000 0.000000 -0.007265 0.000000 0.034132
#
#
# Mechanical properties :
#
#
# Convention : Reuss Voigt Hill
#
# Bulk Modulus (GPa) = 51.86470 62.24654 57.05562
# Shear Modulus (GPa) = 27.93376 31.75705 29.84540
#
# Velocity S-wave (km/s) = 3.61348 3.85284 3.73508
# Velocity P-wave (km/s) = 6.45392 6.99205 6.72837
#
# Compressibility (1/GPa) = 0.01928094
#
# Stress axis : x y z
#
# Youngs Moduli (GPa) = 108.75159 82.81587 41.44196
#
# Poissons Ratio (x) = 0.18411 0.19627
# Poissons Ratio (y) = 0.24176 0.25282
# Poissons Ratio (z) = 0.51504 0.50523
#
# Static dielectric constant tensor:
#      x y z
#    x 4.484480 0.000000 0.332310 
#    y 0.000000 3.837390 0.000000 
#    z 0.332310 0.000000 3.989650 
# 
# 
# High freq. dielectric constant tensor:
#      x y z
#    x 1.865180 0.000000 -0.001240 
#    y 0.000000 1.820290 0.000000 
#    z -0.001240 0.000000 1.833120 
# 
# From -- ./inp_files/11292.got.cif
#   From: 2010.06.25/outbox.cif.g09.slc.cpg/sg9_6_cif.got.tgz:11292.got - 2010.06.27 21:40:51.
