data_PCOD8055943
_publ_section_title
;
Structure prediction by ZEFSAII (Michael W. Deem and Ramdas Pophale) SiO2 
 PCOD8055943
Probable space group: C C
;
_chemical_formula_sum "Si O2"
_cell_formula_units_Z 32
_cell_length_a 11.699914
_cell_length_b 8.181896
_cell_length_c 14.873501
_cell_angle_alpha 90.000000
_cell_angle_beta 60.695933
_cell_angle_gamma 90.000000
_cell_volume 1241.605177
_symmetry_space_group_name_H-M "C C"
_symmetry_group_IT_number 9
_symmetry_cell_setting 'monoclinic'
loop_
_space_group_symop_operation_xyz
x,y,z
x,-y,1/2+z
1/2+x,1/2+y,z
1/2+x,1/2-y,1/2+z
loop_
_atom_site_type_symbol
_atom_site_label
_atom_site_fract_x
_atom_site_fract_y
_atom_site_fract_z
Si Si1 0.012950 0.285152 0.579270
Si Si2 0.328248 0.796880 0.501353
Si Si3 0.283328 0.824370 0.808733
Si Si4 0.700889 0.998979 0.765319
Si Si5 0.774239 0.653647 0.514465
Si Si6 0.192365 0.171268 0.880300
Si Si7 0.431736 0.662950 0.095741
Si Si8 0.083520 0.409441 0.136603
O O1 0.115393 0.145680 0.568620
O O2 0.093808 0.457446 0.551697
O O3 0.962582 0.237708 0.498085
O O4 0.902902 0.315967 0.695414
O O5 0.318452 0.788167 0.396538
O O6 0.213447 0.697294 0.591496
O O7 0.319932 0.983180 0.537459
O O8 0.189751 0.665298 0.828332
O O9 0.332115 0.813570 0.892745
O O10 0.213322 0.001471 0.818246
O O11 0.585393 0.007355 0.734664
O O12 0.666304 0.829377 0.829505
O O13 0.854560 0.990788 0.670406
O O14 0.823648 0.788956 0.563726
O O15 0.070517 0.134215 0.994344
O O16 0.454953 0.796760 0.166510
#
# Coordination Sequence:
#
# PCOD8055943 Si02
#       8
#     4   4   4   4   4   4   4   4
#     4  12  24  48  78 105 158 198 255 323 385 470
#     4  10  24  48  74 110 153 199 258 318 392 460
#     4  11  28  48  75 121 147 209 267 319 395 466
#     4  12  26  50  79 116 159 206 264 318 399 474
#     4  11  26  47  76 111 154 201 260 322 392 461
#     4  10  27  51  77 118 159 202 266 330 393 464
#     4  11  25  49  79 113 160 209 253 331 397 464
#     4  11  24  43  78 110 148 204 257 311 393 461
#
# _framework density 25.77309
#
# number of rings (size 3 to 8) (size 9 to 14) (size 15 to 20)
#    0.000    1.000    3.750    0.750   10.500    0.000 
#    6.750    0.000    0.000    0.000    0.000    0.000 
#    0.000    0.000    0.000    0.000    0.000    0.000 
#
# Total GULP energy -198239.401273 kJ/mol
# GULP energy per Si atom -12389.962580 kJ/mol
# Density = 2.571443 g / cm^3
# Si number density = 25.773090 Si / 1000 Ang^3
#
#
#
# Elastic Constant Matrix: (Units=GPa)
#
#
# Indices 1 2 3 4 5 6 
#
# 1 133.3928 30.2406 38.6156 0.0000 34.9724 0.0000
# 2 30.2406 135.7734 47.9324 0.0000 23.2000 0.0000
# 3 38.6156 47.9324 98.5951 0.0000 3.5225 0.0000
# 4 0.0000 0.0000 0.0000 40.7901 0.0000 7.0722
# 5 34.9724 23.2000 3.5225 0.0000 44.1922 0.0000
# 6 0.0000 0.0000 0.0000 7.0722 0.0000 36.3994
#
#
#
# Elastic Compliance Matrix: (Units=1/GPa)
#
#
# Indices 1 2 3 4 5 6 
#
# 1 0.010820 0.000521 -0.004187 0.000000 -0.008502 0.000000
# 2 0.000521 0.009830 -0.004797 0.000000 -0.005190 0.000000
# 3 -0.004187 -0.004797 0.013946 0.000000 0.004721 0.000000
# 4 0.000000 0.000000 0.000000 0.025370 0.000000 -0.004929
# 5 -0.008502 -0.005190 0.004721 0.000000 0.031705 0.000000
# 6 0.000000 0.000000 0.000000 -0.004929 0.000000 0.028431
#
#
# Mechanical properties :
#
#
# Convention : Reuss Voigt Hill
#
# Bulk Modulus (GPa) = 56.59780 66.81538 61.70659
# Shear Modulus (GPa) = 34.98493 41.00786 37.99640
#
# Velocity S-wave (km/s) = 3.68832 3.99320 3.84378
# Velocity P-wave (km/s) = 6.33608 6.87325 6.61013
#
# Compressibility (1/GPa) = 0.01766853
#
# Stress axis : x y z
#
# Youngs Moduli (GPa) = 92.42349 101.73258 71.70455
#
# Poissons Ratio (x) = -0.05302 0.30025
# Poissons Ratio (y) = -0.04817 0.34400
# Poissons Ratio (z) = 0.38700 0.48806
#
# Static dielectric constant tensor:
#      x y z
#    x 4.793540 0.000000 0.222320 
#    y 0.000000 5.061740 0.000000 
#    z 0.222320 0.000000 4.464300 
# 
# 
# High freq. dielectric constant tensor:
#      x y z
#    x 2.036740 0.000000 0.011050 
#    y 0.000000 2.049360 0.000000 
#    z 0.011050 0.000000 2.016630 
# 
# From -- ./inp_files/24366.got.cif
#   From: 2010.06.25/outbox.cif.g09.slc.cpg/sg9_13_cif.got.tgz:24366.got - 2010.06.27 21:40:51.
