data_PCOD8055754
_publ_section_title
;
Structure prediction by ZEFSAII (Michael W. Deem and Ramdas Pophale) SiO2 
 PCOD8055754
Probable space group: C C
;
_chemical_formula_sum "Si O2"
_cell_formula_units_Z 24
_cell_length_a 18.835171
_cell_length_b 4.879326
_cell_length_c 9.705387
_cell_angle_alpha 90.000000
_cell_angle_beta 69.423561
_cell_angle_gamma 90.000000
_cell_volume 835.050648
_symmetry_space_group_name_H-M "C C"
_symmetry_group_IT_number 9
_symmetry_cell_setting 'monoclinic'
loop_
_space_group_symop_operation_xyz
x,y,z
x,-y,1/2+z
1/2+x,1/2+y,z
1/2+x,1/2-y,1/2+z
loop_
_atom_site_type_symbol
_atom_site_label
_atom_site_fract_x
_atom_site_fract_y
_atom_site_fract_z
Si Si1 0.018520 0.859862 0.654250
Si Si2 0.834080 0.140138 0.487059
Si Si3 0.222479 0.852760 0.747291
Si Si4 0.989834 0.685094 0.962172
Si Si5 0.130121 0.647240 0.394019
Si Si6 0.862766 0.314906 0.179137
O O1 0.002728 0.898311 0.825641
O O2 0.104113 0.746146 0.565794
O O3 0.955900 0.633754 0.628850
O O4 0.009694 0.152136 0.587423
O O5 0.748487 0.253854 0.575515
O O6 0.849872 0.101689 0.315668
O O7 0.896700 0.366246 0.512460
O O8 0.842906 0.847864 0.553886
O O9 0.162945 0.101912 0.781303
O O10 0.302862 0.945032 0.759230
O O11 0.189655 0.601912 0.860007
O O12 0.049738 0.445032 0.882079
#
# Coordination Sequence:
#
# PCOD8055754 Si02
#       6
#     4   4   4   4   4   4
#     4  10  23  46  75 105 141 187 240 293 349 419
#     4  10  23  46  75 105 141 187 240 293 349 419
#     4  12  25  46  69 108 146 186 230 294 355 422
#     4  10  23  46  75 105 141 187 240 293 349 419
#     4  12  25  46  69 108 146 186 230 294 355 422
#     4  10  23  46  75 105 141 187 240 293 349 419
#
# _framework density 28.740770999999999
#
# number of rings (size 3 to 8) (size 9 to 14) (size 15 to 20)
#    0.000    1.333    3.333    1.000    0.000    5.333 
#    0.000    6.667    0.000    0.000    0.000    0.000 
#    0.000    0.000    0.000    0.000    0.000    0.000 
#
# Total GULP energy -148714.637095 kJ/mol
# GULP energy per Si atom -12392.886425 kJ/mol
# Density = 2.867536 g / cm^3
# Si number density = 28.740771 Si / 1000 Ang^3
#
#
#
# Elastic Constant Matrix: (Units=GPa)
#
#
# Indices 1 2 3 4 5 6 
#
# 1 79.4558 36.4499 62.5744 0.0000 -50.5893 0.0000
# 2 36.4499 141.1178 44.0228 0.0000 -32.3204 0.0000
# 3 62.5744 44.0228 152.5253 0.0000 -45.4138 0.0000
# 4 0.0000 0.0000 0.0000 38.9439 0.0000 -20.3204
# 5 -50.5893 -32.3204 -45.4138 0.0000 60.7747 0.0000
# 6 0.0000 0.0000 0.0000 -20.3204 0.0000 44.8550
#
#
#
# Elastic Compliance Matrix: (Units=1/GPa)
#
#
# Indices 1 2 3 4 5 6 
#
# 1 0.031319 -0.001401 -0.006307 0.000000 0.020612 0.000000
# 2 -0.001401 0.008355 -0.001107 0.000000 0.002449 0.000000
# 3 -0.006307 -0.001107 0.009935 0.000000 0.001585 0.000000
# 4 0.000000 0.000000 0.000000 0.033627 0.000000 0.015234
# 5 0.020612 0.002449 0.001585 0.000000 0.036099 0.000000
# 6 0.000000 0.000000 0.000000 0.015234 0.000000 0.029195
#
#
# Mechanical properties :
#
#
# Convention : Reuss Voigt Hill
#
# Bulk Modulus (GPa) = 31.27158 73.24367 52.25762
# Shear Modulus (GPa) = 28.27712 44.25151 36.26432
#
# Velocity S-wave (km/s) = 3.14007 3.92813 3.55600
# Velocity P-wave (km/s) = 4.90417 6.79067 5.92301
#
# Compressibility (1/GPa) = 0.03197792
#
# Stress axis : x y z
#
# Youngs Moduli (GPa) = 31.92906 119.69503 100.64945
#
# Poissons Ratio (x) = 0.16771 0.63483
# Poissons Ratio (y) = 0.04474 0.11144
# Poissons Ratio (z) = 0.20139 0.13253
#
# Static dielectric constant tensor:
#      x y z
#    x 5.278280 0.000000 -0.741500 
#    y 0.000000 5.208540 0.000000 
#    z -0.741500 0.000000 5.901680 
# 
# 
# High freq. dielectric constant tensor:
#      x y z
#    x 2.155920 0.000000 -0.046310 
#    y 0.000000 2.174120 0.000000 
#    z -0.046310 0.000000 2.200400 
# 
# From -- ./inp_files/19620.got.cif
#   From: 2010.06.25/outbox.cif.g09.slc.cpg/sg9_10_cif.got.tgz:19620.got - 2010.06.27 21:40:51.
