data_PCOD8055223
_publ_section_title
;
Structure prediction by ZEFSAII (Michael W. Deem and Ramdas Pophale) SiO2 
 PCOD8055223
Probable space group: C C
;
_chemical_formula_sum "Si O2"
_cell_formula_units_Z 28
_cell_length_a 14.117071
_cell_length_b 4.851264
_cell_length_c 18.374517
_cell_angle_alpha 90.000000
_cell_angle_beta 87.337744
_cell_angle_gamma 90.000000
_cell_volume 1257.032332
_symmetry_space_group_name_H-M "C C"
_symmetry_group_IT_number 9
_symmetry_cell_setting 'monoclinic'
loop_
_space_group_symop_operation_xyz
x,y,z
x,-y,1/2+z
1/2+x,1/2+y,z
1/2+x,1/2-y,1/2+z
loop_
_atom_site_type_symbol
_atom_site_label
_atom_site_fract_x
_atom_site_fract_y
_atom_site_fract_z
Si Si1 0.940980 0.050942 0.805520
Si Si2 0.456921 0.066496 0.168911
Si Si3 0.849495 0.245768 0.943606
Si Si4 0.864486 0.060656 0.103740
Si Si5 0.780675 0.244074 0.374362
Si Si6 0.172233 0.437836 0.684075
Si Si7 0.650414 0.567152 0.276978
O O1 0.856221 0.821711 0.806135
O O2 0.038814 0.890183 0.791591
O O3 0.928533 0.292949 0.746617
O O4 0.938321 0.188954 0.886050
O O5 0.422442 0.275625 0.107040
O O6 0.568408 0.996788 0.155501
O O7 0.403837 0.773811 0.163086
O O8 0.822779 0.563974 0.936989
O O9 0.761964 0.045012 0.918103
O O10 0.880852 0.186659 0.024079
O O11 0.752689 0.006788 0.121403
O O12 0.692495 0.414344 0.345869
O O13 0.191936 0.630038 0.755870
O O14 0.172839 0.118998 0.706030
#
# Coordination Sequence:
#
# PCOD8055223 Si02
#       7
#     4   4   4   4   4   4   4
#     4   9  24  40  68  93 129 162 225 273 310 395
#     4  11  24  42  69  95 128 174 221 267 333 373
#     4  10  24  43  63  93 133 170 217 259 331 389
#     4  12  25  45  65  94 137 176 209 274 328 391
#     4  10  22  40  62  94 126 167 209 264 328 375
#     4  11  25  39  64 101 126 162 222 264 316 399
#     4  11  22  39  65  98 123 161 217 271 320 364
#
# _framework density 22.274683
#
# number of rings (size 3 to 8) (size 9 to 14) (size 15 to 20)
#    0.857    0.571    0.000    5.143   10.000    0.000 
#    5.143    0.000    0.000    0.000    0.000    0.000 
#    0.000    0.000    0.000    0.000    0.000    0.000 
#
# Total GULP energy -173493.917556 kJ/mol
# GULP energy per Si atom -12392.422683 kJ/mol
# Density = 2.222399 g / cm^3
# Si number density = 22.274683 Si / 1000 Ang^3
#
#
#
# Elastic Constant Matrix: (Units=GPa)
#
#
# Indices 1 2 3 4 5 6 
#
# 1 87.9252 21.4288 19.9794 0.0000 7.8430 0.0000
# 2 21.4288 96.6766 -6.5839 0.0000 -0.6707 0.0000
# 3 19.9794 -6.5839 73.3309 0.0000 -7.2904 0.0000
# 4 0.0000 0.0000 0.0000 36.6220 0.0000 8.3757
# 5 7.8430 -0.6707 -7.2904 0.0000 19.2245 0.0000
# 6 0.0000 0.0000 0.0000 8.3757 0.0000 24.8417
#
#
#
# Elastic Compliance Matrix: (Units=1/GPa)
#
#
# Indices 1 2 3 4 5 6 
#
# 1 0.014026 -0.003496 -0.004901 0.000000 -0.007703 0.000000
# 2 -0.003496 0.011289 0.002231 0.000000 0.002666 0.000000
# 3 -0.004901 0.002231 0.015982 0.000000 0.008138 0.000000
# 4 0.000000 0.000000 0.000000 0.029587 0.000000 -0.009976
# 5 -0.007703 0.002666 0.008138 0.000000 0.058339 0.000000
# 6 0.000000 0.000000 0.000000 -0.009976 0.000000 0.043618
#
#
# Mechanical properties :
#
#
# Convention : Reuss Voigt Hill
#
# Bulk Modulus (GPa) = 34.52497 36.39791 35.46144
# Shear Modulus (GPa) = 25.66353 31.01152 28.33753
#
# Velocity S-wave (km/s) = 3.39800 3.73531 3.57064
# Velocity P-wave (km/s) = 5.56134 5.91433 5.74055
#
# Compressibility (1/GPa) = 0.02896455
#
# Stress axis : x y z
#
# Youngs Moduli (GPa) = 71.29506 88.58049 62.57202
#
# Poissons Ratio (x) = 0.30970 0.30668
# Poissons Ratio (y) = 0.24926 -0.13961
# Poissons Ratio (z) = 0.34943 -0.19764
#
# Static dielectric constant tensor:
#      x y z
#    x 3.821890 0.000000 0.083430 
#    y 0.000000 4.156480 0.000000 
#    z 0.083430 0.000000 3.649030 
# 
# 
# High freq. dielectric constant tensor:
#      x y z
#    x 1.856540 0.000000 0.008260 
#    y 0.000000 1.900930 0.000000 
#    z 0.008260 0.000000 1.853020 
# 
# From -- ./inp_files/30312.got.cif
#   From: 2010.06.25/outbox.cif.g09.slc.cpg/sg9_16_cif.got.tgz:30312.got - 2010.06.27 21:40:51.
