data_PCOD8055612
_publ_section_title
;
Structure prediction by ZEFSAII (Michael W. Deem and Ramdas Pophale) SiO2 
 PCOD8055612
Probable space group: C C
;
_chemical_formula_sum "Si O2"
_cell_formula_units_Z 32
_cell_length_a 7.930601
_cell_length_b 10.644224
_cell_length_c 26.494029
_cell_angle_alpha 90.000000
_cell_angle_beta 138.122482
_cell_angle_gamma 90.000000
_cell_volume 1492.951497
_symmetry_space_group_name_H-M "C C"
_symmetry_group_IT_number 9
_symmetry_cell_setting 'monoclinic'
loop_
_space_group_symop_operation_xyz
x,y,z
x,-y,1/2+z
1/2+x,1/2+y,z
1/2+x,1/2-y,1/2+z
loop_
_atom_site_type_symbol
_atom_site_label
_atom_site_fract_x
_atom_site_fract_y
_atom_site_fract_z
Si Si1 0.218970 0.615063 0.084810
Si Si2 0.047358 0.874939 0.016728
Si Si3 0.132792 0.875069 0.592521
Si Si4 0.055844 0.242490 0.347801
Si Si5 0.897200 0.365958 0.001027
Si Si6 0.022698 0.670482 0.262954
Si Si7 0.628748 0.658559 0.255013
Si Si8 0.586697 0.015478 0.366206
O O1 0.073356 0.748968 0.056195
O O2 0.394308 0.606892 0.075316
O O3 0.381679 0.604078 0.172299
O O4 0.026883 0.500226 0.037122
O O5 0.185879 0.848054 0.995725
O O6 0.170210 0.998112 0.069056
O O7 0.751959 0.896854 0.939995
O O8 0.390005 0.863135 0.681116
O O9 0.098365 0.748934 0.550964
O O10 0.243742 0.138546 0.413647
O O11 0.047952 0.240406 0.285184
O O12 0.173021 0.373387 0.393439
O O13 0.769596 0.249923 0.304615
O O14 0.127566 0.547596 0.315735
O O15 0.813201 0.733570 0.255464
O O16 0.791040 0.540785 0.312937
#
# Coordination Sequence:
#
# PCOD8055612 Si02
#       8
#     4   4   4   4   4   4   4   4
#     4  10  25  42  63  98 133 169 224 267 327 403
#     4  11  23  43  65  94 135 173 213 274 330 391
#     4  10  23  43  66  90 136 172 207 277 335 380
#     4  12  23  43  69  94 132 175 220 276 333 389
#     4  11  24  41  63 101 127 170 228 263 328 403
#     4   9  23  45  61  97 130 169 216 278 322 392
#     4   9  24  44  62 100 127 171 223 269 328 397
#     4  10  23  45  63  96 134 169 227 270 325 403
#
# _framework density 21.434051
#
# number of rings (size 3 to 8) (size 9 to 14) (size 15 to 20)
#    0.750    1.000    2.500    0.000    7.000    2.000 
#    2.250    0.000    0.000    0.000    0.000    0.000 
#    0.000    0.000    0.000    0.000    0.000    0.000 
#
# Total GULP energy -198219.308640 kJ/mol
# GULP energy per Si atom -12388.706790 kJ/mol
# Density = 2.138527 g / cm^3
# Si number density = 21.434051 Si / 1000 Ang^3
#
#
#
# Elastic Constant Matrix: (Units=GPa)
#
#
# Indices 1 2 3 4 5 6 
#
# 1 65.9821 19.6794 28.2101 0.0000 -0.7632 0.0000
# 2 19.6794 126.5677 47.0813 0.0000 11.0643 0.0000
# 3 28.2101 47.0813 150.1377 0.0000 12.2762 0.0000
# 4 0.0000 0.0000 0.0000 23.1309 0.0000 -1.3898
# 5 -0.7632 11.0643 12.2762 0.0000 28.8407 0.0000
# 6 0.0000 0.0000 0.0000 -1.3898 0.0000 19.5675
#
#
#
# Elastic Compliance Matrix: (Units=1/GPa)
#
#
# Indices 1 2 3 4 5 6 
#
# 1 0.016917 -0.001789 -0.002808 0.000000 0.002329 0.000000
# 2 -0.001789 0.009286 -0.002363 0.000000 -0.002604 0.000000
# 3 -0.002808 -0.002363 0.008144 0.000000 -0.002635 0.000000
# 4 0.000000 0.000000 0.000000 0.043418 0.000000 0.003084
# 5 0.002329 -0.002604 -0.002635 0.000000 0.036855 0.000000
# 6 0.000000 0.000000 0.000000 0.003084 0.000000 0.051324
#
#
# Mechanical properties :
#
#
# Convention : Reuss Voigt Hill
#
# Bulk Modulus (GPa) = 48.95527 59.18100 54.06814
# Shear Modulus (GPa) = 26.78479 30.82225 28.80352
#
# Velocity S-wave (km/s) = 3.53886 3.79622 3.66979
# Velocity P-wave (km/s) = 6.29186 6.84731 6.57546
#
# Compressibility (1/GPa) = 0.02042681
#
# Stress axis : x y z
#
# Youngs Moduli (GPa) = 59.11296 107.69285 122.78246
#
# Poissons Ratio (x) = 0.19271 0.34476
# Poissons Ratio (y) = 0.10578 0.29010
# Poissons Ratio (z) = 0.16598 0.25445
#
# Static dielectric constant tensor:
#      x y z
#    x 3.704870 0.000000 -0.029830 
#    y 0.000000 3.664950 0.000000 
#    z -0.029830 0.000000 4.008020 
# 
# 
# High freq. dielectric constant tensor:
#      x y z
#    x 1.826910 0.000000 0.000210 
#    y 0.000000 1.817230 0.000000 
#    z 0.000210 0.000000 1.862240 
# 
# From -- ./inp_files/36343.got.cif
#   From: 2010.06.25/outbox.cif.g09.slc.cpg/sg9_19_cif.got.tgz:36343.got - 2010.06.27 21:40:51.
