data_PCOD8055637
_publ_section_title
;
Structure prediction by ZEFSAII (Michael W. Deem and Ramdas Pophale) SiO2 
 PCOD8055637
Probable space group: C C
;
_chemical_formula_sum "Si O2"
_cell_formula_units_Z 28
_cell_length_a 7.920073
_cell_length_b 29.113029
_cell_length_c 7.098145
_cell_angle_alpha 90.000000
_cell_angle_beta 137.311116
_cell_angle_gamma 90.000000
_cell_volume 1109.691031
_symmetry_space_group_name_H-M "C C"
_symmetry_group_IT_number 9
_symmetry_cell_setting 'monoclinic'
loop_
_space_group_symop_operation_xyz
x,y,z
x,-y,1/2+z
1/2+x,1/2+y,z
1/2+x,1/2-y,1/2+z
loop_
_atom_site_type_symbol
_atom_site_label
_atom_site_fract_x
_atom_site_fract_y
_atom_site_fract_z
Si Si1 0.938140 0.632871 0.963540
Si Si2 0.150006 0.726977 0.082601
Si Si3 0.478754 0.367126 0.358885
Si Si4 0.208425 0.899426 0.911183
Si Si5 0.155407 0.552774 0.654450
Si Si6 0.261402 0.552767 0.167822
Si Si7 0.266844 0.273022 0.239742
O O1 0.858348 0.633098 0.676998
O O2 0.131741 0.674580 0.140361
O O3 0.708453 0.640544 0.911223
O O4 0.078573 0.585372 0.139755
O O5 0.208423 0.730055 0.911170
O O6 0.877864 0.751157 0.891239
O O7 0.338309 0.414623 0.182641
O O8 0.285146 0.325419 0.182015
O O9 0.558472 0.366895 0.645377
O O10 0.367292 0.932521 0.898680
O O11 0.049537 0.932538 0.923578
O O12 0.208406 0.500004 0.661129
O O13 0.208327 0.564933 0.911090
O O14 0.538975 0.248839 0.431094
#
# Coordination Sequence:
#
# PCOD8055637 Si02
#       7
#     4   4   4   4   4   4   4
#     4  11  26  43  68 102 133 181 230 284 349 417
#     4  10  23  43  73 103 141 187 235 291 357 423
#     4  11  26  43  68 102 133 181 230 284 349 417
#     4  10  24  44  66  90 144 172 224 288 346 412
#     4  10  24  41  66  97 132 178 228 282 348 413
#     4  10  24  41  66  97 132 178 228 282 348 413
#     4  10  23  43  73 103 141 187 235 291 357 423
#
# _framework density 25.232247000000001
#
# number of rings (size 3 to 8) (size 9 to 14) (size 15 to 20)
#    0.000    1.714    0.000    2.571   16.000    3.429 
#    0.000    0.000    0.000    0.000    0.000    0.000 
#    0.000    0.000    0.000    0.000    0.000    0.000 
#
# Total GULP energy -173545.997734 kJ/mol
# GULP energy per Si atom -12396.142695 kJ/mol
# Density = 2.517482 g / cm^3
# Si number density = 25.232247 Si / 1000 Ang^3
#
#
#
# Elastic Constant Matrix: (Units=GPa)
#
#
# Indices 1 2 3 4 5 6 
#
# 1 88.6679 31.8332 31.3193 0.0000 30.9486 0.0000
# 2 31.8332 187.3044 44.1296 0.0000 28.1843 0.0000
# 3 31.3193 44.1296 99.8138 0.0000 26.9017 0.0000
# 4 0.0000 0.0000 0.0000 30.9957 0.0000 10.1505
# 5 30.9486 28.1843 26.9017 0.0000 39.0222 0.0000
# 6 0.0000 0.0000 0.0000 10.1505 0.0000 30.6503
#
#
#
# Elastic Compliance Matrix: (Units=1/GPa)
#
#
# Indices 1 2 3 4 5 6 
#
# 1 0.015965 -0.000645 -0.001765 0.000000 -0.010979 0.000000
# 2 -0.000645 0.006298 -0.001835 0.000000 -0.002772 0.000000
# 3 -0.001765 -0.001835 0.013079 0.000000 -0.006292 0.000000
# 4 0.000000 0.000000 0.000000 0.036187 0.000000 -0.011984
# 5 -0.010979 -0.002772 -0.006292 0.000000 0.040674 0.000000
# 6 0.000000 0.000000 0.000000 -0.011984 0.000000 0.036595
#
#
# Mechanical properties :
#
#
# Convention : Reuss Voigt Hill
#
# Bulk Modulus (GPa) = 37.24118 65.59448 51.41783
# Shear Modulus (GPa) = 30.07700 38.03391 34.05545
#
# Velocity S-wave (km/s) = 3.45629 3.88668 3.67778
# Velocity P-wave (km/s) = 5.54250 6.79665 6.20136
#
# Compressibility (1/GPa) = 0.02685199
#
# Stress axis : x y z
#
# Youngs Moduli (GPa) = 62.63553 158.78045 76.45560
#
# Poissons Ratio (x) = 0.10249 0.13495
# Poissons Ratio (y) = 0.04043 0.14028
# Poissons Ratio (z) = 0.11056 0.29134
#
# Static dielectric constant tensor:
#      x y z
#    x 5.899530 0.000000 1.062780 
#    y 0.000000 4.982110 0.000000 
#    z 1.062780 0.000000 5.216910 
# 
# 
# High freq. dielectric constant tensor:
#      x y z
#    x 2.020390 0.000000 0.011570 
#    y 0.000000 2.003930 0.000000 
#    z 0.011570 0.000000 2.004170 
# 
# From -- ./inp_files/1035.got.cif
#   From: 2010.06.25/outbox.cif.g09.slc.cpg/sg9_1_cif.got.tgz:1035.got - 2010.06.27 21:40:51.
