data_PCOD8055499
_publ_section_title
;
Structure prediction by ZEFSAII (Michael W. Deem and Ramdas Pophale) SiO2 
 PCOD8055499
Probable space group: C C
;
_chemical_formula_sum "Si O2"
_cell_formula_units_Z 28
_cell_length_a 18.533985
_cell_length_b 6.601390
_cell_length_c 11.537857
_cell_angle_alpha 90.000000
_cell_angle_beta 58.599095
_cell_angle_gamma 90.000000
_cell_volume 1204.909796
_symmetry_space_group_name_H-M "C C"
_symmetry_group_IT_number 9
_symmetry_cell_setting 'monoclinic'
loop_
_space_group_symop_operation_xyz
x,y,z
x,-y,1/2+z
1/2+x,1/2+y,z
1/2+x,1/2-y,1/2+z
loop_
_atom_site_type_symbol
_atom_site_label
_atom_site_fract_x
_atom_site_fract_y
_atom_site_fract_z
Si Si1 0.672850 0.260634 0.151470
Si Si2 0.762310 0.591569 0.364153
Si Si3 0.917239 0.724337 0.353748
Si Si4 0.831399 0.771191 0.661760
Si Si5 0.104969 0.890487 0.852547
Si Si6 0.553125 0.090170 0.703282
Si Si7 0.984386 0.960880 0.643018
O O1 0.745777 0.154609 0.169396
O O2 0.609528 0.390395 0.285104
O O3 0.625670 0.079345 0.121294
O O4 0.709216 0.427239 0.029447
O O5 0.837014 0.746639 0.333975
O O6 0.805396 0.386340 0.283387
O O7 0.698749 0.671065 0.318878
O O8 0.893503 0.695981 0.507520
O O9 0.963299 0.515743 0.287663
O O10 0.975602 0.920484 0.274223
O O11 0.888316 0.938035 0.677695
O O12 0.075267 0.704051 0.801979
O O13 0.037492 0.900493 0.012125
O O14 0.539191 0.254427 0.612707
#
# Coordination Sequence:
#
# PCOD8055499 Si02
#       7
#     4   4   4   4   4   4   4
#     4  10  24  45  67 104 138 182 245 288 344 431
#     4  10  22  47  69  97 142 185 233 294 346 413
#     4  11  25  43  69 106 141 181 244 283 348 431
#     4  10  23  46  68 102 142 186 232 291 354 413
#     4  11  25  43  69 101 142 185 235 292 351 419
#     4  12  24  43  71 101 140 185 233 294 344 415
#     4  12  25  45  69 105 143 190 234 292 349 420
#
# _framework density 23.238254000000001
#
# number of rings (size 3 to 8) (size 9 to 14) (size 15 to 20)
#    0.000    1.143    1.429    4.286    4.000    3.429 
#   12.857    0.000    0.000    0.000    0.000    0.000 
#    0.000    0.000    0.000    0.000    0.000    0.000 
#
# Total GULP energy -173443.273786 kJ/mol
# GULP energy per Si atom -12388.805270 kJ/mol
# Density = 2.318536 g / cm^3
# Si number density = 23.238254 Si / 1000 Ang^3
#
#
#
# Elastic Constant Matrix: (Units=GPa)
#
#
# Indices 1 2 3 4 5 6 
#
# 1 132.0043 38.5970 29.1699 0.0000 4.1602 0.0001
# 2 38.5970 79.5908 41.2945 0.0000 -2.2615 0.0004
# 3 29.1699 41.2945 115.4728 0.0000 -9.7656 0.0000
# 4 0.0000 0.0000 0.0000 30.5287 0.0000 8.6515
# 5 4.1602 -2.2615 -9.7656 0.0000 30.7014 0.0000
# 6 0.0001 0.0004 0.0000 8.6515 0.0000 41.1883
#
#
#
# Elastic Compliance Matrix: (Units=1/GPa)
#
#
# Indices 1 2 3 4 5 6 
#
# 1 0.008996 -0.003874 -0.001042 0.000000 -0.001836 0.000000
# 2 -0.003874 0.017107 -0.005126 0.000000 0.000155 0.000000
# 3 -0.001042 -0.005126 0.011033 0.000000 0.003273 0.000000
# 4 0.000000 0.000000 0.000000 0.034829 0.000000 -0.007316
# 5 -0.001836 0.000155 0.003273 0.000000 0.033873 0.000000
# 6 0.000000 0.000000 0.000000 -0.007316 0.000000 0.025815
#
#
# Mechanical properties :
#
#
# Convention : Reuss Voigt Hill
#
# Bulk Modulus (GPa) = 58.64514 60.57673 59.61093
# Shear Modulus (GPa) = 31.76148 35.01743 33.38945
#
# Velocity S-wave (km/s) = 3.70100 3.88608 3.79467
# Velocity P-wave (km/s) = 6.59958 6.80145 6.70128
#
# Compressibility (1/GPa) = 0.01705171
#
# Stress axis : x y z
#
# Youngs Moduli (GPa) = 111.15449 58.45603 90.63473
#
# Poissons Ratio (x) = 0.22646 0.09449
# Poissons Ratio (y) = 0.43062 0.46459
# Poissons Ratio (z) = 0.11588 0.29964
#
# Static dielectric constant tensor:
#      x y z
#    x 4.697500 0.000000 0.015740 
#    y 0.000000 3.822740 0.000000 
#    z 0.015740 0.000000 4.098770 
# 
# 
# High freq. dielectric constant tensor:
#      x y z
#    x 1.956670 0.000000 -0.001350 
#    y 0.000000 1.887700 0.000000 
#    z -0.001350 0.000000 1.912790 
# 
# From -- ./inp_files/19645.got.cif
#   From: 2010.06.25/outbox.cif.g09.slc.cpg/sg9_10_cif.got.tgz:19645.got - 2010.06.27 21:40:51.
