data_PCOD8055798
_publ_section_title
;
Structure prediction by ZEFSAII (Michael W. Deem and Ramdas Pophale) SiO2 
 PCOD8055798
Probable space group: C C
;
_chemical_formula_sum "Si O2"
_cell_formula_units_Z 32
_cell_length_a 6.735446
_cell_length_b 28.110424
_cell_length_c 7.611976
_cell_angle_alpha 90.000000
_cell_angle_beta 72.373838
_cell_angle_gamma 90.000000
_cell_volume 1373.561126
_symmetry_space_group_name_H-M "C C"
_symmetry_group_IT_number 9
_symmetry_cell_setting 'monoclinic'
loop_
_space_group_symop_operation_xyz
x,y,z
x,-y,1/2+z
1/2+x,1/2+y,z
1/2+x,1/2-y,1/2+z
loop_
_atom_site_type_symbol
_atom_site_label
_atom_site_fract_x
_atom_site_fract_y
_atom_site_fract_z
Si Si1 0.231640 0.737357 0.817110
Si Si2 0.623897 0.535999 0.138633
Si Si3 0.374762 0.314173 0.947310
Si Si4 0.952129 0.597223 0.163812
Si Si5 0.312120 0.547993 0.911526
Si Si6 0.367157 0.422654 0.022349
Si Si7 0.586182 0.805274 0.700159
Si Si8 0.482233 0.033409 0.489792
O O1 0.224113 0.708682 0.635715
O O2 0.463252 0.757753 0.785046
O O3 0.072894 0.781124 0.860891
O O4 0.191545 0.700269 0.982207
O O5 0.479160 0.470496 0.507913
O O6 0.475133 0.543420 0.347801
O O7 0.770906 0.582785 0.074017
O O8 0.772473 0.489251 0.130113
O O9 0.438142 0.367927 0.981439
O O10 0.257099 0.317481 0.796195
O O11 0.922313 0.651216 0.232511
O O12 0.914919 0.560126 0.331557
O O13 0.186699 0.592969 0.024265
O O14 0.435420 0.561104 0.699792
O O15 0.139553 0.509313 0.904392
O O16 0.113678 0.428961 0.074886
#
# Coordination Sequence:
#
# PCOD8055798 Si02
#       8
#     4   4   4   4   4   4   4   4
#     4  10  24  40  68 103 129 171 218 269 342 415
#     4  11  26  45  67  95 139 180 227 285 334 389
#     4  11  22  44  70  99 136 171 219 275 339 403
#     4  11  23  45  69  99 134 178 228 280 334 400
#     4  11  24  46  66  95 139 180 226 282 334 391
#     4  12  25  46  71 100 134 183 233 276 337 404
#     4  11  21  43  68  96 136 170 215 276 336 397
#     4  11  25  45  65  97 135 181 230 279 336 391
#
# _framework density 23.297104000000001
#
# number of rings (size 3 to 8) (size 9 to 14) (size 15 to 20)
#    0.000    1.000    2.500    3.750    1.750    0.000 
#    9.000    6.250    0.000    0.000    0.000    0.000 
#    0.000    0.000    0.000    0.000    0.000    0.000 
#
# Total GULP energy -198343.057297 kJ/mol
# GULP energy per Si atom -12396.441081 kJ/mol
# Density = 2.324408 g / cm^3
# Si number density = 23.297104 Si / 1000 Ang^3
#
#
#
# Elastic Constant Matrix: (Units=GPa)
#
#
# Indices 1 2 3 4 5 6 
#
# 1 68.7807 20.2546 37.0596 0.0000 -8.2123 0.0000
# 2 20.2546 104.9300 50.8106 0.0000 1.5656 0.0000
# 3 37.0596 50.8106 141.9873 0.0000 3.7018 0.0000
# 4 0.0000 0.0000 0.0000 17.5444 0.0000 -18.6310
# 5 -8.2123 1.5656 3.7018 0.0000 26.5233 0.0000
# 6 0.0000 0.0000 0.0000 -18.6310 0.0000 18.4773
#
#
#
# Elastic Compliance Matrix: (Units=1/GPa)
#
#
# Indices 1 2 3 4 5 6 
#
# 1 0.018069 -0.001474 -0.004353 0.000000 0.006289 0.000000
# 2 -0.001474 0.011648 -0.003768 0.000000 -0.000618 0.000000
# 3 -0.004353 -0.003768 0.009591 0.000000 -0.002464 0.000000
# 4 0.000000 0.000000 0.000000 -0.805325 0.000000 -0.812027
# 5 0.006289 -0.000618 -0.002464 0.000000 0.040030 0.000000
# 6 0.000000 0.000000 0.000000 -0.812027 0.000000 -0.764664
#
#
# Mechanical properties :
#
#
# Convention : Reuss Voigt Hill
#
# Bulk Modulus (GPa) = 49.70063 59.10530 54.40296
# Shear Modulus (GPa) = -3.41354 26.34720 11.46683
#
# Velocity S-wave (km/s) = -1.21178 3.36657 2.22096
# Velocity P-wave (km/s) = 4.40702 6.36687 5.47535
#
# Compressibility (1/GPa) = 0.02012047
#
# Stress axis : x y z
#
# Youngs Moduli (GPa) = 55.34270 85.84964 104.25985
#
# Poissons Ratio (x) = 0.12654 0.45381
# Poissons Ratio (y) = 0.08158 0.39280
# Poissons Ratio (z) = 0.24089 0.32344
#
# Static dielectric constant tensor:
#      x y z
#    x 4.347590 0.000000 -0.142100 
#    y 0.000000 4.310380 0.000000 
#    z -0.142100 0.000000 4.318370 
# 
# 
# High freq. dielectric constant tensor:
#      x y z
#    x 1.925540 0.000000 -0.003790 
#    y 0.000000 1.922390 0.000000 
#    z -0.003790 0.000000 1.924820 
# 
# From -- ./inp_files/6353.got.cif
#   From: 2010.06.25/outbox.cif.g09.slc.cpg/sg9_4_cif.got.tgz:6353.got - 2010.06.27 21:40:51.
