data_PCOD8055770
_publ_section_title
;
Structure prediction by ZEFSAII (Michael W. Deem and Ramdas Pophale) SiO2 
 PCOD8055770
Probable space group: C C
;
_chemical_formula_sum "Si O2"
_cell_formula_units_Z 28
_cell_length_a 9.047648
_cell_length_b 12.912419
_cell_length_c 13.487881
_cell_angle_alpha 90.000000
_cell_angle_beta 44.937897
_cell_angle_gamma 90.000000
_cell_volume 1113.014419
_symmetry_space_group_name_H-M "C C"
_symmetry_group_IT_number 9
_symmetry_cell_setting 'monoclinic'
loop_
_space_group_symop_operation_xyz
x,y,z
x,-y,1/2+z
1/2+x,1/2+y,z
1/2+x,1/2-y,1/2+z
loop_
_atom_site_type_symbol
_atom_site_label
_atom_site_fract_x
_atom_site_fract_y
_atom_site_fract_z
Si Si1 0.559440 0.703867 0.242650
Si Si2 0.238428 0.349260 0.749425
Si Si3 0.436418 0.023748 0.514378
Si Si4 0.456365 0.693610 0.781775
Si Si5 0.607748 0.506520 0.819669
Si Si6 0.514181 0.804025 0.459056
Si Si7 0.542185 0.468172 0.074861
O O1 0.420878 0.722260 0.210359
O O2 0.516969 0.584586 0.293208
O O3 0.468220 0.782177 0.366273
O O4 0.806804 0.728559 0.116572
O O5 0.341886 0.455699 0.663144
O O6 0.057994 0.375679 0.916997
O O7 0.130868 0.283532 0.712470
O O8 0.243073 0.985852 0.535628
O O9 0.342088 0.039464 0.670044
O O10 0.583309 0.923374 0.443231
O O11 0.470282 0.609867 0.865695
O O12 0.489440 0.639525 0.657576
O O13 0.229666 0.751856 0.892578
O O14 0.607530 0.456686 0.928789
#
# Coordination Sequence:
#
# PCOD8055770 Si02
#       7
#     4   4   4   4   4   4   4
#     4  11  26  46  72 107 153 206 255 316 400 462
#     4  12  25  49  79 111 154 205 264 325 390 480
#     4  10  23  49  71 103 157 201 259 322 393 466
#     4  11  26  47  80 115 153 200 269 324 392 473
#     4  10  24  47  74 105 161 203 254 326 396 462
#     4  11  24  45  69 107 156 193 259 322 380 477
#     4  11  24  49  73 114 154 206 260 325 391 468
#
# _framework density 25.156907
#
# number of rings (size 3 to 8) (size 9 to 14) (size 15 to 20)
#    0.000    1.143    5.714    0.000    6.000    6.857 
#    5.143    0.000    0.000    0.000    0.000    0.000 
#    0.000    0.000    0.000    0.000    0.000    0.000 
#
# Total GULP energy -173460.474263 kJ/mol
# GULP energy per Si atom -12390.033876 kJ/mol
# Density = 2.509965 g / cm^3
# Si number density = 25.156907 Si / 1000 Ang^3
#
#
#
# Elastic Constant Matrix: (Units=GPa)
#
#
# Indices 1 2 3 4 5 6 
#
# 1 110.9498 43.7185 48.8470 0.0000 -8.9898 0.0000
# 2 43.7185 69.3966 53.2280 -0.0004 -6.0287 0.0001
# 3 48.8470 53.2280 116.0796 -0.0011 -0.3075 0.0004
# 4 0.0000 -0.0004 -0.0011 25.6032 0.0004 -4.4308
# 5 -8.9898 -6.0287 -0.3075 0.0004 43.4093 -0.0002
# 6 0.0000 0.0001 0.0004 -4.4308 -0.0002 43.4481
#
#
#
# Elastic Compliance Matrix: (Units=1/GPa)
#
#
# Indices 1 2 3 4 5 6 
#
# 1 0.012590 -0.005732 -0.002665 0.000000 0.001792 0.000000
# 2 -0.005732 0.025239 -0.009155 0.000000 0.002253 0.000000
# 3 -0.002665 -0.009155 0.013930 0.000001 -0.001725 0.000000
# 4 0.000000 0.000000 0.000001 0.039759 0.000000 0.004055
# 5 0.001792 0.002253 -0.001725 0.000000 0.023708 0.000000
# 6 0.000000 0.000000 0.000000 0.004055 0.000000 0.023429
#
#
# Mechanical properties :
#
#
# Convention : Reuss Voigt Hill
#
# Bulk Modulus (GPa) = 60.04310 65.33477 62.68893
# Shear Modulus (GPa) = 27.88447 32.53430 30.20938
#
# Velocity S-wave (km/s) = 3.33291 3.60009 3.46907
# Velocity P-wave (km/s) = 6.22337 6.58089 6.40462
#
# Compressibility (1/GPa) = 0.01665470
#
# Stress axis : x y z
#
# Youngs Moduli (GPa) = 79.42723 39.62164 71.78876
#
# Poissons Ratio (x) = 0.22710 0.19132
# Poissons Ratio (y) = 0.45526 0.65724
# Poissons Ratio (z) = 0.21167 0.36275
#
# Static dielectric constant tensor:
#      x y z
#    x 4.389760 0.000000 -0.028480 
#    y 0.000000 4.305730 0.000000 
#    z -0.028480 0.000000 4.688040 
# 
# 
# High freq. dielectric constant tensor:
#      x y z
#    x 1.990480 0.000000 -0.011020 
#    y 0.000000 1.995720 0.000000 
#    z -0.011020 0.000000 2.008980 
# 
# From -- ./inp_files/23331.got.cif
#   From: 2010.06.25/outbox.cif.g09.slc.cpg/sg9_12_cif.got.tgz:23331.got - 2010.06.27 21:40:51.
