data_PCOD8055305
_publ_section_title
;
Structure prediction by ZEFSAII (Michael W. Deem and Ramdas Pophale) SiO2 
 PCOD8055305
Probable space group: C C
;
_chemical_formula_sum "Si O2"
_cell_formula_units_Z 32
_cell_length_a 11.063458
_cell_length_b 14.550431
_cell_length_c 16.853749
_cell_angle_alpha 90.000000
_cell_angle_beta 32.957977
_cell_angle_gamma 90.000000
_cell_volume 1475.982302
_symmetry_space_group_name_H-M "C C"
_symmetry_group_IT_number 9
_symmetry_cell_setting 'monoclinic'
loop_
_space_group_symop_operation_xyz
x,y,z
x,-y,1/2+z
1/2+x,1/2+y,z
1/2+x,1/2-y,1/2+z
loop_
_atom_site_type_symbol
_atom_site_label
_atom_site_fract_x
_atom_site_fract_y
_atom_site_fract_z
Si Si1 0.589250 0.037871 0.627860
Si Si2 0.272448 0.346303 0.169397
Si Si3 0.590091 0.519086 0.583357
Si Si4 0.394112 0.569846 0.853266
Si Si5 0.730128 0.665499 0.778637
Si Si6 0.648406 0.219719 0.904480
Si Si7 0.463280 0.124153 0.295517
Si Si8 0.950311 0.166364 0.087935
O O1 0.626459 0.108478 0.680322
O O2 0.380085 0.074888 0.694812
O O3 0.809241 0.015909 0.454157
O O4 0.500077 0.938977 0.700229
O O5 0.416812 0.429409 0.122920
O O6 0.137565 0.300170 0.315989
O O7 0.415182 0.264252 0.053762
O O8 0.542738 0.526250 0.702280
O O9 0.825253 0.568525 0.438369
O O10 0.580402 0.412262 0.564860
O O11 0.539561 0.646193 0.819109
O O12 0.183930 0.623435 0.930882
O O13 0.912726 0.744034 0.661558
O O14 0.603468 0.690829 0.929047
O O15 0.850323 0.284869 0.822149
O O16 0.701230 0.140646 0.202094
#
# Coordination Sequence:
#
# PCOD8055305 Si02
#       8
#     4   4   4   4   4   4   4   4
#     4  12  25  45  64  95 143 179 216 278 343 407
#     4  10  22  42  66  95 129 170 220 269 339 389
#     4  10  23  42  69  99 129 174 223 276 334 401
#     4  11  24  44  69 103 130 173 234 276 334 405
#     4  12  28  43  68 103 137 180 227 280 348 399
#     4  10  22  41  70  99 124 168 227 278 321 402
#     4  11  21  42  72  92 134 174 220 277 334 396
#     4  12  25  45  68 100 138 176 227 282 337 405
#
# _framework density 21.680477
#
# number of rings (size 3 to 8) (size 9 to 14) (size 15 to 20)
#    0.000    1.000    5.000    0.750    5.250    1.000 
#    0.000    0.000    0.000    0.000    0.000    0.000 
#    0.000    0.000    0.000    0.000    0.000    0.000 
#
# Total GULP energy -198332.475240 kJ/mol
# GULP energy per Si atom -12395.779703 kJ/mol
# Density = 2.163113 g / cm^3
# Si number density = 21.680477 Si / 1000 Ang^3
#
#
#
# Elastic Constant Matrix: (Units=GPa)
#
#
# Indices 1 2 3 4 5 6 
#
# 1 57.2161 23.4335 38.4973 0.0020 22.9327 -0.0004
# 2 23.4335 118.0650 43.6540 -0.0119 25.6570 0.0077
# 3 38.4973 43.6540 119.3315 -0.0056 37.0445 0.0133
# 4 0.0020 -0.0119 -0.0056 49.6365 -0.0011 6.5456
# 5 22.9327 25.6570 37.0445 -0.0011 40.5639 -0.0027
# 6 -0.0004 0.0077 0.0133 6.5456 -0.0027 35.6180
#
#
#
# Elastic Compliance Matrix: (Units=1/GPa)
#
#
# Indices 1 2 3 4 5 6 
#
# 1 0.024745 -0.001218 -0.004792 -0.000002 -0.008843 0.000002
# 2 -0.001218 0.010364 -0.002201 0.000002 -0.003856 -0.000002
# 3 -0.004792 -0.002201 0.013200 0.000002 -0.007953 -0.000005
# 4 -0.000002 0.000002 0.000002 0.020647 -0.000002 -0.003794
# 5 -0.008843 -0.003856 -0.007953 -0.000002 0.039354 0.000007
# 6 0.000002 -0.000002 -0.000005 -0.003794 0.000007 0.028773
#
#
# Mechanical properties :
#
#
# Convention : Reuss Voigt Hill
#
# Bulk Modulus (GPa) = 31.36151 56.19803 43.77977
# Shear Modulus (GPa) = 30.46281 37.76552 34.11416
#
# Velocity S-wave (km/s) = 3.75251 4.17815 3.97104
# Velocity P-wave (km/s) = 5.76817 7.01806 6.42359
#
# Compressibility (1/GPa) = 0.03188622
#
# Stress axis : x y z
#
# Youngs Moduli (GPa) = 40.41198 96.49223 75.75573
#
# Poissons Ratio (x) = 0.11751 0.36305
# Poissons Ratio (y) = 0.04921 0.16675
# Poissons Ratio (z) = 0.19367 0.21240
#
# Static dielectric constant tensor:
#      x y z
#    x 3.756550 0.000060 0.106710 
#    y 0.000060 3.695560 -0.000070 
#    z 0.106710 -0.000070 4.084430 
# 
# 
# High freq. dielectric constant tensor:
#      x y z
#    x 1.842190 0.000000 0.007960 
#    y 0.000000 1.858120 0.000000 
#    z 0.007960 0.000000 1.859570 
# 
# From -- ./inp_files/7386.got.cif
#   From: 2010.06.25/outbox.cif.g09.slc.cpg/sg9_4_cif.got.tgz:7386.got - 2010.06.27 21:40:51.
