data_PCOD8055316
_publ_section_title
;
Structure prediction by ZEFSAII (Michael W. Deem and Ramdas Pophale) SiO2 
 PCOD8055316
Probable space group: C C
;
_chemical_formula_sum "Si O2"
_cell_formula_units_Z 28
_cell_length_a 11.070287
_cell_length_b 8.486831
_cell_length_c 26.477129
_cell_angle_alpha 90.000000
_cell_angle_beta 148.480799
_cell_angle_gamma 90.000000
_cell_volume 1300.462518
_symmetry_space_group_name_H-M "C C"
_symmetry_group_IT_number 9
_symmetry_cell_setting 'monoclinic'
loop_
_space_group_symop_operation_xyz
x,y,z
x,-y,1/2+z
1/2+x,1/2+y,z
1/2+x,1/2-y,1/2+z
loop_
_atom_site_type_symbol
_atom_site_label
_atom_site_fract_x
_atom_site_fract_y
_atom_site_fract_z
Si Si1 0.653540 0.750031 0.097530
Si Si2 0.125439 0.374216 0.292228
Si Si3 0.523170 0.406546 0.947389
Si Si4 0.908583 0.337718 0.593258
Si Si5 0.188984 0.866068 0.904710
Si Si6 0.798732 0.090349 0.747792
Si Si7 0.596475 0.400284 0.083033
O O1 0.854290 0.744354 0.127429
O O2 0.775358 0.788677 0.193732
O O3 0.514984 0.582828 0.051250
O O4 0.462605 0.883135 0.014767
O O5 0.259110 0.534123 0.355082
O O6 0.167459 0.242812 0.348610
O O7 0.217124 0.320127 0.269627
O O8 0.856790 0.409917 0.194950
O O9 0.566306 0.298454 0.912904
O O10 0.693585 0.556192 0.999714
O O11 0.584601 0.322895 0.022374
O O12 0.143404 0.435578 0.682680
O O13 0.935976 0.199539 0.562302
O O14 0.065138 0.032567 0.847390
#
# Coordination Sequence:
#
# PCOD8055316 Si02
#       7
#     4   4   4   4   4   4   4
#     4  11  23  45  62  96 132 166 211 270 316 378
#     4  11  20  40  67  91 126 170 209 259 322 372
#     4  10  22  42  63  89 130 171 205 264 319 378
#     4  11  21  41  66  91 127 169 209 256 322 380
#     4  11  21  40  69  92 125 172 214 260 318 381
#     4  11  23  41  67  91 130 172 212 259 323 379
#     4  11  22  41  68  94 130 168 210 266 324 376
#
# _framework density 21.530801
#
# number of rings (size 3 to 8) (size 9 to 14) (size 15 to 20)
#    0.000    1.143    8.571    0.000    0.000    1.143 
#    7.714    2.857    3.143    0.000    0.000    0.000 
#    0.000    0.000    0.000    0.000    0.000    0.000 
#
# Total GULP energy -173524.064916 kJ/mol
# GULP energy per Si atom -12394.576065 kJ/mol
# Density = 2.148180 g / cm^3
# Si number density = 21.530801 Si / 1000 Ang^3
#
#
#
# Elastic Constant Matrix: (Units=GPa)
#
#
# Indices 1 2 3 4 5 6 
#
# 1 147.1849 59.6215 30.3806 0.0000 -34.7265 0.0000
# 2 59.6215 47.5491 6.9181 0.0000 -16.9595 0.0000
# 3 30.3806 6.9181 83.0646 0.0000 -22.9516 0.0000
# 4 0.0000 0.0000 0.0000 27.5279 0.0000 -2.6659
# 5 -34.7265 -16.9595 -22.9516 0.0000 43.6210 0.0000
# 6 0.0000 0.0000 0.0000 -2.6659 0.0000 47.4873
#
#
#
# Elastic Compliance Matrix: (Units=1/GPa)
#
#
# Indices 1 2 3 4 5 6 
#
# 1 0.015458 -0.017561 -0.003133 0.000000 0.003830 0.000000
# 2 -0.017561 0.044400 0.004250 0.000000 0.005518 0.000000
# 3 -0.003133 0.004250 0.014741 0.000000 0.006914 0.000000
# 4 0.000000 0.000000 0.000000 0.036525 0.000000 0.002050
# 5 0.003830 0.005518 0.006914 0.000000 0.031758 0.000000
# 6 0.000000 0.000000 0.000000 0.002050 0.000000 0.021173
#
#
# Mechanical properties :
#
#
# Convention : Reuss Voigt Hill
#
# Bulk Modulus (GPa) = 23.97417 52.40434 38.18925
# Shear Modulus (GPa) = 23.71384 35.78579 29.74981
#
# Velocity S-wave (km/s) = 3.32232 4.08128 3.72120
# Velocity P-wave (km/s) = 5.08686 6.82651 6.01985
#
# Compressibility (1/GPa) = 0.04171156
#
# Stress axis : x y z
#
# Youngs Moduli (GPa) = 64.69142 22.52247 67.83692
#
# Poissons Ratio (x) = 0.39551 0.21252
# Poissons Ratio (y) = 1.13603 -0.28828
# Poissons Ratio (z) = 0.20267 -0.09571
#
# Static dielectric constant tensor:
#      x y z
#    x 4.157330 0.000000 -0.167450 
#    y 0.000000 3.580490 0.000000 
#    z -0.167450 0.000000 4.249110 
# 
# 
# High freq. dielectric constant tensor:
#      x y z
#    x 1.856600 0.000000 -0.016450 
#    y 0.000000 1.791700 0.000000 
#    z -0.016450 0.000000 1.870040 
# 
# From -- ./inp_files/24047.got.cif
#   From: 2010.06.25/outbox.cif.g09.slc.cpg/sg9_13_cif.got.tgz:24047.got - 2010.06.27 21:40:51.
