data_PCOD8055207
_publ_section_title
;
Structure prediction by ZEFSAII (Michael W. Deem and Ramdas Pophale) SiO2 
 PCOD8055207
Probable space group: C C
;
_chemical_formula_sum "Si O2"
_cell_formula_units_Z 28
_cell_length_a 19.690150
_cell_length_b 5.190888
_cell_length_c 13.280648
_cell_angle_alpha 90.000000
_cell_angle_beta 107.872093
_cell_angle_gamma 90.000000
_cell_volume 1291.903558
_symmetry_space_group_name_H-M "C C"
_symmetry_group_IT_number 9
_symmetry_cell_setting 'monoclinic'
loop_
_space_group_symop_operation_xyz
x,y,z
x,-y,1/2+z
1/2+x,1/2+y,z
1/2+x,1/2-y,1/2+z
loop_
_atom_site_type_symbol
_atom_site_label
_atom_site_fract_x
_atom_site_fract_y
_atom_site_fract_z
Si Si1 0.771270 0.076910 0.171940
Si Si2 0.647525 0.177542 0.982848
Si Si3 0.365392 0.685829 0.568031
Si Si4 0.177266 0.751122 0.771650
Si Si5 0.926648 0.321849 0.021026
Si Si6 0.311082 0.085192 0.854372
Si Si7 0.084193 0.175242 0.047228
O O1 0.824422 0.276565 0.252520
O O2 0.816390 0.837829 0.145827
O O3 0.716690 0.979742 0.231963
O O4 0.727597 0.229274 0.063937
O O5 0.644872 0.158140 0.861828
O O6 0.593199 0.400166 0.995597
O O7 0.628542 0.892596 0.010645
O O8 0.408477 0.421486 0.580928
O O9 0.314242 0.707597 0.446939
O O10 0.420489 0.928355 0.593108
O O11 0.112238 0.856746 0.674085
O O12 0.231492 0.979188 0.819154
O O13 0.003425 0.274685 0.008454
O O14 0.871489 0.365439 0.902157
#
# Coordination Sequence:
#
# PCOD8055207 Si02
#       7
#     4   4   4   4   4   4   4
#     4  11  22  40  67 107 133 177 225 286 352 400
#     4  11  25  41  71  97 136 179 224 285 334 414
#     4  10  24  41  69  95 140 174 222 283 345 401
#     4  11  25  42  67 104 132 177 228 286 338 416
#     4  10  23  46  66  96 140 178 227 286 330 420
#     4  10  22  39  69  98 134 175 224 284 341 402
#     4  11  25  47  69  95 139 184 228 276 348 401
#
# _framework density 21.673442000000001
#
# number of rings (size 3 to 8) (size 9 to 14) (size 15 to 20)
#    0.857    0.571    1.429    3.429    8.000    0.000 
#    2.571    0.000    0.000    0.000    0.000    0.000 
#    0.000    0.000    0.000    0.000    0.000    0.000 
#
# Total GULP energy -173535.300851 kJ/mol
# GULP energy per Si atom -12395.378632 kJ/mol
# Density = 2.162411 g / cm^3
# Si number density = 21.673442 Si / 1000 Ang^3
#
#
#
# Elastic Constant Matrix: (Units=GPa)
#
#
# Indices 1 2 3 4 5 6 
#
# 1 86.0788 26.2155 41.5616 0.0000 -2.6533 0.0000
# 2 26.2155 113.6494 21.4023 0.0000 -7.6536 0.0000
# 3 41.5616 21.4023 107.0963 0.0000 -16.8911 0.0000
# 4 0.0000 0.0000 0.0000 23.1194 0.0000 -5.4866
# 5 -2.6533 -7.6536 -16.8911 0.0000 25.6082 0.0000
# 6 0.0000 0.0000 0.0000 -5.4866 0.0000 39.2247
#
#
#
# Elastic Compliance Matrix: (Units=1/GPa)
#
#
# Indices 1 2 3 4 5 6 
#
# 1 0.015132 -0.002597 -0.005835 0.000000 -0.003057 0.000000
# 2 -0.002597 0.009656 -0.000568 0.000000 0.002242 0.000000
# 3 -0.005835 -0.000568 0.012939 0.000000 0.007760 0.000000
# 4 0.000000 0.000000 0.000000 0.044739 0.000000 0.006258
# 5 -0.003057 0.002242 0.007760 0.000000 0.044522 0.000000
# 6 0.000000 0.000000 0.000000 0.006258 0.000000 0.026369
#
#
# Mechanical properties :
#
#
# Convention : Reuss Voigt Hill
#
# Bulk Modulus (GPa) = 50.69592 53.90923 52.30257
# Shear Modulus (GPa) = 28.10027 32.10014 30.10020
#
# Velocity S-wave (km/s) = 3.60464 3.85266 3.73071
# Velocity P-wave (km/s) = 6.38484 6.68715 6.53774
#
# Compressibility (1/GPa) = 0.01972545
#
# Stress axis : x y z
#
# Youngs Moduli (GPa) = 66.08705 103.56140 77.28309
#
# Poissons Ratio (x) = 0.26899 0.45097
# Poissons Ratio (y) = 0.17165 0.04390
# Poissons Ratio (z) = 0.38564 0.05883
#
# Static dielectric constant tensor:
#      x y z
#    x 3.726200 0.000000 0.062260 
#    y 0.000000 3.847630 0.000000 
#    z 0.062260 0.000000 4.052290 
# 
# 
# High freq. dielectric constant tensor:
#      x y z
#    x 1.826460 0.000000 -0.004920 
#    y 0.000000 1.860050 0.000000 
#    z -0.004920 0.000000 1.848880 
# 
# From -- ./inp_files/19556.got.cif
#   From: 2010.06.25/outbox.cif.g09.slc.cpg/sg9_10_cif.got.tgz:19556.got - 2010.06.27 21:40:51.
