data_PCOD8055784
_publ_section_title
;
Structure prediction by ZEFSAII (Michael W. Deem and Ramdas Pophale) SiO2 
 PCOD8055784
Probable space group: C C
;
_chemical_formula_sum "Si O2"
_cell_formula_units_Z 24
_cell_length_a 8.684040
_cell_length_b 17.910398
_cell_length_c 10.175943
_cell_angle_alpha 90.000000
_cell_angle_beta 136.254222
_cell_angle_gamma 90.000000
_cell_volume 1094.381314
_symmetry_space_group_name_H-M "C C"
_symmetry_group_IT_number 9
_symmetry_cell_setting 'monoclinic'
loop_
_space_group_symop_operation_xyz
x,y,z
x,-y,1/2+z
1/2+x,1/2+y,z
1/2+x,1/2-y,1/2+z
loop_
_atom_site_type_symbol
_atom_site_label
_atom_site_fract_x
_atom_site_fract_y
_atom_site_fract_z
Si Si1 0.195020 0.907883 0.418430
Si Si2 0.129160 0.322944 0.663550
Si Si3 0.814673 0.927342 0.579265
Si Si4 0.575187 0.652749 0.577626
Si Si5 0.273745 0.077291 0.457409
Si Si6 0.752088 0.939917 0.244809
O O1 0.388582 0.848627 0.569357
O O2 0.122068 0.906628 0.220855
O O3 0.968951 0.887044 0.360082
O O4 0.282808 0.990371 0.507100
O O5 0.172884 0.355942 0.543148
O O6 0.144830 0.234245 0.669969
O O7 0.316520 0.352136 0.879164
O O8 0.725278 0.956677 0.384801
O O9 0.079396 0.908564 0.730086
O O10 0.792797 0.986123 0.685090
O O11 0.731730 0.630883 0.554005
O O12 0.520067 0.097685 0.553441
#
# Coordination Sequence:
#
# PCOD8055784 Si02
#       6
#     4   4   4   4   4   4
#     4  11  24  40  66 103 139 176 232 287 344 410
#     4  11  22  44  72  93 137 186 236 276 351 430
#     4  10  24  40  64 102 134 183 226 288 346 406
#     4  11  24  44  72  99 132 189 232 283 349 418
#     4  10  24  39  68  99 134 175 233 289 336 407
#     4  11  24  39  66  98 142 175 231 293 338 403
#
# _framework density 21.930198000000001
#
# number of rings (size 3 to 8) (size 9 to 14) (size 15 to 20)
#    0.000    1.333    3.333    1.000   14.000    1.333 
#    0.000    1.667    0.000    0.000    0.000    0.000 
#    0.000    0.000    0.000    0.000    0.000    0.000 
#
# Total GULP energy -148750.666919 kJ/mol
# GULP energy per Si atom -12395.888910 kJ/mol
# Density = 2.188028 g / cm^3
# Si number density = 21.930198 Si / 1000 Ang^3
#
#
#
# Elastic Constant Matrix: (Units=GPa)
#
#
# Indices 1 2 3 4 5 6 
#
# 1 123.1559 24.1531 33.0281 0.0000 46.6720 0.0000
# 2 24.1531 70.8009 0.1014 0.0000 10.9688 0.0000
# 3 33.0281 0.1014 74.9257 0.0000 16.0979 0.0000
# 4 0.0000 0.0000 0.0000 18.3183 0.0000 0.1195
# 5 46.6720 10.9688 16.0979 0.0000 45.1627 0.0000
# 6 0.0000 0.0000 0.0000 0.1195 0.0000 30.6866
#
#
#
# Elastic Compliance Matrix: (Units=1/GPa)
#
#
# Indices 1 2 3 4 5 6 
#
# 1 0.014648 -0.002959 -0.003633 0.000000 -0.013124 0.000000
# 2 -0.002959 0.015319 0.001544 0.000000 -0.001214 0.000000
# 3 -0.003633 0.001544 0.015399 0.000000 -0.002109 0.000000
# 4 0.000000 0.000000 0.000000 0.054592 0.000000 -0.000213
# 5 -0.013124 -0.001214 -0.002109 0.000000 0.036751 0.000000
# 6 0.000000 0.000000 0.000000 -0.000213 0.000000 0.032588
#
#
# Mechanical properties :
#
#
# Convention : Reuss Voigt Hill
#
# Bulk Modulus (GPa) = 28.35198 42.60531 35.47865
# Shear Modulus (GPa) = 26.15754 32.94021 29.54887
#
# Velocity S-wave (km/s) = 3.45739 3.87983 3.67468
# Velocity P-wave (km/s) = 5.37535 6.28814 5.84957
#
# Compressibility (1/GPa) = 0.03527091
#
# Stress axis : x y z
#
# Youngs Moduli (GPa) = 68.26933 65.27751 64.93830
#
# Poissons Ratio (x) = 0.19313 0.23594
# Poissons Ratio (y) = 0.20198 -0.10028
# Poissons Ratio (z) = 0.24804 -0.10080
#
# Static dielectric constant tensor:
#      x y z
#    x 4.328450 0.000000 0.445950 
#    y 0.000000 3.721520 0.000000 
#    z 0.445950 0.000000 4.092370 
# 
# 
# High freq. dielectric constant tensor:
#      x y z
#    x 1.863000 0.000000 0.029460 
#    y 0.000000 1.828550 0.000000 
#    z 0.029460 0.000000 1.874570 
# 
# From -- ./inp_files/5705.got.cif
#   From: 2010.06.25/outbox.cif.g09.slc.cpg/sg9_3_cif.got.tgz:5705.got - 2010.06.27 21:40:51.
