data_PCOD8055361
_publ_section_title
;
Structure prediction by ZEFSAII (Michael W. Deem and Ramdas Pophale) SiO2 
 PCOD8055361
Probable space group: C C
;
_chemical_formula_sum "Si O2"
_cell_formula_units_Z 28
_cell_length_a 17.575355
_cell_length_b 5.497831
_cell_length_c 19.425231
_cell_angle_alpha 90.000000
_cell_angle_beta 142.797045
_cell_angle_gamma 90.000000
_cell_volume 1134.902880
_symmetry_space_group_name_H-M "C C"
_symmetry_group_IT_number 9
_symmetry_cell_setting 'monoclinic'
loop_
_space_group_symop_operation_xyz
x,y,z
x,-y,1/2+z
1/2+x,1/2+y,z
1/2+x,1/2-y,1/2+z
loop_
_atom_site_type_symbol
_atom_site_label
_atom_site_fract_x
_atom_site_fract_y
_atom_site_fract_z
Si Si1 0.059500 0.579689 0.308600
Si Si2 0.812998 0.015276 0.927779
Si Si3 0.874480 0.950075 0.228007
Si Si4 0.090051 0.214000 0.447501
Si Si5 0.840212 0.706812 0.584312
Si Si6 0.698397 0.787768 0.214419
Si Si7 0.067598 0.217001 0.589566
O O1 0.186815 0.628103 0.358140
O O2 0.087812 0.466485 0.403466
O O3 0.984125 0.823827 0.263696
O O4 0.971205 0.413758 0.196863
O O5 0.791962 0.191492 0.846968
O O6 0.859195 0.187018 0.022623
O O7 0.917166 0.809112 0.987755
O O8 0.777470 0.781702 0.199922
O O9 0.803454 0.097891 0.117753
O O10 0.950356 0.104433 0.339530
O O11 0.207135 0.055229 0.496664
O O12 0.113134 0.248453 0.544641
O O13 0.626674 0.529471 0.165603
O O14 0.610225 0.030292 0.155883
#
# Coordination Sequence:
#
# PCOD8055361 Si02
#       7
#     4   4   4   4   4   4   4
#     4  10  24  44  73 107 145 190 250 306 364 450
#     4  11  26  48  71 108 151 194 241 309 377 435
#     4  11  23  42  74 108 137 196 252 307 351 455
#     4  10  22  42  71 104 143 189 248 297 372 426
#     4  10  22  46  69 103 146 192 244 305 371 435
#     4  12  28  48  75 110 149 191 255 300 366 439
#     4  12  27  48  75 108 149 198 238 308 369 440
#
# _framework density 24.671716
#
# number of rings (size 3 to 8) (size 9 to 14) (size 15 to 20)
#    0.000    1.143    2.857    1.714    6.000    3.429 
#   10.286    0.000    0.000    0.000    0.000    0.000 
#    0.000    0.000    0.000    0.000    0.000    0.000 
#
# Total GULP energy -173482.367451 kJ/mol
# GULP energy per Si atom -12391.597675 kJ/mol
# Density = 2.461556 g / cm^3
# Si number density = 24.671716 Si / 1000 Ang^3
#
#
#
# Elastic Constant Matrix: (Units=GPa)
#
#
# Indices 1 2 3 4 5 6 
#
# 1 115.6286 14.6282 31.1925 0.0007 10.3951 -0.0022
# 2 14.6282 76.6064 23.1772 0.0018 0.8900 0.0016
# 3 31.1925 23.1772 116.7161 0.0003 -7.6763 -0.0015
# 4 0.0007 0.0018 0.0003 -3.8385 0.0001 14.4290
# 5 10.3951 0.8900 -7.6763 0.0001 59.8401 0.0001
# 6 -0.0022 0.0016 -0.0015 14.4290 0.0001 27.4790
#
#
#
# Elastic Compliance Matrix: (Units=1/GPa)
#
#
# Indices 1 2 3 4 5 6 
#
# 1 0.009633 -0.001062 -0.002494 0.000001 -0.001978 0.000000
# 2 -0.001062 0.014024 -0.002524 0.000001 -0.000348 -0.000001
# 3 -0.002494 -0.002524 0.009849 0.000000 0.001734 0.000000
# 4 0.000001 0.000001 0.000000 -0.087603 0.000000 0.046000
# 5 -0.001978 -0.000348 0.001734 0.000000 0.017282 0.000000
# 6 0.000000 -0.000001 0.000000 0.046000 0.000000 0.012237
#
#
# Mechanical properties :
#
#
# Convention : Reuss Voigt Hill
#
# Bulk Modulus (GPa) = 46.84365 49.66077 48.25221
# Shear Modulus (GPa) = -943.05536 32.69300 -455.18118
#
# Velocity S-wave (km/s) = -19.57221 3.64417 -13.59763
# Velocity P-wave (km/s) = 22.17507 6.15459 15.06411
#
# Compressibility (1/GPa) = 0.02134761
#
# Stress axis : x y z
#
# Youngs Moduli (GPa) = 103.80742 71.30535 101.52815
#
# Poissons Ratio (x) = 0.07573 0.25318
# Poissons Ratio (y) = 0.11025 0.25625
# Poissons Ratio (z) = 0.25886 0.17997
#
# Static dielectric constant tensor:
#      x y z
#    x 4.442350 0.000000 0.140330 
#    y 0.000000 4.152410 0.000000 
#    z 0.140330 0.000000 4.914830 
# 
# 
# High freq. dielectric constant tensor:
#      x y z
#    x 1.999700 0.000000 0.007560 
#    y 0.000000 1.942960 0.000000 
#    z 0.007560 0.000000 2.011310 
# 
# From -- ./inp_files/18831.got.cif
#   From: 2010.06.25/outbox.cif.g09.slc.cpg/sg9_10_cif.got.tgz:18831.got - 2010.06.27 21:40:51.
