data_PCOD8055843
_publ_section_title
;
Structure prediction by ZEFSAII (Michael W. Deem and Ramdas Pophale) SiO2 
 PCOD8055843
Probable space group: C C
;
_chemical_formula_sum "Si O2"
_cell_formula_units_Z 28
_cell_length_a 17.460749
_cell_length_b 8.275236
_cell_length_c 8.533367
_cell_angle_alpha 90.000000
_cell_angle_beta 118.558349
_cell_angle_gamma 90.000000
_cell_volume 1082.983295
_symmetry_space_group_name_H-M "C C"
_symmetry_group_IT_number 9
_symmetry_cell_setting 'monoclinic'
loop_
_space_group_symop_operation_xyz
x,y,z
x,-y,1/2+z
1/2+x,1/2+y,z
1/2+x,1/2-y,1/2+z
loop_
_atom_site_type_symbol
_atom_site_label
_atom_site_fract_x
_atom_site_fract_y
_atom_site_fract_z
Si Si1 0.322780 0.043386 0.012840
Si Si2 0.537473 0.690419 0.889433
Si Si3 0.226516 0.275899 0.099682
Si Si4 0.030676 0.137206 0.526348
Si Si5 0.226696 0.171881 0.629234
Si Si6 0.190719 0.562947 0.878683
Si Si7 0.002500 0.548027 0.800122
O O1 0.312765 0.169899 0.150451
O O2 0.248772 0.910457 0.981263
O O3 0.418646 0.967641 0.105710
O O4 0.303096 0.125466 0.826192
O O5 0.506654 0.665809 0.681691
O O6 0.491675 0.540512 0.938336
O O7 0.514207 0.878510 0.910110
O O8 0.640523 0.664349 0.022407
O O9 0.238050 0.374489 0.270199
O O10 0.215206 0.377123 0.927100
O O11 0.133850 0.125124 0.606414
O O12 0.990767 0.292002 0.395646
O O13 0.224362 0.358714 0.575495
O O14 0.085461 0.578507 0.767027
#
# Coordination Sequence:
#
# PCOD8055843 Si02
#       7
#     4   4   4   4   4   4   4
#     4  12  24  43  69 105 147 182 239 316 382 434
#     4  11  25  42  73 100 141 199 253 299 372 460
#     4  11  22  42  73 104 141 194 259 309 372 456
#     4  11  23  47  71 105 139 197 250 310 354 476
#     4  11  22  41  68 100 138 187 242 296 371 449
#     4  10  24  43  72 105 141 201 253 303 367 471
#     4  10  28  44  74 107 153 190 250 313 394 442
#
# _framework density 25.854507000000002
#
# number of rings (size 3 to 8) (size 9 to 14) (size 15 to 20)
#    0.000    1.143    2.857    1.714   16.000    0.000 
#    2.571    1.429    0.000    0.000    0.000    0.000 
#    0.000    0.000    0.000    0.000    0.000    0.000 
#
# Total GULP energy -173438.742163 kJ/mol
# GULP energy per Si atom -12388.481583 kJ/mol
# Density = 2.579566 g / cm^3
# Si number density = 25.854507 Si / 1000 Ang^3
#
#
#
# Elastic Constant Matrix: (Units=GPa)
#
#
# Indices 1 2 3 4 5 6 
#
# 1 50.0692 12.4899 24.5253 0.0000 1.1292 0.0000
# 2 12.4899 148.9486 41.1145 0.0000 -11.6502 0.0000
# 3 24.5253 41.1145 113.5224 0.0000 13.4807 0.0000
# 4 0.0000 0.0000 0.0000 36.0737 0.0000 2.8804
# 5 1.1292 -11.6502 13.4807 0.0000 28.6884 0.0000
# 6 0.0000 0.0000 0.0000 2.8804 0.0000 25.1474
#
#
#
# Elastic Compliance Matrix: (Units=1/GPa)
#
#
# Indices 1 2 3 4 5 6 
#
# 1 0.022420 -0.000456 -0.004821 0.000000 0.001198 0.000000
# 2 -0.000456 0.008076 -0.003408 0.000000 0.004899 0.000000
# 3 -0.004821 -0.003408 0.011890 0.000000 -0.006781 0.000000
# 4 0.000000 0.000000 0.000000 0.027977 0.000000 -0.003204
# 5 0.001198 0.004899 -0.006781 0.000000 0.039986 0.000000
# 6 0.000000 0.000000 0.000000 -0.003204 0.000000 0.040133
#
#
# Mechanical properties :
#
#
# Convention : Reuss Voigt Hill
#
# Bulk Modulus (GPa) = 39.97308 52.08884 46.03096
# Shear Modulus (GPa) = 28.37841 33.60927 30.99384
#
# Velocity S-wave (km/s) = 3.31663 3.60938 3.46610
# Velocity P-wave (km/s) = 5.49191 6.12869 5.81901
#
# Compressibility (1/GPa) = 0.02501683
#
# Stress axis : x y z
#
# Youngs Moduli (GPa) = 44.60220 123.82564 84.10454
#
# Poissons Ratio (x) = 0.05642 0.40546
# Poissons Ratio (y) = 0.02032 0.28664
# Poissons Ratio (z) = 0.21502 0.42202
#
# Static dielectric constant tensor:
#      x y z
#    x 4.265690 0.000000 -0.138990 
#    y 0.000000 5.251060 0.000000 
#    z -0.138990 0.000000 4.252810 
# 
# 
# High freq. dielectric constant tensor:
#      x y z
#    x 2.001190 0.000000 -0.018260 
#    y 0.000000 2.060730 0.000000 
#    z -0.018260 0.000000 2.022260 
# 
# From -- ./inp_files/11206.got.cif
#   From: 2010.06.25/outbox.cif.g09.slc.cpg/sg9_6_cif.got.tgz:11206.got - 2010.06.27 21:40:51.
