data_PCOD8055312
_publ_section_title
;
Structure prediction by ZEFSAII (Michael W. Deem and Ramdas Pophale) SiO2 
 PCOD8055312
Probable space group: C C
;
_chemical_formula_sum "Si O2"
_cell_formula_units_Z 32
_cell_length_a 7.104218
_cell_length_b 29.465255
_cell_length_c 8.118034
_cell_angle_alpha 90.000000
_cell_angle_beta 59.245703
_cell_angle_gamma 90.000000
_cell_volume 1460.348671
_symmetry_space_group_name_H-M "C C"
_symmetry_group_IT_number 9
_symmetry_cell_setting 'monoclinic'
loop_
_space_group_symop_operation_xyz
x,y,z
x,-y,1/2+z
1/2+x,1/2+y,z
1/2+x,1/2-y,1/2+z
loop_
_atom_site_type_symbol
_atom_site_label
_atom_site_fract_x
_atom_site_fract_y
_atom_site_fract_z
Si Si1 0.528360 0.370642 0.880140
Si Si2 0.710532 0.305508 0.036331
Si Si3 0.068726 0.552652 0.904363
Si Si4 0.428522 0.150230 0.988916
Si Si5 0.868088 0.742180 0.169110
Si Si6 0.528534 0.460239 0.057957
Si Si7 0.609301 0.186378 0.585221
Si Si8 0.307270 0.020681 0.723886
O O1 0.634490 0.354862 0.009167
O O2 0.680226 0.362260 0.652541
O O3 0.496999 0.423311 0.928934
O O4 0.294584 0.348671 0.945300
O O5 0.689886 0.276320 0.875587
O O6 0.518327 0.277207 0.212806
O O7 0.950735 0.303083 0.003521
O O8 0.077320 0.605590 0.961494
O O9 0.944664 0.552701 0.783726
O O10 0.309372 0.532918 0.762648
O O11 0.953886 0.522088 0.095708
O O12 0.448365 0.162303 0.787960
O O13 0.501037 0.196744 0.048906
O O14 0.726171 0.767378 0.091429
O O15 0.723457 0.450693 0.103727
O O16 0.596294 0.504468 0.923833
#
# Coordination Sequence:
#
# PCOD8055312 Si02
#       8
#     4   4   4   4   4   4   4   4
#     4  10  23  41  60  91 127 160 211 265 311 375
#     4  10  23  38  62  89 120 165 211 256 315 373
#     4  11  22  42  66  94 126 167 208 260 321 375
#     4  11  22  41  66  89 129 167 209 262 315 369
#     4  10  22  42  60  91 126 163 214 260 314 372
#     4  11  21  41  63  89 127 162 207 262 316 374
#     4  11  23  43  64  88 127 171 204 269 314 369
#     4  10  24  40  65  93 126 167 208 258 318 387
#
# _framework density 21.912573999999999
#
# number of rings (size 3 to 8) (size 9 to 14) (size 15 to 20)
#    0.000    1.500    3.750    0.750    3.500    0.000 
#    0.000    3.750    0.000    0.000    0.000    0.000 
#    0.000    0.000    0.000    0.000    0.000    0.000 
#
# Total GULP energy -198209.094540 kJ/mol
# GULP energy per Si atom -12388.068409 kJ/mol
# Density = 2.186270 g / cm^3
# Si number density = 21.912574 Si / 1000 Ang^3
#
#
#
# Elastic Constant Matrix: (Units=GPa)
#
#
# Indices 1 2 3 4 5 6 
#
# 1 112.6118 17.2018 8.3217 0.0000 -5.5122 0.0000
# 2 17.2018 79.0123 10.1918 0.0000 -6.2112 0.0000
# 3 8.3217 10.1918 90.0496 0.0000 -23.4100 0.0000
# 4 0.0000 0.0000 0.0000 26.4189 0.0000 -2.0452
# 5 -5.5122 -6.2112 -23.4100 0.0000 30.3926 0.0000
# 6 0.0000 0.0000 0.0000 -2.0452 0.0000 20.2142
#
#
#
# Elastic Compliance Matrix: (Units=1/GPa)
#
#
# Indices 1 2 3 4 5 6 
#
# 1 0.009245 -0.001885 -0.000382 0.000000 0.000997 0.000000
# 2 -0.001885 0.013315 -0.000893 0.000000 0.001691 0.000000
# 3 -0.000382 -0.000893 0.013974 0.000000 0.010512 0.000000
# 4 0.000000 0.000000 0.000000 0.038151 0.000000 0.003860
# 5 0.000997 0.001691 0.010512 0.000000 0.041526 0.000000
# 6 0.000000 0.000000 0.000000 0.003860 0.000000 0.049861
#
#
# Mechanical properties :
#
#
# Convention : Reuss Voigt Hill
#
# Bulk Modulus (GPa) = 33.09697 39.23381 36.16539
# Shear Modulus (GPa) = 27.40289 31.80235 29.60262
#
# Velocity S-wave (km/s) = 3.54016 3.81376 3.67950
# Velocity P-wave (km/s) = 5.64333 6.11037 5.88149
#
# Compressibility (1/GPa) = 0.03021424
#
# Stress axis : x y z
#
# Youngs Moduli (GPa) = 108.16600 75.10432 71.56093
#
# Poissons Ratio (x) = 0.14158 0.02731
# Poissons Ratio (y) = 0.20390 0.06391
# Poissons Ratio (z) = 0.04129 0.06707
#
# Static dielectric constant tensor:
#      x y z
#    x 3.589380 0.000000 -0.203100 
#    y 0.000000 4.047920 0.000000 
#    z -0.203100 0.000000 4.214480 
# 
# 
# High freq. dielectric constant tensor:
#      x y z
#    x 1.833030 0.000000 -0.022120 
#    y 0.000000 1.866590 0.000000 
#    z -0.022120 0.000000 1.870200 
# 
# From -- ./inp_files/4350.got.cif
#   From: 2010.06.25/outbox.cif.g09.slc.cpg/sg9_3_cif.got.tgz:4350.got - 2010.06.27 21:40:51.
