data_PCOD8055527
_publ_section_title
;
Structure prediction by ZEFSAII (Michael W. Deem and Ramdas Pophale) SiO2 
 PCOD8055527
Probable space group: C C
;
_chemical_formula_sum "Si O2"
_cell_formula_units_Z 32
_cell_length_a 11.368190
_cell_length_b 14.631816
_cell_length_c 13.814471
_cell_angle_alpha 90.000000
_cell_angle_beta 142.359794
_cell_angle_gamma 90.000000
_cell_volume 1403.306167
_symmetry_space_group_name_H-M "C C"
_symmetry_group_IT_number 9
_symmetry_cell_setting 'monoclinic'
loop_
_space_group_symop_operation_xyz
x,y,z
x,-y,1/2+z
1/2+x,1/2+y,z
1/2+x,1/2-y,1/2+z
loop_
_atom_site_type_symbol
_atom_site_label
_atom_site_fract_x
_atom_site_fract_y
_atom_site_fract_z
Si Si1 0.877920 0.985205 0.529800
Si Si2 0.047968 0.151569 0.524154
Si Si3 0.464805 0.013176 0.502556
Si Si4 0.900459 0.221187 0.693093
Si Si5 0.362874 0.410693 0.327487
Si Si6 0.058425 0.614483 0.380748
Si Si7 0.595265 0.549185 0.369405
Si Si8 0.290208 0.178854 0.845547
O O1 0.665041 0.026239 0.406789
O O2 0.004098 0.059931 0.555990
O O3 0.866332 0.900575 0.446348
O O4 0.966237 0.949577 0.687745
O O5 0.060921 0.136819 0.416975
O O6 0.250430 0.183930 0.703565
O O7 0.890168 0.228453 0.445349
O O8 0.682772 0.024793 0.679969
O O9 0.429832 0.076090 0.384734
O O10 0.319448 0.049160 0.489242
O O11 0.427641 0.906342 0.458624
O O12 0.859623 0.188712 0.777174
O O13 0.712583 0.193180 0.510584
O O14 0.924654 0.331965 0.714913
O O15 0.083892 0.169741 0.765519
O O16 0.548721 0.460698 0.403335
#
# Coordination Sequence:
#
# PCOD8055527 Si02
#       8
#     4   4   4   4   4   4   4   4
#     4  11  20  42  65  98 135 170 223 283 339 398
#     4  11  25  39  70 102 134 180 227 283 351 392
#     4  11  23  43  69  94 138 182 226 274 347 417
#     4  11  20  43  62  98 134 160 231 282 327 405
#     4  10  23  39  69  96 128 179 223 280 346 395
#     4  11  23  39  64  98 130 174 219 282 339 401
#     4  11  22  46  62  96 144 171 226 284 334 417
#     4  12  22  43  69 104 133 176 231 286 341 409
#
# _framework density 22.803291000000002
#
# number of rings (size 3 to 8) (size 9 to 14) (size 15 to 20)
#    0.000    1.000    7.500    0.000    3.500    3.000 
#    0.000    5.000    0.000    0.000    0.000    0.000 
#    0.000    0.000    0.000    0.000    0.000    0.000 
#
# Total GULP energy -198299.810130 kJ/mol
# GULP energy per Si atom -12393.738133 kJ/mol
# Density = 2.275139 g / cm^3
# Si number density = 22.803291 Si / 1000 Ang^3
#
#
#
# Elastic Constant Matrix: (Units=GPa)
#
#
# Indices 1 2 3 4 5 6 
#
# 1 120.9115 27.1052 32.4614 0.0004 -11.4808 0.0002
# 2 27.1052 57.7279 29.0031 0.0001 -5.4000 0.0002
# 3 32.4614 29.0031 58.1611 0.0004 -19.9743 0.0004
# 4 0.0004 0.0001 0.0004 38.0679 0.0000 -8.5028
# 5 -11.4808 -5.4000 -19.9743 0.0000 45.4625 0.0002
# 6 0.0002 0.0002 0.0004 -8.5028 0.0002 24.0054
#
#
#
# Elastic Compliance Matrix: (Units=1/GPa)
#
#
# Indices 1 2 3 4 5 6 
#
# 1 0.010002 -0.002565 -0.004170 0.000000 0.000389 0.000000
# 2 -0.002565 0.024063 -0.011552 0.000000 -0.002865 0.000000
# 3 -0.004170 -0.011552 0.028793 0.000000 0.010225 -0.000001
# 4 0.000000 0.000000 0.000000 0.028526 0.000000 0.010104
# 5 0.000389 -0.002865 0.010225 0.000000 0.026247 0.000000
# 6 0.000000 0.000000 -0.000001 0.010104 0.000000 0.045236
#
#
# Mechanical properties :
#
#
# Convention : Reuss Voigt Hill
#
# Bulk Modulus (GPa) = 38.04436 45.99332 42.01884
# Shear Modulus (GPa) = 24.01541 31.38923 27.70232
#
# Velocity S-wave (km/s) = 3.24876 3.71418 3.48923
# Velocity P-wave (km/s) = 5.54910 6.21344 5.89064
#
# Compressibility (1/GPa) = 0.02628510
#
# Stress axis : x y z
#
# Youngs Moduli (GPa) = 99.98107 41.55824 34.73081
#
# Poissons Ratio (x) = 0.10659 0.14481
# Poissons Ratio (y) = 0.25645 0.40120
# Poissons Ratio (z) = 0.41688 0.48006
#
# Static dielectric constant tensor:
#      x y z
#    x 4.389230 0.000000 -0.277850 
#    y 0.000000 3.854280 0.000000 
#    z -0.277850 0.000000 4.217680 
# 
# 
# High freq. dielectric constant tensor:
#      x y z
#    x 1.902960 0.000000 -0.011190 
#    y 0.000000 1.871840 0.000000 
#    z -0.011190 0.000000 1.900400 
# 
# From -- ./inp_files/11773.got.cif
#   From: 2010.06.25/outbox.cif.g09.slc.cpg/sg9_6_cif.got.tgz:11773.got - 2010.06.27 21:40:51.
