data_PCOD8055444
_publ_section_title
;
Structure prediction by ZEFSAII (Michael W. Deem and Ramdas Pophale) SiO2 
 PCOD8055444
Probable space group: C C
;
_chemical_formula_sum "Si O2"
_cell_formula_units_Z 32
_cell_length_a 14.639227
_cell_length_b 9.066298
_cell_length_c 24.223984
_cell_angle_alpha 90.000000
_cell_angle_beta 153.671009
_cell_angle_gamma 90.000000
_cell_volume 1425.973851
_symmetry_space_group_name_H-M "C C"
_symmetry_group_IT_number 9
_symmetry_cell_setting 'monoclinic'
loop_
_space_group_symop_operation_xyz
x,y,z
x,-y,1/2+z
1/2+x,1/2+y,z
1/2+x,1/2-y,1/2+z
loop_
_atom_site_type_symbol
_atom_site_label
_atom_site_fract_x
_atom_site_fract_y
_atom_site_fract_z
Si Si1 0.165670 0.358310 0.732520
Si Si2 0.002514 0.862426 0.708669
Si Si3 0.837663 0.323587 0.726597
Si Si4 0.744472 0.994421 0.658154
Si Si5 0.317984 0.906322 0.382845
Si Si6 0.428611 0.451273 0.553138
Si Si7 0.583043 0.048445 0.785478
Si Si8 0.769646 0.735749 0.970347
O O1 0.261458 0.429394 0.729236
O O2 0.264590 0.199202 0.801415
O O3 0.213517 0.464203 0.809542
O O4 0.913640 0.358322 0.589511
O O5 0.976954 0.687414 0.699235
O O6 0.941766 0.939112 0.732732
O O7 0.866752 0.909475 0.582194
O O8 0.230254 0.930562 0.821824
O O9 0.661328 0.399574 0.667093
O O10 0.913485 0.438241 0.720382
O O11 0.046060 0.281403 0.874790
O O12 0.735338 0.171761 0.649852
O O13 0.558788 0.921753 0.523467
O O14 0.214924 0.841998 0.382873
O O15 0.249733 0.381622 0.418091
O O16 0.415838 0.625481 0.536149
#
# Coordination Sequence:
#
# PCOD8055444 Si02
#       8
#     4   4   4   4   4   4   4   4
#     4  11  22  46  69 102 141 188 232 293 351 422
#     4  12  25  44  67 106 138 186 234 293 352 421
#     4  11  23  48  69 101 140 187 234 288 351 426
#     4  11  26  43  72 101 139 192 240 280 365 416
#     4  11  22  45  69  99 144 179 235 298 345 420
#     4  11  24  43  70 101 140 176 240 290 348 414
#     4  11  26  45  70 103 146 178 238 294 356 418
#     4  10  22  44  72  99 142 182 229 288 348 417
#
# _framework density 22.440804
#
# number of rings (size 3 to 8) (size 9 to 14) (size 15 to 20)
#    0.000    1.000    5.000    1.500    3.500    4.000 
#    6.750    0.000    0.000    0.000    0.000    0.000 
#    0.000    0.000    0.000    0.000    0.000    0.000 
#
# Total GULP energy -198266.158429 kJ/mol
# GULP energy per Si atom -12391.634902 kJ/mol
# Density = 2.238973 g / cm^3
# Si number density = 22.440804 Si / 1000 Ang^3
#
#
#
# Elastic Constant Matrix: (Units=GPa)
#
#
# Indices 1 2 3 4 5 6 
#
# 1 106.1726 43.0134 33.9476 -0.0001 -5.6654 -0.0002
# 2 43.0134 135.1015 33.4246 0.0019 -0.7422 0.0002
# 3 33.9476 33.4246 95.0700 0.0090 -8.1747 0.0001
# 4 -0.0001 0.0019 0.0090 33.4709 0.0003 4.4784
# 5 -5.6654 -0.7422 -8.1747 0.0003 36.6741 -0.0002
# 6 -0.0002 0.0002 0.0001 4.4784 -0.0002 30.1168
#
#
#
# Elastic Compliance Matrix: (Units=1/GPa)
#
#
# Indices 1 2 3 4 5 6 
#
# 1 0.011639 -0.002951 -0.003027 0.000001 0.001064 0.000000
# 2 -0.002951 0.008863 -0.002127 0.000000 -0.000751 0.000000
# 3 -0.003027 -0.002127 0.012544 -0.000003 0.002285 0.000000
# 4 0.000001 0.000000 -0.000003 0.030483 -0.000001 -0.004533
# 5 0.001064 -0.000751 0.002285 -0.000001 0.027926 0.000000
# 6 0.000000 0.000000 0.000000 -0.004533 0.000000 0.033878
#
#
# Mechanical properties :
#
#
# Convention : Reuss Voigt Hill
#
# Bulk Modulus (GPa) = 59.39611 61.90168 60.64890
# Shear Modulus (GPa) = 33.97782 35.11625 34.54703
#
# Velocity S-wave (km/s) = 3.89538 3.96010 3.92787
# Velocity P-wave (km/s) = 6.83793 6.96808 6.90331
#
# Compressibility (1/GPa) = 0.01683612
#
# Stress axis : x y z
#
# Youngs Moduli (GPa) = 85.92037 112.82321 79.72061
#
# Poissons Ratio (x) = 0.33291 0.24132
# Poissons Ratio (y) = 0.25353 0.16957
# Poissons Ratio (z) = 0.26009 0.23998
#
# Static dielectric constant tensor:
#      x y z
#    x 3.891030 0.000000 -0.150080 
#    y 0.000000 4.191750 0.000000 
#    z -0.150080 0.000000 4.143390 
# 
# 
# High freq. dielectric constant tensor:
#      x y z
#    x 1.867700 0.000000 -0.008610 
#    y 0.000000 1.892900 0.000000 
#    z -0.008610 0.000000 1.886800 
# 
# From -- ./inp_files/17893.got.cif
#   From: 2010.06.25/outbox.cif.g09.slc.cpg/sg9_9_cif.got.tgz:17893.got - 2010.06.27 21:40:51.
