data_PCOD8055870
_publ_section_title
;
Structure prediction by ZEFSAII (Michael W. Deem and Ramdas Pophale) SiO2 
 PCOD8055870
Probable space group: C C
;
_chemical_formula_sum "Si O2"
_cell_formula_units_Z 32
_cell_length_a 5.014562
_cell_length_b 31.962105
_cell_length_c 8.685096
_cell_angle_alpha 90.000000
_cell_angle_beta 103.344571
_cell_angle_gamma 90.000000
_cell_volume 1354.427220
_symmetry_space_group_name_H-M "C C"
_symmetry_group_IT_number 9
_symmetry_cell_setting 'monoclinic'
loop_
_space_group_symop_operation_xyz
x,y,z
x,-y,1/2+z
1/2+x,1/2+y,z
1/2+x,1/2-y,1/2+z
loop_
_atom_site_type_symbol
_atom_site_label
_atom_site_fract_x
_atom_site_fract_y
_atom_site_fract_z
Si Si1 0.321530 0.554985 0.515460
Si Si2 0.525257 0.193347 0.074936
Si Si3 0.851475 0.764412 0.861306
Si Si4 0.357530 0.893265 0.083678
Si Si5 0.031268 0.989126 0.761922
Si Si6 0.187753 0.388480 0.438949
Si Si7 0.372712 0.186186 0.380392
Si Si8 0.229439 0.941648 0.511126
O O1 0.569448 0.586320 0.593711
O O2 0.323226 0.514824 0.626765
O O3 0.348254 0.541000 0.342973
O O4 0.026078 0.575692 0.495868
O O5 0.717926 0.230303 0.173198
O O6 0.348033 0.173918 0.193985
O O7 0.336778 0.216492 0.921353
O O8 0.706503 0.156885 0.021666
O O9 0.678625 0.795413 0.952362
O O10 0.165987 0.776982 0.894084
O O11 0.532175 0.882848 0.257254
O O12 0.298125 0.852306 0.977560
O O13 0.225110 0.960244 0.682340
O O14 0.215849 0.020370 0.887362
O O15 0.486995 0.407793 0.451123
O O16 0.020451 0.419615 0.527262
#
# Coordination Sequence:
#
# PCOD8055870 Si02
#       8
#     4   4   4   4   4   4   4   4
#     4  11  25  42  66  95 133 180 226 284 343 407
#     4  10  28  45  75 101 140 181 231 282 346 407
#     4  10  25  45  71 102 137 171 235 271 346 405
#     4  12  24  44  64 100 139 174 226 282 351 403
#     4  10  24  44  68  94 134 179 232 284 339 409
#     4  12  26  43  68 101 140 179 228 285 343 409
#     4  10  26  43  71 102 131 180 223 279 343 408
#     4  11  26  44  67 101 134 182 231 281 347 402
#
# _framework density 23.626221999999999
#
# number of rings (size 3 to 8) (size 9 to 14) (size 15 to 20)
#    0.750    0.500    2.500    0.750    8.750    6.000 
#    0.000    0.000    0.000    0.000    0.000    0.000 
#    0.000    0.000    0.000    0.000    0.000    0.000 
#
# Total GULP energy -198375.926694 kJ/mol
# GULP energy per Si atom -12398.495418 kJ/mol
# Density = 2.357245 g / cm^3
# Si number density = 23.626222 Si / 1000 Ang^3
#
#
#
# Elastic Constant Matrix: (Units=GPa)
#
#
# Indices 1 2 3 4 5 6 
#
# 1 63.9321 -0.8759 -1.0865 0.0000 -10.3757 0.0000
# 2 -0.8759 80.9931 40.5638 0.0000 -2.2092 0.0000
# 3 -1.0865 40.5638 118.5719 0.0000 -13.4041 0.0000
# 4 0.0000 0.0000 0.0000 45.2707 0.0000 -10.7864
# 5 -10.3757 -2.2092 -13.4041 0.0000 24.4316 0.0000
# 6 0.0000 0.0000 0.0000 -10.7864 0.0000 19.2823
#
#
#
# Elastic Compliance Matrix: (Units=1/GPa)
#
#
# Indices 1 2 3 4 5 6 
#
# 1 0.016918 -0.000148 0.001084 0.000000 0.007766 0.000000
# 2 -0.000148 0.014956 -0.005301 0.000000 -0.001619 0.000000
# 3 0.001084 -0.005301 0.010933 0.000000 0.005979 0.000000
# 4 0.000000 0.000000 0.000000 0.025486 0.000000 0.014257
# 5 0.007766 -0.001619 0.005979 0.000000 0.047363 0.000000
# 6 0.000000 0.000000 0.000000 0.014257 0.000000 0.059836
#
#
# Mechanical properties :
#
#
# Convention : Reuss Voigt Hill
#
# Bulk Modulus (GPa) = 29.34537 37.85554 33.60046
# Shear Modulus (GPa) = 25.56478 32.78996 29.17737
#
# Velocity S-wave (km/s) = 3.29302 3.72944 3.51801
# Velocity P-wave (km/s) = 5.18713 5.88239 5.54566
#
# Compressibility (1/GPa) = 0.03407692
#
# Stress axis : x y z
#
# Youngs Moduli (GPa) = 59.10739 66.86385 91.46667
#
# Poissons Ratio (x) = 0.00989 -0.09911
# Poissons Ratio (y) = 0.00874 0.48484
# Poissons Ratio (z) = -0.06405 0.35443
#
# Static dielectric constant tensor:
#      x y z
#    x 3.999320 0.000000 -0.227720 
#    y 0.000000 4.137120 0.000000 
#    z -0.227720 0.000000 4.346320 
# 
# 
# High freq. dielectric constant tensor:
#      x y z
#    x 1.926080 0.000000 -0.014360 
#    y 0.000000 1.930220 0.000000 
#    z -0.014360 0.000000 1.943540 
# 
# From -- ./inp_files/4378.got.cif
#   From: 2010.06.25/outbox.cif.g09.slc.cpg/sg9_3_cif.got.tgz:4378.got - 2010.06.27 21:40:51.
