data_PCOD8055714
_publ_section_title
;
Structure prediction by ZEFSAII (Michael W. Deem and Ramdas Pophale) SiO2 
 PCOD8055714
Probable space group: C C
;
_chemical_formula_sum "Si O2"
_cell_formula_units_Z 32
_cell_length_a 20.904560
_cell_length_b 14.804352
_cell_length_c 9.582241
_cell_angle_alpha 90.000000
_cell_angle_beta 151.749360
_cell_angle_gamma 90.000000
_cell_volume 1403.657342
_symmetry_space_group_name_H-M "C C"
_symmetry_group_IT_number 9
_symmetry_cell_setting 'monoclinic'
loop_
_space_group_symop_operation_xyz
x,y,z
x,-y,1/2+z
1/2+x,1/2+y,z
1/2+x,1/2-y,1/2+z
loop_
_atom_site_type_symbol
_atom_site_label
_atom_site_fract_x
_atom_site_fract_y
_atom_site_fract_z
Si Si1 0.480790 0.398024 0.837650
Si Si2 0.598452 0.331492 0.338316
Si Si3 0.734859 0.165135 0.718900
Si Si4 0.332121 0.049807 0.243511
Si Si5 0.112281 0.382174 0.254358
Si Si6 0.276097 0.547871 0.543864
Si Si7 0.262837 0.096637 0.802183
Si Si8 0.304132 0.690617 0.367500
O O1 0.377169 0.325421 0.573048
O O2 0.410079 0.488303 0.764964
O O3 0.559524 0.338699 0.102709
O O4 0.602525 0.422253 0.965337
O O5 0.690346 0.242479 0.528848
O O6 0.702118 0.411387 0.576937
O O7 0.462139 0.335440 0.164803
O O8 0.618222 0.166198 0.614347
O O9 0.768079 0.075247 0.691736
O O10 0.461303 0.114317 0.525582
O O11 0.347349 0.948707 0.336914
O O12 0.310135 0.047556 0.035400
O O13 0.147957 0.484097 0.277862
O O14 0.220278 0.339988 0.569655
O O15 0.253972 0.635306 0.405060
O O16 0.293234 0.202829 0.865692
#
# Coordination Sequence:
#
# PCOD8055714 Si02
#       8
#     4   4   4   4   4   4   4   4
#     4  10  23  45  72 108 142 188 242 300 369 431
#     4  11  24  47  70 104 147 184 242 298 360 435
#     4  11  24  42  76 103 143 190 245 301 357 434
#     4  11  27  47  69 106 145 192 236 302 366 429
#     4  11  25  44  73 106 142 192 245 291 369 428
#     4  11  23  42  77 103 138 191 241 297 364 437
#     4  11  27  47  72 105 152 185 244 302 366 425
#     4  12  25  48  75 107 147 188 241 303 359 439
#
# _framework density 22.797587
#
# number of rings (size 3 to 8) (size 9 to 14) (size 15 to 20)
#    0.000    1.000    2.500    4.500   10.500    1.000 
#    0.000    0.000    0.000    0.000    0.000    0.000 
#    0.000    0.000    0.000    0.000    0.000    0.000 
#
# Total GULP energy -198232.580027 kJ/mol
# GULP energy per Si atom -12389.536252 kJ/mol
# Density = 2.274570 g / cm^3
# Si number density = 22.797587 Si / 1000 Ang^3
#
#
#
# Elastic Constant Matrix: (Units=GPa)
#
#
# Indices 1 2 3 4 5 6 
#
# 1 105.2512 46.4873 44.1835 0.0000 -1.9384 0.0000
# 2 46.4873 118.2440 56.7316 0.0000 -16.9216 0.0000
# 3 44.1835 56.7316 110.5938 0.0000 6.7301 0.0000
# 4 0.0000 0.0000 0.0000 29.6436 0.0000 -6.2178
# 5 -1.9384 -16.9216 6.7301 0.0000 37.2599 0.0000
# 6 0.0000 0.0000 0.0000 -6.2178 0.0000 38.6674
#
#
#
# Elastic Compliance Matrix: (Units=1/GPa)
#
#
# Indices 1 2 3 4 5 6 
#
# 1 0.012313 -0.003362 -0.003176 0.000000 -0.000313 0.000000
# 2 -0.003362 0.013759 -0.006152 0.000000 0.007185 0.000000
# 3 -0.003176 -0.006152 0.013798 0.000000 -0.005451 0.000000
# 4 0.000000 0.000000 0.000000 0.034912 0.000000 0.005614
# 5 -0.000313 0.007185 -0.005451 0.000000 0.031070 0.000000
# 6 0.000000 0.000000 0.000000 0.005614 0.000000 0.026764
#
#
# Mechanical properties :
#
#
# Convention : Reuss Voigt Hill
#
# Bulk Modulus (GPa) = 69.00769 69.87710 69.44239
# Shear Modulus (GPa) = 30.70771 33.55996 32.13384
#
# Velocity S-wave (km/s) = 3.67409 3.84094 3.75844
# Velocity P-wave (km/s) = 6.95227 7.09845 7.02574
#
# Compressibility (1/GPa) = 0.01449114
#
# Stress axis : x y z
#
# Youngs Moduli (GPa) = 81.21236 72.68168 72.47291
#
# Poissons Ratio (x) = 0.24436 0.23015
# Poissons Ratio (y) = 0.27304 0.44584
# Poissons Ratio (z) = 0.25790 0.44712
#
# Static dielectric constant tensor:
#      x y z
#    x 4.396390 0.000000 0.221000 
#    y 0.000000 3.904210 0.000000 
#    z 0.221000 0.000000 4.209520 
# 
# 
# High freq. dielectric constant tensor:
#      x y z
#    x 1.906790 0.000000 0.007710 
#    y 0.000000 1.889200 0.000000 
#    z 0.007710 0.000000 1.905780 
# 
# From -- ./inp_files/11797.got.cif
#   From: 2010.06.25/outbox.cif.g09.slc.cpg/sg9_6_cif.got.tgz:11797.got - 2010.06.27 21:40:51.
