data_PCOD8055274
_publ_section_title
;
Structure prediction by ZEFSAII (Michael W. Deem and Ramdas Pophale) SiO2 
 PCOD8055274
Probable space group: C C
;
_chemical_formula_sum "Si O2"
_cell_formula_units_Z 24
_cell_length_a 8.127892
_cell_length_b 27.229984
_cell_length_c 8.554657
_cell_angle_alpha 90.000000
_cell_angle_beta 145.653410
_cell_angle_gamma 90.000000
_cell_volume 1068.216172
_symmetry_space_group_name_H-M "C C"
_symmetry_group_IT_number 9
_symmetry_cell_setting 'monoclinic'
loop_
_space_group_symop_operation_xyz
x,y,z
x,-y,1/2+z
1/2+x,1/2+y,z
1/2+x,1/2-y,1/2+z
loop_
_atom_site_type_symbol
_atom_site_label
_atom_site_fract_x
_atom_site_fract_y
_atom_site_fract_z
Si Si1 0.000000 0.472428 0.274330
Si Si2 0.896598 0.969070 0.285045
Si Si3 0.588538 0.877284 0.557842
Si Si4 0.882588 0.778972 0.265472
Si Si5 0.461787 0.625518 0.655048
Si Si6 0.669935 0.780074 0.450489
O O1 0.165912 0.460433 0.243937
O O2 0.184441 0.517506 0.479140
O O3 0.032024 0.426436 0.414312
O O4 0.659164 0.490289 0.003089
O O5 0.024541 0.917295 0.330800
O O6 0.732587 0.834027 0.569808
O O7 0.278143 0.855027 0.357977
O O8 0.782139 0.890982 0.860644
O O9 0.806917 0.829721 0.120629
O O10 0.769789 0.783496 0.351674
O O11 0.220688 0.764005 0.540454
O O12 0.838912 0.739274 0.686678
#
# Coordination Sequence:
#
# PCOD8055274 Si02
#       6
#     4   4   4   4   4   4
#     4  12  25  44  68  94 128 168 214 266 323 383
#     4  12  25  44  68  94 128 168 214 266 323 383
#     4  12  25  41  64  95 130 167 213 263 320 383
#     4  10  22  41  64  91 126 168 213 261 317 378
#     4  12  25  41  64  95 130 167 213 263 320 383
#     4  10  22  41  64  91 126 168 213 261 317 378
#
# _framework density 22.467362999999999
#
# number of rings (size 3 to 8) (size 9 to 14) (size 15 to 20)
#    0.000    0.667    0.000    9.000    0.000    4.000 
#    0.000   10.000    0.000    0.000    0.000    0.000 
#    0.000    0.000    0.000    0.000    0.000    0.000 
#
# Total GULP energy -148692.155383 kJ/mol
# GULP energy per Si atom -12391.012949 kJ/mol
# Density = 2.241623 g / cm^3
# Si number density = 22.467363 Si / 1000 Ang^3
#
#
#
# Elastic Constant Matrix: (Units=GPa)
#
#
# Indices 1 2 3 4 5 6 
#
# 1 81.0985 25.5570 44.7223 0.0000 -15.5944 0.0000
# 2 25.5570 127.8239 28.5398 0.0000 -8.3102 0.0000
# 3 44.7223 28.5398 124.4987 0.0000 4.4769 0.0000
# 4 0.0000 0.0000 0.0000 38.6803 0.0000 -4.4545
# 5 -15.5944 -8.3102 4.4769 0.0000 48.8087 0.0000
# 6 0.0000 0.0000 0.0000 -4.4545 0.0000 23.3428
#
#
#
# Elastic Compliance Matrix: (Units=1/GPa)
#
#
# Indices 1 2 3 4 5 6 
#
# 1 0.017318 -0.001740 -0.006030 0.000000 0.005790 0.000000
# 2 -0.001740 0.008544 -0.001370 0.000000 0.001025 0.000000
# 3 -0.006030 -0.001370 0.010625 0.000000 -0.003135 0.000000
# 4 0.000000 0.000000 0.000000 0.026434 0.000000 0.005044
# 5 0.005790 0.001025 -0.003135 0.000000 0.022800 0.000000
# 6 0.000000 0.000000 0.000000 0.005044 0.000000 0.043802
#
#
# Mechanical properties :
#
#
# Convention : Reuss Voigt Hill
#
# Bulk Modulus (GPa) = 54.92724 59.00658 56.96691
# Shear Modulus (GPa) = 32.49449 37.80650 35.15049
#
# Velocity S-wave (km/s) = 3.80715 4.10656 3.95968
# Velocity P-wave (km/s) = 6.62016 6.98608 6.80558
#
# Compressibility (1/GPa) = 0.01820590
#
# Stress axis : x y z
#
# Youngs Moduli (GPa) = 57.74451 117.04549 94.11530
#
# Poissons Ratio (x) = 0.20362 0.56754
# Poissons Ratio (y) = 0.10046 0.12898
# Poissons Ratio (z) = 0.34821 0.16041
#
# Static dielectric constant tensor:
#      x y z
#    x 3.450310 0.000000 0.016660 
#    y 0.000000 3.881850 0.000000 
#    z 0.016660 0.000000 4.315630 
# 
# 
# High freq. dielectric constant tensor:
#      x y z
#    x 1.891020 0.000000 -0.003210 
#    y 0.000000 1.892680 0.000000 
#    z -0.003210 0.000000 1.899320 
# 
# From -- ./inp_files/890.got.cif
#   From: 2010.06.25/outbox.cif.g09.slc.cpg/sg9_1_cif.got.tgz:890.got - 2010.06.27 21:40:51.
