data_PCOD8055285
_publ_section_title
;
Structure prediction by ZEFSAII (Michael W. Deem and Ramdas Pophale) SiO2 
 PCOD8055285
Probable space group: C C
;
_chemical_formula_sum "Si O2"
_cell_formula_units_Z 32
_cell_length_a 30.801605
_cell_length_b 5.884326
_cell_length_c 9.298546
_cell_angle_alpha 90.000000
_cell_angle_beta 130.099645
_cell_angle_gamma 90.000000
_cell_volume 1289.152200
_symmetry_space_group_name_H-M "C C"
_symmetry_group_IT_number 9
_symmetry_cell_setting 'monoclinic'
loop_
_space_group_symop_operation_xyz
x,y,z
x,-y,1/2+z
1/2+x,1/2+y,z
1/2+x,1/2-y,1/2+z
loop_
_atom_site_type_symbol
_atom_site_label
_atom_site_fract_x
_atom_site_fract_y
_atom_site_fract_z
Si Si1 0.943520 0.323305 0.078230
Si Si2 0.827762 0.554141 0.834696
Si Si3 0.895682 0.933913 0.121844
Si Si4 0.704206 0.821395 0.794333
Si Si5 0.797723 0.210796 0.999402
Si Si6 0.674304 0.501361 0.480323
Si Si7 0.493417 0.120460 0.412689
Si Si8 0.619278 0.212855 0.611933
O O1 0.927136 0.057715 0.054604
O O2 0.965260 0.400865 0.281213
O O3 0.886627 0.449999 0.902719
O O4 0.996777 0.403937 0.092338
O O5 0.787600 0.631793 0.617279
O O6 0.790680 0.369864 0.844051
O O7 0.844352 0.769815 0.966255
O O8 0.862442 0.120369 0.147213
O O9 0.945577 0.817918 0.315034
O O10 0.711751 0.665252 0.666437
O O11 0.644405 0.957056 0.662211
O O12 0.709112 0.670636 0.950115
O O13 0.751835 0.014013 0.896951
O O14 0.635081 0.352872 0.502962
O O15 0.637107 0.658764 0.295783
O O16 0.551584 0.194016 0.465350
#
# Coordination Sequence:
#
# PCOD8055285 Si02
#       8
#     4   4   4   4   4   4   4   4
#     4  10  22  41  66 103 147 191 246 307 362 445
#     4  10  22  44  71 108 147 195 251 298 372 453
#     4  10  22  42  69 103 149 197 254 301 379 434
#     4  11  26  50  78 107 146 195 252 318 386 452
#     4  11  25  46  76 109 152 200 246 315 374 456
#     4  10  26  51  73 109 141 192 253 310 376 462
#     4  11  25  40  68 103 142 192 248 308 376 443
#     4  11  26  46  75 104 150 190 254 313 379 441
#
# _framework density 24.822516
#
# number of rings (size 3 to 8) (size 9 to 14) (size 15 to 20)
#    0.000    1.500    0.000    3.750    5.250    8.000 
#    0.000    7.500    0.000    0.000    0.000    0.000 
#    0.000    0.000    0.000    0.000    0.000    0.000 
#
# Total GULP energy -198311.598125 kJ/mol
# GULP energy per Si atom -12394.474883 kJ/mol
# Density = 2.476602 g / cm^3
# Si number density = 24.822516 Si / 1000 Ang^3
#
#
#
# Elastic Constant Matrix: (Units=GPa)
#
#
# Indices 1 2 3 4 5 6 
#
# 1 138.2707 66.6584 58.9271 0.0000 -13.5767 0.0000
# 2 66.6584 144.3055 53.3529 0.0000 -7.3688 0.0000
# 3 58.9271 53.3529 103.9773 0.0000 -13.2863 0.0000
# 4 0.0000 0.0000 0.0000 21.8487 0.0000 -12.9588
# 5 -13.5767 -7.3688 -13.2863 0.0000 42.5198 0.0000
# 6 0.0000 0.0000 0.0000 -12.9588 0.0000 39.9620
#
#
#
# Elastic Compliance Matrix: (Units=1/GPa)
#
#
# Indices 1 2 3 4 5 6 
#
# 1 0.010789 -0.003353 -0.004195 0.000000 0.001553 0.000000
# 2 -0.003353 0.009595 -0.003070 0.000000 -0.000367 0.000000
# 3 -0.004195 -0.003070 0.013886 0.000000 0.002467 0.000000
# 4 0.000000 0.000000 0.000000 0.056669 0.000000 0.018376
# 5 0.001553 -0.000367 0.002467 0.000000 0.024722 0.000000
# 6 0.000000 0.000000 0.000000 0.018376 0.000000 0.030983
#
#
# Mechanical properties :
#
#
# Convention : Reuss Voigt Hill
#
# Bulk Modulus (GPa) = 76.73116 82.71446 79.72281
# Shear Modulus (GPa) = 29.03182 34.70710 31.86946
#
# Velocity S-wave (km/s) = 3.42362 3.74332 3.58703
# Velocity P-wave (km/s) = 6.82695 7.21651 7.02443
#
# Compressibility (1/GPa) = 0.01303252
#
# Stress axis : x y z
#
# Youngs Moduli (GPa) = 92.68440 104.22098 72.01670
#
# Poissons Ratio (x) = 0.34949 0.30215
# Poissons Ratio (y) = 0.31081 0.22108
# Poissons Ratio (z) = 0.38886 0.31994
#
# Static dielectric constant tensor:
#      x y z
#    x 4.553740 0.000000 -0.215280 
#    y 0.000000 4.911710 0.000000 
#    z -0.215280 0.000000 4.303680 
# 
# 
# High freq. dielectric constant tensor:
#      x y z
#    x 2.000140 0.000000 -0.012750 
#    y 0.000000 2.003090 0.000000 
#    z -0.012750 0.000000 1.981670 
# 
# From -- ./inp_files/12656.got.cif
#   From: 2010.06.25/outbox.cif.g09.slc.cpg/sg9_7_cif.got.tgz:12656.got - 2010.06.27 21:40:51.
