data_PCOD8055676
_publ_section_title
;
Structure prediction by ZEFSAII (Michael W. Deem and Ramdas Pophale) SiO2 
 PCOD8055676
Probable space group: C C
;
_chemical_formula_sum "Si O2"
_cell_formula_units_Z 32
_cell_length_a 12.723924
_cell_length_b 16.272909
_cell_length_c 8.164953
_cell_angle_alpha 90.000000
_cell_angle_beta 56.552924
_cell_angle_gamma 90.000000
_cell_volume 1410.625710
_symmetry_space_group_name_H-M "C C"
_symmetry_group_IT_number 9
_symmetry_cell_setting 'monoclinic'
loop_
_space_group_symop_operation_xyz
x,y,z
x,-y,1/2+z
1/2+x,1/2+y,z
1/2+x,1/2-y,1/2+z
loop_
_atom_site_type_symbol
_atom_site_label
_atom_site_fract_x
_atom_site_fract_y
_atom_site_fract_z
Si Si1 0.089840 0.106601 0.244530
Si Si2 0.822911 0.533352 0.193117
Si Si3 0.229378 0.106600 0.592957
Si Si4 0.734915 0.071155 0.011081
Si Si5 0.084304 0.571155 0.826409
Si Si6 0.541599 0.772278 0.142119
Si Si7 0.496308 0.533351 0.644369
Si Si8 0.777615 0.772277 0.695375
O O1 0.236362 0.095860 0.162546
O O2 0.061862 0.202550 0.260738
O O3 0.998450 0.063100 0.455983
O O4 0.055471 0.058801 0.105697
O O5 0.820769 0.563101 0.381501
O O6 0.763746 0.441201 0.231790
O O7 0.962173 0.529264 0.006047
O O8 0.082858 0.095859 0.674936
O O9 0.257354 0.202549 0.576755
O O10 0.777018 0.141122 0.102680
O O11 0.659612 1.000000 0.168744
O O12 0.659609 0.107495 0.918746
O O13 0.857046 0.029266 0.831439
O O14 0.042200 0.641122 0.734810
O O15 0.409606 0.750001 0.168749
O O16 0.659607 0.770319 0.918746
#
# Coordination Sequence:
#
# PCOD8055676 Si02
#       8
#     4   4   4   4   4   4   4   4
#     4  10  24  43  74 104 139 191 241 302 367 436
#     4  10  23  44  73 102 141 183 245 296 363 444
#     4  10  24  43  74 104 139 191 241 302 367 436
#     4  12  28  47  76 107 151 196 251 307 384 446
#     4  12  28  47  76 107 151 196 251 307 384 446
#     4  12  30  48  73 107 153 194 248 313 376 444
#     4  10  23  44  73 102 141 183 245 296 363 444
#     4  12  30  48  73 107 153 194 248 313 376 444
#
# _framework density 22.684968999999999
#
# number of rings (size 3 to 8) (size 9 to 14) (size 15 to 20)
#    0.000    1.000    0.000    3.750   24.500    1.000 
#    0.000    0.000    0.000    0.000    0.000    0.000 
#    0.000    0.000    0.000    0.000    0.000    0.000 
#
# Total GULP energy -198341.125035 kJ/mol
# GULP energy per Si atom -12396.320315 kJ/mol
# Density = 2.263334 g / cm^3
# Si number density = 22.684969 Si / 1000 Ang^3
#
#
#
# Elastic Constant Matrix: (Units=GPa)
#
#
# Indices 1 2 3 4 5 6 
#
# 1 129.8171 26.5463 32.6400 0.0000 -9.8205 0.0000
# 2 26.5463 115.5772 11.6079 0.0000 14.1879 0.0000
# 3 32.6400 11.6079 120.7110 0.0000 -15.8930 0.0000
# 4 0.0000 0.0000 0.0000 31.0417 0.0000 8.5234
# 5 -9.8205 14.1879 -15.8930 0.0000 46.9886 0.0000
# 6 0.0000 0.0000 0.0000 8.5234 0.0000 30.9664
#
#
#
# Elastic Compliance Matrix: (Units=1/GPa)
#
#
# Indices 1 2 3 4 5 6 
#
# 1 0.008740 -0.002033 -0.001933 0.000000 0.001787 0.000000
# 2 -0.002033 0.009650 -0.000856 0.000000 -0.003628 0.000000
# 3 -0.001933 -0.000856 0.009283 0.000000 0.002995 0.000000
# 4 0.000000 0.000000 0.000000 0.034848 0.000000 -0.009592
# 5 0.001787 -0.003628 0.002995 0.000000 0.023764 0.000000
# 6 0.000000 0.000000 0.000000 -0.009592 0.000000 0.034933
#
#
# Mechanical properties :
#
#
# Convention : Reuss Voigt Hill
#
# Bulk Modulus (GPa) = 55.45953 56.41041 55.93497
# Shear Modulus (GPa) = 36.53051 41.48675 39.00863
#
# Velocity S-wave (km/s) = 4.01726 4.28111 4.15128
# Velocity P-wave (km/s) = 6.78370 7.02553 6.90567
#
# Compressibility (1/GPa) = 0.01803116
#
# Stress axis : x y z
#
# Youngs Moduli (GPa) = 114.41829 103.62194 107.71921
#
# Poissons Ratio (x) = 0.21063 0.20817
# Poissons Ratio (y) = 0.23257 0.09222
# Poissons Ratio (z) = 0.22112 0.08871
#
# Static dielectric constant tensor:
#      x y z
#    x 4.509570 0.000000 0.094510 
#    y 0.000000 4.169710 0.000000 
#    z 0.094510 0.000000 4.212080 
# 
# 
# High freq. dielectric constant tensor:
#      x y z
#    x 1.911620 0.000000 -0.002740 
#    y 0.000000 1.888090 0.000000 
#    z -0.002740 0.000000 1.907220 
# 
# From -- ./inp_files/7564.got.cif
#   From: 2010.06.25/outbox.cif.g09.slc.cpg/sg9_4_cif.got.tgz:7564.got - 2010.06.27 21:40:51.
