data_PCOD8055909
_publ_section_title
;
Structure prediction by ZEFSAII (Michael W. Deem and Ramdas Pophale) SiO2 
 PCOD8055909
Probable space group: C C
;
_chemical_formula_sum "Si O2"
_cell_formula_units_Z 32
_cell_length_a 8.617314
_cell_length_b 14.839513
_cell_length_c 12.202731
_cell_angle_alpha 90.000000
_cell_angle_beta 67.145876
_cell_angle_gamma 90.000000
_cell_volume 1437.945340
_symmetry_space_group_name_H-M "C C"
_symmetry_group_IT_number 9
_symmetry_cell_setting 'monoclinic'
loop_
_space_group_symop_operation_xyz
x,y,z
x,-y,1/2+z
1/2+x,1/2+y,z
1/2+x,1/2-y,1/2+z
loop_
_atom_site_type_symbol
_atom_site_label
_atom_site_fract_x
_atom_site_fract_y
_atom_site_fract_z
Si Si1 0.363520 0.391875 0.561610
Si Si2 0.839005 0.427605 0.177160
Si Si3 0.054342 0.975398 0.873996
Si Si4 0.483589 0.184918 0.825798
Si Si5 0.786398 0.863121 0.827772
Si Si6 0.008236 0.608171 0.057927
Si Si7 0.936638 0.295908 0.980007
Si Si8 0.282204 0.195245 0.295139
O O1 0.492566 0.474083 0.501497
O O2 0.287361 0.397201 0.703091
O O3 0.209508 0.391938 0.517242
O O4 0.475122 0.300702 0.524099
O O5 0.653361 0.453254 0.270760
O O6 0.960225 0.394072 0.243096
O O7 0.931213 0.509927 0.093326
O O8 0.809831 0.349464 0.095111
O O9 0.177263 0.892268 0.862997
O O10 0.886023 0.940106 0.863563
O O11 0.353489 0.263087 0.830276
O O12 0.669410 0.228044 0.769062
O O13 0.453014 0.144451 0.954403
O O14 0.596492 0.861090 0.923209
O O15 0.929172 0.674245 0.169907
O O16 0.858932 0.268131 0.885534
#
# Coordination Sequence:
#
# PCOD8055909 Si02
#       8
#     4   4   4   4   4   4   4   4
#     4  12  24  45  70 103 138 182 232 289 347 415
#     4  11  26  42  72 103 138 189 225 295 350 417
#     4  10  26  44  69 103 136 179 233 288 350 409
#     4  11  24  46  69 104 136 187 234 282 356 414
#     4  11  25  46  71 105 139 184 234 290 352 417
#     4  11  25  43  70 102 142 179 231 292 350 417
#     4  12  24  44  71  99 143 178 236 279 350 415
#     4  10  24  46  68 101 138 184 229 287 347 418
#
# _framework density 22.253975000000001
#
# number of rings (size 3 to 8) (size 9 to 14) (size 15 to 20)
#    0.000    1.000    3.750    1.500    7.000    4.000 
#    0.000    0.000    0.000    0.000    0.000    0.000 
#    0.000    0.000    0.000    0.000    0.000    0.000 
#
# Total GULP energy -198406.620093 kJ/mol
# GULP energy per Si atom -12400.413756 kJ/mol
# Density = 2.220332 g / cm^3
# Si number density = 22.253975 Si / 1000 Ang^3
#
#
#
# Elastic Constant Matrix: (Units=GPa)
#
#
# Indices 1 2 3 4 5 6 
#
# 1 58.1450 10.1444 5.1833 0.0000 -14.4343 0.0000
# 2 10.1444 90.9957 28.6693 0.0000 -7.9933 0.0000
# 3 5.1833 28.6693 82.6614 0.0000 -0.8977 0.0000
# 4 0.0000 0.0000 0.0000 44.3484 0.0000 5.2391
# 5 -14.4343 -7.9933 -0.8977 0.0000 37.8627 0.0000
# 6 0.0000 0.0000 0.0000 5.2391 0.0000 26.7193
#
#
#
# Elastic Compliance Matrix: (Units=1/GPa)
#
#
# Indices 1 2 3 4 5 6 
#
# 1 0.019235 -0.001314 -0.000674 0.000000 0.007040 0.000000
# 2 -0.001314 0.012669 -0.004289 0.000000 0.002072 0.000000
# 3 -0.000674 -0.004289 0.013618 0.000000 -0.000840 0.000000
# 4 0.000000 0.000000 0.000000 0.023083 0.000000 -0.004526
# 5 0.007040 0.002072 -0.000840 0.000000 0.029512 0.000000
# 6 0.000000 0.000000 0.000000 -0.004526 0.000000 0.038314
#
#
# Mechanical properties :
#
#
# Convention : Reuss Voigt Hill
#
# Bulk Modulus (GPa) = 30.33147 35.53290 32.93219
# Shear Modulus (GPa) = 31.25466 34.30640 32.78053
#
# Velocity S-wave (km/s) = 3.75167 3.93056 3.84216
# Velocity P-wave (km/s) = 5.69438 6.04986 5.87481
#
# Compressibility (1/GPa) = 0.03296906
#
# Stress axis : x y z
#
# Youngs Moduli (GPa) = 51.98790 78.93047 73.43047
#
# Poissons Ratio (x) = 0.10368 0.04950
# Poissons Ratio (y) = 0.06829 0.31496
# Poissons Ratio (z) = 0.03505 0.33855
#
# Static dielectric constant tensor:
#      x y z
#    x 3.930790 0.000000 -0.046330 
#    y 0.000000 4.088140 0.000000 
#    z -0.046330 0.000000 4.001930 
# 
# 
# High freq. dielectric constant tensor:
#      x y z
#    x 1.869310 0.000000 -0.002580 
#    y 0.000000 1.886780 0.000000 
#    z -0.002580 0.000000 1.882190 
# 
# From -- ./inp_files/14563.got.cif
#   From: 2010.06.25/outbox.cif.g09.slc.cpg/sg9_8_cif.got.tgz:14563.got - 2010.06.27 21:40:51.
