data_PCOD8055110
_publ_section_title
;
Structure prediction by ZEFSAII (Michael W. Deem and Ramdas Pophale) SiO2 
 PCOD8055110
Probable space group: C C
;
_chemical_formula_sum "Si O2"
_cell_formula_units_Z 32
_cell_length_a 12.969099
_cell_length_b 9.032632
_cell_length_c 20.341543
_cell_angle_alpha 90.000000
_cell_angle_beta 146.737200
_cell_angle_gamma 90.000000
_cell_volume 1306.979712
_symmetry_space_group_name_H-M "C C"
_symmetry_group_IT_number 9
_symmetry_cell_setting 'monoclinic'
loop_
_space_group_symop_operation_xyz
x,y,z
x,-y,1/2+z
1/2+x,1/2+y,z
1/2+x,1/2-y,1/2+z
loop_
_atom_site_type_symbol
_atom_site_label
_atom_site_fract_x
_atom_site_fract_y
_atom_site_fract_z
Si Si1 0.540130 0.750477 0.244370
Si Si2 0.673371 0.496940 0.724071
Si Si3 0.936233 0.505109 0.097491
Si Si4 0.626964 0.778625 0.779916
Si Si5 0.231529 0.567610 0.150838
Si Si6 0.551628 0.389671 0.370735
Si Si7 0.582899 0.904237 0.946077
Si Si8 0.319687 0.482288 0.454613
O O1 0.623170 0.595674 0.263135
O O2 0.494850 0.842158 0.153557
O O3 0.348294 0.710439 0.184301
O O4 0.702463 0.833874 0.373141
O O5 0.674275 0.669094 0.745373
O O6 0.539150 0.456594 0.590018
O O7 0.885373 0.467390 0.815250
O O8 0.952920 0.616110 0.167863
O O9 0.049791 0.591647 0.099716
O O10 0.720586 0.492628 0.961409
O O11 0.553199 0.697973 0.804032
O O12 0.803063 0.889952 0.889631
O O13 0.361353 0.481123 0.272091
O O14 0.151925 0.461680 0.052278
O O15 0.561637 0.274820 0.436924
O O16 0.741680 0.951236 0.980311
#
# Coordination Sequence:
#
# PCOD8055110 Si02
#       8
#     4   4   4   4   4   4   4   4
#     4  11  26  46  69 108 148 185 241 309 359 451
#     4  12  23  44  73 101 144 187 235 309 364 443
#     4  11  26  46  71 103 149 187 244 306 374 443
#     4  10  21  44  69  99 138 187 230 291 364 436
#     4  12  25  44  72 109 142 196 248 301 385 445
#     4  11  22  45  72  99 143 192 236 312 365 448
#     4  11  25  43  72 104 137 190 247 297 380 443
#     4  10  24  46  66 103 147 182 239 297 365 437
#
# _framework density 24.483930000000001
#
# number of rings (size 3 to 8) (size 9 to 14) (size 15 to 20)
#    0.000    1.000    2.500    3.750    3.500    1.000 
#    2.250    6.250    0.000    0.000    0.000    0.000 
#    0.000    0.000    0.000    0.000    0.000    0.000 
#
# Total GULP energy -198278.867338 kJ/mol
# GULP energy per Si atom -12392.429209 kJ/mol
# Density = 2.442820 g / cm^3
# Si number density = 24.483930 Si / 1000 Ang^3
#
#
#
# Elastic Constant Matrix: (Units=GPa)
#
#
# Indices 1 2 3 4 5 6 
#
# 1 42.9317 12.0570 34.0104 0.0003 0.8722 0.0001
# 2 12.0570 103.0872 39.6754 0.0006 -4.6723 0.0002
# 3 34.0104 39.6754 162.0913 0.0012 11.5545 0.0004
# 4 0.0003 0.0006 0.0012 29.4914 0.0005 -7.0687
# 5 0.8722 -4.6723 11.5545 0.0005 37.4302 0.0002
# 6 0.0001 0.0002 0.0004 -7.0687 0.0002 27.8863
#
#
#
# Elastic Compliance Matrix: (Units=1/GPa)
#
#
# Indices 1 2 3 4 5 6 
#
# 1 0.028088 -0.001044 -0.005707 0.000000 0.000977 0.000000
# 2 -0.001044 0.010927 -0.002612 0.000000 0.002195 0.000000
# 3 -0.005707 -0.002612 0.008201 0.000000 -0.002725 0.000000
# 4 0.000000 0.000000 0.000000 0.036102 -0.000001 0.009151
# 5 0.000977 0.002195 -0.002725 -0.000001 0.027809 0.000000
# 6 0.000000 0.000000 0.000000 0.009151 0.000000 0.038179
#
#
# Mechanical properties :
#
#
# Convention : Reuss Voigt Hill
#
# Bulk Modulus (GPa) = 35.10236 53.28842 44.19539
# Shear Modulus (GPa) = 28.16443 33.78608 30.97525
#
# Velocity S-wave (km/s) = 3.39532 3.71877 3.56072
# Velocity P-wave (km/s) = 5.45334 6.34436 5.91565
#
# Compressibility (1/GPa) = 0.02848812
#
# Stress axis : x y z
#
# Youngs Moduli (GPa) = 35.60281 91.51274 121.94374
#
# Poissons Ratio (x) = 0.09556 0.69599
# Poissons Ratio (y) = 0.03718 0.31853
# Poissons Ratio (z) = 0.20320 0.23904
#
# Static dielectric constant tensor:
#      x y z
#    x 4.116360 0.000000 -0.059490 
#    y 0.000000 4.691320 0.000000 
#    z -0.059490 0.000000 4.720010 
# 
# 
# High freq. dielectric constant tensor:
#      x y z
#    x 1.948640 0.000000 -0.004590 
#    y 0.000000 1.978090 0.000000 
#    z -0.004590 0.000000 1.993030 
# 
# From -- ./inp_files/33727.got.cif
#   From: 2010.06.25/outbox.cif.g09.slc.cpg/sg9_17_cif.got.tgz:33727.got - 2010.06.27 21:40:51.
