data_PCOD8055667
_publ_section_title
;
Structure prediction by ZEFSAII (Michael W. Deem and Ramdas Pophale) SiO2 
 PCOD8055667
Probable space group: C C
;
_chemical_formula_sum "Si O2"
_cell_formula_units_Z 32
_cell_length_a 12.212571
_cell_length_b 8.349071
_cell_length_c 23.124597
_cell_angle_alpha 90.000000
_cell_angle_beta 145.469003
_cell_angle_gamma 90.000000
_cell_volume 1336.562022
_symmetry_space_group_name_H-M "C C"
_symmetry_group_IT_number 9
_symmetry_cell_setting 'monoclinic'
loop_
_space_group_symop_operation_xyz
x,y,z
x,-y,1/2+z
1/2+x,1/2+y,z
1/2+x,1/2-y,1/2+z
loop_
_atom_site_type_symbol
_atom_site_label
_atom_site_fract_x
_atom_site_fract_y
_atom_site_fract_z
Si Si1 0.361960 0.348715 0.752750
Si Si2 0.347144 0.007644 0.234944
Si Si3 0.473034 0.063641 0.040919
Si Si4 0.427089 0.612813 0.084469
Si Si5 0.954461 0.946557 0.399492
Si Si6 0.327062 0.086079 0.596584
Si Si7 0.278947 0.780849 0.909675
Si Si8 0.198396 0.677637 0.449436
O O1 0.327175 0.165263 0.757109
O O2 0.344619 0.471299 0.798698
O O3 0.570063 0.363675 0.813098
O O4 0.199447 0.396712 0.635425
O O5 0.381491 0.992420 0.181325
O O6 0.539140 0.092474 0.340891
O O7 0.154225 0.106793 0.166778
O O8 0.425415 0.005733 0.085643
O O9 0.346474 0.222908 0.972830
O O10 0.429995 0.929459 0.972896
O O11 0.397612 0.726968 0.127708
O O12 0.300984 0.702869 0.981516
O O13 0.327944 0.439210 0.046441
O O14 0.796662 0.864344 0.372154
O O15 0.091847 0.798912 0.444716
O O16 0.092107 0.077608 0.489990
#
# Coordination Sequence:
#
# PCOD8055667 Si02
#       8
#     4   4   4   4   4   4   4   4
#     4  12  24  43  71 104 145 192 240 300 366 433
#     4  12  25  41  73 105 143 197 241 298 371 435
#     4  10  24  44  70 103 149 184 241 313 355 439
#     4  11  22  44  68 101 149 179 240 302 354 443
#     4  11  24  44  71 100 143 191 244 303 362 432
#     4  10  23  44  70 102 138 198 239 297 369 428
#     4  11  23  45  72 100 140 196 238 295 376 431
#     4  11  23  45  65 101 147 185 237 308 357 427
#
# _framework density 23.942025999999998
#
# number of rings (size 3 to 8) (size 9 to 14) (size 15 to 20)
#    0.000    1.000    7.500    0.000    5.250    1.000 
#    0.000    2.500    2.750    0.000    0.000    0.000 
#    0.000    0.000    0.000    0.000    0.000    0.000 
#
# Total GULP energy -198304.989775 kJ/mol
# GULP energy per Si atom -12394.061861 kJ/mol
# Density = 2.388753 g / cm^3
# Si number density = 23.942026 Si / 1000 Ang^3
#
#
#
# Elastic Constant Matrix: (Units=GPa)
#
#
# Indices 1 2 3 4 5 6 
#
# 1 75.2703 33.3267 46.3538 0.0000 10.6872 0.0000
# 2 33.3267 132.5045 50.1586 0.0000 12.1045 0.0000
# 3 46.3538 50.1586 136.3555 0.0000 34.1793 0.0000
# 4 0.0000 0.0000 0.0000 48.3648 0.0000 4.7714
# 5 10.6872 12.1045 34.1793 0.0000 25.6676 0.0000
# 6 0.0000 0.0000 0.0000 4.7714 0.0000 38.9602
#
#
#
# Elastic Compliance Matrix: (Units=1/GPa)
#
#
# Indices 1 2 3 4 5 6 
#
# 1 0.017499 -0.002493 -0.005253 0.000000 0.000885 0.000000
# 2 -0.002493 0.009124 -0.002537 0.000000 0.000114 0.000000
# 3 -0.005253 -0.002537 0.013817 0.000000 -0.015014 0.000000
# 4 0.000000 0.000000 0.000000 0.020929 0.000000 -0.002563
# 5 0.000885 0.000114 -0.015014 0.000000 0.058530 0.000000
# 6 0.000000 0.000000 0.000000 -0.002563 0.000000 0.025981
#
#
# Mechanical properties :
#
#
# Convention : Reuss Voigt Hill
#
# Bulk Modulus (GPa) = 50.32387 67.08985 58.70686
# Shear Modulus (GPa) = 28.88964 36.88461 32.88713
#
# Velocity S-wave (km/s) = 3.47746 3.92928 3.71025
# Velocity P-wave (km/s) = 6.09822 6.97627 6.55197
#
# Compressibility (1/GPa) = 0.01987129
#
# Stress axis : x y z
#
# Youngs Moduli (GPa) = 57.14617 109.59989 72.37692
#
# Poissons Ratio (x) = 0.27328 0.38023
# Poissons Ratio (y) = 0.14249 0.18364
# Poissons Ratio (z) = 0.30022 0.27808
#
# Static dielectric constant tensor:
#      x y z
#    x 4.030000 0.000000 0.248280 
#    y 0.000000 5.118200 0.000000 
#    z 0.248280 0.000000 4.458440 
# 
# 
# High freq. dielectric constant tensor:
#      x y z
#    x 1.922270 0.000000 0.022070 
#    y 0.000000 1.963570 0.000000 
#    z 0.022070 0.000000 1.960120 
# 
# From -- ./inp_files/35328.got.cif
#   From: 2010.06.25/outbox.cif.g09.slc.cpg/sg9_18_cif.got.tgz:35328.got - 2010.06.27 21:40:51.
