data_PCOD8055050
_publ_section_title
;
Structure prediction by ZEFSAII (Michael W. Deem and Ramdas Pophale) SiO2 
 PCOD8055050
Probable space group: C C
;
_chemical_formula_sum "Si O2"
_cell_formula_units_Z 24
_cell_length_a 19.097606
_cell_length_b 7.830773
_cell_length_c 8.707538
_cell_angle_alpha 90.000000
_cell_angle_beta 40.284991
_cell_angle_gamma 90.000000
_cell_volume 841.991887
_symmetry_space_group_name_H-M "C C"
_symmetry_group_IT_number 9
_symmetry_cell_setting 'monoclinic'
loop_
_space_group_symop_operation_xyz
x,y,z
x,-y,1/2+z
1/2+x,1/2+y,z
1/2+x,1/2-y,1/2+z
loop_
_atom_site_type_symbol
_atom_site_label
_atom_site_fract_x
_atom_site_fract_y
_atom_site_fract_z
Si Si1 0.135910 0.463937 0.803880
Si Si2 0.709652 0.456612 0.619122
Si Si3 0.501346 0.108663 0.253240
Si Si4 0.341812 0.160841 0.152751
Si Si5 0.880975 0.081098 0.837958
Si Si6 0.576984 0.341677 0.571333
O O1 0.095378 0.360778 0.722381
O O2 0.263953 0.490874 0.583334
O O3 0.060484 0.624949 0.983625
O O4 0.094967 0.360443 0.026542
O O5 0.803066 0.538050 0.356704
O O6 0.754037 0.310376 0.662421
O O7 0.609069 0.385585 0.691240
O O8 0.669232 0.604319 0.797324
O O9 0.419592 0.270246 0.391032
O O10 0.440011 0.932896 0.402018
O O11 0.375238 0.343610 0.171957
O O12 0.960258 0.917330 0.718747
#
# Coordination Sequence:
#
# PCOD8055050 Si02
#       6
#     4   4   4   4   4   4
#     4  12  28  52  74 113 155 200 257 326 381 469
#     4  10  21  42  75 110 147 209 246 308 390 462
#     4  12  26  49  77 107 154 206 255 309 394 467
#     4  11  20  46  75 110 149 206 252 313 381 459
#     4  12  26  48  78 113 156 200 262 322 385 464
#     4  11  25  45  77 111 153 201 258 320 385 457
#
# _framework density 28.503838999999999
#
# number of rings (size 3 to 8) (size 9 to 14) (size 15 to 20)
#    0.000    0.667    5.000    2.000    4.667    2.667 
#    0.000    1.667    0.000    0.000    0.000    0.000 
#    0.000    0.000    0.000    0.000    0.000    0.000 
#
# Total GULP energy -148694.959964 kJ/mol
# GULP energy per Si atom -12391.246664 kJ/mol
# Density = 2.843896 g / cm^3
# Si number density = 28.503839 Si / 1000 Ang^3
#
#
#
# Elastic Constant Matrix: (Units=GPa)
#
#
# Indices 1 2 3 4 5 6 
#
# 1 153.1709 1.6606 33.1331 0.0000 5.1444 0.0000
# 2 1.6606 47.6976 11.3725 0.0000 -14.8860 0.0000
# 3 33.1331 11.3725 164.3749 0.0000 -25.6067 0.0000
# 4 0.0000 0.0000 0.0000 32.8728 0.0000 -7.7633
# 5 5.1444 -14.8860 -25.6067 0.0000 51.0827 0.0000
# 6 0.0000 0.0000 0.0000 -7.7633 0.0000 33.7083
#
#
#
# Elastic Compliance Matrix: (Units=1/GPa)
#
#
# Indices 1 2 3 4 5 6 
#
# 1 0.006939 -0.000359 -0.001626 0.000000 -0.001618 0.000000
# 2 -0.000359 0.023135 -0.000512 0.000000 0.006521 0.000000
# 3 -0.001626 -0.000512 0.006995 0.000000 0.003521 0.000000
# 4 0.000000 0.000000 0.000000 0.032170 0.000000 0.007409
# 5 -0.001618 0.006521 0.003521 0.000000 0.023404 0.000000
# 6 0.000000 0.000000 0.000000 0.007409 0.000000 0.031373
#
#
# Mechanical properties :
#
#
# Convention : Reuss Voigt Hill
#
# Bulk Modulus (GPa) = 31.17726 50.84176 41.00951
# Shear Modulus (GPa) = 35.79033 44.80456 40.29744
#
# Velocity S-wave (km/s) = 3.54733 3.96899 3.76407
# Velocity P-wave (km/s) = 5.26686 6.23534 5.77145
#
# Compressibility (1/GPa) = 0.03207465
#
# Stress axis : x y z
#
# Youngs Moduli (GPa) = 144.12112 43.22402 142.95193
#
# Poissons Ratio (x) = 0.01552 0.23243
# Poissons Ratio (y) = 0.05174 0.07325
# Poissons Ratio (z) = 0.23433 0.02215
#
# Static dielectric constant tensor:
#      x y z
#    x 5.742780 0.000000 0.045630 
#    y 0.000000 4.997490 0.000000 
#    z 0.045630 0.000000 5.155450 
# 
# 
# High freq. dielectric constant tensor:
#      x y z
#    x 2.167770 0.000000 -0.001530 
#    y 0.000000 2.144820 0.000000 
#    z -0.001530 0.000000 2.180410 
# 
# From -- ./inp_files/6759.got.cif
#   From: 2010.06.25/outbox.cif.g09.slc.cpg/sg9_4_cif.got.tgz:6759.got - 2010.06.27 21:40:51.
