data_PCOD8055916
_publ_section_title
;
Structure prediction by ZEFSAII (Michael W. Deem and Ramdas Pophale) SiO2 
 PCOD8055916
Probable space group: C C
;
_chemical_formula_sum "Si O2"
_cell_formula_units_Z 32
_cell_length_a 9.154652
_cell_length_b 12.763371
_cell_length_c 13.915413
_cell_angle_alpha 90.000000
_cell_angle_beta 128.268627
_cell_angle_gamma 90.000000
_cell_volume 1276.547418
_symmetry_space_group_name_H-M "C C"
_symmetry_group_IT_number 9
_symmetry_cell_setting 'monoclinic'
loop_
_space_group_symop_operation_xyz
x,y,z
x,-y,1/2+z
1/2+x,1/2+y,z
1/2+x,1/2-y,1/2+z
loop_
_atom_site_type_symbol
_atom_site_label
_atom_site_fract_x
_atom_site_fract_y
_atom_site_fract_z
Si Si1 0.986050 0.856948 0.900300
Si Si2 0.514021 0.675538 0.791305
Si Si3 0.746868 0.492600 0.278625
Si Si4 0.832745 0.795394 0.026011
Si Si5 0.731240 0.047782 0.793489
Si Si6 0.349455 0.101990 0.618192
Si Si7 0.448865 0.667282 0.178532
Si Si8 0.669118 0.980038 0.478482
O O1 0.970452 0.783523 0.989043
O O2 0.978773 0.792261 0.799963
O O3 0.814560 0.934119 0.826858
O O4 0.177855 0.923382 0.978161
O O5 0.629142 0.575034 0.805300
O O6 0.639701 0.741010 0.917327
O O7 0.436342 0.743752 0.666994
O O8 0.339621 0.638046 0.782480
O O9 0.768925 0.425028 0.190920
O O10 0.632334 0.602552 0.215151
O O11 0.953070 0.510444 0.407586
O O12 0.794522 0.916527 0.032070
O O13 0.526704 0.031860 0.662934
O O14 0.698604 0.082970 0.890425
O O15 0.412900 0.220928 0.616064
O O16 0.262564 0.595159 0.096300
#
# Coordination Sequence:
#
# PCOD8055916 Si02
#       8
#     4   4   4   4   4   4   4   4
#     4  11  23  46  69 107 144 193 252 316 383 474
#     4  12  24  47  70 107 146 197 253 320 388 473
#     4  11  23  47  72 104 145 195 250 317 387 463
#     4  11  25  45  73 104 153 192 259 321 390 472
#     4  10  24  47  69 104 146 188 250 317 388 457
#     4  11  26  44  75 107 148 198 258 313 389 472
#     4  12  25  44  78 105 150 197 255 319 391 469
#     4  10  24  46  72 102 148 194 243 323 390 454
#
# _framework density 25.067615
#
# number of rings (size 3 to 8) (size 9 to 14) (size 15 to 20)
#    0.000    1.000    3.750    1.500    7.000    3.000 
#    6.750    0.000    0.000    0.000    0.000    0.000 
#    0.000    0.000    0.000    0.000    0.000    0.000 
#
# Total GULP energy -198235.909494 kJ/mol
# GULP energy per Si atom -12389.744343 kJ/mol
# Density = 2.501056 g / cm^3
# Si number density = 25.067615 Si / 1000 Ang^3
#
#
#
# Elastic Constant Matrix: (Units=GPa)
#
#
# Indices 1 2 3 4 5 6 
#
# 1 108.5278 20.7486 32.4218 0.0000 23.7591 0.0000
# 2 20.7486 65.9128 -4.2993 0.0000 3.3563 0.0000
# 3 32.4218 -4.2993 92.4332 0.0000 12.0268 0.0000
# 4 0.0000 0.0000 0.0000 31.6699 0.0000 8.5256
# 5 23.7591 3.3563 12.0268 0.0000 42.6424 0.0000
# 6 0.0000 0.0000 0.0000 8.5256 0.0000 21.8214
#
#
#
# Elastic Compliance Matrix: (Units=1/GPa)
#
#
# Indices 1 2 3 4 5 6 
#
# 1 0.012271 -0.003830 -0.003770 0.000000 -0.005472 0.000000
# 2 -0.003830 0.016500 0.002078 0.000000 0.000249 0.000000
# 3 -0.003770 0.002078 0.012442 0.000000 -0.001572 0.000000
# 4 0.000000 0.000000 0.000000 0.035287 0.000000 -0.013787
# 5 -0.005472 0.000249 -0.001572 0.000000 0.026924 0.000000
# 6 0.000000 0.000000 0.000000 -0.013787 0.000000 0.051213
#
#
# Mechanical properties :
#
#
# Convention : Reuss Voigt Hill
#
# Bulk Modulus (GPa) = 33.14591 40.51289 36.82940
# Shear Modulus (GPa) = 28.45164 33.76024 31.10594
#
# Velocity S-wave (km/s) = 3.37262 3.67381 3.52644
# Velocity P-wave (km/s) = 5.33080 5.84743 5.59508
#
# Compressibility (1/GPa) = 0.03016964
#
# Stress axis : x y z
#
# Youngs Moduli (GPa) = 81.49461 60.60574 80.37098
#
# Poissons Ratio (x) = 0.23212 0.30302
# Poissons Ratio (y) = 0.31212 -0.16705
# Poissons Ratio (z) = 0.30725 -0.12597
#
# Static dielectric constant tensor:
#      x y z
#    x 4.729450 0.000000 0.106990 
#    y 0.000000 4.097710 0.000000 
#    z 0.106990 0.000000 5.122210 
# 
# 
# High freq. dielectric constant tensor:
#      x y z
#    x 2.001560 0.000000 0.014340 
#    y 0.000000 1.969280 0.000000 
#    z 0.014340 0.000000 2.022320 
# 
# From -- ./inp_files/23436.got.cif
#   From: 2010.06.25/outbox.cif.g09.slc.cpg/sg9_12_cif.got.tgz:23436.got - 2010.06.27 21:40:51.
