data_PCOD8055751
_publ_section_title
;
Structure prediction by ZEFSAII (Michael W. Deem and Ramdas Pophale) SiO2 
 PCOD8055751
Probable space group: C C
;
_chemical_formula_sum "Si O2"
_cell_formula_units_Z 32
_cell_length_a 16.445012
_cell_length_b 8.589635
_cell_length_c 10.740882
_cell_angle_alpha 90.000000
_cell_angle_beta 118.108449
_cell_angle_gamma 90.000000
_cell_volume 1338.276024
_symmetry_space_group_name_H-M "C C"
_symmetry_group_IT_number 9
_symmetry_cell_setting 'monoclinic'
loop_
_space_group_symop_operation_xyz
x,y,z
x,-y,1/2+z
1/2+x,1/2+y,z
1/2+x,1/2-y,1/2+z
loop_
_atom_site_type_symbol
_atom_site_label
_atom_site_fract_x
_atom_site_fract_y
_atom_site_fract_z
Si Si1 0.590540 0.293219 0.932710
Si Si2 0.706760 0.863219 0.969319
Si Si3 0.804427 0.453845 0.253651
Si Si4 0.119182 0.106529 0.071337
Si Si5 0.477212 0.770061 0.127466
Si Si6 0.366286 0.132979 0.053262
Si Si7 0.280546 0.691669 0.062055
Si Si8 0.057409 0.396625 0.652843
O O1 0.502933 0.234714 0.792345
O O2 0.580530 0.477549 0.947967
O O3 0.688539 0.267079 0.931882
O O4 0.597434 0.181937 0.058679
O O5 0.647743 0.768848 0.027822
O O6 0.787625 0.757735 0.974103
O O7 0.638605 0.915491 0.810586
O O8 0.759684 0.009183 0.068326
O O9 0.705265 0.532238 0.206055
O O10 0.853670 0.532868 0.169311
O O11 0.860984 0.472004 0.422290
O O12 0.793547 0.272410 0.206751
O O13 0.035914 0.135132 0.105100
O O14 0.368766 0.726901 0.036649
O O15 0.507148 0.936629 0.093577
O O16 0.469434 0.207542 0.136390
#
# Coordination Sequence:
#
# PCOD8055751 Si02
#       8
#     4   4   4   4   4   4   4   4
#     4  11  26  47  73 101 151 193 245 303 377 445
#     4  11  25  47  73 110 150 191 249 307 380 444
#     4  10  23  46  73 105 151 195 245 299 378 438
#     4  10  26  43  73 106 146 195 243 306 371 448
#     4  12  26  45  74 108 145 190 254 305 372 445
#     4  11  25  45  75 111 146 198 248 305 370 454
#     4  11  23  47  69 108 142 190 239 310 365 446
#     4  12  26  46  78 103 149 198 249 303 379 444
#
# _framework density 23.911360999999999
#
# number of rings (size 3 to 8) (size 9 to 14) (size 15 to 20)
#    0.000    1.000    2.500    3.000    8.750    0.000 
#    0.000    1.250    0.000    0.000    0.000    0.000 
#    0.000    0.000    0.000    0.000    0.000    0.000 
#
# Total GULP energy -198281.916732 kJ/mol
# GULP energy per Si atom -12392.619796 kJ/mol
# Density = 2.385694 g / cm^3
# Si number density = 23.911361 Si / 1000 Ang^3
#
#
#
# Elastic Constant Matrix: (Units=GPa)
#
#
# Indices 1 2 3 4 5 6 
#
# 1 163.0200 52.8170 59.5012 0.0000 12.2922 0.0000
# 2 52.8170 142.5055 42.9487 0.0000 -1.5014 0.0000
# 3 59.5012 42.9487 61.3611 0.0000 3.2087 0.0000
# 4 0.0000 0.0000 0.0000 25.8045 0.0000 3.6610
# 5 12.2922 -1.5014 3.2087 0.0000 37.1881 0.0000
# 6 0.0000 0.0000 0.0000 3.6610 0.0000 33.6033
#
#
#
# Elastic Compliance Matrix: (Units=1/GPa)
#
#
# Indices 1 2 3 4 5 6 
#
# 1 0.009829 -0.001061 -0.008655 0.000000 -0.002545 0.000000
# 2 -0.001061 0.009038 -0.005359 0.000000 0.001178 0.000000
# 3 -0.008655 -0.005359 0.028430 0.000000 0.000192 0.000000
# 4 0.000000 0.000000 0.000000 0.039361 0.000000 -0.004288
# 5 -0.002545 0.001178 0.000192 0.000000 0.027763 0.000000
# 6 0.000000 0.000000 0.000000 -0.004288 0.000000 0.030226
#
#
# Mechanical properties :
#
#
# Convention : Reuss Voigt Hill
#
# Bulk Modulus (GPa) = 58.31762 75.26894 66.79328
# Shear Modulus (GPa) = 27.69878 33.42716 30.56297
#
# Velocity S-wave (km/s) = 3.40721 3.74299 3.57904
# Velocity P-wave (km/s) = 6.31829 7.08707 6.71370
#
# Compressibility (1/GPa) = 0.01714748
#
# Stress axis : x y z
#
# Youngs Moduli (GPa) = 101.73934 110.64419 35.17356
#
# Poissons Ratio (x) = 0.11742 0.30444
# Poissons Ratio (y) = 0.10797 0.18848
# Poissons Ratio (z) = 0.88058 0.59289
#
# Static dielectric constant tensor:
#      x y z
#    x 4.700200 0.000000 0.234950 
#    y 0.000000 4.329470 0.000000 
#    z 0.234950 0.000000 4.002840 
# 
# 
# High freq. dielectric constant tensor:
#      x y z
#    x 1.973130 0.000000 0.013280 
#    y 0.000000 1.947010 0.000000 
#    z 0.013280 0.000000 1.927680 
# 
# From -- ./inp_files/19080.got.cif
#   From: 2010.06.25/outbox.cif.g09.slc.cpg/sg9_10_cif.got.tgz:19080.got - 2010.06.27 21:40:51.
