data_PCOD8055448
_publ_section_title
;
Structure prediction by ZEFSAII (Michael W. Deem and Ramdas Pophale) SiO2 
 PCOD8055448
Probable space group: C C
;
_chemical_formula_sum "Si O2"
_cell_formula_units_Z 28
_cell_length_a 7.121633
_cell_length_b 12.255959
_cell_length_c 18.565928
_cell_angle_alpha 90.000000
_cell_angle_beta 121.431008
_cell_angle_gamma 90.000000
_cell_volume 1382.704476
_symmetry_space_group_name_H-M "C C"
_symmetry_group_IT_number 9
_symmetry_cell_setting 'monoclinic'
loop_
_space_group_symop_operation_xyz
x,y,z
x,-y,1/2+z
1/2+x,1/2+y,z
1/2+x,1/2-y,1/2+z
loop_
_atom_site_type_symbol
_atom_site_label
_atom_site_fract_x
_atom_site_fract_y
_atom_site_fract_z
Si Si1 0.870000 0.255386 0.817930
Si Si2 0.539202 0.557609 0.937931
Si Si3 0.794285 0.843061 0.513715
Si Si4 0.058495 0.175074 0.373272
Si Si5 0.098592 0.685277 0.230743
Si Si6 0.533837 0.040573 0.086658
Si Si7 0.181240 0.303378 0.141767
O O1 0.763380 0.328191 0.859225
O O2 0.683885 0.197793 0.729891
O O3 0.023566 0.160238 0.881046
O O4 0.013232 0.337449 0.795962
O O5 0.497009 0.445930 0.886738
O O6 0.351495 0.570027 0.962087
O O7 0.779314 0.557323 0.020216
O O8 0.621288 0.752015 0.452471
O O9 0.686013 0.898151 0.560531
O O10 0.025441 0.791932 0.582537
O O11 0.849915 0.225207 0.288482
O O12 0.088083 0.579092 0.178368
O O13 0.933861 0.778518 0.164886
O O14 0.593977 0.914559 0.091612
#
# Coordination Sequence:
#
# PCOD8055448 Si02
#       7
#     4   4   4   4   4   4   4
#     4   9  22  41  62  91 130 159 213 263 305 376
#     4  11  22  41  65  97 128 166 215 260 315 379
#     4  11  24  42  63  97 130 167 214 262 311 378
#     4  11  22  42  68  91 129 170 209 262 321 369
#     4  10  23  42  65  93 127 167 210 263 311 377
#     4  12  23  41  68  93 128 172 210 258 324 371
#     4  10  22  45  61  94 130 161 215 264 301 384
#
# _framework density 20.250170000000001
#
# number of rings (size 3 to 8) (size 9 to 14) (size 15 to 20)
#    0.857    0.571    2.857    2.571    0.000    2.286 
#    2.571    4.286    0.000    0.000    0.000    0.000 
#    0.000    0.000    0.000    0.000    0.000    0.000 
#
# Total GULP energy -173513.699803 kJ/mol
# GULP energy per Si atom -12393.835700 kJ/mol
# Density = 2.020408 g / cm^3
# Si number density = 20.250170 Si / 1000 Ang^3
#
#
#
# Elastic Constant Matrix: (Units=GPa)
#
#
# Indices 1 2 3 4 5 6 
#
# 1 94.2801 50.8298 21.7213 0.0000 -7.0861 0.0000
# 2 50.8298 88.2637 21.3643 0.0000 -10.6910 0.0000
# 3 21.7213 21.3643 79.1641 0.0000 12.6886 0.0000
# 4 0.0000 0.0000 0.0000 25.1643 0.0000 -4.2325
# 5 -7.0861 -10.6910 12.6886 0.0000 43.5601 0.0000
# 6 0.0000 0.0000 0.0000 -4.2325 0.0000 25.1759
#
#
#
# Elastic Compliance Matrix: (Units=1/GPa)
#
#
# Indices 1 2 3 4 5 6 
#
# 1 0.015724 -0.008373 -0.002240 0.000000 0.001155 0.000000
# 2 -0.008373 0.017329 -0.002982 0.000000 0.003759 0.000000
# 3 -0.002240 -0.002982 0.014924 0.000000 -0.005443 0.000000
# 4 0.000000 0.000000 0.000000 0.040895 0.000000 0.006875
# 5 0.001155 0.003759 -0.005443 0.000000 0.025653 0.000000
# 6 0.000000 0.000000 0.000000 0.006875 0.000000 0.040876
#
#
# Mechanical properties :
#
#
# Convention : Reuss Voigt Hill
#
# Bulk Modulus (GPa) = 48.10697 49.94874 49.02785
# Shear Modulus (GPa) = 26.38260 29.96623 28.17441
#
# Velocity S-wave (km/s) = 3.61339 3.85099 3.73408
# Velocity P-wave (km/s) = 6.42003 6.67030 6.54636
#
# Compressibility (1/GPa) = 0.02078701
#
# Stress axis : x y z
#
# Youngs Moduli (GPa) = 63.59811 57.70781 67.00748
#
# Poissons Ratio (x) = 0.48319 0.15009
# Poissons Ratio (y) = 0.53251 0.19980
# Poissons Ratio (z) = 0.14245 0.17207
#
# Static dielectric constant tensor:
#      x y z
#    x 3.629890 0.000000 0.021900 
#    y 0.000000 3.398240 0.000000 
#    z 0.021900 0.000000 3.876330 
# 
# 
# High freq. dielectric constant tensor:
#      x y z
#    x 1.788140 0.000000 0.006040 
#    y 0.000000 1.768050 0.000000 
#    z 0.006040 0.000000 1.813370 
# 
# From -- ./inp_files/28727.got.cif
#   From: 2010.06.25/outbox.cif.g09.slc.cpg/sg9_15_cif.got.tgz:28727.got - 2010.06.27 21:40:51.
