data_PCOD8055433
_publ_section_title
;
Structure prediction by ZEFSAII (Michael W. Deem and Ramdas Pophale) SiO2 
 PCOD8055433
Probable space group: C C
;
_chemical_formula_sum "Si O2"
_cell_formula_units_Z 32
_cell_length_a 11.694930
_cell_length_b 7.986945
_cell_length_c 14.272555
_cell_angle_alpha 90.000000
_cell_angle_beta 66.424320
_cell_angle_gamma 90.000000
_cell_volume 1221.878304
_symmetry_space_group_name_H-M "C C"
_symmetry_group_IT_number 9
_symmetry_cell_setting 'monoclinic'
loop_
_space_group_symop_operation_xyz
x,y,z
x,-y,1/2+z
1/2+x,1/2+y,z
1/2+x,1/2-y,1/2+z
loop_
_atom_site_type_symbol
_atom_site_label
_atom_site_fract_x
_atom_site_fract_y
_atom_site_fract_z
Si Si1 0.938560 0.832918 0.909070
Si Si2 0.329050 0.129208 0.563639
Si Si3 0.445102 0.599897 0.770137
Si Si4 0.876250 0.456130 0.739644
Si Si5 0.570562 0.212860 0.382888
Si Si6 0.871235 0.003772 0.108971
Si Si7 0.118901 0.590403 0.759108
Si Si8 0.228646 0.915672 0.454571
O O1 0.841805 0.687842 0.963558
O O2 0.070276 0.761157 0.825446
O O3 0.874387 0.963842 0.857946
O O4 0.961266 0.938847 0.996357
O O5 0.434817 0.136252 0.448359
O O6 0.310484 0.313762 0.611378
O O7 0.357845 0.997907 0.636656
O O8 0.210280 0.063275 0.538770
O O9 0.363163 0.758210 0.764480
O O10 0.563984 0.660474 0.794042
O O11 0.467192 0.498126 0.665769
O O12 0.767092 0.537694 0.836104
O O13 0.012455 0.523600 0.723967
O O14 0.609692 0.298781 0.469610
O O15 0.652688 0.052463 0.326077
O O16 0.749428 0.882034 0.161694
#
# Coordination Sequence:
#
# PCOD8055433 Si02
#       8
#     4   4   4   4   4   4   4   4
#     4  11  22  45  71 108 151 191 257 328 384 468
#     4  12  23  48  71 108 153 199 262 318 388 472
#     4  11  23  45  68 109 154 186 260 317 376 469
#     4  10  22  44  70 100 148 191 246 319 378 460
#     4  11  23  46  70 102 146 202 246 326 390 457
#     4  12  25  44  74 110 148 209 253 320 393 474
#     4  10  23  46  71 103 149 203 251 317 396 461
#     4  11  23  46  73 100 147 197 245 323 391 455
#
# _framework density 26.189188000000001
#
# number of rings (size 3 to 8) (size 9 to 14) (size 15 to 20)
#    0.000    1.000    5.000    3.750    1.750    1.000 
#    6.750    0.000    0.000    0.000    0.000    0.000 
#    0.000    0.000    0.000    0.000    0.000    0.000 
#
# Total GULP energy -198212.989572 kJ/mol
# GULP energy per Si atom -12388.311848 kJ/mol
# Density = 2.612958 g / cm^3
# Si number density = 26.189188 Si / 1000 Ang^3
#
#
#
# Elastic Constant Matrix: (Units=GPa)
#
#
# Indices 1 2 3 4 5 6 
#
# 1 73.8259 27.3670 42.5092 0.0000 24.0721 0.0000
# 2 27.3670 136.2650 57.6659 0.0000 21.7900 0.0000
# 3 42.5092 57.6659 139.7997 0.0000 43.0003 0.0000
# 4 0.0000 0.0000 0.0000 43.4056 0.0000 12.5771
# 5 24.0721 21.7900 43.0003 0.0000 50.0309 0.0000
# 6 0.0000 0.0000 0.0000 12.5771 0.0000 31.2037
#
#
#
# Elastic Compliance Matrix: (Units=1/GPa)
#
#
# Indices 1 2 3 4 5 6 
#
# 1 0.017559 -0.001351 -0.003214 0.000000 -0.005098 0.000000
# 2 -0.001351 0.009030 -0.003132 0.000000 -0.000591 0.000000
# 3 -0.003214 -0.003132 0.011591 0.000000 -0.007052 0.000000
# 4 0.000000 0.000000 0.000000 0.026085 0.000000 -0.010514
# 5 -0.005098 -0.000591 -0.007052 0.000000 0.028759 0.000000
# 6 0.000000 0.000000 0.000000 -0.010514 0.000000 0.036285
#
#
# Mechanical properties :
#
#
# Convention : Reuss Voigt Hill
#
# Bulk Modulus (GPa) = 43.88700 67.21942 55.55321
# Shear Modulus (GPa) = 32.83007 39.75126 36.29067
#
# Velocity S-wave (km/s) = 3.54443 3.90019 3.72655
# Velocity P-wave (km/s) = 5.79177 6.78266 6.30671
#
# Compressibility (1/GPa) = 0.02278579
#
# Stress axis : x y z
#
# Youngs Moduli (GPa) = 56.95074 110.74203 86.27048
#
# Poissons Ratio (x) = 0.14964 0.27726
# Poissons Ratio (y) = 0.07695 0.27022
# Poissons Ratio (z) = 0.18303 0.34687
#
# Static dielectric constant tensor:
#      x y z
#    x 4.242790 0.000000 0.242560 
#    y 0.000000 5.017050 0.000000 
#    z 0.242560 0.000000 4.613960 
# 
# 
# High freq. dielectric constant tensor:
#      x y z
#    x 2.029230 0.000000 0.022070 
#    y 0.000000 2.064500 0.000000 
#    z 0.022070 0.000000 2.048920 
# 
# From -- ./inp_files/24367.got.cif
#   From: 2010.06.25/outbox.cif.g09.slc.cpg/sg9_13_cif.got.tgz:24367.got - 2010.06.27 21:40:51.
