data_PCOD8055431
_publ_section_title
;
Structure prediction by ZEFSAII (Michael W. Deem and Ramdas Pophale) SiO2 
 PCOD8055431
Probable space group: C C
;
_chemical_formula_sum "Si O2"
_cell_formula_units_Z 28
_cell_length_a 14.155308
_cell_length_b 6.547375
_cell_length_c 13.356130
_cell_angle_alpha 90.000000
_cell_angle_beta 95.025951
_cell_angle_gamma 90.000000
_cell_volume 1233.088219
_symmetry_space_group_name_H-M "C C"
_symmetry_group_IT_number 9
_symmetry_cell_setting 'monoclinic'
loop_
_space_group_symop_operation_xyz
x,y,z
x,-y,1/2+z
1/2+x,1/2+y,z
1/2+x,1/2-y,1/2+z
loop_
_atom_site_type_symbol
_atom_site_label
_atom_site_fract_x
_atom_site_fract_y
_atom_site_fract_z
Si Si1 0.175230 0.387349 0.720340
Si Si2 0.464880 0.341749 0.638121
Si Si3 0.764765 0.491930 0.800955
Si Si4 0.817651 0.536117 0.521964
Si Si5 0.821678 0.818336 0.149910
Si Si6 0.588012 0.226120 0.828524
Si Si7 0.600802 0.635939 0.548082
O O1 0.225237 0.554915 0.653872
O O2 0.133917 0.502042 0.814905
O O3 0.092390 0.288421 0.643301
O O4 0.253350 0.227672 0.768290
O O5 0.397098 0.185790 0.573680
O O6 0.411090 0.539574 0.673321
O O7 0.501266 0.235679 0.742817
O O8 0.546995 0.423698 0.569455
O O9 0.825069 0.375095 0.723949
O O10 0.658861 0.407462 0.805083
O O11 0.826957 0.453352 0.904366
O O12 0.830921 0.294086 0.544052
O O13 0.713394 0.600599 0.549836
O O14 0.559235 0.258681 0.942727
#
# Coordination Sequence:
#
# PCOD8055431 Si02
#       7
#     4   4   4   4   4   4   4
#     4  11  21  46  71  98 141 182 233 294 352 431
#     4  12  25  45  68 106 147 181 241 295 354 441
#     4  10  22  44  70 100 134 186 235 287 359 423
#     4  11  25  45  70 103 139 191 240 288 365 427
#     4  11  23  42  69 100 141 177 229 294 344 428
#     4  10  25  42  70 101 139 186 235 290 361 423
#     4  11  23  48  68 100 145 187 237 298 359 425
#
# _framework density 22.707215000000001
#
# number of rings (size 3 to 8) (size 9 to 14) (size 15 to 20)
#    0.000    1.143    4.286    0.857    6.000    1.143 
#    2.571    0.000    0.000    0.000    0.000    0.000 
#    0.000    0.000    0.000    0.000    0.000    0.000 
#
# Total GULP energy -173548.238601 kJ/mol
# GULP energy per Si atom -12396.302757 kJ/mol
# Density = 2.265553 g / cm^3
# Si number density = 22.707215 Si / 1000 Ang^3
#
#
#
# Elastic Constant Matrix: (Units=GPa)
#
#
# Indices 1 2 3 4 5 6 
#
# 1 62.0290 34.9427 43.8207 0.0000 20.2147 0.0000
# 2 34.9427 139.7005 51.8021 0.0000 16.2082 0.0000
# 3 43.8207 51.8021 130.6221 0.0000 29.0004 0.0000
# 4 0.0000 0.0000 0.0000 33.6801 0.0000 -0.0742
# 5 20.2147 16.2082 29.0004 0.0000 32.2164 0.0000
# 6 0.0000 0.0000 0.0000 -0.0742 0.0000 43.5105
#
#
#
# Elastic Compliance Matrix: (Units=1/GPa)
#
#
# Indices 1 2 3 4 5 6 
#
# 1 0.024395 -0.003227 -0.004832 0.000000 -0.009334 0.000000
# 2 -0.003227 0.008880 -0.002370 0.000000 -0.000309 0.000000
# 3 -0.004832 -0.002370 0.011596 0.000000 -0.006214 0.000000
# 4 0.000000 0.000000 0.000000 0.029691 0.000000 0.000051
# 5 -0.009334 -0.000309 -0.006214 0.000000 0.042646 0.000000
# 6 0.000000 0.000000 0.000000 0.000051 0.000000 0.022983
#
#
# Mechanical properties :
#
#
# Convention : Reuss Voigt Hill
#
# Bulk Modulus (GPa) = 41.64505 65.94254 53.79379
# Shear Modulus (GPa) = 29.57622 35.33382 32.45502
#
# Velocity S-wave (km/s) = 3.61294 3.94897 3.78469
# Velocity P-wave (km/s) = 5.98199 7.06370 6.54523
#
# Compressibility (1/GPa) = 0.02401246
#
# Stress axis : x y z
#
# Youngs Moduli (GPa) = 40.99252 112.61007 86.23353
#
# Poissons Ratio (x) = 0.36341 0.41666
# Poissons Ratio (y) = 0.13229 0.20442
# Poissons Ratio (z) = 0.19807 0.26694
#
# Static dielectric constant tensor:
#      x y z
#    x 3.953080 0.000000 -0.075620 
#    y 0.000000 4.281470 0.000000 
#    z -0.075620 0.000000 4.320850 
# 
# 
# High freq. dielectric constant tensor:
#      x y z
#    x 1.882190 0.000000 0.000100 
#    y 0.000000 1.906260 0.000000 
#    z 0.000100 0.000000 1.897950 
# 
# From -- ./inp_files/25225.got.cif
#   From: 2010.06.25/outbox.cif.g09.slc.cpg/sg9_13_cif.got.tgz:25225.got - 2010.06.27 21:40:51.
