data_PCOD8055542
_publ_section_title
;
Structure prediction by ZEFSAII (Michael W. Deem and Ramdas Pophale) SiO2 
 PCOD8055542
Probable space group: C C
;
_chemical_formula_sum "Si O2"
_cell_formula_units_Z 28
_cell_length_a 10.717421
_cell_length_b 11.354014
_cell_length_c 14.218600
_cell_angle_alpha 90.000000
_cell_angle_beta 51.012774
_cell_angle_gamma 90.000000
_cell_volume 1344.861426
_symmetry_space_group_name_H-M "C C"
_symmetry_group_IT_number 9
_symmetry_cell_setting 'monoclinic'
loop_
_space_group_symop_operation_xyz
x,y,z
x,-y,1/2+z
1/2+x,1/2+y,z
1/2+x,1/2-y,1/2+z
loop_
_atom_site_type_symbol
_atom_site_label
_atom_site_fract_x
_atom_site_fract_y
_atom_site_fract_z
Si Si1 0.650300 0.574076 0.708470
Si Si2 0.676579 0.603968 0.042421
Si Si3 0.518847 0.027885 0.842615
Si Si4 0.612025 0.168157 0.159844
Si Si5 0.218724 0.643340 0.597693
Si Si6 0.444867 0.440310 0.489924
Si Si7 0.507915 0.997424 0.560957
O O1 0.597656 0.471964 0.662634
O O2 0.592749 0.694863 0.687687
O O3 0.561554 0.555056 0.847216
O O4 0.840629 0.567512 0.636386
O O5 0.826827 0.538289 0.923129
O O6 0.538459 0.620833 0.031645
O O7 0.746398 0.722137 0.057100
O O8 0.603967 0.132820 0.743690
O O9 0.573099 0.902564 0.774246
O O10 0.569276 0.035571 0.927745
O O11 0.495526 0.122052 0.130559
O O12 0.794105 0.143319 0.040933
O O13 0.385672 0.574395 0.540001
O O14 0.137780 0.582294 0.545944
#
# Coordination Sequence:
#
# PCOD8055542 Si02
#       7
#     4   4   4   4   4   4   4
#     4  11  24  40  64  95 123 163 214 251 314 383
#     4  11  24  39  65  93 125 165 208 256 317 374
#     4   9  21  41  62  86 128 165 201 261 321 360
#     4  10  23  41  64  92 126 161 211 258 310 376
#     4  10  23  41  63  94 125 161 213 257 309 378
#     4  10  23  41  62  96 120 165 212 254 317 375
#     4   9  20  43  64  92 123 168 205 257 318 364
#
# _framework density 20.819989
#
# number of rings (size 3 to 8) (size 9 to 14) (size 15 to 20)
#    0.000    2.286    0.000    2.571    8.000    6.857 
#    0.000    0.000    0.000    0.000    0.000    0.000 
#    0.000    0.000    0.000    0.000    0.000    0.000 
#
# Total GULP energy -173575.736907 kJ/mol
# GULP energy per Si atom -12398.266922 kJ/mol
# Density = 2.077260 g / cm^3
# Si number density = 20.819989 Si / 1000 Ang^3
#
#
#
# Elastic Constant Matrix: (Units=GPa)
#
#
# Indices 1 2 3 4 5 6 
#
# 1 62.7205 15.9219 45.9315 0.0000 16.0635 0.0000
# 2 15.9219 119.0262 31.9686 0.0000 10.2749 0.0000
# 3 45.9315 31.9686 94.6470 0.0000 29.0450 0.0000
# 4 0.0000 0.0000 0.0000 16.5621 0.0000 0.0894
# 5 16.0635 10.2749 29.0450 0.0000 32.3700 0.0000
# 6 0.0000 0.0000 0.0000 0.0894 0.0000 25.0134
#
#
#
# Elastic Compliance Matrix: (Units=1/GPa)
#
#
# Indices 1 2 3 4 5 6 
#
# 1 0.024836 -0.000085 -0.011385 0.000000 -0.002082 0.000000
# 2 -0.000085 0.009241 -0.003026 0.000000 -0.000176 0.000000
# 3 -0.011385 -0.003026 0.020816 0.000000 -0.012067 0.000000
# 4 0.000000 0.000000 0.000000 0.060380 0.000000 -0.000216
# 5 -0.002082 -0.000176 -0.012067 0.000000 0.042810 0.000000
# 6 0.000000 0.000000 0.000000 -0.000216 0.000000 0.039979
#
#
# Mechanical properties :
#
#
# Convention : Reuss Voigt Hill
#
# Bulk Modulus (GPa) = 38.60865 51.55978 45.08422
# Shear Modulus (GPa) = 21.21449 26.96054 24.08752
#
# Velocity S-wave (km/s) = 3.19556 3.60243 3.40507
# Velocity P-wave (km/s) = 5.67448 6.49012 6.09596
#
# Compressibility (1/GPa) = 0.02590093
#
# Stress axis : x y z
#
# Youngs Moduli (GPa) = 40.26386 108.21567 48.03972
#
# Poissons Ratio (x) = 0.00916 0.54694
# Poissons Ratio (y) = 0.00341 0.14538
# Poissons Ratio (z) = 0.45841 0.32748
#
# Static dielectric constant tensor:
#      x y z
#    x 3.845950 0.000000 0.077760 
#    y 0.000000 3.777680 0.000000 
#    z 0.077760 0.000000 3.838280 
# 
# 
# High freq. dielectric constant tensor:
#      x y z
#    x 1.813250 0.000000 0.006180 
#    y 0.000000 1.805020 0.000000 
#    z 0.006180 0.000000 1.825410 
# 
# From -- ./inp_files/16037.got.cif
#   From: 2010.06.25/outbox.cif.g09.slc.cpg/sg9_9_cif.got.tgz:16037.got - 2010.06.27 21:40:51.
