data_PCOD8055869
_publ_section_title
;
Structure prediction by ZEFSAII (Michael W. Deem and Ramdas Pophale) SiO2 
 PCOD8055869
Probable space group: C C
;
_chemical_formula_sum "Si O2"
_cell_formula_units_Z 28
_cell_length_a 18.482055
_cell_length_b 9.487828
_cell_length_c 10.808229
_cell_angle_alpha 90.000000
_cell_angle_beta 135.635038
_cell_angle_gamma 90.000000
_cell_volume 1325.224168
_symmetry_space_group_name_H-M "C C"
_symmetry_group_IT_number 9
_symmetry_cell_setting 'monoclinic'
loop_
_space_group_symop_operation_xyz
x,y,z
x,-y,1/2+z
1/2+x,1/2+y,z
1/2+x,1/2-y,1/2+z
loop_
_atom_site_type_symbol
_atom_site_label
_atom_site_fract_x
_atom_site_fract_y
_atom_site_fract_z
Si Si1 0.106740 0.085235 0.561100
Si Si2 0.491211 0.203564 0.078162
Si Si3 0.162218 0.590339 0.443246
Si Si4 0.557313 0.268658 0.524522
Si Si5 0.155699 0.269083 0.409851
Si Si6 0.357186 0.782405 0.657982
Si Si7 0.314152 0.082892 0.704746
O O1 0.046751 0.150101 0.605337
O O2 0.079149 0.185247 0.410011
O O3 0.233661 0.080896 0.724327
O O4 0.071495 0.927149 0.494807
O O5 0.584300 0.101048 0.231567
O O6 0.417605 0.234344 0.103336
O O7 0.427533 0.127794 0.890260
O O8 0.115186 0.660810 0.506437
O O9 0.176519 0.425607 0.484985
O O10 0.270345 0.663571 0.545434
O O11 0.601626 0.239837 0.712739
O O12 0.434277 0.242985 0.368137
O O13 0.269254 0.195145 0.549659
O O14 0.311903 0.937300 0.626163
#
# Coordination Sequence:
#
# PCOD8055869 Si02
#       7
#     4   4   4   4   4   4   4
#     4  10  25  45  71 102 143 184 240 288 359 418
#     4  11  25  41  76  96 144 184 244 288 355 423
#     4  11  24  46  66 106 139 182 234 302 355 413
#     4  11  25  46  71 101 143 186 237 296 352 429
#     4  10  26  43  72  97 141 180 236 288 355 424
#     4  11  25  43  72 102 140 189 235 294 360 420
#     4  10  24  44  68 104 138 191 232 288 356 429
#
# _framework density 21.128501
#
# number of rings (size 3 to 8) (size 9 to 14) (size 15 to 20)
#    0.857    0.571    1.429    1.714   16.000    0.000 
#    2.571    0.000    0.000    0.000    0.000    0.000 
#    0.000    0.000    0.000    0.000    0.000    0.000 
#
# Total GULP energy -173510.546739 kJ/mol
# GULP energy per Si atom -12393.610481 kJ/mol
# Density = 2.108041 g / cm^3
# Si number density = 21.128501 Si / 1000 Ang^3
#
#
#
# Elastic Constant Matrix: (Units=GPa)
#
#
# Indices 1 2 3 4 5 6 
#
# 1 110.3061 60.9396 47.8433 0.0000 7.9199 0.0000
# 2 60.9396 197.0895 51.5944 0.0000 -0.4998 0.0000
# 3 47.8433 51.5944 107.5702 0.0000 -1.3693 0.0000
# 4 0.0000 0.0000 0.0000 23.1251 0.0000 2.2054
# 5 7.9199 -0.4998 -1.3693 0.0000 32.0582 0.0000
# 6 0.0000 0.0000 0.0000 2.2054 0.0000 31.2377
#
#
#
# Elastic Compliance Matrix: (Units=1/GPa)
#
#
# Indices 1 2 3 4 5 6 
#
# 1 0.012755 -0.002809 -0.004369 0.000000 -0.003382 0.000000
# 2 -0.002809 0.006421 -0.001821 0.000000 0.000716 0.000000
# 3 -0.004369 -0.001821 0.012133 0.000000 0.001569 0.000000
# 4 0.000000 0.000000 0.000000 0.043536 0.000000 -0.003074
# 5 -0.003382 0.000716 0.001569 0.000000 0.032107 0.000000
# 6 0.000000 0.000000 0.000000 -0.003074 0.000000 0.032230
#
#
# Mechanical properties :
#
#
# Convention : Reuss Voigt Hill
#
# Bulk Modulus (GPa) = 75.12577 81.74669 78.43623
# Shear Modulus (GPa) = 30.93745 34.25678 32.59712
#
# Velocity S-wave (km/s) = 3.83071 4.03097 3.93211
# Velocity P-wave (km/s) = 7.42964 7.77427 7.60391
#
# Compressibility (1/GPa) = 0.01331101
#
# Stress axis : x y z
#
# Youngs Moduli (GPa) = 78.40002 155.74137 82.42030
#
# Poissons Ratio (x) = 0.43744 0.36008
# Poissons Ratio (y) = 0.22020 0.15012
# Poissons Ratio (z) = 0.34252 0.28366
#
# Static dielectric constant tensor:
#      x y z
#    x 3.723290 0.000000 0.180500 
#    y 0.000000 3.848520 0.000000 
#    z 0.180500 0.000000 3.900300 
# 
# 
# High freq. dielectric constant tensor:
#      x y z
#    x 1.819010 0.000000 0.007570 
#    y 0.000000 1.839690 0.000000 
#    z 0.007570 0.000000 1.830680 
# 
# From -- ./inp_files/17688.got.cif
#   From: 2010.06.25/outbox.cif.g09.slc.cpg/sg9_9_cif.got.tgz:17688.got - 2010.06.27 21:40:51.
