data_PCOD8055112
_publ_section_title
;
Structure prediction by ZEFSAII (Michael W. Deem and Ramdas Pophale) SiO2 
 PCOD8055112
Probable space group: C C
;
_chemical_formula_sum "Si O2"
_cell_formula_units_Z 28
_cell_length_a 10.517930
_cell_length_b 9.154272
_cell_length_c 21.822588
_cell_angle_alpha 90.000000
_cell_angle_beta 28.758647
_cell_angle_gamma 90.000000
_cell_volume 1010.915198
_symmetry_space_group_name_H-M "C C"
_symmetry_group_IT_number 9
_symmetry_cell_setting 'monoclinic'
loop_
_space_group_symop_operation_xyz
x,y,z
x,-y,1/2+z
1/2+x,1/2+y,z
1/2+x,1/2-y,1/2+z
loop_
_atom_site_type_symbol
_atom_site_label
_atom_site_fract_x
_atom_site_fract_y
_atom_site_fract_z
Si Si1 0.908550 0.403213 0.173820
Si Si2 0.671522 0.679082 0.903307
Si Si3 0.046829 0.293370 0.755522
Si Si4 0.653576 0.339795 0.716592
Si Si5 0.322602 0.437553 0.085135
Si Si6 0.395214 0.448173 0.232715
Si Si7 0.357893 0.120124 0.459113
O O1 0.803531 0.339178 0.281703
O O2 0.827031 0.289208 0.154542
O O3 0.796544 0.565465 0.207942
O O4 0.222506 0.414509 0.056174
O O5 0.412907 0.778008 0.996727
O O6 0.883558 0.764019 0.856721
O O7 0.601547 0.523533 0.964159
O O8 0.104796 0.458097 0.710040
O O9 0.884306 0.206892 0.772221
O O10 0.858751 0.289540 0.895228
O O11 0.573512 0.439606 0.694121
O O12 0.853110 0.213828 0.608945
O O13 0.093505 0.499930 0.352201
O O14 0.558206 0.440171 0.098679
#
# Coordination Sequence:
#
# PCOD8055112 Si02
#       7
#     4   4   4   4   4   4   4
#     4   9  21  42  64  91 129 173 225 268 337 409
#     4   9  19  40  67  90 137 177 216 285 338 406
#     4  10  22  43  69  95 134 187 218 284 349 401
#     4   9  21  42  63  97 134 176 223 278 350 402
#     4  11  21  41  64  97 131 168 231 279 331 410
#     4  10  21  46  71 100 141 180 230 287 340 420
#     4  10  21  44  70 102 138 181 231 283 347 410
#
# _framework density 27.697675
#
# number of rings (size 3 to 8) (size 9 to 14) (size 15 to 20)
#    0.000    2.286    1.429    0.857    0.000    2.286 
#   25.714    0.000    0.000    0.000    0.000    0.000 
#    0.000    0.000    0.000    0.000    0.000    0.000 
#
# Total GULP energy -173496.456684 kJ/mol
# GULP energy per Si atom -12392.604049 kJ/mol
# Density = 2.763463 g / cm^3
# Si number density = 27.697675 Si / 1000 Ang^3
#
#
#
# Elastic Constant Matrix: (Units=GPa)
#
#
# Indices 1 2 3 4 5 6 
#
# 1 62.5429 22.1408 16.3434 -0.0025 -14.4522 -0.0004
# 2 22.1408 98.5466 -22.2638 0.0006 -1.5014 -0.0008
# 3 16.3434 -22.2638 72.1656 0.0009 -4.8500 -0.0014
# 4 -0.0025 0.0006 0.0009 42.7759 0.0008 1.3838
# 5 -14.4522 -1.5014 -4.8500 0.0008 30.5394 0.0000
# 6 -0.0004 -0.0008 -0.0014 1.3838 0.0000 48.0979
#
#
#
# Elastic Compliance Matrix: (Units=1/GPa)
#
#
# Indices 1 2 3 4 5 6 
#
# 1 0.021919 -0.006202 -0.006268 0.000001 0.009072 0.000000
# 2 -0.006202 0.012698 0.005223 -0.000001 -0.001481 0.000000
# 3 -0.006268 0.005223 0.016886 -0.000001 -0.000028 0.000001
# 4 0.000001 -0.000001 -0.000001 0.023399 0.000000 -0.000673
# 5 0.009072 -0.001481 -0.000028 0.000000 0.036961 0.000000
# 6 0.000000 0.000000 0.000001 -0.000673 0.000000 0.020810
#
#
# Mechanical properties :
#
#
# Convention : Reuss Voigt Hill
#
# Bulk Modulus (GPa) = 27.02107 29.52175 28.27141
# Shear Modulus (GPa) = 31.34701 38.75163 35.04932
#
# Velocity S-wave (km/s) = 3.36781 3.74450 3.56114
# Velocity P-wave (km/s) = 4.98996 5.42003 5.20944
#
# Compressibility (1/GPa) = 0.03700815
#
# Stress axis : x y z
#
# Youngs Moduli (GPa) = 45.62248 78.75035 59.22112
#
# Poissons Ratio (x) = 0.48844 0.37119
# Poissons Ratio (y) = 0.28297 -0.30929
# Poissons Ratio (z) = 0.28595 -0.41129
#
# Static dielectric constant tensor:
#      x y z
#    x 5.849650 -0.000010 -0.503930 
#    y -0.000010 5.484830 0.000010 
#    z -0.503930 0.000010 4.830640 
# 
# 
# High freq. dielectric constant tensor:
#      x y z
#    x 2.137280 0.000000 -0.009150 
#    y 0.000000 2.127910 0.000000 
#    z -0.009150 0.000000 2.097090 
# 
# From -- ./inp_files/35299.got.cif
#   From: 2010.06.25/outbox.cif.g09.slc.cpg/sg9_18_cif.got.tgz:35299.got - 2010.06.27 21:40:51.
