data_PCOD8055978
_publ_section_title
;
Structure prediction by ZEFSAII (Michael W. Deem and Ramdas Pophale) SiO2 
 PCOD8055978
Probable space group: C C
;
_chemical_formula_sum "Si O2"
_cell_formula_units_Z 32
_cell_length_a 18.991923
_cell_length_b 15.383600
_cell_length_c 12.568854
_cell_angle_alpha 90.000000
_cell_angle_beta 22.228842
_cell_angle_gamma 90.000000
_cell_volume 1389.206356
_symmetry_space_group_name_H-M "C C"
_symmetry_group_IT_number 9
_symmetry_cell_setting 'monoclinic'
loop_
_space_group_symop_operation_xyz
x,y,z
x,-y,1/2+z
1/2+x,1/2+y,z
1/2+x,1/2-y,1/2+z
loop_
_atom_site_type_symbol
_atom_site_label
_atom_site_fract_x
_atom_site_fract_y
_atom_site_fract_z
Si Si1 0.379340 0.737938 0.250000
Si Si2 0.254534 0.315569 0.708490
Si Si3 0.728837 0.457956 0.789971
Si Si4 0.942609 0.922743 0.789450
Si Si5 0.143779 0.870824 0.703785
Si Si6 0.083086 0.305057 0.676443
Si Si7 0.104557 0.462774 0.783077
Si Si8 0.010246 0.792327 0.092771
O O1 0.253605 0.688464 0.338462
O O2 0.409137 0.677672 0.309779
O O3 0.285815 0.826693 0.422683
O O4 0.575220 0.760895 0.918715
O O5 0.447969 0.275134 0.396668
O O6 0.209852 0.413665 0.732773
O O7 0.745914 0.440490 0.638294
O O8 0.931017 0.475874 0.559995
O O9 0.605812 0.542549 0.985239
O O10 0.625350 0.373415 0.985755
O O11 0.994851 0.924583 0.841714
O O12 0.758957 0.975741 0.016563
O O13 0.042446 0.796649 0.919811
O O14 0.016597 0.397556 0.816091
O O15 0.087357 0.296679 0.540513
O O16 0.292603 0.297968 0.428699
#
# Coordination Sequence:
#
# PCOD8055978 Si02
#       8
#     4   4   4   4   4   4   4   4
#     4  12  25  44  75 103 145 196 248 303 372 454
#     4  12  24  44  74 107 142 195 252 302 366 449
#     4  10  25  51  68 108 147 188 244 303 381 441
#     4  12  25  47  70 104 148 186 245 308 365 447
#     4  10  26  48  72 103 148 195 243 301 380 451
#     4  12  21  48  72 106 145 189 257 296 361 449
#     4  12  25  45  72 109 141 187 243 307 376 423
#     4  10  25  45  75 102 146 192 244 302 367 442
#
# _framework density 23.034735999999999
#
# number of rings (size 3 to 8) (size 9 to 14) (size 15 to 20)
#    0.750    0.000    5.000    1.500    5.250    1.000 
#    2.250    0.000    0.000    0.000    0.000    0.000 
#    0.000    0.000    0.000    0.000    0.000    0.000 
#
# Total GULP energy -198260.364295 kJ/mol
# GULP energy per Si atom -12391.272768 kJ/mol
# Density = 2.298231 g / cm^3
# Si number density = 23.034736 Si / 1000 Ang^3
#
#
#
# Elastic Constant Matrix: (Units=GPa)
#
#
# Indices 1 2 3 4 5 6 
#
# 1 94.0166 38.3891 39.3876 -0.0019 -3.2362 0.0024
# 2 38.3891 76.1639 49.4992 0.0002 -3.4390 0.0017
# 3 39.3876 49.4992 150.3785 0.0021 -15.2265 0.0028
# 4 -0.0019 0.0002 0.0021 36.7963 -0.0012 -10.0360
# 5 -3.2362 -3.4390 -15.2265 -0.0012 25.5371 -0.0022
# 6 0.0024 0.0017 0.0028 -10.0360 -0.0022 46.3832
#
#
#
# Elastic Compliance Matrix: (Units=1/GPa)
#
#
# Indices 1 2 3 4 5 6 
#
# 1 0.013717 -0.005824 -0.001681 0.000001 -0.000048 0.000000
# 2 -0.005824 0.019204 -0.004905 0.000000 -0.001076 0.000000
# 3 -0.001681 -0.004905 0.009170 0.000000 0.004594 0.000000
# 4 0.000001 0.000000 0.000000 0.028881 0.000002 0.006249
# 5 -0.000048 -0.001076 0.004594 0.000002 0.041747 0.000002
# 6 0.000000 0.000000 0.000000 0.006249 0.000002 0.022912
#
#
# Mechanical properties :
#
#
# Convention : Reuss Voigt Hill
#
# Bulk Modulus (GPa) = 57.89672 63.90121 60.89896
# Shear Modulus (GPa) = 30.08317 34.62885 32.35601
#
# Velocity S-wave (km/s) = 3.61777 3.88149 3.75195
# Velocity P-wave (km/s) = 6.52994 6.92022 6.72791
#
# Compressibility (1/GPa) = 0.01727214
#
# Stress axis : x y z
#
# Youngs Moduli (GPa) = 72.90336 52.07249 109.05372
#
# Poissons Ratio (x) = 0.30325 0.18329
# Poissons Ratio (y) = 0.42456 0.53490
# Poissons Ratio (z) = 0.12253 0.25541
#
# Static dielectric constant tensor:
#      x y z
#    x 4.206640 0.000000 -0.128040 
#    y 0.000000 3.899000 0.000000 
#    z -0.128040 0.000000 4.115140 
# 
# 
# High freq. dielectric constant tensor:
#      x y z
#    x 1.909150 0.000000 -0.005620 
#    y 0.000000 1.887880 0.000000 
#    z -0.005620 0.000000 1.917230 
# 
# From -- ./inp_files/27474.got.cif
#   From: 2010.06.25/outbox.cif.g09.slc.cpg/sg9_14_cif.got.tgz:27474.got - 2010.06.27 21:40:51.
