data_PCOD8055203
_publ_section_title
;
Structure prediction by ZEFSAII (Michael W. Deem and Ramdas Pophale) SiO2 
 PCOD8055203
Probable space group: C C
;
_chemical_formula_sum "Si O2"
_cell_formula_units_Z 28
_cell_length_a 7.628440
_cell_length_b 17.542544
_cell_length_c 9.097429
_cell_angle_alpha 90.000000
_cell_angle_beta 104.356785
_cell_angle_gamma 90.000000
_cell_volume 1179.418325
_symmetry_space_group_name_H-M "C C"
_symmetry_group_IT_number 9
_symmetry_cell_setting 'monoclinic'
loop_
_space_group_symop_operation_xyz
x,y,z
x,-y,1/2+z
1/2+x,1/2+y,z
1/2+x,1/2-y,1/2+z
loop_
_atom_site_type_symbol
_atom_site_label
_atom_site_fract_x
_atom_site_fract_y
_atom_site_fract_z
Si Si1 0.674280 0.755535 0.309680
Si Si2 0.768416 0.305743 0.141426
Si Si3 0.167840 0.501601 0.938460
Si Si4 0.705980 0.609380 0.149528
Si Si5 0.408479 0.528713 0.238936
Si Si6 0.494842 0.640018 0.809077
Si Si7 0.428516 0.039086 0.636129
O O1 0.688108 0.738268 0.485561
O O2 0.463483 0.770080 0.225369
O O3 0.769324 0.689514 0.229741
O O4 0.795370 0.827773 0.295523
O O5 0.622010 0.301936 0.242715
O O6 0.777983 0.396299 0.109334
O O7 0.316396 0.452726 0.877274
O O8 0.065832 0.555267 0.799717
O O9 0.269485 0.553571 0.080320
O O10 0.026014 0.449352 0.998412
O O11 0.588867 0.577008 0.261562
O O12 0.860340 0.548264 0.139494
O O13 0.589619 0.623271 0.981987
O O14 0.459352 0.440442 0.223111
#
# Coordination Sequence:
#
# PCOD8055203 Si02
#       7
#     4   4   4   4   4   4   4
#     4  12  29  52  73 113 155 206 250 307 391 459
#     4  12  28  50  79 107 155 201 254 311 382 452
#     4  10  22  39  67 111 140 182 238 316 374 432
#     4  12  26  47  76 109 147 196 258 310 382 445
#     4  11  23  44  72 107 146 191 246 313 377 436
#     4  12  27  51  75 108 157 200 248 322 374 459
#     4  11  23  45  74 107 142 190 254 319 364 445
#
# _framework density 23.740517000000001
#
# number of rings (size 3 to 8) (size 9 to 14) (size 15 to 20)
#    0.000    0.571    4.286    3.429    6.000    0.000 
#    7.714    0.000    0.000    0.000    0.000    0.000 
#    0.000    0.000    0.000    0.000    0.000    0.000 
#
# Total GULP energy -173526.279412 kJ/mol
# GULP energy per Si atom -12394.734244 kJ/mol
# Density = 2.368648 g / cm^3
# Si number density = 23.740517 Si / 1000 Ang^3
#
#
#
# Elastic Constant Matrix: (Units=GPa)
#
#
# Indices 1 2 3 4 5 6 
#
# 1 112.1941 21.2444 51.1878 0.0000 -14.5808 0.0000
# 2 21.2444 78.5777 24.9436 0.0000 3.7459 0.0000
# 3 51.1878 24.9436 135.0661 0.0000 -14.4664 0.0000
# 4 0.0000 0.0000 0.0000 24.5203 0.0000 -6.6480
# 5 -14.5808 3.7459 -14.4664 0.0000 46.9679 0.0000
# 6 0.0000 0.0000 0.0000 -6.6480 0.0000 27.7980
#
#
#
# Elastic Compliance Matrix: (Units=1/GPa)
#
#
# Indices 1 2 3 4 5 6 
#
# 1 0.011283 -0.002019 -0.003630 0.000000 0.002545 0.000000
# 2 -0.002019 0.014048 -0.002085 0.000000 -0.002389 0.000000
# 3 -0.003630 -0.002085 0.009371 0.000000 0.001926 0.000000
# 4 0.000000 0.000000 0.000000 0.043610 0.000000 0.010429
# 5 0.002545 -0.002389 0.001926 0.000000 0.022865 0.000000
# 6 0.000000 0.000000 0.000000 0.010429 0.000000 0.038468
#
#
# Mechanical properties :
#
#
# Convention : Reuss Voigt Hill
#
# Bulk Modulus (GPa) = 51.99616 57.84328 54.91972
# Shear Modulus (GPa) = 30.95500 35.08806 33.02153
#
# Velocity S-wave (km/s) = 3.61486 3.84862 3.73357
# Velocity P-wave (km/s) = 6.27474 6.64582 6.46294
#
# Compressibility (1/GPa) = 0.01923219
#
# Stress axis : x y z
#
# Youngs Moduli (GPa) = 88.63175 71.18472 106.71314
#
# Poissons Ratio (x) = 0.14374 0.38741
# Poissons Ratio (y) = 0.17898 0.22249
# Poissons Ratio (z) = 0.32177 0.14842
#
# Static dielectric constant tensor:
#      x y z
#    x 4.472240 0.000000 -0.086620 
#    y 0.000000 4.134540 0.000000 
#    z -0.086620 0.000000 4.460880 
# 
# 
# High freq. dielectric constant tensor:
#      x y z
#    x 1.952290 0.000000 -0.001970 
#    y 0.000000 1.916340 0.000000 
#    z -0.001970 0.000000 1.959800 
# 
# From -- ./inp_files/5364.got.cif
#   From: 2010.06.25/outbox.cif.g09.slc.cpg/sg9_3_cif.got.tgz:5364.got - 2010.06.27 21:40:51.
