data_PCOD8055228
_publ_section_title
;
Structure prediction by ZEFSAII (Michael W. Deem and Ramdas Pophale) SiO2 
 PCOD8055228
Probable space group: C C
;
_chemical_formula_sum "Si O2"
_cell_formula_units_Z 28
_cell_length_a 8.404859
_cell_length_b 29.120834
_cell_length_c 5.076472
_cell_angle_alpha 90.000000
_cell_angle_beta 71.587169
_cell_angle_gamma 90.000000
_cell_volume 1178.890147
_symmetry_space_group_name_H-M "C C"
_symmetry_group_IT_number 9
_symmetry_cell_setting 'monoclinic'
loop_
_space_group_symop_operation_xyz
x,y,z
x,-y,1/2+z
1/2+x,1/2+y,z
1/2+x,1/2-y,1/2+z
loop_
_atom_site_type_symbol
_atom_site_label
_atom_site_fract_x
_atom_site_fract_y
_atom_site_fract_z
Si Si1 0.244280 0.790393 0.197330
Si Si2 0.228892 0.970281 0.066584
Si Si3 0.039702 0.246343 0.227966
Si Si4 0.146548 0.378817 0.346316
Si Si5 0.924239 0.377571 0.963433
Si Si6 0.844267 0.029239 0.807325
Si Si7 0.843000 0.208899 0.765669
O O1 0.397333 0.785421 0.329530
O O2 0.274955 0.839350 0.045897
O O3 0.060836 0.787699 0.450730
O O4 0.298833 0.743591 0.021466
O O5 0.343259 0.926625 0.061765
O O6 0.036128 0.954439 0.182812
O O7 0.270429 0.009173 0.259334
O O8 0.025490 0.215224 0.510533
O O9 0.210290 0.274898 0.110491
O O10 0.222124 0.429234 0.311566
O O11 0.298599 0.343948 0.344132
O O12 0.071374 0.369235 0.097256
O O13 0.998607 0.374241 0.633853
O O14 0.806434 0.988769 0.619800
#
# Coordination Sequence:
#
# PCOD8055228 Si02
#       7
#     4   4   4   4   4   4   4
#     4  11  23  42  63  96 132 178 225 277 331 404
#     4  10  23  46  70 100 135 174 225 283 341 411
#     4  10  22  40  64  88 132 174 222 274 334 384
#     4  12  26  44  69 102 139 179 228 283 340 409
#     4  12  26  44  69 102 139 179 228 283 340 409
#     4  10  23  46  70 100 135 174 225 283 341 411
#     4  11  23  42  63  96 132 178 225 277 331 404
#
# _framework density 23.751151
#
# number of rings (size 3 to 8) (size 9 to 14) (size 15 to 20)
#    0.000    1.143    1.429    4.286    4.000    5.714 
#    7.714    0.000    0.000    0.000    0.000    0.000 
#    0.000    0.000    0.000    0.000    0.000    0.000 
#
# Total GULP energy -173523.830402 kJ/mol
# GULP energy per Si atom -12394.559314 kJ/mol
# Density = 2.369709 g / cm^3
# Si number density = 23.751151 Si / 1000 Ang^3
#
#
#
# Elastic Constant Matrix: (Units=GPa)
#
#
# Indices 1 2 3 4 5 6 
#
# 1 56.6539 29.7162 14.6069 0.0000 -16.5940 0.0000
# 2 29.7162 95.4361 17.7778 0.0000 -20.0637 0.0000
# 3 14.6069 17.7778 131.8924 0.0000 -6.9841 0.0000
# 4 0.0000 0.0000 0.0000 19.1571 0.0000 -1.7740
# 5 -16.5940 -20.0637 -6.9841 0.0000 44.6033 0.0000
# 6 0.0000 0.0000 0.0000 -1.7740 0.0000 43.9614
#
#
#
# Elastic Compliance Matrix: (Units=1/GPa)
#
#
# Indices 1 2 3 4 5 6 
#
# 1 0.022614 -0.005577 -0.001452 0.000000 0.005677 0.000000
# 2 -0.005577 0.013172 -0.000962 0.000000 0.003699 0.000000
# 3 -0.001452 -0.000962 0.007886 0.000000 0.000262 0.000000
# 4 0.000000 0.000000 0.000000 0.052396 0.000000 0.002114
# 5 0.005677 0.003699 0.000262 0.000000 0.026237 0.000000
# 6 0.000000 0.000000 0.000000 0.002114 0.000000 0.022833
#
#
# Mechanical properties :
#
#
# Convention : Reuss Voigt Hill
#
# Bulk Modulus (GPa) = 36.11517 45.35378 40.73448
# Shear Modulus (GPa) = 29.35151 36.33648 32.84399
#
# Velocity S-wave (km/s) = 3.51920 3.91561 3.72269
# Velocity P-wave (km/s) = 5.63486 6.29123 5.97207
#
# Compressibility (1/GPa) = 0.02768919
#
# Stress axis : x y z
#
# Youngs Moduli (GPa) = 44.22117 75.92016 126.80264
#
# Poissons Ratio (x) = 0.42343 0.18412
# Poissons Ratio (y) = 0.24664 0.12196
# Poissons Ratio (z) = 0.06421 0.07302
#
# Static dielectric constant tensor:
#      x y z
#    x 5.388560 0.000000 -0.190750 
#    y 0.000000 4.174600 0.000000 
#    z -0.190750 0.000000 4.518140 
# 
# 
# High freq. dielectric constant tensor:
#      x y z
#    x 1.974740 0.000000 0.005320 
#    y 0.000000 1.928080 0.000000 
#    z 0.005320 0.000000 1.956100 
# 
# From -- ./inp_files/1182.got.cif
#   From: 2010.06.25/outbox.cif.g09.slc.cpg/sg9_1_cif.got.tgz:1182.got - 2010.06.27 21:40:51.
