data_PCOD8055132
_publ_section_title
;
Structure prediction by ZEFSAII (Michael W. Deem and Ramdas Pophale) SiO2 
 PCOD8055132
Probable space group: C C
;
_chemical_formula_sum "Si O2"
_cell_formula_units_Z 28
_cell_length_a 5.563284
_cell_length_b 25.967381
_cell_length_c 9.351488
_cell_angle_alpha 90.000000
_cell_angle_beta 73.336034
_cell_angle_gamma 90.000000
_cell_volume 1294.216655
_symmetry_space_group_name_H-M "C C"
_symmetry_group_IT_number 9
_symmetry_cell_setting 'monoclinic'
loop_
_space_group_symop_operation_xyz
x,y,z
x,-y,1/2+z
1/2+x,1/2+y,z
1/2+x,1/2-y,1/2+z
loop_
_atom_site_type_symbol
_atom_site_label
_atom_site_fract_x
_atom_site_fract_y
_atom_site_fract_z
Si Si1 0.040900 0.695829 0.428590
Si Si2 0.953665 0.540222 0.553166
Si Si3 0.868696 0.558750 0.247872
Si Si4 0.997274 0.335572 0.640246
Si Si5 0.165973 0.139817 0.671166
Si Si6 0.568024 0.689402 0.981094
Si Si7 0.388824 0.389955 0.956189
O O1 0.149394 0.752813 0.425642
O O2 0.249308 0.650790 0.377880
O O3 0.887309 0.690233 0.305170
O O4 0.877409 0.681662 0.595394
O O5 0.961695 0.535150 0.380414
O O6 0.873038 0.485903 0.630361
O O7 0.753946 0.580956 0.645526
O O8 0.227854 0.561816 0.545424
O O9 0.045688 0.603416 0.153355
O O10 0.602232 0.585990 0.319868
O O11 0.781594 0.327449 0.557521
O O12 0.272780 0.309855 0.572290
O O13 0.073028 0.151156 0.845280
O O14 0.956509 0.143976 0.584233
#
# Coordination Sequence:
#
# PCOD8055132 Si02
#       7
#     4   4   4   4   4   4   4
#     4  11  24  47  72  97 143 194 236 288 377 421
#     4  10  24  42  69  99 132 196 233 299 357 432
#     4  11  24  43  69 101 139 188 241 295 367 420
#     4  12  27  48  69 110 146 184 240 308 354 426
#     4  10  24  46  66 100 139 188 239 295 356 435
#     4  12  30  41  76 109 144 187 244 303 351 437
#     4  10  21  45  71  94 141 189 239 294 358 433
#
# _framework density 21.634709999999998
#
# number of rings (size 3 to 8) (size 9 to 14) (size 15 to 20)
#    0.000    1.143    4.286    1.714   10.000    3.429 
#    0.000    0.000    0.000    0.000    0.000    0.000 
#    0.000    0.000    0.000    0.000    0.000    0.000 
#
# Total GULP energy -173469.824827 kJ/mol
# GULP energy per Si atom -12390.701773 kJ/mol
# Density = 2.158547 g / cm^3
# Si number density = 21.634710 Si / 1000 Ang^3
#
#
#
# Elastic Constant Matrix: (Units=GPa)
#
#
# Indices 1 2 3 4 5 6 
#
# 1 103.1159 27.3331 33.1729 0.0000 11.1560 0.0000
# 2 27.3331 127.5959 67.0918 0.0000 17.1520 0.0000
# 3 33.1729 67.0918 93.6569 0.0000 18.9391 0.0000
# 4 0.0000 0.0000 0.0000 40.4468 0.0000 2.7835
# 5 11.1560 17.1520 18.9391 0.0000 27.7776 0.0000
# 6 0.0000 0.0000 0.0000 2.7835 0.0000 14.9663
#
#
#
# Elastic Compliance Matrix: (Units=1/GPa)
#
#
# Indices 1 2 3 4 5 6 
#
# 1 0.011058 -0.000406 -0.003222 0.000000 -0.001993 0.000000
# 2 -0.000406 0.012674 -0.008566 0.000000 -0.001822 0.000000
# 3 -0.003222 -0.008566 0.019282 0.000000 -0.006563 0.000000
# 4 0.000000 0.000000 0.000000 0.025044 0.000000 -0.004658
# 5 -0.001993 -0.001822 -0.006563 0.000000 0.042400 0.000000
# 6 0.000000 0.000000 0.000000 -0.004658 0.000000 0.067683
#
#
# Mechanical properties :
#
#
# Convention : Reuss Voigt Hill
#
# Bulk Modulus (GPa) = 53.69661 64.39601 59.04631
# Shear Modulus (GPa) = 23.95325 29.75622 26.85473
#
# Velocity S-wave (km/s) = 3.33102 3.71265 3.52700
# Velocity P-wave (km/s) = 6.29824 6.94321 6.62857
#
# Compressibility (1/GPa) = 0.01862315
#
# Stress axis : x y z
#
# Youngs Moduli (GPa) = 90.43333 78.90452 51.86053
#
# Poissons Ratio (x) = 0.03207 0.16712
# Poissons Ratio (y) = 0.03676 0.44426
# Poissons Ratio (z) = 0.29142 0.67593
#
# Static dielectric constant tensor:
#      x y z
#    x 4.032400 0.000000 0.118940 
#    y 0.000000 3.853580 0.000000 
#    z 0.118940 0.000000 3.852010 
# 
# 
# High freq. dielectric constant tensor:
#      x y z
#    x 1.847540 0.000000 0.007320 
#    y 0.000000 1.853380 0.000000 
#    z 0.007320 0.000000 1.852940 
# 
# From -- ./inp_files/4112.got.cif
#   From: 2010.06.25/outbox.cif.g09.slc.cpg/sg9_3_cif.got.tgz:4112.got - 2010.06.27 21:40:51.
