data_PCOD8055922
_publ_section_title
;
Structure prediction by ZEFSAII (Michael W. Deem and Ramdas Pophale) SiO2 
 PCOD8055922
Probable space group: C C
;
_chemical_formula_sum "Si O2"
_cell_formula_units_Z 20
_cell_length_a 5.236634
_cell_length_b 17.720379
_cell_length_c 8.246931
_cell_angle_alpha 90.000000
_cell_angle_beta 91.422501
_cell_angle_gamma 90.000000
_cell_volume 765.039266
_symmetry_space_group_name_H-M "C C"
_symmetry_group_IT_number 9
_symmetry_cell_setting 'monoclinic'
loop_
_space_group_symop_operation_xyz
x,y,z
x,-y,1/2+z
1/2+x,1/2+y,z
1/2+x,1/2-y,1/2+z
loop_
_atom_site_type_symbol
_atom_site_label
_atom_site_fract_x
_atom_site_fract_y
_atom_site_fract_z
Si Si1 0.518670 0.033016 0.396170
Si Si2 0.033305 0.903351 0.752190
Si Si3 0.559894 0.835819 0.126784
Si Si4 0.910314 0.752762 0.902355
Si Si5 0.236833 0.376137 0.449150
O O1 0.775638 0.056974 0.308762
O O2 0.459170 0.086769 0.548962
O O3 0.273775 0.041190 0.274127
O O4 0.549457 0.948481 0.460204
O O5 0.993711 0.886870 0.558780
O O6 0.077799 0.826574 0.855440
O O7 0.344678 0.793505 0.233684
O O8 0.790061 0.858947 0.258204
O O9 0.655319 0.777734 0.990494
O O10 0.079946 0.696664 0.018390
#
# Coordination Sequence:
#
# PCOD8055922 Si02
#       5
#     4   4   4   4   4
#     4  11  25  50  73 116 154 204 257 324 387 470
#     4  11  26  46  75 108 158 200 260 315 392 461
#     4   9  22  46  77 109 157 199 263 313 395 455
#     4   9  23  46  75 113 153 201 263 314 391 458
#     4  10  24  46  76 112 152 206 253 326 385 462
#
# _framework density 26.142448999999999
#
# number of rings (size 3 to 8) (size 9 to 14) (size 15 to 20)
#    1.200    0.800    0.000    1.200    5.600    3.200 
#    3.600    4.000    0.000    0.000    0.000    0.000 
#    0.000    0.000    0.000    0.000    0.000    0.000 
#
# Total GULP energy -123882.923595 kJ/mol
# GULP energy per Si atom -12388.292360 kJ/mol
# Density = 2.608295 g / cm^3
# Si number density = 26.142449 Si / 1000 Ang^3
#
#
#
# Elastic Constant Matrix: (Units=GPa)
#
#
# Indices 1 2 3 4 5 6 
#
# 1 112.6638 53.8043 41.0511 0.0000 21.5555 0.0000
# 2 53.8043 155.6816 49.0123 0.0000 16.6158 0.0000
# 3 41.0511 49.0123 132.9674 0.0000 3.0145 0.0000
# 4 0.0000 0.0000 0.0000 38.2809 0.0000 4.2935
# 5 21.5555 16.6158 3.0145 0.0000 41.0887 0.0000
# 6 0.0000 0.0000 0.0000 4.2935 0.0000 22.0114
#
#
#
# Elastic Compliance Matrix: (Units=1/GPa)
#
#
# Indices 1 2 3 4 5 6 
#
# 1 0.012138 -0.002845 -0.002585 0.000000 -0.005028 0.000000
# 2 -0.002845 0.008256 -0.002127 0.000000 -0.001690 0.000000
# 3 -0.002585 -0.002127 0.009067 0.000000 0.001551 0.000000
# 4 0.000000 0.000000 0.000000 0.026707 0.000000 -0.005209
# 5 -0.005028 -0.001690 0.001551 0.000000 0.027545 0.000000
# 6 0.000000 0.000000 0.000000 -0.005209 0.000000 0.046447
#
#
# Mechanical properties :
#
#
# Convention : Reuss Voigt Hill
#
# Bulk Modulus (GPa) = 69.68893 76.56092 73.12493
# Shear Modulus (GPa) = 33.32058 37.43921 35.37990
#
# Velocity S-wave (km/s) = 3.57400 3.78845 3.68278
# Velocity P-wave (km/s) = 6.61412 6.96319 6.79090
#
# Compressibility (1/GPa) = 0.01434948
#
# Stress axis : x y z
#
# Youngs Moduli (GPa) = 82.38395 121.11700 110.28422
#
# Poissons Ratio (x) = 0.34453 0.28508
# Poissons Ratio (y) = 0.23435 0.23455
# Poissons Ratio (z) = 0.21296 0.25759
#
# Static dielectric constant tensor:
#      x y z
#    x 3.863920 0.000000 0.099370 
#    y 0.000000 5.098360 0.000000 
#    z 0.099370 0.000000 4.816740 
# 
# 
# High freq. dielectric constant tensor:
#      x y z
#    x 1.991440 0.000000 0.005970 
#    y 0.000000 2.068310 0.000000 
#    z 0.005970 0.000000 2.054010 
# 
# From -- ./inp_files/3769.got.cif
#   From: 2010.06.25/outbox.cif.g09.slc.cpg/sg9_2_cif.got.tgz:3769.got - 2010.06.27 21:40:51.
