data_PCOD8055016
_publ_section_title
;
Structure prediction by ZEFSAII (Michael W. Deem and Ramdas Pophale) SiO2 
 PCOD8055016
Probable space group: C C
;
_chemical_formula_sum "Si O2"
_cell_formula_units_Z 32
_cell_length_a 17.261845
_cell_length_b 6.756829
_cell_length_c 28.581457
_cell_angle_alpha 90.000000
_cell_angle_beta 26.409362
_cell_angle_gamma 90.000000
_cell_volume 1482.727183
_symmetry_space_group_name_H-M "C C"
_symmetry_group_IT_number 9
_symmetry_cell_setting 'monoclinic'
loop_
_space_group_symop_operation_xyz
x,y,z
x,-y,1/2+z
1/2+x,1/2+y,z
1/2+x,1/2-y,1/2+z
loop_
_atom_site_type_symbol
_atom_site_label
_atom_site_fract_x
_atom_site_fract_y
_atom_site_fract_z
Si Si1 0.111150 0.690174 0.913550
Si Si2 0.955278 0.459172 0.378155
Si Si3 0.956833 0.937026 0.924666
Si Si4 0.147498 0.951823 0.977182
Si Si5 0.438474 0.190088 0.548157
Si Si6 0.749570 0.711381 0.558512
Si Si7 0.923995 0.927763 0.185847
Si Si8 0.740510 0.260753 0.243053
O O1 0.957389 0.826006 0.974903
O O2 0.244141 0.678954 0.797270
O O3 0.195516 0.785740 0.913709
O O4 0.051522 0.477153 0.962482
O O5 0.829850 0.492995 0.402175
O O6 0.874542 0.541983 0.469987
O O7 0.970426 0.220881 0.375132
O O8 0.138618 0.574498 0.273163
O O9 0.119373 0.088782 0.836200
O O10 0.784330 0.076010 0.013499
O O11 0.011815 0.862217 0.089033
O O12 0.066973 0.133760 0.992442
O O13 0.290949 0.251222 0.590399
O O14 0.339693 0.119201 0.648509
O O15 0.554777 0.628427 0.657176
O O16 0.880722 0.163350 0.203544
#
# Coordination Sequence:
#
# PCOD8055016 Si02
#       8
#     4   4   4   4   4   4   4   4
#     4  12  23  41  69  96 132 177 223 277 333 397
#     4  10  21  44  64  96 132 172 217 279 328 395
#     4  11  21  42  71  93 129 181 220 271 343 394
#     4  10  25  42  66  96 135 172 222 278 332 397
#     4  11  23  41  64  97 132 173 223 274 330 401
#     4  10  21  42  65  95 131 173 222 273 330 397
#     4  10  23  44  64  94 138 173 220 280 331 391
#     4  10  23  40  67  95 135 175 223 272 341 398
#
# _framework density 21.581852000000001
#
# number of rings (size 3 to 8) (size 9 to 14) (size 15 to 20)
#    0.000    1.500    3.750    0.750    3.500    3.000 
#    4.500    0.000    0.000    0.000    0.000    0.000 
#    0.000    0.000    0.000    0.000    0.000    0.000 
#
# Total GULP energy -198250.587450 kJ/mol
# GULP energy per Si atom -12390.661716 kJ/mol
# Density = 2.153273 g / cm^3
# Si number density = 21.581852 Si / 1000 Ang^3
#
#
#
# Elastic Constant Matrix: (Units=GPa)
#
#
# Indices 1 2 3 4 5 6 
#
# 1 128.8399 51.2969 25.9231 0.1205 -2.0748 -0.0463
# 2 51.2969 111.9625 34.9399 0.4854 -0.8559 -0.2165
# 3 25.9231 34.9399 72.1198 -0.0291 -2.1638 0.0023
# 4 0.1205 0.4854 -0.0291 14.5142 0.0260 0.7508
# 5 -2.0748 -0.8559 -2.1638 0.0260 29.0487 0.0115
# 6 -0.0463 -0.2165 0.0023 0.7508 0.0115 41.1360
#
#
#
# Elastic Compliance Matrix: (Units=1/GPa)
#
#
# Indices 1 2 3 4 5 6 
#
# 1 0.009646 -0.003933 -0.001548 0.000048 0.000458 -0.000011
# 2 -0.003933 0.012128 -0.004470 -0.000385 -0.000256 0.000067
# 3 -0.001548 -0.004470 0.016618 0.000195 0.000995 -0.000030
# 4 0.000048 -0.000385 0.000195 0.068976 -0.000054 -0.001261
# 5 0.000458 -0.000256 0.000995 -0.000054 0.034524 -0.000010
# 6 -0.000011 0.000067 -0.000030 -0.001261 -0.000010 0.024333
#
#
# Mechanical properties :
#
#
# Convention : Reuss Voigt Hill
#
# Bulk Modulus (GPa) = 54.08296 59.69355 56.88825
# Shear Modulus (GPa) = 26.00215 30.32393 28.16304
#
# Velocity S-wave (km/s) = 3.47481 3.75249 3.61632
# Velocity P-wave (km/s) = 6.41973 6.81866 6.62220
#
# Compressibility (1/GPa) = 0.01849011
#
# Stress axis : x y z
#
# Youngs Moduli (GPa) = 103.66601 82.45133 60.17669
#
# Poissons Ratio (x) = 0.32430 0.09316
# Poissons Ratio (y) = 0.40774 0.26898
# Poissons Ratio (z) = 0.16048 0.36855
#
# Static dielectric constant tensor:
#      x y z
#    x 4.012440 -0.000080 0.002790 
#    y -0.000080 3.912950 -0.000150 
#    z 0.002790 -0.000150 3.833050 
# 
# 
# High freq. dielectric constant tensor:
#      x y z
#    x 1.847360 0.000000 0.000100 
#    y 0.000000 1.847610 -0.000010 
#    z 0.000100 -0.000010 1.830840 
# 
# From -- ./inp_files/26390.got.cif
#   From: 2010.06.25/outbox.cif.g09.slc.cpg/sg9_14_cif.got.tgz:26390.got - 2010.06.27 21:40:51.
