data_PCOD8055384
_publ_section_title
;
Structure prediction by ZEFSAII (Michael W. Deem and Ramdas Pophale) SiO2 
 PCOD8055384
Probable space group: C C
;
_chemical_formula_sum "Si O2"
_cell_formula_units_Z 32
_cell_length_a 9.477242
_cell_length_b 11.216306
_cell_length_c 15.113631
_cell_angle_alpha 90.000000
_cell_angle_beta 63.516040
_cell_angle_gamma 90.000000
_cell_volume 1437.978572
_symmetry_space_group_name_H-M "C C"
_symmetry_group_IT_number 9
_symmetry_cell_setting 'monoclinic'
loop_
_space_group_symop_operation_xyz
x,y,z
x,-y,1/2+z
1/2+x,1/2+y,z
1/2+x,1/2-y,1/2+z
loop_
_atom_site_type_symbol
_atom_site_label
_atom_site_fract_x
_atom_site_fract_y
_atom_site_fract_z
Si Si1 0.410310 0.092691 0.560320
Si Si2 0.586840 0.995264 0.667811
Si Si3 0.089004 0.224904 0.647918
Si Si4 0.950388 0.588193 0.890157
Si Si5 0.174938 0.259635 0.925597
Si Si6 0.606641 0.703779 0.448402
Si Si7 0.352795 0.541162 0.463352
Si Si8 0.929192 0.203082 0.858462
O O1 0.233388 0.135207 0.615932
O O2 0.522039 0.211543 0.530003
O O3 0.446711 0.010676 0.635025
O O4 0.441454 0.020728 0.460791
O O5 0.624557 0.857083 0.673844
O O6 0.529599 0.052140 0.775333
O O7 0.744094 0.055639 0.581518
O O8 0.027288 0.230342 0.565349
O O9 0.953307 0.170295 0.749068
O O10 0.773842 0.643182 0.927205
O O11 0.067078 0.687904 0.895166
O O12 0.287014 0.376301 0.901679
O O13 0.100507 0.241019 0.848780
O O14 0.532067 0.580563 0.434110
O O15 0.797316 0.691451 0.403488
O O16 0.351767 0.405451 0.433339
#
# Coordination Sequence:
#
# PCOD8055384 Si02
#       8
#     4   4   4   4   4   4   4   4
#     4  11  22  45  67  99 142 175 229 288 331 412
#     4  11  23  43  70 100 139 182 227 280 350 403
#     4  12  25  42  68 103 132 181 230 276 342 409
#     4  11  24  43  72 101 138 184 223 287 346 398
#     4  10  22  43  67  95 135 177 221 278 340 399
#     4  11  24  47  67 101 139 175 233 287 335 412
#     4  10  24  45  66  98 138 174 227 283 334 409
#     4  12  24  44  69  97 139 176 226 281 340 402
#
# _framework density 22.25346
#
# number of rings (size 3 to 8) (size 9 to 14) (size 15 to 20)
#    0.000    1.000    3.750    2.250    3.500    1.000 
#    0.000    2.500    0.000    0.000    0.000    0.000 
#    0.000    0.000    0.000    0.000    0.000    0.000 
#
# Total GULP energy -198306.470344 kJ/mol
# GULP energy per Si atom -12394.154397 kJ/mol
# Density = 2.220281 g / cm^3
# Si number density = 22.253460 Si / 1000 Ang^3
#
#
#
# Elastic Constant Matrix: (Units=GPa)
#
#
# Indices 1 2 3 4 5 6 
#
# 1 111.9188 35.2826 41.3618 0.0000 5.8276 0.0000
# 2 35.2826 61.2431 32.8718 0.0000 -2.2019 0.0000
# 3 41.3618 32.8718 159.6620 0.0000 8.7403 0.0000
# 4 0.0000 0.0000 0.0000 27.6848 0.0000 0.6617
# 5 5.8276 -2.2019 8.7403 0.0000 30.6170 0.0000
# 6 0.0000 0.0000 0.0000 0.6617 0.0000 28.1612
#
#
#
# Elastic Compliance Matrix: (Units=1/GPa)
#
#
# Indices 1 2 3 4 5 6 
#
# 1 0.011491 -0.005802 -0.001666 0.000000 -0.002129 0.000000
# 2 -0.005802 0.021468 -0.003110 0.000000 0.003536 0.000000
# 3 -0.001666 -0.003110 0.007446 0.000000 -0.002032 0.000000
# 4 0.000000 0.000000 0.000000 0.036141 0.000000 -0.000849
# 5 -0.002129 0.003536 -0.002032 0.000000 0.033901 0.000000
# 6 0.000000 0.000000 0.000000 -0.000849 0.000000 0.035530
#
#
# Mechanical properties :
#
#
# Convention : Reuss Voigt Hill
#
# Bulk Modulus (GPa) = 51.95292 61.31736 56.63514
# Shear Modulus (GPa) = 28.81020 32.17978 30.49499
#
# Velocity S-wave (km/s) = 3.60201 3.80683 3.70584
# Velocity P-wave (km/s) = 6.37934 6.85102 6.61939
#
# Compressibility (1/GPa) = 0.01924820
#
# Stress axis : x y z
#
# Youngs Moduli (GPa) = 87.02710 46.58152 134.29429
#
# Poissons Ratio (x) = 0.27028 0.22368
# Poissons Ratio (y) = 0.50497 0.41769
# Poissons Ratio (z) = 0.14495 0.14488
#
# Static dielectric constant tensor:
#      x y z
#    x 4.193130 0.000000 0.171470 
#    y 0.000000 3.915890 0.000000 
#    z 0.171470 0.000000 4.063390 
# 
# 
# High freq. dielectric constant tensor:
#      x y z
#    x 1.884090 0.000000 0.006470 
#    y 0.000000 1.873560 0.000000 
#    z 0.006470 0.000000 1.871320 
# 
# From -- ./inp_files/22883.got.cif
#   From: 2010.06.25/outbox.cif.g09.slc.cpg/sg9_12_cif.got.tgz:22883.got - 2010.06.27 21:40:51.
