data_PCOD8055346
_publ_section_title
;
Structure prediction by ZEFSAII (Michael W. Deem and Ramdas Pophale) SiO2 
 PCOD8055346
Probable space group: C C
;
_chemical_formula_sum "Si O2"
_cell_formula_units_Z 32
_cell_length_a 8.548641
_cell_length_b 11.861921
_cell_length_c 19.584807
_cell_angle_alpha 90.000000
_cell_angle_beta 133.349206
_cell_angle_gamma 90.000000
_cell_volume 1444.160363
_symmetry_space_group_name_H-M "C C"
_symmetry_group_IT_number 9
_symmetry_cell_setting 'monoclinic'
loop_
_space_group_symop_operation_xyz
x,y,z
x,-y,1/2+z
1/2+x,1/2+y,z
1/2+x,1/2-y,1/2+z
loop_
_atom_site_type_symbol
_atom_site_label
_atom_site_fract_x
_atom_site_fract_y
_atom_site_fract_z
Si Si1 0.607840 0.893009 0.930240
Si Si2 0.625616 0.123606 0.698821
Si Si3 0.776846 0.922917 0.393846
Si Si4 0.462867 0.767504 0.562484
Si Si5 0.932227 0.159222 0.180541
Si Si6 0.707859 0.673198 0.382761
Si Si7 0.363289 0.415733 0.132273
Si Si8 0.743271 0.504387 0.519954
O O1 0.370720 0.842547 0.866755
O O2 0.600395 0.996505 0.875712
O O3 0.795638 0.803047 0.964131
O O4 0.654218 0.933161 0.022146
O O5 0.734929 0.080529 0.800798
O O6 0.590675 0.257207 0.688534
O O7 0.791231 0.100067 0.688211
O O8 0.392615 0.064866 0.620654
O O9 0.753257 0.800457 0.422955
O O10 0.007851 0.978887 0.479778
O O11 0.689767 0.794917 0.595755
O O12 0.497810 0.691779 0.642847
O O13 0.349717 0.885240 0.539268
O O14 0.976075 0.162992 0.275971
O O15 0.985445 0.035613 0.166436
O O16 0.726549 0.582633 0.448023
#
# Coordination Sequence:
#
# PCOD8055346 Si02
#       8
#     4   4   4   4   4   4   4   4
#     4  10  22  45  65  92 135 174 219 271 331 393
#     4  11  24  43  68  97 133 175 221 279 331 394
#     4  11  25  45  65 100 134 173 230 270 334 398
#     4  10  22  42  68  97 127 175 225 266 333 402
#     4  11  23  41  66 100 129 169 228 273 331 397
#     4  11  24  44  65  99 135 174 220 278 330 395
#     4  10  22  43  66  90 130 176 215 272 337 387
#     4  12  22  43  71  93 137 174 220 277 333 394
#
# _framework density 22.158203
#
# number of rings (size 3 to 8) (size 9 to 14) (size 15 to 20)
#    0.750    0.500    3.750    1.500    1.750    2.000 
#    6.750    0.000    0.000    0.000    0.000    0.000 
#    0.000    0.000    0.000    0.000    0.000    0.000 
#
# Total GULP energy -198234.431776 kJ/mol
# GULP energy per Si atom -12389.651986 kJ/mol
# Density = 2.210777 g / cm^3
# Si number density = 22.158203 Si / 1000 Ang^3
#
#
#
# Elastic Constant Matrix: (Units=GPa)
#
#
# Indices 1 2 3 4 5 6 
#
# 1 33.3304 23.7683 2.0094 0.0000 -2.9031 0.0000
# 2 23.7683 172.2576 29.1671 0.0000 -9.5368 0.0000
# 3 2.0094 29.1671 24.3111 0.0000 0.9376 0.0000
# 4 0.0000 0.0000 0.0000 35.3693 0.0000 -5.0063
# 5 -2.9031 -9.5368 0.9376 0.0000 31.9969 0.0000
# 6 0.0000 0.0000 0.0000 -5.0063 0.0000 33.7986
#
#
#
# Elastic Compliance Matrix: (Units=1/GPa)
#
#
# Indices 1 2 3 4 5 6 
#
# 1 0.033574 -0.005113 0.003304 0.000000 0.001425 0.000000
# 2 -0.005113 0.008258 -0.009572 0.000000 0.002278 0.000000
# 3 0.003304 -0.009572 0.052502 0.000000 -0.004092 0.000000
# 4 0.000000 0.000000 0.000000 0.028879 0.000000 0.004278
# 5 0.001425 0.002278 -0.004092 0.000000 0.032181 0.000000
# 6 0.000000 0.000000 0.000000 0.004278 0.000000 0.030221
#
#
# Mechanical properties :
#
#
# Convention : Reuss Voigt Hill
#
# Bulk Modulus (GPa) = 13.97196 37.75432 25.86314
# Shear Modulus (GPa) = 21.53004 31.89659 26.71332
#
# Velocity S-wave (km/s) = 3.12051 3.79818 3.47590
# Velocity P-wave (km/s) = 4.39348 6.02581 5.27319
#
# Compressibility (1/GPa) = 0.07157193
#
# Stress axis : x y z
#
# Youngs Moduli (GPa) = 29.78513 121.09900 19.04671
#
# Poissons Ratio (x) = 0.61920 -0.06294
# Poissons Ratio (y) = 0.15230 0.18232
# Poissons Ratio (z) = -0.09842 1.15920
#
# Static dielectric constant tensor:
#      x y z
#    x 3.705770 0.000000 0.286570 
#    y 0.000000 4.273890 0.000000 
#    z 0.286570 0.000000 4.055200 
# 
# 
# High freq. dielectric constant tensor:
#      x y z
#    x 1.848080 0.000000 0.011760 
#    y 0.000000 1.895940 0.000000 
#    z 0.011760 0.000000 1.864530 
# 
# From -- ./inp_files/32601.got.cif
#   From: 2010.06.25/outbox.cif.g09.slc.cpg/sg9_17_cif.got.tgz:32601.got - 2010.06.27 21:40:51.
