data_PCOD8055096
_publ_section_title
;
Structure prediction by ZEFSAII (Michael W. Deem and Ramdas Pophale) SiO2 
 PCOD8055096
Probable space group: C C
;
_chemical_formula_sum "Si O2"
_cell_formula_units_Z 28
_cell_length_a 10.655477
_cell_length_b 9.797280
_cell_length_c 14.823383
_cell_angle_alpha 90.000000
_cell_angle_beta 60.879096
_cell_angle_gamma 90.000000
_cell_volume 1351.872553
_symmetry_space_group_name_H-M "C C"
_symmetry_group_IT_number 9
_symmetry_cell_setting 'monoclinic'
loop_
_space_group_symop_operation_xyz
x,y,z
x,-y,1/2+z
1/2+x,1/2+y,z
1/2+x,1/2-y,1/2+z
loop_
_atom_site_type_symbol
_atom_site_label
_atom_site_fract_x
_atom_site_fract_y
_atom_site_fract_z
Si Si1 0.263020 0.185455 0.490340
Si Si2 0.759539 0.012606 0.266730
Si Si3 0.922640 0.829896 0.867515
Si Si4 0.020616 0.638731 0.092755
Si Si5 0.956687 0.451249 0.423719
Si Si6 0.246483 0.196353 0.291060
Si Si7 0.798337 0.965960 0.548515
O O1 0.263795 0.141582 0.385539
O O2 0.352585 0.324871 0.481479
O O3 0.100290 0.213514 0.584023
O O4 0.338904 0.054141 0.507653
O O5 0.585825 0.037237 0.330439
O O6 0.782534 0.855424 0.281385
O O7 0.842239 0.107382 0.309533
O O8 0.826981 0.043016 0.145308
O O9 0.886623 0.667308 0.885484
O O10 0.095078 0.842214 0.798538
O O11 0.875119 0.904661 0.976696
O O12 0.864869 0.622048 0.188497
O O13 0.125186 0.519239 0.094207
O O14 0.024578 0.631003 0.983284
#
# Coordination Sequence:
#
# PCOD8055096 Si02
#       7
#     4   4   4   4   4   4   4
#     4  10  22  45  65  93 134 175 216 276 334 393
#     4  11  21  41  68  97 135 172 223 281 326 399
#     4  11  21  44  68  98 135 176 220 281 333 396
#     4  10  21  44  64  92 135 173 219 278 327 391
#     4  11  22  44  67 100 132 171 222 279 330 399
#     4  11  22  42  68  92 136 179 221 272 343 389
#     4  10  21  44  70  90 137 176 219 279 337 387
#
# _framework density 20.712011
#
# number of rings (size 3 to 8) (size 9 to 14) (size 15 to 20)
#    0.857    0.571    5.714    1.714    0.000    1.143 
#   10.286    0.000    0.000    0.000    0.000    0.000 
#    0.000    0.000    0.000    0.000    0.000    0.000 
#
# Total GULP energy -173442.687422 kJ/mol
# GULP energy per Si atom -12388.763387 kJ/mol
# Density = 2.066487 g / cm^3
# Si number density = 20.712011 Si / 1000 Ang^3
#
#
#
# Elastic Constant Matrix: (Units=GPa)
#
#
# Indices 1 2 3 4 5 6 
#
# 1 97.2213 62.3358 41.7552 0.0000 -9.0547 0.0000
# 2 62.3358 97.0216 26.0727 0.0000 -7.8816 0.0000
# 3 41.7552 26.0727 105.0532 0.0000 -0.4862 0.0000
# 4 0.0000 0.0000 0.0000 22.4892 0.0000 -4.8614
# 5 -9.0547 -7.8816 -0.4862 0.0000 42.8531 0.0000
# 6 0.0000 0.0000 0.0000 -4.8614 0.0000 36.3523
#
#
#
# Elastic Compliance Matrix: (Units=1/GPa)
#
#
# Indices 1 2 3 4 5 6 
#
# 1 0.019867 -0.011225 -0.005101 0.000000 0.002075 0.000000
# 2 -0.011225 0.017560 0.000107 0.000000 0.000859 0.000000
# 3 -0.005101 0.000107 0.011516 0.000000 -0.000927 0.000000
# 4 0.000000 0.000000 0.000000 0.045789 0.000000 0.006123
# 5 0.002075 0.000859 -0.000927 0.000000 0.023922 0.000000
# 6 0.000000 0.000000 0.000000 0.006123 0.000000 0.028327
#
#
# Mechanical properties :
#
#
# Convention : Reuss Voigt Hill
#
# Bulk Modulus (GPa) = 60.58672 62.18039 61.38355
# Shear Modulus (GPa) = 27.03867 31.61442 29.32654
#
# Velocity S-wave (km/s) = 3.61703 3.91113 3.76695
# Velocity P-wave (km/s) = 6.83808 7.10510 6.97287
#
# Compressibility (1/GPa) = 0.01650527
#
# Stress axis : x y z
#
# Youngs Moduli (GPa) = 50.33416 56.94765 86.83935
#
# Poissons Ratio (x) = 0.63925 0.44297
# Poissons Ratio (y) = 0.56501 -0.00933
# Poissons Ratio (z) = 0.25676 -0.00612
#
# Static dielectric constant tensor:
#      x y z
#    x 3.706910 0.000000 -0.056710 
#    y 0.000000 3.578560 0.000000 
#    z -0.056710 0.000000 3.671190 
# 
# 
# High freq. dielectric constant tensor:
#      x y z
#    x 1.805800 0.000000 0.002230 
#    y 0.000000 1.793700 0.000000 
#    z 0.002230 0.000000 1.807330 
# 
# From -- ./inp_files/24032.got.cif
#   From: 2010.06.25/outbox.cif.g09.slc.cpg/sg9_13_cif.got.tgz:24032.got - 2010.06.27 21:40:51.
