data_PCOD8055979
_publ_section_title
;
Structure prediction by ZEFSAII (Michael W. Deem and Ramdas Pophale) SiO2 
 PCOD8055979
Probable space group: C C
;
_chemical_formula_sum "Si O2"
_cell_formula_units_Z 32
_cell_length_a 30.105162
_cell_length_b 7.261864
_cell_length_c 9.754845
_cell_angle_alpha 90.000000
_cell_angle_beta 38.245948
_cell_angle_gamma 90.000000
_cell_volume 1320.161458
_symmetry_space_group_name_H-M "C C"
_symmetry_group_IT_number 9
_symmetry_cell_setting 'monoclinic'
loop_
_space_group_symop_operation_xyz
x,y,z
x,-y,1/2+z
1/2+x,1/2+y,z
1/2+x,1/2-y,1/2+z
loop_
_atom_site_type_symbol
_atom_site_label
_atom_site_fract_x
_atom_site_fract_y
_atom_site_fract_z
Si Si1 0.700640 0.894501 0.799590
Si Si2 0.996556 0.846680 0.338840
Si Si3 0.360824 0.183265 0.739401
Si Si4 0.897290 0.645896 0.955938
Si Si5 0.261004 0.683008 0.864984
Si Si6 0.557336 0.370123 0.902584
Si Si7 0.040260 0.573301 0.731570
Si Si8 0.716805 0.604133 0.983117
O O1 0.745868 0.901775 0.550637
O O2 0.714826 0.699120 0.838622
O O3 0.722920 0.062561 0.842081
O O4 0.616117 0.909626 0.969979
O O5 0.021452 0.637815 0.302977
O O6 0.911150 0.860197 0.582327
O O7 0.042527 0.975486 0.325373
O O8 0.008058 0.904563 0.153720
O O9 0.383155 0.104141 0.831643
O O10 0.275041 0.215952 0.936317
O O11 0.375795 0.036955 0.585803
O O12 0.981297 0.684002 0.782410
O O13 0.847105 0.815184 0.128845
O O14 0.232744 0.890555 0.922249
O O15 0.541876 0.168532 0.877291
O O16 0.640741 0.376808 0.744445
#
# Coordination Sequence:
#
# PCOD8055979 Si02
#       8
#     4   4   4   4   4   4   4   4
#     4  11  27  45  76 112 142 195 245 311 364 443
#     4  11  27  46  76 106 150 192 249 301 372 441
#     4  10  25  45  75 103 144 196 243 298 367 442
#     4  10  25  45  75 103 144 196 243 298 367 442
#     4  11  27  46  76 106 150 192 249 301 372 441
#     4  11  27  45  76 112 142 195 245 311 364 443
#     4  10  26  47  75 105 150 192 248 298 379 436
#     4  10  26  47  75 105 150 192 248 298 379 436
#
# _framework density 24.239459
#
# number of rings (size 3 to 8) (size 9 to 14) (size 15 to 20)
#    0.000    1.500    0.000    0.750   24.500    1.000 
#    0.000    0.000    0.000    0.000    0.000    0.000 
#    0.000    0.000    0.000    0.000    0.000    0.000 
#
# Total GULP energy -198405.937315 kJ/mol
# GULP energy per Si atom -12400.371082 kJ/mol
# Density = 2.418429 g / cm^3
# Si number density = 24.239459 Si / 1000 Ang^3
#
#
#
# Elastic Constant Matrix: (Units=GPa)
#
#
# Indices 1 2 3 4 5 6 
#
# 1 134.4524 41.7005 47.3921 0.0000 -14.7805 0.0000
# 2 41.7005 94.5316 36.0733 0.0000 0.5529 0.0000
# 3 47.3921 36.0733 80.1377 0.0000 10.7628 0.0000
# 4 0.0000 0.0000 0.0000 25.3507 0.0000 -2.3719
# 5 -14.7805 0.5529 10.7628 0.0000 44.7580 0.0000
# 6 0.0000 0.0000 0.0000 -2.3719 0.0000 26.6361
#
#
#
# Elastic Compliance Matrix: (Units=1/GPa)
#
#
# Indices 1 2 3 4 5 6 
#
# 1 0.010892 -0.002556 -0.005971 0.000000 0.005064 0.000000
# 2 -0.002556 0.013442 -0.004551 0.000000 0.000084 0.000000
# 3 -0.005971 -0.004551 0.018926 0.000000 -0.006467 0.000000
# 4 0.000000 0.000000 0.000000 0.039778 0.000000 0.003542
# 5 0.005064 0.000084 -0.006467 0.000000 0.025569 0.000000
# 6 0.000000 0.000000 0.000000 0.003542 0.000000 0.037858
#
#
# Mechanical properties :
#
#
# Convention : Reuss Voigt Hill
#
# Bulk Modulus (GPa) = 58.46029 62.16149 60.31089
# Shear Modulus (GPa) = 28.03927 31.61268 29.82597
#
# Velocity S-wave (km/s) = 3.40481 3.61526 3.51161
# Velocity P-wave (km/s) = 6.29501 6.56714 6.43251
#
# Compressibility (1/GPa) = 0.01710563
#
# Stress axis : x y z
#
# Youngs Moduli (GPa) = 91.81453 74.39411 52.83600
#
# Poissons Ratio (x) = 0.19013 0.31547
# Poissons Ratio (y) = 0.23465 0.24044
# Poissons Ratio (z) = 0.54820 0.33854
#
# Static dielectric constant tensor:
#      x y z
#    x 4.827360 0.000000 -0.663820 
#    y 0.000000 4.290010 0.000000 
#    z -0.663820 0.000000 4.970340 
# 
# 
# High freq. dielectric constant tensor:
#      x y z
#    x 1.969830 0.000000 -0.012560 
#    y 0.000000 1.962850 0.000000 
#    z -0.012560 0.000000 1.971450 
# 
# From -- ./inp_files/12693.got.cif
#   From: 2010.06.25/outbox.cif.g09.slc.cpg/sg9_7_cif.got.tgz:12693.got - 2010.06.27 21:40:51.
