data_PCOD8055453
_publ_section_title
;
Structure prediction by ZEFSAII (Michael W. Deem and Ramdas Pophale) SiO2 
 PCOD8055453
Probable space group: C C
;
_chemical_formula_sum "Si O2"
_cell_formula_units_Z 28
_cell_length_a 7.640486
_cell_length_b 26.024467
_cell_length_c 9.391850
_cell_angle_alpha 90.000000
_cell_angle_beta 45.829323
_cell_angle_gamma 90.000000
_cell_volume 1339.476239
_symmetry_space_group_name_H-M "C C"
_symmetry_group_IT_number 9
_symmetry_cell_setting 'monoclinic'
loop_
_space_group_symop_operation_xyz
x,y,z
x,-y,1/2+z
1/2+x,1/2+y,z
1/2+x,1/2-y,1/2+z
loop_
_atom_site_type_symbol
_atom_site_label
_atom_site_fract_x
_atom_site_fract_y
_atom_site_fract_z
Si Si1 0.148770 0.295201 0.514330
Si Si2 0.180861 0.851166 0.713961
Si Si3 0.501788 0.959583 0.870163
Si Si4 0.553690 0.680995 0.580732
Si Si5 0.083958 0.093025 0.750397
Si Si6 0.366699 0.631283 0.131731
Si Si7 0.542066 0.943204 0.524428
O O1 0.285749 0.312212 0.295034
O O2 0.200978 0.234584 0.502993
O O3 0.227121 0.326790 0.611995
O O4 0.867834 0.304415 0.633850
O O5 0.321213 0.904985 0.609260
O O6 0.996789 0.840002 0.688986
O O7 0.023205 0.848711 0.948072
O O8 0.682395 0.911780 0.798222
O O9 0.470876 0.966732 0.718788
O O10 0.246367 0.953973 0.102505
O O11 0.598574 0.012981 0.877233
O O12 0.697101 0.642212 0.604211
O O13 0.086923 0.103132 0.918661
O O14 0.793941 0.087833 0.885420
#
# Coordination Sequence:
#
# PCOD8055453 Si02
#       7
#     4   4   4   4   4   4   4
#     4  11  22  45  66  98 132 180 218 273 341 389
#     4  12  23  44  66 100 138 169 226 278 322 411
#     4  11  24  43  64  96 133 179 224 278 328 393
#     4  11  21  41  74  88 134 180 214 276 339 390
#     4  10  22  45  65  94 137 177 214 281 337 388
#     4  10  25  44  65 100 134 171 227 274 330 403
#     4  11  25  40  66  94 134 178 227 268 339 390
#
# _framework density 20.903693000000001
#
# number of rings (size 3 to 8) (size 9 to 14) (size 15 to 20)
#    0.000    1.143    7.143    0.000    4.000    3.429 
#    5.143    0.000    0.000    0.000    0.000    0.000 
#    0.000    0.000    0.000    0.000    0.000    0.000 
#
# Total GULP energy -173470.583135 kJ/mol
# GULP energy per Si atom -12390.755938 kJ/mol
# Density = 2.085611 g / cm^3
# Si number density = 20.903693 Si / 1000 Ang^3
#
#
#
# Elastic Constant Matrix: (Units=GPa)
#
#
# Indices 1 2 3 4 5 6 
#
# 1 89.1531 29.0228 34.1296 0.0000 11.4898 0.0000
# 2 29.0228 109.2998 29.4530 0.0000 11.1780 0.0000
# 3 34.1296 29.4530 115.9161 0.0000 7.5922 0.0000
# 4 0.0000 0.0000 0.0000 44.1698 0.0000 4.2819
# 5 11.4898 11.1780 7.5922 0.0000 17.5311 0.0000
# 6 0.0000 0.0000 0.0000 4.2819 0.0000 16.1063
#
#
#
# Elastic Compliance Matrix: (Units=1/GPa)
#
#
# Indices 1 2 3 4 5 6 
#
# 1 0.013957 -0.002210 -0.003130 0.000000 -0.006383 0.000000
# 2 -0.002210 0.010681 -0.001762 0.000000 -0.004599 0.000000
# 3 -0.003130 -0.001762 0.010074 0.000000 -0.001188 0.000000
# 4 0.000000 0.000000 0.000000 0.023239 0.000000 -0.006178
# 5 -0.006383 -0.004599 -0.001188 0.000000 0.064672 0.000000
# 6 0.000000 0.000000 0.000000 -0.006178 0.000000 0.063730
#
#
# Mechanical properties :
#
#
# Convention : Reuss Voigt Hill
#
# Bulk Modulus (GPa) = 48.76043 55.50883 52.13463
# Shear Modulus (GPa) = 24.10898 30.34570 27.22734
#
# Velocity S-wave (km/s) = 3.39976 3.81424 3.61295
# Velocity P-wave (km/s) = 6.22801 6.78307 6.51146
#
# Compressibility (1/GPa) = 0.02050843
#
# Stress axis : x y z
#
# Youngs Moduli (GPa) = 71.64967 93.62333 99.26565
#
# Poissons Ratio (x) = 0.20689 0.31068
# Poissons Ratio (y) = 0.15834 0.17491
# Poissons Ratio (z) = 0.22425 0.16497
#
# Static dielectric constant tensor:
#      x y z
#    x 3.403070 0.000000 0.039930 
#    y 0.000000 3.895860 0.000000 
#    z 0.039930 0.000000 4.120390 
# 
# 
# High freq. dielectric constant tensor:
#      x y z
#    x 1.780590 0.000000 -0.001530 
#    y 0.000000 1.823870 0.000000 
#    z -0.001530 0.000000 1.844740 
# 
# From -- ./inp_files/6218.got.cif
#   From: 2010.06.25/outbox.cif.g09.slc.cpg/sg9_4_cif.got.tgz:6218.got - 2010.06.27 21:40:51.
