data_PCOD8055262
_publ_section_title
;
Structure prediction by ZEFSAII (Michael W. Deem and Ramdas Pophale) SiO2 
 PCOD8055262
Probable space group: C C
;
_chemical_formula_sum "Si O2"
_cell_formula_units_Z 32
_cell_length_a 7.970171
_cell_length_b 23.820389
_cell_length_c 12.767749
_cell_angle_alpha 90.000000
_cell_angle_beta 36.131772
_cell_angle_gamma 90.000000
_cell_volume 1429.291935
_symmetry_space_group_name_H-M "C C"
_symmetry_group_IT_number 9
_symmetry_cell_setting 'monoclinic'
loop_
_space_group_symop_operation_xyz
x,y,z
x,-y,1/2+z
1/2+x,1/2+y,z
1/2+x,1/2-y,1/2+z
loop_
_atom_site_type_symbol
_atom_site_label
_atom_site_fract_x
_atom_site_fract_y
_atom_site_fract_z
Si Si1 0.894610 0.426236 0.125000
Si Si2 0.252414 0.812769 0.300213
Si Si3 0.961176 0.425969 0.718578
Si Si4 0.497435 0.704204 0.156613
Si Si5 0.448514 0.722878 0.738205
Si Si6 0.928378 0.010009 0.432935
Si Si7 0.932629 0.673792 0.097179
Si Si8 0.918006 0.349447 0.925763
O O1 0.844189 0.377078 0.235843
O O2 0.648741 0.473285 0.253980
O O3 0.857293 0.402226 0.029558
O O4 0.213169 0.451676 0.973908
O O5 0.526740 0.771474 0.164587
O O6 0.088303 0.812150 0.493270
O O7 0.069978 0.785995 0.295390
O O8 0.643646 0.452108 0.894095
O O9 0.996492 0.391773 0.591323
O O10 0.007134 0.374983 0.772196
O O11 0.215383 0.470653 0.607827
O O12 0.640749 0.671907 0.180427
O O13 0.168670 0.689245 0.342048
O O14 0.430001 0.786731 0.703774
O O15 0.638095 0.689266 0.558285
O O16 0.138479 0.695956 0.901220
#
# Coordination Sequence:
#
# PCOD8055262 Si02
#       8
#     4   4   4   4   4   4   4   4
#     4  10  22  41  63  88 121 161 206 258 308 361
#     4  11  22  40  63  90 128 166 202 251 309 374
#     4  11  23  42  64  89 123 161 207 260 309 363
#     4  12  24  38  63  97 127 163 203 246 311 386
#     4  11  23  39  63  94 126 165 203 244 311 384
#     4  10  23  42  63  86 118 163 213 259 307 360
#     4  12  24  40  62  94 129 161 202 256 308 372
#     4  11  23  40  65  92 122 162 202 250 315 376
#
# _framework density 22.388707
#
# number of rings (size 3 to 8) (size 9 to 14) (size 15 to 20)
#    0.000    1.000    0.000    9.000    0.000    4.000 
#    0.000    5.000    0.000    0.000    0.000    0.000 
#    0.000    0.000    0.000    0.000    0.000    0.000 
#
# Total GULP energy -198228.065311 kJ/mol
# GULP energy per Si atom -12389.254082 kJ/mol
# Density = 2.233775 g / cm^3
# Si number density = 22.388707 Si / 1000 Ang^3
#
#
#
# Elastic Constant Matrix: (Units=GPa)
#
#
# Indices 1 2 3 4 5 6 
#
# 1 62.6362 30.4323 23.8857 0.0000 -5.5805 0.0000
# 2 30.4323 111.0475 41.8841 0.0000 -10.6145 0.0000
# 3 23.8857 41.8841 100.8162 0.0000 -18.5408 0.0000
# 4 0.0000 0.0000 0.0000 39.4199 0.0000 -5.4132
# 5 -5.5805 -10.6145 -18.5408 0.0000 37.1653 0.0000
# 6 0.0000 0.0000 0.0000 -5.4132 0.0000 27.7760
#
#
#
# Elastic Compliance Matrix: (Units=1/GPa)
#
#
# Indices 1 2 3 4 5 6 
#
# 1 0.019056 -0.004164 -0.002728 0.000000 0.000311 0.000000
# 2 -0.004164 0.011617 -0.003682 0.000000 0.000856 0.000000
# 3 -0.002728 -0.003682 0.013021 0.000000 0.005035 0.000000
# 4 0.000000 0.000000 0.000000 0.026065 0.000000 0.005080
# 5 0.000311 0.000856 0.005035 0.000000 0.029710 0.000000
# 6 0.000000 0.000000 0.000000 0.005080 0.000000 0.036992
#
#
# Mechanical properties :
#
#
# Convention : Reuss Voigt Hill
#
# Bulk Modulus (GPa) = 44.35309 51.87823 48.11566
# Shear Modulus (GPa) = 30.28016 32.75875 31.51945
#
# Velocity S-wave (km/s) = 3.68159 3.82931 3.75617
# Velocity P-wave (km/s) = 6.15838 6.54013 6.35212
#
# Compressibility (1/GPa) = 0.02254634
#
# Stress axis : x y z
#
# Youngs Moduli (GPa) = 52.47658 86.08157 76.79856
#
# Poissons Ratio (x) = 0.35842 0.20949
# Poissons Ratio (y) = 0.21850 0.28280
# Poissons Ratio (z) = 0.14314 0.31699
#
# Static dielectric constant tensor:
#      x y z
#    x 3.885350 0.000000 -0.153630 
#    y 0.000000 4.296140 0.000000 
#    z -0.153630 0.000000 4.128640 
# 
# 
# High freq. dielectric constant tensor:
#      x y z
#    x 1.862750 0.000000 -0.008780 
#    y 0.000000 1.898810 0.000000 
#    z -0.008780 0.000000 1.889990 
# 
# From -- ./inp_files/23852.got.cif
#   From: 2010.06.25/outbox.cif.g09.slc.cpg/sg9_12_cif.got.tgz:23852.got - 2010.06.27 21:40:51.
