data_PCOD8055295
_publ_section_title
;
Structure prediction by ZEFSAII (Michael W. Deem and Ramdas Pophale) SiO2 
 PCOD8055295
Probable space group: C C
;
_chemical_formula_sum "Si O2"
_cell_formula_units_Z 28
_cell_length_a 20.309416
_cell_length_b 16.826202
_cell_length_c 12.320806
_cell_angle_alpha 90.000000
_cell_angle_beta 162.533149
_cell_angle_gamma 90.000000
_cell_volume 1263.766216
_symmetry_space_group_name_H-M "C C"
_symmetry_group_IT_number 9
_symmetry_cell_setting 'monoclinic'
loop_
_space_group_symop_operation_xyz
x,y,z
x,-y,1/2+z
1/2+x,1/2+y,z
1/2+x,1/2-y,1/2+z
loop_
_atom_site_type_symbol
_atom_site_label
_atom_site_fract_x
_atom_site_fract_y
_atom_site_fract_z
Si Si1 0.470900 0.320460 0.767040
Si Si2 0.267131 0.906517 0.538497
Si Si3 0.789649 0.320588 0.085738
Si Si4 0.943990 0.906670 0.215297
Si Si5 0.808240 0.545166 0.450470
Si Si6 0.644631 0.954686 0.286893
Si Si7 0.198505 0.749917 0.312868
O O1 0.289127 0.249919 0.494025
O O2 0.364950 0.402202 0.642280
O O3 0.552772 0.327712 0.771399
O O4 0.683070 0.298844 0.175056
O O5 0.072716 0.937017 0.311157
O O6 0.234360 0.812962 0.465301
O O7 0.261537 0.955927 0.417834
O O8 0.499653 0.919045 0.962381
O O9 0.969225 0.299025 0.461190
O O10 0.857686 0.402372 0.134836
O O11 0.094037 0.919315 0.556642
O O12 0.895833 0.813109 0.126842
O O13 0.719500 0.956123 0.875596
O O14 0.018500 0.546254 0.702818
#
# Coordination Sequence:
#
# PCOD8055295 Si02
#       7
#     4   4   4   4   4   4   4
#     4  10  22  41  67  95 128 169 211 263 320 380
#     4  11  25  45  66  95 132 173 218 267 322 384
#     4  10  22  41  67  95 128 169 211 263 320 380
#     4  11  25  45  66  95 132 173 218 267 322 384
#     4  11  25  43  67  97 130 172 218 267 324 383
#     4  11  25  43  67  97 130 172 218 267 324 383
#     4  10  24  40  68  98 130 172 212 268 316 388
#
# _framework density 22.155995999999998
#
# number of rings (size 3 to 8) (size 9 to 14) (size 15 to 20)
#    0.857    0.571    0.000    4.286    2.000    9.143 
#    0.000    0.000    0.000    0.000    0.000    0.000 
#    0.000    0.000    0.000    0.000    0.000    0.000 
#
# Total GULP energy -173553.064231 kJ/mol
# GULP energy per Si atom -12396.647445 kJ/mol
# Density = 2.210557 g / cm^3
# Si number density = 22.155996 Si / 1000 Ang^3
#
#
#
# Elastic Constant Matrix: (Units=GPa)
#
#
# Indices 1 2 3 4 5 6 
#
# 1 126.9071 56.8150 64.2935 0.0000 23.0026 0.0000
# 2 56.8150 137.1932 57.1630 0.0000 -0.1704 0.0000
# 3 64.2935 57.1630 97.3505 -0.0001 2.8915 0.0000
# 4 0.0000 0.0000 -0.0001 42.4861 0.0000 -4.9196
# 5 23.0026 -0.1704 2.8915 0.0000 35.6440 0.0000
# 6 0.0000 0.0000 0.0000 -4.9196 0.0000 36.8310
#
#
#
# Elastic Compliance Matrix: (Units=1/GPa)
#
#
# Indices 1 2 3 4 5 6 
#
# 1 0.014705 -0.002865 -0.007766 0.000000 -0.008874 0.000000
# 2 -0.002865 0.010217 -0.004174 0.000000 0.002236 0.000000
# 3 -0.007766 -0.004174 0.017746 0.000000 0.003552 0.000000
# 4 0.000000 0.000000 0.000000 0.023907 0.000000 0.003193
# 5 -0.008874 0.002236 0.003552 0.000000 0.033504 0.000000
# 6 0.000000 0.000000 0.000000 0.003193 0.000000 0.027578
#
#
# Mechanical properties :
#
#
# Convention : Reuss Voigt Hill
#
# Bulk Modulus (GPa) = 76.57317 79.77707 78.17512
# Shear Modulus (GPa) = 30.93679 35.20418 33.07049
#
# Velocity S-wave (km/s) = 3.74079 3.99045 3.86764
# Velocity P-wave (km/s) = 7.30027 7.57079 7.43676
#
# Compressibility (1/GPa) = 0.01305940
#
# Stress axis : x y z
#
# Youngs Moduli (GPa) = 68.00330 97.87353 56.34990
#
# Poissons Ratio (x) = 0.28041 0.43761
# Poissons Ratio (y) = 0.19483 0.23519
# Poissons Ratio (z) = 0.52811 0.40850
#
# Static dielectric constant tensor:
#      x y z
#    x 3.814620 0.000000 0.081760 
#    y 0.000000 3.999390 0.000000 
#    z 0.081760 0.000000 3.722120 
# 
# 
# High freq. dielectric constant tensor:
#      x y z
#    x 1.865420 0.000000 0.006990 
#    y 0.000000 1.881440 0.000000 
#    z 0.006990 0.000000 1.857440 
# 
# From -- ./inp_files/19483.got.cif
#   From: 2010.06.25/outbox.cif.g09.slc.cpg/sg9_10_cif.got.tgz:19483.got - 2010.06.27 21:40:51.
