data_PCOD8055691
_publ_section_title
;
Structure prediction by ZEFSAII (Michael W. Deem and Ramdas Pophale) SiO2 
 PCOD8055691
Probable space group: C C
;
_chemical_formula_sum "Si O2"
_cell_formula_units_Z 32
_cell_length_a 7.748788
_cell_length_b 25.150630
_cell_length_c 8.574319
_cell_angle_alpha 90.000000
_cell_angle_beta 53.545667
_cell_angle_gamma 90.000000
_cell_volume 1344.054660
_symmetry_space_group_name_H-M "C C"
_symmetry_group_IT_number 9
_symmetry_cell_setting 'monoclinic'
loop_
_space_group_symop_operation_xyz
x,y,z
x,-y,1/2+z
1/2+x,1/2+y,z
1/2+x,1/2-y,1/2+z
loop_
_atom_site_type_symbol
_atom_site_label
_atom_site_fract_x
_atom_site_fract_y
_atom_site_fract_z
Si Si1 0.237200 0.301675 0.109200
Si Si2 0.820306 0.680346 0.021874
Si Si3 0.469752 0.386504 0.162096
Si Si4 0.592318 0.887976 0.589058
Si Si5 0.503004 0.993859 0.784746
Si Si6 0.249190 0.045358 0.690881
Si Si7 0.412667 0.459910 0.923632
Si Si8 0.360015 0.363455 0.744431
O O1 0.253246 0.238915 0.111390
O O2 0.424623 0.326929 0.120760
O O3 0.999807 0.319590 0.290404
O O4 0.264796 0.320871 0.917015
O O5 0.610085 0.648905 0.074595
O O6 0.913567 0.653396 0.127551
O O7 0.250827 0.404614 0.363743
O O8 0.670396 0.395700 0.176491
O O9 0.539807 0.422281 0.976423
O O10 0.464395 0.940446 0.705682
O O11 0.728367 0.860470 0.654857
O O12 0.331943 0.040541 0.824230
O O13 0.739335 0.014824 0.632869
O O14 0.455242 0.978362 0.988170
O O15 0.047864 0.006492 0.772460
O O16 0.324437 0.422980 0.831086
#
# Coordination Sequence:
#
# PCOD8055691 Si02
#       8
#     4   4   4   4   4   4   4   4
#     4  10  23  47  75 102 142 180 234 296 362 425
#     4  11  23  49  75 100 142 187 225 295 372 413
#     4  10  23  45  64  96 140 179 225 287 347 407
#     4  11  25  46  70 107 137 182 244 288 346 430
#     4  12  25  40  65  97 138 183 233 283 342 416
#     4  12  24  39  65  95 134 188 229 274 349 407
#     4  11  24  44  62  95 143 179 227 289 339 408
#     4  11  25  46  72 102 142 180 235 298 345 424
#
# _framework density 23.808554999999998
#
# number of rings (size 3 to 8) (size 9 to 14) (size 15 to 20)
#    0.000    1.000    3.750    2.250    5.250    2.000 
#    6.750    0.000    0.000    0.000    0.000    0.000 
#    0.000    0.000    0.000    0.000    0.000    0.000 
#
# Total GULP energy -198308.312995 kJ/mol
# GULP energy per Si atom -12394.269562 kJ/mol
# Density = 2.375437 g / cm^3
# Si number density = 23.808555 Si / 1000 Ang^3
#
#
#
# Elastic Constant Matrix: (Units=GPa)
#
#
# Indices 1 2 3 4 5 6 
#
# 1 93.9508 19.5536 15.9628 0.0000 -3.9285 0.0000
# 2 19.5536 74.0392 16.1708 0.0000 -6.9840 0.0000
# 3 15.9628 16.1708 90.1051 0.0000 -15.1629 0.0000
# 4 0.0000 0.0000 0.0000 29.8642 0.0000 -7.1445
# 5 -3.9285 -6.9840 -15.1629 0.0000 37.4035 0.0000
# 6 0.0000 0.0000 0.0000 -7.1445 0.0000 33.0201
#
#
#
# Elastic Compliance Matrix: (Units=1/GPa)
#
#
# Indices 1 2 3 4 5 6 
#
# 1 0.011467 -0.002685 -0.001536 0.000000 0.000080 0.000000
# 2 -0.002685 0.014790 -0.001890 0.000000 0.001713 0.000000
# 3 -0.001536 -0.001890 0.012474 0.000000 0.004542 0.000000
# 4 0.000000 0.000000 0.000000 0.035313 0.000000 0.007641
# 5 0.000080 0.001713 0.004542 0.000000 0.028905 0.000000
# 6 0.000000 0.000000 0.000000 0.007641 0.000000 0.031938
#
#
# Mechanical properties :
#
#
# Convention : Reuss Voigt Hill
#
# Bulk Modulus (GPa) = 37.72496 40.16331 38.94413
# Shear Modulus (GPa) = 32.06235 33.81808 32.94022
#
# Velocity S-wave (km/s) = 3.67369 3.77293 3.72364
# Velocity P-wave (km/s) = 5.82015 5.99048 5.90593
#
# Compressibility (1/GPa) = 0.02650765
#
# Stress axis : x y z
#
# Youngs Moduli (GPa) = 87.20596 67.61314 80.16732
#
# Poissons Ratio (x) = 0.18157 0.12314
# Poissons Ratio (y) = 0.23418 0.15154
# Poissons Ratio (z) = 0.13395 0.12781
#
# Static dielectric constant tensor:
#      x y z
#    x 4.083840 0.000000 -0.050240 
#    y 0.000000 4.235260 0.000000 
#    z -0.050240 0.000000 4.508060 
# 
# 
# High freq. dielectric constant tensor:
#      x y z
#    x 1.936080 0.000000 -0.006060 
#    y 0.000000 1.924590 0.000000 
#    z -0.006060 0.000000 1.964090 
# 
# From -- ./inp_files/6358.got.cif
#   From: 2010.06.25/outbox.cif.g09.slc.cpg/sg9_4_cif.got.tgz:6358.got - 2010.06.27 21:40:51.
