data_PCOD8055053
_publ_section_title
;
Structure prediction by ZEFSAII (Michael W. Deem and Ramdas Pophale) SiO2 
 PCOD8055053
Probable space group: C C
;
_chemical_formula_sum "Si O2"
_cell_formula_units_Z 28
_cell_length_a 9.312163
_cell_length_b 23.882329
_cell_length_c 7.629347
_cell_angle_alpha 90.000000
_cell_angle_beta 126.099960
_cell_angle_gamma 90.000000
_cell_volume 1370.947294
_symmetry_space_group_name_H-M "C C"
_symmetry_group_IT_number 9
_symmetry_cell_setting 'monoclinic'
loop_
_space_group_symop_operation_xyz
x,y,z
x,-y,1/2+z
1/2+x,1/2+y,z
1/2+x,1/2-y,1/2+z
loop_
_atom_site_type_symbol
_atom_site_label
_atom_site_fract_x
_atom_site_fract_y
_atom_site_fract_z
Si Si1 0.916730 0.858642 0.796070
Si Si2 0.081960 0.575962 0.120305
Si Si3 0.050741 0.547279 0.702018
Si Si4 0.884543 0.878686 0.395080
Si Si5 0.221394 0.897009 0.818219
Si Si6 0.834197 0.205095 0.562804
Si Si7 0.439887 0.174541 0.238615
O O1 0.787844 0.906248 0.781756
O O2 0.846288 0.843408 0.548024
O O3 0.119861 0.881187 0.927281
O O4 0.907814 0.806390 0.920414
O O5 0.078643 0.518928 0.228157
O O6 0.952925 0.622664 0.111979
O O7 0.020181 0.567975 0.876700
O O8 0.219177 0.579687 0.734291
O O9 0.871391 0.556602 0.459789
O O10 0.931822 0.834552 0.275665
O O11 0.066370 0.915059 0.565374
O O12 0.319076 0.841652 0.816724
O O13 0.630728 0.190748 0.448328
O O14 0.855310 0.271116 0.590871
#
# Coordination Sequence:
#
# PCOD8055053 Si02
#       7
#     4   4   4   4   4   4   4
#     4   8  22  43  62  98 134 168 230 263 342 399
#     4  10  23  43  66  95 135 181 225 282 343 402
#     4  11  21  43  69  94 137 174 219 293 332 400
#     4   9  21  42  67  97 133 170 220 273 339 393
#     4  10  21  43  63 102 129 172 226 268 336 412
#     4  11  21  43  68  96 139 181 216 291 328 400
#     4  11  23  41  67  98 135 180 232 268 350 404
#
# _framework density 20.423832999999998
#
# number of rings (size 3 to 8) (size 9 to 14) (size 15 to 20)
#    0.857    1.143    1.429    1.714    2.000    2.286 
#   15.429    0.000    0.000    0.000    0.000    0.000 
#    0.000    0.000    0.000    0.000    0.000    0.000 
#
# Total GULP energy -173454.627970 kJ/mol
# GULP energy per Si atom -12389.616284 kJ/mol
# Density = 2.037735 g / cm^3
# Si number density = 20.423833 Si / 1000 Ang^3
#
#
#
# Elastic Constant Matrix: (Units=GPa)
#
#
# Indices 1 2 3 4 5 6 
#
# 1 109.5626 52.9572 39.8404 0.0000 16.5099 0.0000
# 2 52.9572 140.8562 40.2506 0.0000 -5.3397 0.0000
# 3 39.8404 40.2506 73.0037 0.0000 7.7099 0.0000
# 4 0.0000 0.0000 0.0000 34.0112 0.0000 -3.4164
# 5 16.5099 -5.3397 7.7099 0.0000 34.9599 0.0000
# 6 0.0000 0.0000 0.0000 -3.4164 0.0000 22.9872
#
#
#
# Elastic Compliance Matrix: (Units=1/GPa)
#
#
# Indices 1 2 3 4 5 6 
#
# 1 0.013669 -0.004060 -0.004581 0.000000 -0.006065 0.000000
# 2 -0.004060 0.009829 -0.003649 0.000000 0.004224 0.000000
# 3 -0.004581 -0.003649 0.018470 0.000000 -0.002468 0.000000
# 4 0.000000 0.000000 0.000000 0.029848 0.000000 0.004436
# 5 -0.006065 0.004224 -0.002468 0.000000 0.032658 0.000000
# 6 0.000000 0.000000 0.000000 0.004436 0.000000 0.044162
#
#
# Mechanical properties :
#
#
# Convention : Reuss Voigt Hill
#
# Bulk Modulus (GPa) = 57.51041 65.50211 61.50626
# Shear Modulus (GPa) = 27.93098 31.08327 29.50713
#
# Velocity S-wave (km/s) = 3.70208 3.90540 3.80510
# Velocity P-wave (km/s) = 6.81861 7.24412 7.03458
#
# Compressibility (1/GPa) = 0.01738816
#
# Stress axis : x y z
#
# Youngs Moduli (GPa) = 73.15637 101.74088 54.14052
#
# Poissons Ratio (x) = 0.41309 0.24800
# Poissons Ratio (y) = 0.29703 0.19758
# Poissons Ratio (z) = 0.33510 0.37130
#
# Static dielectric constant tensor:
#      x y z
#    x 3.871570 0.000000 0.045910 
#    y 0.000000 3.602500 0.000000 
#    z 0.045910 0.000000 3.653030 
# 
# 
# High freq. dielectric constant tensor:
#      x y z
#    x 1.809450 0.000000 0.004230 
#    y 0.000000 1.774730 0.000000 
#    z 0.004230 0.000000 1.793010 
# 
# From -- ./inp_files/5852.got.cif
#   From: 2010.06.25/outbox.cif.g09.slc.cpg/sg9_3_cif.got.tgz:5852.got - 2010.06.27 21:40:51.
