data_PCOD8055912
_publ_section_title
;
Structure prediction by ZEFSAII (Michael W. Deem and Ramdas Pophale) SiO2 
 PCOD8055912
Probable space group: C C
;
_chemical_formula_sum "Si O2"
_cell_formula_units_Z 28
_cell_length_a 8.846461
_cell_length_b 16.048684
_cell_length_c 11.092284
_cell_angle_alpha 90.000000
_cell_angle_beta 53.709811
_cell_angle_gamma 90.000000
_cell_volume 1269.348832
_symmetry_space_group_name_H-M "C C"
_symmetry_group_IT_number 9
_symmetry_cell_setting 'monoclinic'
loop_
_space_group_symop_operation_xyz
x,y,z
x,-y,1/2+z
1/2+x,1/2+y,z
1/2+x,1/2-y,1/2+z
loop_
_atom_site_type_symbol
_atom_site_label
_atom_site_fract_x
_atom_site_fract_y
_atom_site_fract_z
Si Si1 0.483540 0.155594 0.236190
Si Si2 0.714584 0.203388 0.902217
Si Si3 0.061457 0.681577 0.713099
Si Si4 0.875389 0.838906 0.677407
Si Si5 0.986285 0.080212 0.889702
Si Si6 0.889998 0.472451 0.206732
Si Si7 0.263580 0.573039 0.453980
O O1 0.316979 0.208594 0.374277
O O2 0.658989 0.166176 0.241667
O O3 0.402477 0.062618 0.262263
O O4 0.545933 0.191184 0.076279
O O5 0.626011 0.209291 0.812755
O O6 0.872689 0.130909 0.840674
O O7 0.244084 0.656596 0.545275
O O8 0.947246 0.752051 0.695679
O O9 0.932785 0.598599 0.787803
O O10 0.003814 0.865659 0.503904
O O11 0.882512 0.908821 0.778110
O O12 0.187498 0.049475 0.746020
O O13 0.868509 0.998180 0.980252
O O14 0.050994 0.462047 0.027164
#
# Coordination Sequence:
#
# PCOD8055912 Si02
#       7
#     4   4   4   4   4   4   4
#     4  11  26  44  68 102 142 183 235 289 346 425
#     4  11  25  43  68 102 146 173 238 293 346 413
#     4  10  25  42  72  99 141 180 235 287 345 414
#     4  11  24  45  72 100 141 184 237 282 355 420
#     4  11  25  47  71 102 140 191 226 295 353 416
#     4  10  24  46  70 102 135 187 235 275 365 401
#     4  10  25  45  71  99 141 178 238 287 346 415
#
# _framework density 22.058554000000001
#
# number of rings (size 3 to 8) (size 9 to 14) (size 15 to 20)
#    0.857    0.571    2.857    0.857   14.000    0.000 
#    2.571    0.000    0.000    0.000    0.000    0.000 
#    0.000    0.000    0.000    0.000    0.000    0.000 
#
# Total GULP energy -173485.415206 kJ/mol
# GULP energy per Si atom -12391.815372 kJ/mol
# Density = 2.200835 g / cm^3
# Si number density = 22.058554 Si / 1000 Ang^3
#
#
#
# Elastic Constant Matrix: (Units=GPa)
#
#
# Indices 1 2 3 4 5 6 
#
# 1 75.2053 44.8759 22.0931 0.0000 5.0035 0.0000
# 2 44.8759 150.3739 29.2839 0.0000 0.3187 0.0000
# 3 22.0931 29.2839 59.2009 0.0000 0.1029 0.0000
# 4 0.0000 0.0000 0.0000 33.7047 0.0000 -5.7840
# 5 5.0035 0.3187 0.1029 0.0000 40.4086 0.0000
# 6 0.0000 0.0000 0.0000 -5.7840 0.0000 42.1559
#
#
#
# Elastic Compliance Matrix: (Units=1/GPa)
#
#
# Indices 1 2 3 4 5 6 
#
# 1 0.017275 -0.004312 -0.004311 0.000000 -0.002094 0.000000
# 2 -0.004312 0.008435 -0.002564 0.000000 0.000474 0.000000
# 3 -0.004311 -0.002564 0.019768 0.000000 0.000504 0.000000
# 4 0.000000 0.000000 0.000000 0.030385 0.000000 0.004169
# 5 -0.002094 0.000474 0.000504 0.000000 0.025001 0.000000
# 6 0.000000 0.000000 0.000000 0.004169 0.000000 0.024293
#
#
# Mechanical properties :
#
#
# Convention : Reuss Voigt Hill
#
# Bulk Modulus (GPa) = 43.27978 53.03177 48.15577
# Shear Modulus (GPa) = 32.20968 35.82233 34.01600
#
# Velocity S-wave (km/s) = 3.82539 4.03422 3.93119
# Velocity P-wave (km/s) = 6.25895 6.76708 6.51797
#
# Compressibility (1/GPa) = 0.02310548
#
# Stress axis : x y z
#
# Youngs Moduli (GPa) = 57.88597 118.55156 50.58717
#
# Poissons Ratio (x) = 0.51114 0.21806
# Poissons Ratio (y) = 0.24958 0.12972
# Poissons Ratio (z) = 0.24952 0.30400
#
# Static dielectric constant tensor:
#      x y z
#    x 3.824740 0.000000 -0.178750 
#    y 0.000000 4.058620 0.000000 
#    z -0.178750 0.000000 3.858350 
# 
# 
# High freq. dielectric constant tensor:
#      x y z
#    x 1.860340 0.000000 -0.011970 
#    y 0.000000 1.882480 0.000000 
#    z -0.011970 0.000000 1.847740 
# 
# From -- ./inp_files/14531.got.cif
#   From: 2010.06.25/outbox.cif.g09.slc.cpg/sg9_8_cif.got.tgz:14531.got - 2010.06.27 21:40:51.
