data_PCOD8055546
_publ_section_title
;
Structure prediction by ZEFSAII (Michael W. Deem and Ramdas Pophale) SiO2 
 PCOD8055546
Probable space group: C C
;
_chemical_formula_sum "Si O2"
_cell_formula_units_Z 28
_cell_length_a 14.495604
_cell_length_b 10.869399
_cell_length_c 8.951265
_cell_angle_alpha 90.000000
_cell_angle_beta 62.051258
_cell_angle_gamma 90.000000
_cell_volume 1245.855147
_symmetry_space_group_name_H-M "C C"
_symmetry_group_IT_number 9
_symmetry_cell_setting 'monoclinic'
loop_
_space_group_symop_operation_xyz
x,y,z
x,-y,1/2+z
1/2+x,1/2+y,z
1/2+x,1/2-y,1/2+z
loop_
_atom_site_type_symbol
_atom_site_label
_atom_site_fract_x
_atom_site_fract_y
_atom_site_fract_z
Si Si1 0.687420 0.241391 0.007040
Si Si2 0.983329 0.856319 0.575040
Si Si3 0.361183 0.680648 0.669019
Si Si4 0.059274 0.593348 0.556966
Si Si5 0.043820 0.059137 0.719656
Si Si6 0.257252 0.430593 0.715973
Si Si7 0.010149 0.363491 0.435774
O O1 0.653444 0.369552 0.111543
O O2 0.700844 0.131791 0.117396
O O3 0.794090 0.262713 0.835903
O O4 0.601087 0.205553 0.952997
O O5 0.023371 0.720787 0.511364
O O6 0.013911 0.944318 0.414815
O O7 0.858303 0.852908 0.691075
O O8 0.045338 0.915407 0.669306
O O9 0.452370 0.623039 0.697366
O O10 0.292102 0.570966 0.648632
O O11 0.408397 0.773905 0.508174
O O12 0.177878 0.564584 0.415879
O O13 0.983491 0.488107 0.547422
O O14 0.049655 0.599239 0.742253
#
# Coordination Sequence:
#
# PCOD8055546 Si02
#       7
#     4   4   4   4   4   4   4
#     4  11  21  42  70  98 138 180 239 294 359 421
#     4  11  25  42  69 101 146 186 243 292 360 429
#     4  10  23  41  72  98 140 184 240 293 361 426
#     4  12  26  45  72  99 148 192 246 295 364 433
#     4  10  23  41  65 100 139 184 236 296 351 420
#     4  11  23  42  74 105 134 193 239 296 361 447
#     4  11  27  43  68 105 143 185 239 306 354 424
#
# _framework density 22.474523999999999
#
# number of rings (size 3 to 8) (size 9 to 14) (size 15 to 20)
#    0.000    1.143    4.286    0.857    8.000    1.143 
#    2.571    1.429    0.000    0.000    0.000    0.000 
#    0.000    0.000    0.000    0.000    0.000    0.000 
#
# Total GULP energy -173585.474493 kJ/mol
# GULP energy per Si atom -12398.962464 kJ/mol
# Density = 2.242337 g / cm^3
# Si number density = 22.474524 Si / 1000 Ang^3
#
#
#
# Elastic Constant Matrix: (Units=GPa)
#
#
# Indices 1 2 3 4 5 6 
#
# 1 59.2546 42.3937 44.5369 0.0000 -5.7686 0.0000
# 2 42.3937 115.2753 46.0783 0.0000 -18.8824 0.0000
# 3 44.5369 46.0783 138.7196 0.0000 -5.4487 0.0000
# 4 0.0000 0.0000 0.0000 38.3430 0.0000 -7.5533
# 5 -5.7686 -18.8824 -5.4487 0.0000 41.6026 0.0000
# 6 0.0000 0.0000 0.0000 -7.5533 0.0000 31.4491
#
#
#
# Elastic Compliance Matrix: (Units=1/GPa)
#
#
# Indices 1 2 3 4 5 6 
#
# 1 0.026793 -0.007480 -0.006137 0.000000 -0.000483 0.000000
# 2 -0.007480 0.012849 -0.001687 0.000000 0.004574 0.000000
# 3 -0.006137 -0.001687 0.009726 0.000000 -0.000343 0.000000
# 4 0.000000 0.000000 0.000000 0.027376 0.000000 0.006575
# 5 -0.000483 0.004574 -0.000343 0.000000 0.026001 0.000000
# 6 0.000000 0.000000 0.000000 0.006575 0.000000 0.033377
#
#
# Mechanical properties :
#
#
# Convention : Reuss Voigt Hill
#
# Bulk Modulus (GPa) = 53.30062 64.36305 58.83184
# Shear Modulus (GPa) = 28.90485 34.29498 31.59991
#
# Velocity S-wave (km/s) = 3.59014 3.91058 3.75378
# Velocity P-wave (km/s) = 6.39945 7.00647 6.70982
#
# Compressibility (1/GPa) = 0.01876151
#
# Stress axis : x y z
#
# Youngs Moduli (GPa) = 37.32331 77.82606 102.81842
#
# Poissons Ratio (x) = 0.58211 0.63095
# Poissons Ratio (y) = 0.27917 0.17346
# Poissons Ratio (z) = 0.22904 0.13130
#
# Static dielectric constant tensor:
#      x y z
#    x 3.990140 0.000000 -0.255760 
#    y 0.000000 4.664250 0.000000 
#    z -0.255760 0.000000 4.259940 
# 
# 
# High freq. dielectric constant tensor:
#      x y z
#    x 1.863050 0.000000 -0.002590 
#    y 0.000000 1.886280 0.000000 
#    z -0.002590 0.000000 1.900240 
# 
# From -- ./inp_files/9051.got.cif
#   From: 2010.06.25/outbox.cif.g09.slc.cpg/sg9_5_cif.got.tgz:9051.got - 2010.06.27 21:40:51.
