data_PCOD8055698
_publ_section_title
;
Structure prediction by ZEFSAII (Michael W. Deem and Ramdas Pophale) SiO2 
 PCOD8055698
Probable space group: C C
;
_chemical_formula_sum "Si O2"
_cell_formula_units_Z 32
_cell_length_a 7.405629
_cell_length_b 16.044544
_cell_length_c 11.772202
_cell_angle_alpha 90.000000
_cell_angle_beta 75.927176
_cell_angle_gamma 90.000000
_cell_volume 1356.791622
_symmetry_space_group_name_H-M "C C"
_symmetry_group_IT_number 9
_symmetry_cell_setting 'monoclinic'
loop_
_space_group_symop_operation_xyz
x,y,z
x,-y,1/2+z
1/2+x,1/2+y,z
1/2+x,1/2-y,1/2+z
loop_
_atom_site_type_symbol
_atom_site_label
_atom_site_fract_x
_atom_site_fract_y
_atom_site_fract_z
Si Si1 0.742280 0.121095 0.863570
Si Si2 0.197351 0.032698 0.610660
Si Si3 0.364508 0.133410 0.024891
Si Si4 0.149037 0.850437 0.325335
Si Si5 0.140925 0.745041 0.691072
Si Si6 0.061389 0.391725 0.026209
Si Si7 0.280280 0.497961 0.658537
Si Si8 0.270253 0.329172 0.775387
O O1 0.584849 0.118728 0.983800
O O2 0.722398 0.201724 0.788491
O O3 0.730790 0.038488 0.788036
O O4 0.938145 0.131809 0.899186
O O5 0.201813 0.075877 0.732154
O O6 0.353913 0.082648 0.511986
O O7 0.989346 0.028972 0.591346
O O8 0.267174 0.938619 0.611984
O O9 0.288156 0.141750 0.908695
O O10 0.319348 0.217301 0.099540
O O11 0.165705 0.758459 0.265148
O O12 0.037663 0.681768 0.621421
O O13 0.990977 0.813374 0.753824
O O14 0.150077 0.471990 0.076097
O O15 0.192711 0.364880 0.904556
O O16 0.249616 0.398482 0.678989
#
# Coordination Sequence:
#
# PCOD8055698 Si02
#       8
#     4   4   4   4   4   4   4   4
#     4  10  23  45  67 100 141 178 232 282 341 417
#     4  11  24  42  69 102 137 180 228 282 344 411
#     4  12  23  45  70  99 142 186 223 285 350 405
#     4  11  24  46  72 102 141 179 234 287 345 414
#     4  11  21  45  70  98 142 179 224 291 344 408
#     4  11  23  44  68  97 137 180 221 285 347 405
#     4  10  24  43  66 101 139 176 229 281 335 412
#     4  12  22  46  72  99 137 182 225 285 342 400
#
# _framework density 23.585052000000001
#
# number of rings (size 3 to 8) (size 9 to 14) (size 15 to 20)
#    0.000    1.000    5.000    1.500    0.000    4.000 
#   11.250    0.000    0.000    0.000    0.000    0.000 
#    0.000    0.000    0.000    0.000    0.000    0.000 
#
# Total GULP energy -198359.917340 kJ/mol
# GULP energy per Si atom -12397.494834 kJ/mol
# Density = 2.353137 g / cm^3
# Si number density = 23.585052 Si / 1000 Ang^3
#
#
#
# Elastic Constant Matrix: (Units=GPa)
#
#
# Indices 1 2 3 4 5 6 
#
# 1 103.7688 29.6402 35.4364 0.0000 -36.8604 0.0000
# 2 29.6402 133.9297 39.1157 0.0000 -9.3299 0.0000
# 3 35.4364 39.1157 79.2119 0.0000 -14.8025 0.0000
# 4 0.0000 0.0000 0.0000 22.9994 0.0000 -10.1614
# 5 -36.8604 -9.3299 -14.8025 0.0000 31.9249 0.0000
# 6 0.0000 0.0000 0.0000 -10.1614 0.0000 36.1297
#
#
#
# Elastic Compliance Matrix: (Units=1/GPa)
#
#
# Indices 1 2 3 4 5 6 
#
# 1 0.017961 -0.001576 -0.003796 0.000000 0.018517 0.000000
# 2 -0.001576 0.008874 -0.003867 0.000000 -0.001020 0.000000
# 3 -0.003796 -0.003867 0.016644 0.000000 0.002204 0.000000
# 4 0.000000 0.000000 0.000000 0.049649 0.000000 0.013963
# 5 0.018517 -0.001020 0.002204 0.000000 0.053427 0.000000
# 6 0.000000 0.000000 0.000000 0.013963 0.000000 0.031605
#
#
# Mechanical properties :
#
#
# Convention : Reuss Voigt Hill
#
# Bulk Modulus (GPa) = 40.00159 58.36612 49.18386
# Shear Modulus (GPa) = 24.39344 32.39202 28.39273
#
# Velocity S-wave (km/s) = 3.21950 3.70998 3.47341
# Velocity P-wave (km/s) = 5.55137 6.56907 6.08155
#
# Compressibility (1/GPa) = 0.02499901
#
# Stress axis : x y z
#
# Youngs Moduli (GPa) = 55.67626 112.68950 60.08040
#
# Poissons Ratio (x) = 0.17763 0.22809
# Poissons Ratio (y) = 0.08776 0.23236
# Poissons Ratio (z) = 0.21137 0.43582
#
# Static dielectric constant tensor:
#      x y z
#    x 4.359000 0.000000 -0.426770 
#    y 0.000000 4.587390 0.000000 
#    z -0.426770 0.000000 3.993280 
# 
# 
# High freq. dielectric constant tensor:
#      x y z
#    x 1.934980 0.000000 -0.030500 
#    y 0.000000 1.949170 0.000000 
#    z -0.030500 0.000000 1.920420 
# 
# From -- ./inp_files/14744.got.cif
#   From: 2010.06.25/outbox.cif.g09.slc.cpg/sg9_8_cif.got.tgz:14744.got - 2010.06.27 21:40:51.
