data_PCOD8055073
_publ_section_title
;
Structure prediction by ZEFSAII (Michael W. Deem and Ramdas Pophale) SiO2 
 PCOD8055073
Probable space group: C C
;
_chemical_formula_sum "Si O2"
_cell_formula_units_Z 32
_cell_length_a 13.048447
_cell_length_b 8.885520
_cell_length_c 21.334961
_cell_angle_alpha 90.000000
_cell_angle_beta 146.399184
_cell_angle_gamma 90.000000
_cell_volume 1368.911463
_symmetry_space_group_name_H-M "C C"
_symmetry_group_IT_number 9
_symmetry_cell_setting 'monoclinic'
loop_
_space_group_symop_operation_xyz
x,y,z
x,-y,1/2+z
1/2+x,1/2+y,z
1/2+x,1/2-y,1/2+z
loop_
_atom_site_type_symbol
_atom_site_label
_atom_site_fract_x
_atom_site_fract_y
_atom_site_fract_z
Si Si1 0.867610 0.908629 0.300110
Si Si2 0.466216 0.011167 0.056773
Si Si3 0.373622 0.712787 0.673414
Si Si4 0.168314 0.869877 0.984015
Si Si5 0.799089 0.541130 0.674913
Si Si6 0.481697 0.128266 0.437091
Si Si7 0.495856 0.657253 0.602824
Si Si8 0.143514 0.552011 0.917899
O O1 0.963054 0.848920 0.283861
O O2 0.900187 0.789550 0.373570
O O3 0.650821 0.930515 0.177217
O O4 0.960375 0.068465 0.365527
O O5 0.494098 0.188990 0.061696
O O6 0.309136 0.993754 0.028997
O O7 0.386892 0.933922 0.952272
O O8 0.515780 0.698487 0.687302
O O9 0.199299 0.615814 0.563368
O O10 0.284869 0.874256 0.640851
O O11 0.204680 0.848893 0.076119
O O12 0.217786 0.710948 0.978738
O O13 0.675405 0.560616 0.674893
O O14 0.018408 0.580516 0.792276
O O15 0.476166 0.013486 0.376193
O O16 0.311521 0.562133 0.491514
#
# Coordination Sequence:
#
# PCOD8055073 Si02
#       8
#     4   4   4   4   4   4   4   4
#     4  11  23  45  72  99 144 189 233 303 372 425
#     4  11  25  43  69 102 141 190 242 294 378 435
#     4  10  22  45  71 102 141 186 239 297 357 440
#     4  12  26  44  68 104 146 179 241 308 350 448
#     4  12  24  45  73 103 144 188 247 300 363 440
#     4  10  21  43  67  99 137 182 237 299 355 441
#     4  11  25  48  72 102 148 196 240 306 370 441
#     4  11  26  43  70 105 139 188 245 295 367 440
#
# _framework density 23.376239000000002
#
# number of rings (size 3 to 8) (size 9 to 14) (size 15 to 20)
#    0.000    1.000    3.750    2.250    3.500    5.000 
#    2.250    0.000    0.000    0.000    0.000    0.000 
#    0.000    0.000    0.000    0.000    0.000    0.000 
#
# Total GULP energy -198331.016691 kJ/mol
# GULP energy per Si atom -12395.688543 kJ/mol
# Density = 2.332303 g / cm^3
# Si number density = 23.376239 Si / 1000 Ang^3
#
#
#
# Elastic Constant Matrix: (Units=GPa)
#
#
# Indices 1 2 3 4 5 6 
#
# 1 98.3976 33.9482 27.3135 0.0000 -5.6191 0.0000
# 2 33.9482 113.4107 36.6868 0.0001 -10.0277 0.0000
# 3 27.3135 36.6868 108.8078 0.0003 -7.6861 0.0001
# 4 0.0000 0.0001 0.0003 22.9712 0.0001 6.9955
# 5 -5.6191 -10.0277 -7.6861 0.0001 30.2624 0.0000
# 6 0.0000 0.0000 0.0001 6.9955 0.0000 33.1658
#
#
#
# Elastic Compliance Matrix: (Units=1/GPa)
#
#
# Indices 1 2 3 4 5 6 
#
# 1 0.011714 -0.002813 -0.001939 0.000000 0.000751 0.000000
# 2 -0.002813 0.010758 -0.002756 0.000000 0.002343 0.000000
# 3 -0.001939 -0.002756 0.010709 0.000000 0.001447 0.000000
# 4 0.000000 0.000000 0.000000 0.046521 0.000000 -0.009812
# 5 0.000751 0.002343 0.001447 0.000000 0.034327 0.000000
# 6 0.000000 0.000000 0.000000 -0.009812 0.000000 0.032221
#
#
# Mechanical properties :
#
#
# Convention : Reuss Voigt Hill
#
# Bulk Modulus (GPa) = 55.04925 57.39034 56.21979
# Shear Modulus (GPa) = 29.88260 32.12441 31.00350
#
# Velocity S-wave (km/s) = 3.57926 3.71109 3.64577
# Velocity P-wave (km/s) = 6.37823 6.55491 6.46717
#
# Compressibility (1/GPa) = 0.01816555
#
# Stress axis : x y z
#
# Youngs Moduli (GPa) = 85.36441 92.95329 93.38266
#
# Poissons Ratio (x) = 0.26147 0.18109
# Poissons Ratio (y) = 0.24012 0.25734
# Poissons Ratio (z) = 0.16554 0.25615
#
# Static dielectric constant tensor:
#      x y z
#    x 4.297410 0.000000 -0.355350 
#    y 0.000000 4.005370 0.000000 
#    z -0.355350 0.000000 4.110920 
# 
# 
# High freq. dielectric constant tensor:
#      x y z
#    x 1.919340 0.000000 -0.015110 
#    y 0.000000 1.923080 0.000000 
#    z -0.015110 0.000000 1.927700 
# 
# From -- ./inp_files/27712.got.cif
#   From: 2010.06.25/outbox.cif.g09.slc.cpg/sg9_14_cif.got.tgz:27712.got - 2010.06.27 21:40:51.
