data_PCOD8055363
_publ_section_title
;
Structure prediction by ZEFSAII (Michael W. Deem and Ramdas Pophale) SiO2 
 PCOD8055363
Probable space group: C C
;
_chemical_formula_sum "Si O2"
_cell_formula_units_Z 24
_cell_length_a 14.357838
_cell_length_b 12.838428
_cell_length_c 8.708423
_cell_angle_alpha 90.000000
_cell_angle_beta 33.713856
_cell_angle_gamma 90.000000
_cell_volume 890.982313
_symmetry_space_group_name_H-M "C C"
_symmetry_group_IT_number 9
_symmetry_cell_setting 'monoclinic'
loop_
_space_group_symop_operation_xyz
x,y,z
x,-y,1/2+z
1/2+x,1/2+y,z
1/2+x,1/2-y,1/2+z
loop_
_atom_site_type_symbol
_atom_site_label
_atom_site_fract_x
_atom_site_fract_y
_atom_site_fract_z
Si Si1 0.096600 0.193687 0.643680
Si Si2 0.334466 0.295927 0.079571
Si Si3 0.371309 0.084446 0.856751
Si Si4 0.044257 0.045795 0.454529
Si Si5 0.228336 0.402199 0.934954
Si Si6 0.787151 0.695266 0.676583
O O1 0.235307 0.260992 0.365843
O O2 0.142974 0.160599 0.754581
O O3 0.057506 0.084103 0.613105
O O4 0.944076 0.273814 0.857762
O O5 0.502962 0.351941 0.908772
O O6 0.391886 0.197679 0.903836
O O7 0.235073 0.378335 0.107908
O O8 0.557148 0.033211 0.627499
O O9 0.324715 0.099283 0.740795
O O10 0.229459 0.013138 0.135002
O O11 0.894951 0.962366 0.648477
O O12 0.216055 0.295193 0.860330
#
# Coordination Sequence:
#
# PCOD8055363 Si02
#       6
#     4   4   4   4   4   4
#     4  11  22  41  73 114 141 192 251 301 359 455
#     4  10  22  42  72 103 145 195 247 300 368 449
#     4  10  22  46  74 105 141 203 247 300 364 459
#     4  11  25  43  72 110 153 193 239 318 380 430
#     4  11  25  44  72 110 151 192 245 314 379 431
#     4  11  22  42  77 112 141 193 261 297 360 456
#
# _framework density 26.93656
#
# number of rings (size 3 to 8) (size 9 to 14) (size 15 to 20)
#    0.000    1.333    3.333    3.000    7.000    0.000 
#    0.000    5.000    0.000    0.000    0.000    0.000 
#    0.000    0.000    0.000    0.000    0.000    0.000 
#
# Total GULP energy -148794.468306 kJ/mol
# GULP energy per Si atom -12399.539025 kJ/mol
# Density = 2.687525 g / cm^3
# Si number density = 26.936560 Si / 1000 Ang^3
#
#
#
# Elastic Constant Matrix: (Units=GPa)
#
#
# Indices 1 2 3 4 5 6 
#
# 1 169.5947 19.9280 50.8921 0.0000 -4.4488 0.0000
# 2 19.9280 63.0141 27.2164 0.0000 -9.5857 0.0000
# 3 50.8921 27.2164 170.4303 0.0001 -25.1286 0.0000
# 4 0.0000 0.0000 0.0001 20.6263 0.0000 -4.3501
# 5 -4.4488 -9.5857 -25.1286 0.0000 48.0686 0.0000
# 6 0.0000 0.0000 0.0000 -4.3501 0.0000 25.3591
#
#
#
# Elastic Compliance Matrix: (Units=1/GPa)
#
#
# Indices 1 2 3 4 5 6 
#
# 1 0.006595 -0.001386 -0.001841 0.000000 -0.000628 0.000000
# 2 -0.001386 0.017542 -0.002048 0.000000 0.002299 0.000000
# 3 -0.001841 -0.002048 0.007215 0.000000 0.003193 0.000000
# 4 0.000000 0.000000 0.000000 0.050302 0.000000 0.008629
# 5 -0.000628 0.002299 0.003193 0.000000 0.022873 0.000000
# 6 0.000000 0.000000 0.000000 0.008629 0.000000 0.040914
#
#
# Mechanical properties :
#
#
# Convention : Reuss Voigt Hill
#
# Bulk Modulus (GPa) = 48.07275 66.56803 57.32039
# Shear Modulus (GPa) = 30.68886 39.14431 34.91658
#
# Velocity S-wave (km/s) = 3.37902 3.81623 3.60426
# Velocity P-wave (km/s) = 5.75405 6.64715 6.21666
#
# Compressibility (1/GPa) = 0.02080181
#
# Stress axis : x y z
#
# Youngs Moduli (GPa) = 151.62635 57.00494 138.59974
#
# Poissons Ratio (x) = 0.07903 0.25511
# Poissons Ratio (y) = 0.21020 0.28391
# Poissons Ratio (z) = 0.27909 0.11677
#
# Static dielectric constant tensor:
#      x y z
#    x 5.254360 0.000000 -0.135260 
#    y 0.000000 4.484980 0.000000 
#    z -0.135260 0.000000 5.051060 
# 
# 
# High freq. dielectric constant tensor:
#      x y z
#    x 2.103860 0.000000 -0.001910 
#    y 0.000000 2.066280 0.000000 
#    z -0.001910 0.000000 2.090930 
# 
# From -- ./inp_files/9912.got.cif
#   From: 2010.06.25/outbox.cif.g09.slc.cpg/sg9_5_cif.got.tgz:9912.got - 2010.06.27 21:40:51.
