data_PCOD8055105
_publ_section_title
;
Structure prediction by ZEFSAII (Michael W. Deem and Ramdas Pophale) SiO2 
 PCOD8055105
Probable space group: C C
;
_chemical_formula_sum "Si O2"
_cell_formula_units_Z 32
_cell_length_a 15.016998
_cell_length_b 11.484584
_cell_length_c 9.304110
_cell_angle_alpha 90.000000
_cell_angle_beta 67.326755
_cell_angle_gamma 90.000000
_cell_volume 1480.615567
_symmetry_space_group_name_H-M "C C"
_symmetry_group_IT_number 9
_symmetry_cell_setting 'monoclinic'
loop_
_space_group_symop_operation_xyz
x,y,z
x,-y,1/2+z
1/2+x,1/2+y,z
1/2+x,1/2-y,1/2+z
loop_
_atom_site_type_symbol
_atom_site_label
_atom_site_fract_x
_atom_site_fract_y
_atom_site_fract_z
Si Si1 0.481300 0.422677 0.505310
Si Si2 0.877636 0.329377 0.347392
Si Si3 0.692908 0.453531 0.367852
Si Si4 0.875961 0.069882 0.364612
Si Si5 0.184368 0.581733 0.007391
Si Si6 0.560117 0.971939 0.325120
Si Si7 0.938064 0.321639 0.984030
Si Si8 0.231678 0.847748 0.031604
O O1 0.590246 0.413853 0.494988
O O2 0.465522 0.529825 0.407100
O O3 0.405174 0.435397 0.680696
O O4 0.465242 0.307920 0.418857
O O5 0.777146 0.398757 0.413959
O O6 0.854148 0.202188 0.426764
O O7 0.911457 0.315380 0.165632
O O8 0.964393 0.391910 0.378493
O O9 0.699236 0.419406 0.195576
O O10 0.695096 0.592016 0.406294
O O11 0.785682 0.984930 0.444889
O O12 0.109066 0.503373 0.143755
O O13 0.197645 0.712778 0.061658
O O14 0.139960 0.589611 0.875439
O O15 0.528768 0.095066 0.409833
O O16 0.846989 0.359374 0.946070
#
# Coordination Sequence:
#
# PCOD8055105 Si02
#       8
#     4   4   4   4   4   4   4   4
#     4  11  23  43  67  93 135 180 225 280 346 402
#     4  10  24  43  66 100 138 176 225 282 340 410
#     4  11  24  44  71 100 136 181 225 286 349 412
#     4  11  25  45  63  98 138 179 231 281 338 409
#     4  12  27  45  71 101 141 187 234 285 345 413
#     4  12  24  45  70 102 137 184 236 281 344 412
#     4  10  21  44  68  94 137 180 223 283 341 405
#     4  11  24  47  68 102 142 177 233 286 347 411
#
# _framework density 21.612634
#
# number of rings (size 3 to 8) (size 9 to 14) (size 15 to 20)
#    0.000    1.000    3.750    2.250    7.000    0.000 
#    4.500    0.000    0.000    0.000    0.000    0.000 
#    0.000    0.000    0.000    0.000    0.000    0.000 
#
# Total GULP energy -198320.297513 kJ/mol
# GULP energy per Si atom -12395.018595 kJ/mol
# Density = 2.156344 g / cm^3
# Si number density = 21.612634 Si / 1000 Ang^3
#
#
#
# Elastic Constant Matrix: (Units=GPa)
#
#
# Indices 1 2 3 4 5 6 
#
# 1 114.0519 48.2391 35.9780 0.0000 -9.7144 0.0000
# 2 48.2391 137.0240 57.8416 0.0000 -2.9382 0.0000
# 3 35.9780 57.8416 49.6633 0.0000 2.7852 0.0000
# 4 0.0000 0.0000 0.0000 29.8774 0.0000 3.7710
# 5 -9.7144 -2.9382 2.7852 0.0000 31.8198 0.0000
# 6 0.0000 0.0000 0.0000 3.7710 0.0000 35.1125
#
#
#
# Elastic Compliance Matrix: (Units=1/GPa)
#
#
# Indices 1 2 3 4 5 6 
#
# 1 0.011990 -0.000709 -0.008102 0.000000 0.004304 0.000000
# 2 -0.000709 0.014651 -0.016696 0.000000 0.002598 0.000000
# 3 -0.008102 -0.016696 0.045901 0.000000 -0.008033 0.000000
# 4 0.000000 0.000000 0.000000 0.033930 0.000000 -0.003644
# 5 0.004304 0.002598 -0.008033 0.000000 0.033684 0.000000
# 6 0.000000 0.000000 0.000000 -0.003644 0.000000 0.028871
#
#
# Mechanical properties :
#
#
# Convention : Reuss Voigt Hill
#
# Bulk Modulus (GPa) = 46.44992 64.98407 55.71699
# Shear Modulus (GPa) = 22.00537 29.94063 25.97300
#
# Velocity S-wave (km/s) = 3.19434 3.72604 3.47039
# Velocity P-wave (km/s) = 5.92822 6.97453 6.47255
#
# Compressibility (1/GPa) = 0.02152856
#
# Stress axis : x y z
#
# Youngs Moduli (GPa) = 83.40193 68.25458 21.78604
#
# Poissons Ratio (x) = 0.04837 0.17651
# Poissons Ratio (y) = 0.05911 0.36374
# Poissons Ratio (z) = 0.67573 1.13958
#
# Static dielectric constant tensor:
#      x y z
#    x 4.097290 0.000000 -0.106470 
#    y 0.000000 4.190190 0.000000 
#    z -0.106470 0.000000 3.630130 
# 
# 
# High freq. dielectric constant tensor:
#      x y z
#    x 1.862900 0.000000 -0.006130 
#    y 0.000000 1.859760 0.000000 
#    z -0.006130 0.000000 1.830100 
# 
# From -- ./inp_files/9083.got.cif
#   From: 2010.06.25/outbox.cif.g09.slc.cpg/sg9_5_cif.got.tgz:9083.got - 2010.06.27 21:40:51.
