data_PCOD8055001
_publ_section_title
;
Structure prediction by ZEFSAII (Michael W. Deem and Ramdas Pophale) SiO2 
 PCOD8055001
Probable space group: C C
;
_chemical_formula_sum "Si O2"
_cell_formula_units_Z 32
_cell_length_a 25.518828
_cell_length_b 7.726874
_cell_length_c 22.142891
_cell_angle_alpha 90.000000
_cell_angle_beta 159.889457
_cell_angle_gamma 90.000000
_cell_volume 1501.225012
_symmetry_space_group_name_H-M "C C"
_symmetry_group_IT_number 9
_symmetry_cell_setting 'monoclinic'
loop_
_space_group_symop_operation_xyz
x,y,z
x,-y,1/2+z
1/2+x,1/2+y,z
1/2+x,1/2-y,1/2+z
loop_
_atom_site_type_symbol
_atom_site_label
_atom_site_fract_x
_atom_site_fract_y
_atom_site_fract_z
Si Si1 0.270650 0.413252 0.768880
Si Si2 0.923374 0.447918 0.421171
Si Si3 0.840947 0.916285 0.980558
Si Si4 0.489933 0.245663 0.320183
Si Si5 0.492570 0.055324 0.132172
Si Si6 0.784547 0.227988 0.702674
Si Si7 0.050374 0.068836 0.301333
Si Si8 0.904208 0.408641 0.156740
O O1 0.325451 0.225681 0.806703
O O2 0.338057 0.463058 0.907005
O O3 0.336460 0.558274 0.795262
O O4 0.088540 0.411820 0.572379
O O5 0.934109 0.501669 0.503010
O O6 0.840107 0.599459 0.295633
O O7 0.673930 0.917862 0.829354
O O8 0.909443 0.727545 0.064437
O O9 0.950404 0.051738 0.132276
O O10 0.602354 0.232413 0.499608
O O11 0.332035 0.283110 0.183528
O O12 0.533739 0.399162 0.323328
O O13 0.482409 0.067929 0.275316
O O14 0.442842 0.912758 0.127011
O O15 0.984243 0.232691 0.267072
O O16 0.224779 0.099634 0.473047
#
# Coordination Sequence:
#
# PCOD8055001 Si02
#       8
#     4   4   4   4   4   4   4   4
#     4  10  24  44  69 103 138 179 227 281 340 403
#     4  10  24  44  69 104 136 181 226 281 342 400
#     4  10  21  41  69 102 141 179 223 283 346 403
#     4  12  28  48  70  97 139 184 232 279 336 406
#     4  10  21  41  69 102 142 176 226 283 344 407
#     4  12  26  48  70  99 137 186 228 279 335 412
#     4  12  27  45  70 102 136 182 229 286 345 404
#     4  12  27  45  70 103 135 181 231 286 344 407
#
# _framework density 21.315926000000001
#
# number of rings (size 3 to 8) (size 9 to 14) (size 15 to 20)
#    0.000    1.000    3.750    1.500    7.000    3.000 
#    0.000    0.000    0.000    0.000    0.000    0.000 
#    0.000    0.000    0.000    0.000    0.000    0.000 
#
# Total GULP energy -198450.897802 kJ/mol
# GULP energy per Si atom -12403.181113 kJ/mol
# Density = 2.126741 g / cm^3
# Si number density = 21.315926 Si / 1000 Ang^3
#
#
#
# Elastic Constant Matrix: (Units=GPa)
#
#
# Indices 1 2 3 4 5 6 
#
# 1 96.7000 50.7733 41.4411 0.0000 5.0368 0.0000
# 2 50.7733 114.8601 79.8106 0.0000 2.8712 0.0001
# 3 41.4411 79.8106 129.5014 -0.0005 -0.8575 0.0003
# 4 0.0000 0.0000 -0.0005 29.5545 -0.0002 6.8694
# 5 5.0368 2.8712 -0.8575 -0.0002 28.0956 0.0001
# 6 0.0000 0.0001 0.0003 6.8694 0.0001 30.3055
#
#
#
# Elastic Compliance Matrix: (Units=1/GPa)
#
#
# Indices 1 2 3 4 5 6 
#
# 1 0.013667 -0.005150 -0.001213 0.000000 -0.001961 0.000000
# 2 -0.005150 0.017263 -0.008999 0.000000 -0.001116 0.000000
# 3 -0.001213 -0.008999 0.013666 0.000000 0.001554 0.000000
# 4 0.000000 0.000000 0.000000 0.035718 0.000000 -0.008096
# 5 -0.001961 -0.001116 0.001554 0.000000 0.036106 0.000000
# 6 0.000000 0.000000 0.000000 -0.008096 0.000000 0.034833
#
#
# Mechanical properties :
#
#
# Convention : Reuss Voigt Hill
#
# Bulk Modulus (GPa) = 72.07673 76.12352 74.10012
# Shear Modulus (GPa) = 26.79538 28.86022 27.82780
#
# Velocity S-wave (km/s) = 3.54935 3.68357 3.61708
# Velocity P-wave (km/s) = 7.11928 7.34038 7.23067
#
# Compressibility (1/GPa) = 0.01387410
#
# Stress axis : x y z
#
# Youngs Moduli (GPa) = 73.16864 57.92648 73.17378
#
# Poissons Ratio (x) = 0.29831 0.08874
# Poissons Ratio (y) = 0.37680 0.65847
# Poissons Ratio (z) = 0.08874 0.52126
#
# Static dielectric constant tensor:
#      x y z
#    x 3.877220 0.000010 0.002330 
#    y 0.000010 4.445640 0.000000 
#    z 0.002330 0.000000 4.008910 
# 
# 
# High freq. dielectric constant tensor:
#      x y z
#    x 1.842260 0.000000 0.004550 
#    y 0.000000 1.841010 0.000000 
#    z 0.004550 0.000000 1.848250 
# 
# From -- ./inp_files/34509.got.cif
#   From: 2010.06.25/outbox.cif.g09.slc.cpg/sg9_18_cif.got.tgz:34509.got - 2010.06.27 21:40:51.
