data_PCOD8055743
_publ_section_title
;
Structure prediction by ZEFSAII (Michael W. Deem and Ramdas Pophale) SiO2 
 PCOD8055743
Probable space group: C C
;
_chemical_formula_sum "Si O2"
_cell_formula_units_Z 28
_cell_length_a 4.845319
_cell_length_b 17.539834
_cell_length_c 14.674401
_cell_angle_alpha 90.000000
_cell_angle_beta 65.209006
_cell_angle_gamma 90.000000
_cell_volume 1132.189639
_symmetry_space_group_name_H-M "C C"
_symmetry_group_IT_number 9
_symmetry_cell_setting 'monoclinic'
loop_
_space_group_symop_operation_xyz
x,y,z
x,-y,1/2+z
1/2+x,1/2+y,z
1/2+x,1/2-y,1/2+z
loop_
_atom_site_type_symbol
_atom_site_label
_atom_site_fract_x
_atom_site_fract_y
_atom_site_fract_z
Si Si1 0.949630 0.626169 0.736500
Si Si2 0.360841 0.454318 0.849154
Si Si3 0.229970 0.098504 0.460806
Si Si4 0.776289 0.879119 0.366107
Si Si5 0.357803 0.738256 0.574367
Si Si6 0.357794 0.333094 0.552394
Si Si7 0.888202 0.008098 0.142116
O O1 0.592723 0.621736 0.765170
O O2 0.010408 0.647467 0.834382
O O3 0.083908 0.692854 0.657247
O O4 0.087254 0.543426 0.693539
O O5 0.642775 0.437880 0.875682
O O6 0.209532 0.533697 0.902494
O O7 0.482009 0.458514 0.728286
O O8 0.095361 0.391782 0.904500
O O9 0.076747 0.181056 0.489012
O O10 0.144799 0.044559 0.558898
O O11 0.806541 0.826480 0.449894
O O12 0.565919 0.781327 0.622547
O O13 0.187059 0.800298 0.533817
O O14 0.318530 0.419503 0.588894
#
# Coordination Sequence:
#
# PCOD8055743 Si02
#       7
#     4   4   4   4   4   4   4
#     4  10  23  46  69  95 133 182 226 268 347 414
#     4  11  23  42  72 105 129 172 233 280 336 395
#     4  11  24  46  69  95 140 181 220 274 344 407
#     4  11  22  42  72 100 130 178 228 280 335 410
#     4  11  26  46  65  97 143 181 220 272 347 414
#     4  12  25  44  66 102 136 173 226 285 338 393
#     4  10  25  42  73 100 129 173 227 293 325 397
#
# _framework density 24.730837000000001
#
# number of rings (size 3 to 8) (size 9 to 14) (size 15 to 20)
#    0.000    1.143    1.429    4.286    2.000   10.286 
#   15.429    0.000    0.000    0.000    0.000    0.000 
#    0.000    0.000    0.000    0.000    0.000    0.000 
#
# Total GULP energy -173576.065321 kJ/mol
# GULP energy per Si atom -12398.290380 kJ/mol
# Density = 2.467455 g / cm^3
# Si number density = 24.730837 Si / 1000 Ang^3
#
#
#
# Elastic Constant Matrix: (Units=GPa)
#
#
# Indices 1 2 3 4 5 6 
#
# 1 92.6595 9.2450 9.4414 0.0000 -0.9934 0.0000
# 2 9.2450 95.1972 27.5439 0.0000 4.2288 0.0000
# 3 9.4414 27.5439 88.1053 0.0000 13.5001 0.0000
# 4 0.0000 0.0000 0.0000 19.3109 0.0000 2.9766
# 5 -0.9934 4.2288 13.5001 0.0000 35.9833 0.0000
# 6 0.0000 0.0000 0.0000 2.9766 0.0000 31.6453
#
#
#
# Elastic Compliance Matrix: (Units=1/GPa)
#
#
# Indices 1 2 3 4 5 6 
#
# 1 0.010987 -0.000799 -0.001049 0.000000 0.000791 0.000000
# 2 -0.000799 0.011607 -0.003534 0.000000 -0.000060 0.000000
# 3 -0.001049 -0.003534 0.013271 0.000000 -0.004593 0.000000
# 4 0.000000 0.000000 0.000000 0.052546 0.000000 -0.004943
# 5 0.000791 -0.000060 -0.004593 0.000000 0.029543 0.000000
# 6 0.000000 0.000000 0.000000 -0.004943 0.000000 0.032065
#
#
# Mechanical properties :
#
#
# Convention : Reuss Voigt Hill
#
# Bulk Modulus (GPa) = 39.83654 40.93584 40.38619
# Shear Modulus (GPa) = 29.55962 32.70334 31.13148
#
# Velocity S-wave (km/s) = 3.46099 3.64039 3.55182
# Velocity P-wave (km/s) = 5.66695 5.85307 5.76076
#
# Compressibility (1/GPa) = 0.02510258
#
# Stress axis : x y z
#
# Youngs Moduli (GPa) = 91.01466 86.15320 75.35261
#
# Poissons Ratio (x) = 0.06881 0.07903
# Poissons Ratio (y) = 0.07269 0.26629
# Poissons Ratio (z) = 0.09546 0.30446
#
# Static dielectric constant tensor:
#      x y z
#    x 4.374860 0.000000 0.093700 
#    y 0.000000 4.462380 0.000000 
#    z 0.093700 0.000000 4.342390 
# 
# 
# High freq. dielectric constant tensor:
#      x y z
#    x 1.994200 0.000000 0.002410 
#    y 0.000000 1.981730 0.000000 
#    z 0.002410 0.000000 1.974430 
# 
# From -- ./inp_files/21896.got.cif
#   From: 2010.06.25/outbox.cif.g09.slc.cpg/sg9_11_cif.got.tgz:21896.got - 2010.06.27 21:40:51.
