data_PCOD8055933
_publ_section_title
;
Structure prediction by ZEFSAII (Michael W. Deem and Ramdas Pophale) SiO2 
 PCOD8055933
Probable space group: C C
;
_chemical_formula_sum "Si O2"
_cell_formula_units_Z 32
_cell_length_a 17.582976
_cell_length_b 14.532960
_cell_length_c 9.027320
_cell_angle_alpha 90.000000
_cell_angle_beta 34.846762
_cell_angle_gamma 90.000000
_cell_volume 1318.053501
_symmetry_space_group_name_H-M "C C"
_symmetry_group_IT_number 9
_symmetry_cell_setting 'monoclinic'
loop_
_space_group_symop_operation_xyz
x,y,z
x,-y,1/2+z
1/2+x,1/2+y,z
1/2+x,1/2-y,1/2+z
loop_
_atom_site_type_symbol
_atom_site_label
_atom_site_fract_x
_atom_site_fract_y
_atom_site_fract_z
Si Si1 0.862210 0.585275 0.615130
Si Si2 0.113326 0.117587 0.813554
Si Si3 0.270087 0.106700 0.280194
Si Si4 0.341315 0.701903 0.612749
Si Si5 0.008301 0.931180 0.045111
Si Si6 0.784853 0.075961 0.147667
Si Si7 0.148079 0.582696 0.064445
Si Si8 0.371008 0.276123 0.736731
O O1 0.723151 0.598781 0.758564
O O2 0.854558 0.482724 0.695937
O O3 0.863822 0.665319 0.735199
O O4 0.988221 0.582770 0.300229
O O5 0.180461 0.141732 0.554667
O O6 0.029077 0.207411 0.986723
O O7 0.005715 0.033000 0.975343
O O8 0.372691 0.189157 0.079007
O O9 0.165237 0.090270 0.314619
O O10 0.456622 0.642361 0.506960
O O11 0.318873 0.682760 0.474912
O O12 0.200562 0.679001 0.915618
O O13 0.924150 0.935442 0.332989
O O14 0.670389 0.079274 0.205848
O O15 0.795855 0.171716 0.221656
O O16 0.738237 0.994607 0.334809
#
# Coordination Sequence:
#
# PCOD8055933 Si02
#       8
#     4   4   4   4   4   4   4   4
#     4  11  30  46  69 107 156 189 246 295 375 436
#     4  11  25  46  79 102 147 195 240 306 362 433
#     4  11  26  47  73 107 148 195 239 308 369 428
#     4  11  26  45  76 108 143 193 251 299 367 433
#     4  10  24  47  79 110 143 189 253 301 358 446
#     4  11  24  45  78 106 145 191 246 298 364 432
#     4  11  25  47  72 108 151 192 237 306 366 439
#     4  12  26  47  76 108 143 194 252 301 361 443
#
# _framework density 24.278227000000001
#
# number of rings (size 3 to 8) (size 9 to 14) (size 15 to 20)
#    0.000    1.000    1.250    3.750   14.000    0.000 
#    2.250    0.000    0.000    0.000    0.000    0.000 
#    0.000    0.000    0.000    0.000    0.000    0.000 
#
# Total GULP energy -198269.038351 kJ/mol
# GULP energy per Si atom -12391.814897 kJ/mol
# Density = 2.422297 g / cm^3
# Si number density = 24.278227 Si / 1000 Ang^3
#
#
#
# Elastic Constant Matrix: (Units=GPa)
#
#
# Indices 1 2 3 4 5 6 
#
# 1 85.1773 59.7416 44.0669 0.0000 21.8993 0.0000
# 2 59.7416 149.5244 36.2387 0.0000 4.1234 0.0000
# 3 44.0669 36.2387 72.3529 0.0000 10.7267 0.0000
# 4 0.0000 0.0000 0.0000 26.4082 0.0000 -2.3568
# 5 21.8993 4.1234 10.7267 0.0000 39.9540 0.0000
# 6 0.0000 0.0000 0.0000 -2.3568 0.0000 37.4820
#
#
#
# Elastic Compliance Matrix: (Units=1/GPa)
#
#
# Indices 1 2 3 4 5 6 
#
# 1 0.024337 -0.007073 -0.009801 0.000000 -0.009978 0.000000
# 2 -0.007073 0.009670 -0.001002 0.000000 0.003148 0.000000
# 3 -0.009801 -0.001002 0.020288 0.000000 0.000028 0.000000
# 4 0.000000 0.000000 0.000000 0.038081 0.000000 0.002394
# 5 -0.009978 0.003148 0.000028 0.000000 0.030166 0.000000
# 6 0.000000 0.000000 0.000000 0.002394 0.000000 0.026830
#
#
# Mechanical properties :
#
#
# Convention : Reuss Voigt Hill
#
# Bulk Modulus (GPa) = 53.92800 65.23878 59.58339
# Shear Modulus (GPa) = 26.13639 31.90265 29.01952
#
# Velocity S-wave (km/s) = 3.28462 3.62891 3.46105
# Velocity P-wave (km/s) = 6.05357 6.66995 6.36922
#
# Compressibility (1/GPa) = 0.01854324
#
# Stress axis : x y z
#
# Youngs Moduli (GPa) = 41.08948 103.41244 49.29059
#
# Poissons Ratio (x) = 0.73147 0.48307
# Poissons Ratio (y) = 0.29064 0.04939
# Poissons Ratio (z) = 0.40270 0.10362
#
# Static dielectric constant tensor:
#      x y z
#    x 4.547190 0.000000 -0.054240 
#    y 0.000000 4.694510 0.000000 
#    z -0.054240 0.000000 4.327310 
# 
# 
# High freq. dielectric constant tensor:
#      x y z
#    x 1.962820 0.000000 0.001320 
#    y 0.000000 1.972480 0.000000 
#    z 0.001320 0.000000 1.963160 
# 
# From -- ./inp_files/10902.got.cif
#   From: 2010.06.25/outbox.cif.g09.slc.cpg/sg9_6_cif.got.tgz:10902.got - 2010.06.27 21:40:51.
