data_PCOD8055817
_publ_section_title
;
Structure prediction by ZEFSAII (Michael W. Deem and Ramdas Pophale) SiO2 
 PCOD8055817
Probable space group: C C
;
_chemical_formula_sum "Si O2"
_cell_formula_units_Z 28
_cell_length_a 31.837183
_cell_length_b 5.179748
_cell_length_c 8.804694
_cell_angle_alpha 90.000000
_cell_angle_beta 56.454393
_cell_angle_gamma 90.000000
_cell_volume 1210.138599
_symmetry_space_group_name_H-M "C C"
_symmetry_group_IT_number 9
_symmetry_cell_setting 'monoclinic'
loop_
_space_group_symop_operation_xyz
x,y,z
x,-y,1/2+z
1/2+x,1/2+y,z
1/2+x,1/2-y,1/2+z
loop_
_atom_site_type_symbol
_atom_site_label
_atom_site_fract_x
_atom_site_fract_y
_atom_site_fract_z
Si Si1 0.335360 0.310182 0.421640
Si Si2 0.071815 0.712575 0.834368
Si Si3 0.186248 0.212815 0.105833
Si Si4 0.036279 0.191771 0.074543
Si Si5 0.721785 0.807984 0.703996
Si Si6 0.922685 0.810190 0.747130
Si Si7 0.379058 0.000377 0.096596
O O1 0.278445 0.403167 0.551226
O O2 0.378950 0.500416 0.273322
O O3 0.333342 0.091014 0.296391
O O4 0.354356 0.220503 0.546616
O O5 0.129040 0.749872 0.665262
O O6 0.056734 0.438014 0.938948
O O7 0.038761 0.752916 0.748981
O O8 0.066861 0.936747 0.970042
O O9 0.191195 0.437042 0.221683
O O10 0.201315 0.938344 0.150305
O O11 0.219340 0.252958 0.888319
O O12 0.979612 0.096473 0.148343
O O13 0.924630 0.590088 0.614533
O O14 0.903956 0.721374 0.947961
#
# Coordination Sequence:
#
# PCOD8055817 Si02
#       7
#     4   4   4   4   4   4   4
#     4  11  25  42  69 100 143 181 233 284 348 425
#     4  12  26  49  74 107 144 187 243 303 358 427
#     4  12  26  49  74 107 144 187 243 303 358 427
#     4  12  28  45  78 106 145 190 240 291 372 424
#     4  12  28  45  78 106 145 190 240 291 372 424
#     4  11  25  42  69 100 143 181 233 284 348 425
#     4  10  24  42  66  94 146 176 230 278 346 402
#
# _framework density 23.137843
#
# number of rings (size 3 to 8) (size 9 to 14) (size 15 to 20)
#    0.000    0.571    0.000    6.857   16.000    0.000 
#    0.000    0.000    0.000    0.000    0.000    0.000 
#    0.000    0.000    0.000    0.000    0.000    0.000 
#
# Total GULP energy -173489.882837 kJ/mol
# GULP energy per Si atom -12392.134488 kJ/mol
# Density = 2.308518 g / cm^3
# Si number density = 23.137843 Si / 1000 Ang^3
#
#
#
# Elastic Constant Matrix: (Units=GPa)
#
#
# Indices 1 2 3 4 5 6 
#
# 1 68.1642 19.1210 42.8116 0.0000 -22.6647 0.0000
# 2 19.1210 107.2934 17.9349 0.0000 -1.3924 0.0000
# 3 42.8116 17.9349 65.9819 0.0000 19.3784 0.0000
# 4 0.0000 0.0000 0.0000 44.9267 0.0000 4.9291
# 5 -22.6647 -1.3924 19.3784 0.0000 50.9721 0.0000
# 6 0.0000 0.0000 0.0000 4.9291 0.0000 40.9166
#
#
#
# Elastic Compliance Matrix: (Units=1/GPa)
#
#
# Indices 1 2 3 4 5 6 
#
# 1 0.077451 -0.001757 -0.067402 0.000000 0.060015 0.000000
# 2 -0.001757 0.009898 -0.001576 0.000000 0.000088 0.000000
# 3 -0.067402 -0.001576 0.076695 0.000000 -0.059171 0.000000
# 4 0.000000 0.000000 0.000000 0.022557 0.000000 -0.002717
# 5 0.060015 0.000088 -0.059171 0.000000 0.068802 0.000000
# 6 0.000000 0.000000 0.000000 -0.002717 0.000000 0.024767
#
#
# Mechanical properties :
#
#
# Convention : Reuss Voigt Hill
#
# Bulk Modulus (GPa) = 44.29890 44.57496 44.43693
# Shear Modulus (GPa) = 11.65053 38.13455 24.89254
#
# Velocity S-wave (km/s) = 2.24638 4.06414 3.28355
# Velocity P-wave (km/s) = 5.09073 6.42882 5.79850
#
# Compressibility (1/GPa) = 0.02257392
#
# Stress axis : x y z
#
# Youngs Moduli (GPa) = 12.91134 101.03034 13.03868
#
# Poissons Ratio (x) = 0.17753 0.87883
# Poissons Ratio (y) = 0.02269 0.02055
# Poissons Ratio (z) = 0.87025 0.15924
#
# Static dielectric constant tensor:
#      x y z
#    x 4.377040 0.000000 -0.105850 
#    y 0.000000 4.199260 0.000000 
#    z -0.105850 0.000000 4.293060 
# 
# 
# High freq. dielectric constant tensor:
#      x y z
#    x 1.924410 0.000000 0.009310 
#    y 0.000000 1.915960 0.000000 
#    z 0.009310 0.000000 1.932790 
# 
# From -- ./inp_files/4078.got.cif
#   From: 2010.06.25/outbox.cif.g09.slc.cpg/sg9_3_cif.got.tgz:4078.got - 2010.06.27 21:40:51.
