data_PCOD8055280
_publ_section_title
;
Structure prediction by ZEFSAII (Michael W. Deem and Ramdas Pophale) SiO2 
 PCOD8055280
Probable space group: C C
;
_chemical_formula_sum "Si O2"
_cell_formula_units_Z 32
_cell_length_a 20.027300
_cell_length_b 15.185448
_cell_length_c 14.215941
_cell_angle_alpha 90.000000
_cell_angle_beta 20.486725
_cell_angle_gamma 90.000000
_cell_volume 1513.149007
_symmetry_space_group_name_H-M "C C"
_symmetry_group_IT_number 9
_symmetry_cell_setting 'monoclinic'
loop_
_space_group_symop_operation_xyz
x,y,z
x,-y,1/2+z
1/2+x,1/2+y,z
1/2+x,1/2-y,1/2+z
loop_
_atom_site_type_symbol
_atom_site_label
_atom_site_fract_x
_atom_site_fract_y
_atom_site_fract_z
Si Si1 0.273340 0.462656 0.071510
Si Si2 0.954668 0.864212 0.271585
Si Si3 0.683128 0.019203 0.383079
Si Si4 0.498550 0.193642 0.564653
Si Si5 0.442361 0.979090 0.870920
Si Si6 0.096345 0.858696 0.560063
Si Si7 0.586435 0.518638 0.444494
Si Si8 0.556658 0.794168 0.769800
O O1 0.189684 0.451700 0.286690
O O2 0.100369 0.473274 0.227129
O O3 0.407645 0.548748 0.893514
O O4 0.408348 0.379423 0.870317
O O5 0.768416 0.825278 0.468983
O O6 0.039693 0.793724 0.231038
O O7 0.085823 0.892062 0.008745
O O8 0.653747 0.118013 0.382620
O O9 0.499659 0.993984 0.687391
O O10 0.875835 0.008830 0.188608
O O11 0.547984 0.276109 0.561006
O O12 0.518527 0.223445 0.429820
O O13 0.283925 0.163243 0.873934
O O14 0.418948 0.874169 0.919170
O O15 0.238638 0.026747 0.158790
O O16 0.161119 0.940547 0.411637
#
# Coordination Sequence:
#
# PCOD8055280 Si02
#       8
#     4   4   4   4   4   4   4   4
#     4  10  23  44  64  96 138 172 225 280 344 420
#     4  10  22  41  65  95 135 167 223 283 342 397
#     4  12  23  43  70  93 137 179 230 282 338 413
#     4  12  24  40  68 104 133 179 238 289 341 404
#     4  11  23  44  68  98 134 180 230 280 346 411
#     4  11  23  41  65 100 133 172 225 289 345 399
#     4  11  23  43  67  99 134 178 225 280 346 413
#     4  11  21  42  63 101 132 173 230 287 332 407
#
# _framework density 21.147950000000002
#
# number of rings (size 3 to 8) (size 9 to 14) (size 15 to 20)
#    0.000    1.000    7.500    1.500    3.500    0.000 
#    4.500    1.250    0.000    0.000    0.000    0.000 
#    0.000    0.000    0.000    0.000    0.000    0.000 
#
# Total GULP energy -198359.222996 kJ/mol
# GULP energy per Si atom -12397.451437 kJ/mol
# Density = 2.109982 g / cm^3
# Si number density = 21.147950 Si / 1000 Ang^3
#
#
#
# Elastic Constant Matrix: (Units=GPa)
#
#
# Indices 1 2 3 4 5 6 
#
# 1 83.8925 47.0706 45.2510 0.0174 20.7929 -0.0096
# 2 47.0706 93.2138 42.7804 0.0149 2.3100 -0.0096
# 3 45.2510 42.7804 140.0273 0.0087 26.2391 -0.0045
# 4 0.0174 0.0149 0.0087 29.3055 -0.0066 4.7507
# 5 20.7929 2.3100 26.2391 -0.0066 39.6924 0.0066
# 6 -0.0096 -0.0096 -0.0045 4.7507 0.0066 34.8401
#
#
#
# Elastic Compliance Matrix: (Units=1/GPa)
#
#
# Indices 1 2 3 4 5 6 
#
# 1 0.020322 -0.009048 -0.002176 -0.000010 -0.008681 0.000006
# 2 -0.009048 0.016654 -0.003276 -0.000001 0.005937 0.000001
# 3 -0.002176 -0.003276 0.009812 -0.000001 -0.005155 0.000001
# 4 -0.000010 -0.000001 -0.000001 0.034895 0.000013 -0.004758
# 5 -0.008681 0.005937 -0.005155 0.000013 0.032804 -0.000009
# 6 0.000006 0.000001 0.000001 -0.004758 -0.000009 0.029351
#
#
# Mechanical properties :
#
#
# Convention : Reuss Voigt Hill
#
# Bulk Modulus (GPa) = 56.22447 65.25974 60.74211
# Shear Modulus (GPa) = 27.96923 32.90303 30.43613
#
# Velocity S-wave (km/s) = 3.64063 3.94871 3.79779
# Velocity P-wave (km/s) = 6.65705 7.19134 6.92934
#
# Compressibility (1/GPa) = 0.01778585
#
# Stress axis : x y z
#
# Youngs Moduli (GPa) = 49.20728 60.04660 101.91815
#
# Poissons Ratio (x) = 0.54332 0.22181
# Poissons Ratio (y) = 0.44524 0.33392
# Poissons Ratio (z) = 0.10709 0.19673
#
# Static dielectric constant tensor:
#      x y z
#    x 3.837600 0.000010 0.053520 
#    y 0.000010 3.973530 0.000020 
#    z 0.053520 0.000020 4.149410 
# 
# 
# High freq. dielectric constant tensor:
#      x y z
#    x 1.823330 0.000000 -0.000140 
#    y 0.000000 1.811880 0.000000 
#    z -0.000140 0.000000 1.836730 
# 
# From -- ./inp_files/7433.got.cif
#   From: 2010.06.25/outbox.cif.g09.slc.cpg/sg9_4_cif.got.tgz:7433.got - 2010.06.27 21:40:51.
