data_PCOD8055959
_publ_section_title
;
Structure prediction by ZEFSAII (Michael W. Deem and Ramdas Pophale) SiO2 
 PCOD8055959
Probable space group: C C
;
_chemical_formula_sum "Si O2"
_cell_formula_units_Z 32
_cell_length_a 9.507222
_cell_length_b 14.577497
_cell_length_c 24.525582
_cell_angle_alpha 90.000000
_cell_angle_beta 153.456110
_cell_angle_gamma 90.000000
_cell_volume 1518.972704
_symmetry_space_group_name_H-M "C C"
_symmetry_group_IT_number 9
_symmetry_cell_setting 'monoclinic'
loop_
_space_group_symop_operation_xyz
x,y,z
x,-y,1/2+z
1/2+x,1/2+y,z
1/2+x,1/2-y,1/2+z
loop_
_atom_site_type_symbol
_atom_site_label
_atom_site_fract_x
_atom_site_fract_y
_atom_site_fract_z
Si Si1 0.195140 0.063233 0.318610
Si Si2 0.219559 0.223383 0.477502
Si Si3 0.678212 0.165942 0.546784
Si Si4 0.863534 0.607396 0.804957
Si Si5 0.658726 0.086578 0.797221
Si Si6 0.745848 0.084818 0.261179
Si Si7 0.292587 0.170809 0.024429
Si Si8 0.358150 0.729555 0.149324
O O1 0.513656 0.076776 0.463987
O O2 0.923147 0.049309 0.268727
O O3 0.104229 0.146399 0.245462
O O4 0.241155 0.969856 0.302901
O O5 0.535901 0.192454 0.556087
O O6 0.321672 0.239674 0.574571
O O7 0.090400 0.319770 0.411705
O O8 0.960009 0.143245 0.377787
O O9 0.583167 0.242250 0.469131
O O10 0.052095 0.157895 0.676165
O O11 0.061958 0.560941 0.825223
O O12 0.469309 0.179094 0.718500
O O13 0.571176 0.000212 0.729461
O O14 0.036898 0.094308 0.919282
O O15 0.470643 0.148046 0.142495
O O16 0.519436 0.194531 0.052845
#
# Coordination Sequence:
#
# PCOD8055959 Si02
#       8
#     4   4   4   4   4   4   4   4
#     4  10  25  44  65  96 132 170 215 265 328 387
#     4  11  25  43  66  98 129 171 220 263 326 385
#     4  11  22  46  68  88 136 174 208 270 323 378
#     4  12  25  43  68  97 129 174 219 265 323 384
#     4  12  25  43  68  97 129 174 219 265 323 384
#     4  10  25  44  65  96 132 170 215 265 328 387
#     4  11  22  46  68  88 136 174 208 270 323 378
#     4  11  25  43  66  98 129 171 220 263 326 385
#
# _framework density 21.066869000000001
#
# number of rings (size 3 to 8) (size 9 to 14) (size 15 to 20)
#    0.000    1.000    5.000    0.750    7.000    5.000 
#    0.000    0.000    0.000    0.000    0.000    0.000 
#    0.000    0.000    0.000    0.000    0.000    0.000 
#
# Total GULP energy -198338.816331 kJ/mol
# GULP energy per Si atom -12396.176021 kJ/mol
# Density = 2.101892 g / cm^3
# Si number density = 21.066869 Si / 1000 Ang^3
#
#
#
# Elastic Constant Matrix: (Units=GPa)
#
#
# Indices 1 2 3 4 5 6 
#
# 1 100.7912 38.5531 40.9046 -0.0002 -7.2830 -0.0005
# 2 38.5531 98.6590 6.3027 0.0020 -4.4074 -0.0006
# 3 40.9046 6.3027 73.5564 0.0133 2.4167 -0.0024
# 4 -0.0002 0.0020 0.0133 18.2959 -0.0009 -0.9853
# 5 -7.2830 -4.4074 2.4167 -0.0009 31.4047 -0.0015
# 6 -0.0005 -0.0006 -0.0024 -0.9853 -0.0015 38.2488
#
#
#
# Elastic Compliance Matrix: (Units=1/GPa)
#
#
# Indices 1 2 3 4 5 6 
#
# 1 0.015635 -0.005420 -0.008345 0.000007 0.003507 0.000000
# 2 -0.005420 0.012142 0.001964 -0.000003 0.000296 0.000000
# 3 -0.008345 0.001964 0.018168 -0.000014 -0.003058 0.000001
# 4 0.000007 -0.000003 -0.000014 0.054733 0.000004 0.001410
# 5 0.003507 0.000296 -0.003058 0.000004 0.032933 0.000001
# 6 0.000000 0.000000 0.000001 0.001410 0.000001 0.026181
#
#
# Mechanical properties :
#
#
# Convention : Reuss Voigt Hill
#
# Bulk Modulus (GPa) = 44.75899 49.39193 47.07546
# Shear Modulus (GPa) = 26.19980 30.07295 28.13638
#
# Velocity S-wave (km/s) = 3.53037 3.78233 3.65852
# Velocity P-wave (km/s) = 6.15713 6.52464 6.34354
#
# Compressibility (1/GPa) = 0.02234188
#
# Stress axis : x y z
#
# Youngs Moduli (GPa) = 63.95946 82.36140 55.04167
#
# Poissons Ratio (x) = 0.44639 0.45934
# Poissons Ratio (y) = 0.34665 -0.10810
# Poissons Ratio (z) = 0.53377 -0.16175
#
# Static dielectric constant tensor:
#      x y z
#    x 3.734360 0.000000 0.026840 
#    y 0.000000 3.749800 -0.000010 
#    z 0.026840 -0.000010 3.769230 
# 
# 
# High freq. dielectric constant tensor:
#      x y z
#    x 1.825220 0.000000 0.003810 
#    y 0.000000 1.831500 0.000000 
#    z 0.003810 0.000000 1.829070 
# 
# From -- ./inp_files/14592.got.cif
#   From: 2010.06.25/outbox.cif.g09.slc.cpg/sg9_8_cif.got.tgz:14592.got - 2010.06.27 21:40:51.
