data_PCOD8055325
_publ_section_title
;
Structure prediction by ZEFSAII (Michael W. Deem and Ramdas Pophale) SiO2 
 PCOD8055325
Probable space group: C C
;
_chemical_formula_sum "Si O2"
_cell_formula_units_Z 28
_cell_length_a 14.260432
_cell_length_b 8.632191
_cell_length_c 10.584193
_cell_angle_alpha 90.000000
_cell_angle_beta 70.922230
_cell_angle_gamma 90.000000
_cell_volume 1231.340361
_symmetry_space_group_name_H-M "C C"
_symmetry_group_IT_number 9
_symmetry_cell_setting 'monoclinic'
loop_
_space_group_symop_operation_xyz
x,y,z
x,-y,1/2+z
1/2+x,1/2+y,z
1/2+x,1/2-y,1/2+z
loop_
_atom_site_type_symbol
_atom_site_label
_atom_site_fract_x
_atom_site_fract_y
_atom_site_fract_z
Si Si1 0.976280 0.710745 0.621670
Si Si2 0.286842 0.391333 0.633220
Si Si3 0.000068 0.623896 0.127854
Si Si4 0.152000 0.093159 0.017739
Si Si5 0.090053 0.712163 0.331874
Si Si6 0.296929 0.744660 0.636556
Si Si7 0.189269 0.251702 0.446016
O O1 0.866579 0.782692 0.669114
O O2 0.985289 0.549555 0.695073
O O3 0.053265 0.843317 0.635068
O O4 0.012037 0.645455 0.468018
O O5 0.183629 0.397881 0.756350
O O6 0.324882 0.565867 0.604809
O O7 0.272905 0.329996 0.496835
O O8 0.900078 0.668264 0.102797
O O9 0.026847 0.739645 0.232316
O O10 0.091109 0.640361 0.988121
O O11 0.244919 0.185279 0.035593
O O12 0.163788 0.910907 0.025755
O O13 0.138480 0.132553 0.873313
O O14 0.229085 0.773242 0.788606
#
# Coordination Sequence:
#
# PCOD8055325 Si02
#       7
#     4   4   4   4   4   4   4
#     4  10  22  42  65  99 130 174 218 272 329 394
#     4  11  23  44  68  96 137 175 224 273 331 387
#     4  11  23  42  68  97 134 176 225 266 336 393
#     4  10  24  44  66  97 135 167 226 269 338 384
#     4   9  23  43  65  91 137 170 219 276 321 392
#     4  12  26  43  68 102 133 177 224 271 332 399
#     4  11  25  44  70  96 136 175 220 279 329 395
#
# _framework density 22.739447999999999
#
# number of rings (size 3 to 8) (size 9 to 14) (size 15 to 20)
#    0.857    0.571    0.000    5.143    8.000    0.000 
#    2.571    0.000    0.000    0.000    0.000    0.000 
#    0.000    0.000    0.000    0.000    0.000    0.000 
#
# Total GULP energy -173475.468184 kJ/mol
# GULP energy per Si atom -12391.104870 kJ/mol
# Density = 2.268769 g / cm^3
# Si number density = 22.739448 Si / 1000 Ang^3
#
#
#
# Elastic Constant Matrix: (Units=GPa)
#
#
# Indices 1 2 3 4 5 6 
#
# 1 143.4170 35.0796 17.9554 0.0000 8.3061 0.0000
# 2 35.0796 138.7523 4.3608 0.0000 4.5333 0.0000
# 3 17.9554 4.3608 52.2961 0.0000 6.6758 0.0000
# 4 0.0000 0.0000 0.0000 24.0127 0.0000 -0.9427
# 5 8.3061 4.5333 6.6758 0.0000 27.9525 0.0000
# 6 0.0000 0.0000 0.0000 -0.9427 0.0000 39.2187
#
#
#
# Elastic Compliance Matrix: (Units=1/GPa)
#
#
# Indices 1 2 3 4 5 6 
#
# 1 0.007803 -0.001852 -0.002338 0.000000 -0.001460 0.000000
# 2 -0.001852 0.007696 0.000086 0.000000 -0.000718 0.000000
# 3 -0.002338 0.000086 0.020454 0.000000 -0.004204 0.000000
# 4 0.000000 0.000000 0.000000 0.041684 0.000000 0.001002
# 5 -0.001460 -0.000718 -0.004204 0.000000 0.037329 0.000000
# 6 0.000000 0.000000 0.000000 0.001002 0.000000 0.025522
#
#
# Mechanical properties :
#
#
# Convention : Reuss Voigt Hill
#
# Bulk Modulus (GPa) = 36.04285 49.91745 42.98015
# Shear Modulus (GPa) = 31.65658 36.70809 34.18233
#
# Velocity S-wave (km/s) = 3.73519 4.02218 3.88134
# Velocity P-wave (km/s) = 5.87256 6.60077 6.24729
#
# Compressibility (1/GPa) = 0.02774475
#
# Stress axis : x y z
#
# Youngs Moduli (GPa) = 128.15819 129.93797 48.88961
#
# Poissons Ratio (x) = 0.24059 0.11432
# Poissons Ratio (y) = 0.23729 -0.00419
# Poissons Ratio (z) = 0.29967 -0.01113
#
# Static dielectric constant tensor:
#      x y z
#    x 4.115240 0.000000 0.026320 
#    y 0.000000 3.959120 0.000000 
#    z 0.026320 0.000000 3.787830 
# 
# 
# High freq. dielectric constant tensor:
#      x y z
#    x 1.905890 0.000000 0.001410 
#    y 0.000000 1.896570 0.000000 
#    z 0.001410 0.000000 1.873940 
# 
# From -- ./inp_files/17587.got.cif
#   From: 2010.06.25/outbox.cif.g09.slc.cpg/sg9_9_cif.got.tgz:17587.got - 2010.06.27 21:40:51.
