data_PCOD8055490
_publ_section_title
;
Structure prediction by ZEFSAII (Michael W. Deem and Ramdas Pophale) SiO2 
 PCOD8055490
Probable space group: C C
;
_chemical_formula_sum "Si O2"
_cell_formula_units_Z 32
_cell_length_a 15.702061
_cell_length_b 12.128922
_cell_length_c 9.299742
_cell_angle_alpha 90.000000
_cell_angle_beta 53.682404
_cell_angle_gamma 90.000000
_cell_volume 1427.079458
_symmetry_space_group_name_H-M "C C"
_symmetry_group_IT_number 9
_symmetry_cell_setting 'monoclinic'
loop_
_space_group_symop_operation_xyz
x,y,z
x,-y,1/2+z
1/2+x,1/2+y,z
1/2+x,1/2-y,1/2+z
loop_
_atom_site_type_symbol
_atom_site_label
_atom_site_fract_x
_atom_site_fract_y
_atom_site_fract_z
Si Si1 0.659340 0.712889 0.186040
Si Si2 0.852848 0.051234 0.094056
Si Si3 0.667965 0.600159 0.479648
Si Si4 0.827561 0.287112 0.017818
Si Si5 0.634061 0.051237 0.812883
Si Si6 0.989210 0.059789 0.232887
Si Si7 0.997697 0.440221 0.724432
Si Si8 0.818941 0.600165 0.828672
O O1 0.650717 0.673998 0.358035
O O2 0.654978 0.844835 0.187590
O O3 0.562916 0.665102 0.188916
O O4 0.769697 0.673464 0.005842
O O5 0.922614 0.088704 0.158821
O O6 0.743458 0.000005 0.260519
O O7 0.831921 0.155167 0.010620
O O8 0.912462 0.957455 0.944354
O O9 0.717206 0.673461 0.558329
O O10 0.557219 0.551872 0.645930
O O11 0.743455 0.499997 0.358927
O O12 0.923985 0.334908 0.827854
O O13 0.836174 0.325988 0.172584
O O14 0.574407 0.957469 0.782481
O O15 0.564334 0.088708 0.017176
O O16 0.929691 0.551880 0.773442
#
# Coordination Sequence:
#
# PCOD8055490 Si02
#       8
#     4   4   4   4   4   4   4   4
#     4  11  26  43  77 103 140 189 238 300 367 420
#     4  12  29  46  70 105 152 189 237 302 358 430
#     4  10  22  46  72 105 135 182 243 299 348 435
#     4  11  26  43  77 103 140 189 238 300 367 420
#     4  12  29  46  70 105 152 189 237 302 358 430
#     4  11  25  49  71 103 144 187 245 292 361 437
#     4  11  25  49  71 103 144 187 245 292 361 437
#     4  10  22  46  72 105 135 182 243 299 348 435
#
# _framework density 22.42342
#
# number of rings (size 3 to 8) (size 9 to 14) (size 15 to 20)
#    0.000    1.000    2.500    3.000   14.000    0.000 
#    0.000    0.000    0.000    0.000    0.000    0.000 
#    0.000    0.000    0.000    0.000    0.000    0.000 
#
# Total GULP energy -198532.525668 kJ/mol
# GULP energy per Si atom -12408.282854 kJ/mol
# Density = 2.237238 g / cm^3
# Si number density = 22.423420 Si / 1000 Ang^3
#
#
#
# Elastic Constant Matrix: (Units=GPa)
#
#
# Indices 1 2 3 4 5 6 
#
# 1 127.9344 33.5503 38.0424 0.0000 -2.8295 0.0000
# 2 33.5503 92.1773 26.7658 0.0000 -7.9146 0.0000
# 3 38.0424 26.7658 118.3236 0.0000 -8.4295 0.0000
# 4 0.0000 0.0000 0.0000 29.4862 0.0000 5.2449
# 5 -2.8295 -7.9146 -8.4295 0.0000 37.2010 0.0000
# 6 0.0000 0.0000 0.0000 5.2449 0.0000 24.9931
#
#
#
# Elastic Compliance Matrix: (Units=1/GPa)
#
#
# Indices 1 2 3 4 5 6 
#
# 1 0.009225 -0.002701 -0.002384 0.000000 -0.000413 0.000000
# 2 -0.002701 0.012537 -0.001822 0.000000 0.002049 0.000000
# 3 -0.002384 -0.001822 0.009747 0.000000 0.001640 0.000000
# 4 0.000000 0.000000 0.000000 0.035229 0.000000 -0.007393
# 5 -0.000413 0.002049 0.001640 0.000000 0.027657 0.000000
# 6 0.000000 0.000000 0.000000 -0.007393 0.000000 0.041562
#
#
# Mechanical properties :
#
#
# Convention : Reuss Voigt Hill
#
# Bulk Modulus (GPa) = 56.51386 59.46138 57.98762
# Shear Modulus (GPa) = 32.11960 34.34117 33.23038
#
# Velocity S-wave (km/s) = 3.78883 3.91767 3.85379
# Velocity P-wave (km/s) = 6.66319 6.85852 6.76156
#
# Compressibility (1/GPa) = 0.01769478
#
# Stress axis : x y z
#
# Youngs Moduli (GPa) = 108.40560 79.76694 102.59703
#
# Poissons Ratio (x) = 0.21542 0.24463
# Poissons Ratio (y) = 0.29277 0.18689
# Poissons Ratio (z) = 0.25848 0.14530
#
# Static dielectric constant tensor:
#      x y z
#    x 4.123750 0.000000 -0.119710 
#    y 0.000000 3.856190 0.000000 
#    z -0.119710 0.000000 4.021250 
# 
# 
# High freq. dielectric constant tensor:
#      x y z
#    x 1.891810 0.000000 -0.003160 
#    y 0.000000 1.877710 0.000000 
#    z -0.003160 0.000000 1.889100 
# 
# From -- ./inp_files/9230.got.cif
#   From: 2010.06.25/outbox.cif.g09.slc.cpg/sg9_5_cif.got.tgz:9230.got - 2010.06.27 21:40:51.
