data_PCOD8055466
_publ_section_title
;
Structure prediction by ZEFSAII (Michael W. Deem and Ramdas Pophale) SiO2 
 PCOD8055466
Probable space group: C C
;
_chemical_formula_sum "Si O2"
_cell_formula_units_Z 32
_cell_length_a 32.959816
_cell_length_b 4.888825
_cell_length_c 12.744777
_cell_angle_alpha 90.000000
_cell_angle_beta 45.057686
_cell_angle_gamma 90.000000
_cell_volume 1453.594682
_symmetry_space_group_name_H-M "C C"
_symmetry_group_IT_number 9
_symmetry_cell_setting 'monoclinic'
loop_
_space_group_symop_operation_xyz
x,y,z
x,-y,1/2+z
1/2+x,1/2+y,z
1/2+x,1/2-y,1/2+z
loop_
_atom_site_type_symbol
_atom_site_label
_atom_site_fract_x
_atom_site_fract_y
_atom_site_fract_z
Si Si1 0.164420 0.778384 0.808640
Si Si2 0.396245 0.048873 0.887546
Si Si3 0.842394 0.749352 0.664549
Si Si4 0.605684 0.216545 0.328765
Si Si5 0.078827 0.283458 0.643596
Si Si6 0.520092 0.721611 0.163721
Si Si7 0.342120 0.250649 0.307813
Si Si8 0.288268 0.451124 0.084816
O O1 0.132909 0.584786 0.781643
O O2 0.231851 0.730133 0.689727
O O3 0.153370 0.088261 0.794026
O O4 0.138301 0.724556 0.971318
O O5 0.452661 0.230137 0.782636
O O6 0.393623 0.855864 0.788833
O O7 0.342256 0.249994 0.986181
O O8 0.394132 0.861222 0.996390
O O9 0.818775 0.501084 0.779827
O O10 0.865739 0.001084 0.692534
O O11 0.790891 0.855873 0.683529
O O12 0.592256 0.307729 0.236181
O O13 0.546211 0.224558 0.501043
O O14 0.051603 0.584792 0.690717
O O15 0.031141 0.088267 0.678335
O O16 0.290382 0.361221 0.475972
#
# Coordination Sequence:
#
# PCOD8055466 Si02
#       8
#     4   4   4   4   4   4   4   4
#     4  10  24  42  68  96 132 171 219 273 334 394
#     4  11  25  44  68 100 144 178 221 281 341 410
#     4  11  24  43  64  95 141 183 227 268 330 412
#     4  10  22  45  68  96 127 171 225 276 328 391
#     4  10  22  45  68  96 127 171 225 276 328 391
#     4  10  24  42  68  96 132 171 219 273 334 394
#     4  11  24  43  64  95 141 183 227 268 330 412
#     4  11  25  44  68 100 144 178 221 281 341 410
#
# _framework density 22.014388
#
# number of rings (size 3 to 8) (size 9 to 14) (size 15 to 20)
#    0.000    1.500    2.500    0.750    7.000    2.000 
#    4.500    0.000    0.000    0.000    0.000    0.000 
#    0.000    0.000    0.000    0.000    0.000    0.000 
#
# Total GULP energy -198436.829877 kJ/mol
# GULP energy per Si atom -12402.301867 kJ/mol
# Density = 2.196428 g / cm^3
# Si number density = 22.014388 Si / 1000 Ang^3
#
#
#
# Elastic Constant Matrix: (Units=GPa)
#
#
# Indices 1 2 3 4 5 6 
#
# 1 93.9640 28.7794 83.2141 -0.0006 1.8248 -0.0001
# 2 28.7794 106.7371 45.8361 -0.0047 7.7226 -0.0062
# 3 83.2141 45.8361 116.3806 0.0006 -6.8911 0.0005
# 4 -0.0006 -0.0047 0.0006 38.4752 0.0003 -4.0824
# 5 1.8248 7.7226 -6.8911 0.0003 44.3729 0.0003
# 6 -0.0001 -0.0062 0.0005 -4.0824 0.0003 12.4834
#
#
#
# Elastic Compliance Matrix: (Units=1/GPa)
#
#
# Indices 1 2 3 4 5 6 
#
# 1 0.030244 0.001964 -0.022701 0.000001 -0.005111 0.000003
# 2 0.001964 0.011727 -0.006206 0.000002 -0.003085 0.000007
# 3 -0.022701 -0.006206 0.027642 -0.000002 0.006306 -0.000005
# 4 0.000001 0.000002 -0.000002 0.026925 -0.000001 0.008805
# 5 -0.005111 -0.003085 0.006306 -0.000001 0.024263 -0.000003
# 6 0.000003 0.000007 -0.000005 0.008805 -0.000003 0.082986
#
#
# Mechanical properties :
#
#
# Convention : Reuss Voigt Hill
#
# Bulk Modulus (GPa) = 63.58406 70.30454 66.94430
# Shear Modulus (GPa) = 19.01748 29.68309 24.35028
#
# Velocity S-wave (km/s) = 2.94235 3.67597 3.32943
# Velocity P-wave (km/s) = 6.36309 7.07263 6.72722
#
# Compressibility (1/GPa) = 0.01572721
#
# Stress axis : x y z
#
# Youngs Moduli (GPa) = 33.06412 85.27006 36.17730
#
# Poissons Ratio (x) = -0.16744 0.82127
# Poissons Ratio (y) = -0.06493 0.22450
# Poissons Ratio (z) = 0.75059 0.52915
#
# Static dielectric constant tensor:
#      x y z
#    x 3.712530 0.000000 0.342490 
#    y 0.000000 4.291560 0.000000 
#    z 0.342490 0.000000 3.975380 
# 
# 
# High freq. dielectric constant tensor:
#      x y z
#    x 1.844550 0.000000 0.021300 
#    y 0.000000 1.891760 0.000000 
#    z 0.021300 0.000000 1.859180 
# 
# From -- ./inp_files/21349.got.cif
#   From: 2010.06.25/outbox.cif.g09.slc.cpg/sg9_11_cif.got.tgz:21349.got - 2010.06.27 21:40:51.
