data_PCOD8055266
_publ_section_title
;
Structure prediction by ZEFSAII (Michael W. Deem and Ramdas Pophale) SiO2 
 PCOD8055266
Probable space group: C C
;
_chemical_formula_sum "Si O2"
_cell_formula_units_Z 32
_cell_length_a 10.384667
_cell_length_b 11.819989
_cell_length_c 12.379217
_cell_angle_alpha 90.000000
_cell_angle_beta 104.567528
_cell_angle_gamma 90.000000
_cell_volume 1470.658097
_symmetry_space_group_name_H-M "C C"
_symmetry_group_IT_number 9
_symmetry_cell_setting 'monoclinic'
loop_
_space_group_symop_operation_xyz
x,y,z
x,-y,1/2+z
1/2+x,1/2+y,z
1/2+x,1/2-y,1/2+z
loop_
_atom_site_type_symbol
_atom_site_label
_atom_site_fract_x
_atom_site_fract_y
_atom_site_fract_z
Si Si1 0.372510 0.970217 0.104530
Si Si2 0.106358 0.089544 0.043151
Si Si3 0.342878 0.651600 0.634650
Si Si4 0.440781 0.590090 0.204668
Si Si5 0.021786 0.659253 0.244974
Si Si6 0.726561 0.739919 0.626990
Si Si7 0.558607 0.837467 0.992760
Si Si8 0.996889 0.140392 0.454420
O O1 0.305122 0.877460 0.170389
O O2 0.260972 0.063985 0.049175
O O3 0.493289 0.039312 0.181907
O O4 0.428799 0.898072 0.015455
O O5 0.078785 0.096971 0.167077
O O6 0.050423 0.202598 0.977748
O O7 0.018966 0.992327 0.972224
O O8 0.401652 0.540885 0.704628
O O9 0.390763 0.759492 0.715828
O O10 0.184248 0.637561 0.596866
O O11 0.387177 0.674617 0.519746
O O12 0.326670 0.659334 0.115670
O O13 0.451676 0.655566 0.321340
O O14 0.141721 0.726402 0.213767
O O15 0.068897 0.619514 0.372744
O O16 0.629452 0.714805 0.504554
#
# Coordination Sequence:
#
# PCOD8055266 Si02
#       8
#     4   4   4   4   4   4   4   4
#     4  11  24  44  64 102 137 172 228 281 325 411
#     4  10  22  41  63  93 136 169 230 274 318 417
#     4  10  22  41  64  97 135 170 232 280 325 416
#     4  11  20  42  66  93 135 179 220 278 342 397
#     4  11  24  43  68  97 135 180 220 283 344 394
#     4  10  22  42  65  98 138 166 231 276 325 414
#     4  12  23  42  67  98 134 181 220 280 347 395
#     4   9  21  39  67  96 126 185 219 272 348 388
#
# _framework density 21.758967999999999
#
# number of rings (size 3 to 8) (size 9 to 14) (size 15 to 20)
#    0.000    1.500    2.500    3.000    0.000    3.000 
#    6.750    0.000    0.000    0.000    0.000    0.000 
#    0.000    0.000    0.000    0.000    0.000    0.000 
#
# Total GULP energy -198316.494154 kJ/mol
# GULP energy per Si atom -12394.780885 kJ/mol
# Density = 2.170944 g / cm^3
# Si number density = 21.758968 Si / 1000 Ang^3
#
#
#
# Elastic Constant Matrix: (Units=GPa)
#
#
# Indices 1 2 3 4 5 6 
#
# 1 106.3453 35.5342 33.9359 0.0000 -4.1146 0.0000
# 2 35.5342 105.5096 19.8295 0.0000 1.4028 0.0000
# 3 33.9359 19.8295 78.5121 0.0000 -2.0228 0.0000
# 4 0.0000 0.0000 0.0000 23.2923 0.0000 1.1415
# 5 -4.1146 1.4028 -2.0228 0.0000 19.4130 0.0000
# 6 0.0000 0.0000 0.0000 1.1415 0.0000 48.5217
#
#
#
# Elastic Compliance Matrix: (Units=1/GPa)
#
#
# Indices 1 2 3 4 5 6 
#
# 1 0.011945 -0.003249 -0.004283 0.000000 0.002320 0.000000
# 2 -0.003249 0.010853 -0.001378 0.000000 -0.001616 0.000000
# 3 -0.004283 -0.001378 0.014956 0.000000 0.000750 0.000000
# 4 0.000000 0.000000 0.000000 0.042982 0.000000 -0.001011
# 5 0.002320 -0.001616 0.000750 0.000000 0.052199 0.000000
# 6 0.000000 0.000000 0.000000 -0.001011 0.000000 0.020633
#
#
# Mechanical properties :
#
#
# Convention : Reuss Voigt Hill
#
# Bulk Modulus (GPa) = 50.16762 52.10735 51.13748
# Shear Modulus (GPa) = 28.08479 31.64989 29.86734
#
# Velocity S-wave (km/s) = 3.59656 3.81802 3.70894
# Velocity P-wave (km/s) = 6.35241 6.59059 6.47259
#
# Compressibility (1/GPa) = 0.01993318
#
# Stress axis : x y z
#
# Youngs Moduli (GPa) = 83.71397 92.14422 66.86478
#
# Poissons Ratio (x) = 0.29937 0.28638
# Poissons Ratio (y) = 0.27198 0.09216
# Poissons Ratio (z) = 0.35854 0.12700
#
# Static dielectric constant tensor:
#      x y z
#    x 4.024100 0.000000 -0.005440 
#    y 0.000000 4.053770 0.000000 
#    z -0.005440 0.000000 3.555080 
# 
# 
# High freq. dielectric constant tensor:
#      x y z
#    x 1.859300 0.000000 0.002200 
#    y 0.000000 1.867900 0.000000 
#    z 0.002200 0.000000 1.821310 
# 
# From -- ./inp_files/16402.got.cif
#   From: 2010.06.25/outbox.cif.g09.slc.cpg/sg9_9_cif.got.tgz:16402.got - 2010.06.27 21:40:51.
