data_PCOD8055547
_publ_section_title
;
Structure prediction by ZEFSAII (Michael W. Deem and Ramdas Pophale) SiO2 
 PCOD8055547
Probable space group: C C
;
_chemical_formula_sum "Si O2"
_cell_formula_units_Z 24
_cell_length_a 13.805305
_cell_length_b 11.964013
_cell_length_c 10.082253
_cell_angle_alpha 90.000000
_cell_angle_beta 45.926547
_cell_angle_gamma 90.000000
_cell_volume 1196.399471
_symmetry_space_group_name_H-M "C C"
_symmetry_group_IT_number 9
_symmetry_cell_setting 'monoclinic'
loop_
_space_group_symop_operation_xyz
x,y,z
x,-y,1/2+z
1/2+x,1/2+y,z
1/2+x,1/2-y,1/2+z
loop_
_atom_site_type_symbol
_atom_site_label
_atom_site_fract_x
_atom_site_fract_y
_atom_site_fract_z
Si Si1 0.277360 0.710038 0.790090
Si Si2 0.777844 0.544117 0.242554
Si Si3 0.963212 0.973605 0.046801
Si Si4 0.809153 0.020524 0.942812
Si Si5 0.345959 0.126550 0.896939
Si Si6 0.138186 0.688846 0.661134
O O1 0.302649 0.839663 0.797955
O O2 0.409866 0.655773 0.591465
O O3 0.245546 0.639320 0.953928
O O4 0.152944 0.700867 0.805958
O O5 0.620714 0.518399 0.376607
O O6 0.846754 0.448017 0.263741
O O7 0.840148 0.549728 0.035372
O O8 0.918269 0.025098 0.231155
O O9 0.887780 0.043244 0.004048
O O10 0.688610 0.933030 0.068612
O O11 0.482625 0.198894 0.768319
O O12 0.220506 0.211680 0.011699
#
# Coordination Sequence:
#
# PCOD8055547 Si02
#       6
#     4   4   4   4   4   4
#     4   8  21  35  67  86 124 168 203 251 312 384
#     4  11  23  41  64  96 126 167 216 266 311 376
#     4   9  19  36  64  92 122 163 211 254 318 369
#     4   9  19  38  63  91 120 170 208 258 311 386
#     4  11  27  41  69  91 134 166 217 263 315 381
#     4  10  23  41  65  94 128 172 211 254 327 380
#
# _framework density 20.060188
#
# number of rings (size 3 to 8) (size 9 to 14) (size 15 to 20)
#    1.000    1.333    0.000    1.000   18.667    0.000 
#    3.000    0.000    0.000    0.000    0.000    0.000 
#    0.000    0.000    0.000    0.000    0.000    0.000 
#
# Total GULP energy -148718.185888 kJ/mol
# GULP energy per Si atom -12393.182157 kJ/mol
# Density = 2.001453 g / cm^3
# Si number density = 20.060188 Si / 1000 Ang^3
#
#
#
# Elastic Constant Matrix: (Units=GPa)
#
#
# Indices 1 2 3 4 5 6 
#
# 1 87.7794 38.9130 30.9485 0.0000 -11.8619 0.0000
# 2 38.9130 73.9723 8.4375 0.0000 -6.2559 0.0000
# 3 30.9485 8.4375 69.8242 0.0000 -13.5680 0.0000
# 4 0.0000 0.0000 0.0000 33.4544 0.0000 8.8375
# 5 -11.8619 -6.2559 -13.5680 0.0000 31.6365 0.0000
# 6 0.0000 0.0000 0.0000 8.8375 0.0000 28.5058
#
#
#
# Elastic Compliance Matrix: (Units=1/GPa)
#
#
# Indices 1 2 3 4 5 6 
#
# 1 0.017653 -0.008370 -0.006380 0.000000 0.002227 0.000000
# 2 -0.008370 0.017816 0.001780 0.000000 0.001148 0.000000
# 3 -0.006380 0.001780 0.018042 0.000000 0.005697 0.000000
# 4 0.000000 0.000000 0.000000 0.032558 0.000000 -0.010094
# 5 0.002227 0.001148 0.005697 0.000000 0.035115 0.000000
# 6 0.000000 0.000000 0.000000 -0.010094 0.000000 0.038210
#
#
# Mechanical properties :
#
#
# Convention : Reuss Voigt Hill
#
# Bulk Modulus (GPa) = 36.27127 43.13042 39.70084
# Shear Modulus (GPa) = 25.70380 28.93780 27.32080
#
# Velocity S-wave (km/s) = 3.58346 3.80221 3.69445
# Velocity P-wave (km/s) = 5.93650 6.38928 6.16705
#
# Compressibility (1/GPa) = 0.02757003
#
# Stress axis : x y z
#
# Youngs Moduli (GPa) = 56.64661 56.12995 55.42753
#
# Poissons Ratio (x) = 0.46983 0.35364
# Poissons Ratio (y) = 0.47415 -0.09868
# Poissons Ratio (z) = 0.36142 -0.09993
#
# Static dielectric constant tensor:
#      x y z
#    x 3.555130 0.000000 0.084350 
#    y 0.000000 3.546630 0.000000 
#    z 0.084350 0.000000 3.488220 
# 
# 
# High freq. dielectric constant tensor:
#      x y z
#    x 1.780280 0.000000 -0.003790 
#    y 0.000000 1.769070 0.000000 
#    z -0.003790 0.000000 1.770000 
# 
# From -- ./inp_files/18001.got.cif
#   From: 2010.06.25/outbox.cif.g09.slc.cpg/sg9_10_cif.got.tgz:18001.got - 2010.06.27 21:40:51.
