data_PCOD8055403
_publ_section_title
;
Structure prediction by ZEFSAII (Michael W. Deem and Ramdas Pophale) SiO2 
 PCOD8055403
Probable space group: C C
;
_chemical_formula_sum "Si O2"
_cell_formula_units_Z 28
_cell_length_a 20.685494
_cell_length_b 9.853976
_cell_length_c 14.402626
_cell_angle_alpha 90.000000
_cell_angle_beta 21.044305
_cell_angle_gamma 90.000000
_cell_volume 1054.197761
_symmetry_space_group_name_H-M "C C"
_symmetry_group_IT_number 9
_symmetry_cell_setting 'monoclinic'
loop_
_space_group_symop_operation_xyz
x,y,z
x,-y,1/2+z
1/2+x,1/2+y,z
1/2+x,1/2-y,1/2+z
loop_
_atom_site_type_symbol
_atom_site_label
_atom_site_fract_x
_atom_site_fract_y
_atom_site_fract_z
Si Si1 0.344860 0.557822 0.542360
Si Si2 0.640956 0.095061 0.468663
Si Si3 0.080594 0.775196 0.845189
Si Si4 0.517574 0.918633 0.796904
Si Si5 0.344854 0.874142 0.219196
Si Si6 0.710675 0.362031 0.853653
Si Si7 0.855993 0.206559 0.908721
O O1 0.218620 0.649612 0.643936
O O2 0.530140 0.640045 0.319272
O O3 0.385564 0.420428 0.436225
O O4 0.245759 0.524906 0.774009
O O5 0.460530 0.137019 0.656830
O O6 0.767728 0.226829 0.301761
O O7 0.581391 0.050039 0.652650
O O8 0.187383 0.876546 0.772599
O O9 0.892802 0.715342 0.137272
O O10 0.683162 0.809695 0.575154
O O11 0.342478 0.845172 0.986643
O O12 0.469918 0.942594 0.969025
O O13 0.192512 0.991184 0.429715
O O14 0.538007 0.270574 0.107621
#
# Coordination Sequence:
#
# PCOD8055403 Si02
#       7
#     4   4   4   4   4   4   4
#     4  11  22  46  71 111 151 196 266 322 384 480
#     4  12  27  49  79 112 160 205 265 332 394 477
#     4  10  22  43  72  98 148 199 250 322 391 453
#     4  12  26  50  82 109 154 212 259 329 400 475
#     4  12  27  52  73 115 158 202 267 332 398 473
#     4  11  23  44  67 105 145 193 255 320 384 469
#     4  12  25  44  76 112 146 201 270 311 401 473
#
# _framework density 26.560479999999998
#
# number of rings (size 3 to 8) (size 9 to 14) (size 15 to 20)
#    0.000    0.571    4.286    3.429    6.000    1.143 
#    7.714    0.000    0.000    0.000    0.000    0.000 
#    0.000    0.000    0.000    0.000    0.000    0.000 
#
# Total GULP energy -173513.805325 kJ/mol
# GULP energy per Si atom -12393.843237 kJ/mol
# Density = 2.650003 g / cm^3
# Si number density = 26.560480 Si / 1000 Ang^3
#
#
#
# Elastic Constant Matrix: (Units=GPa)
#
#
# Indices 1 2 3 4 5 6 
#
# 1 121.5162 30.0480 25.7531 0.0001 -23.4459 0.0000
# 2 30.0480 102.7235 1.8500 0.0003 -10.8812 0.0000
# 3 25.7531 1.8500 39.7170 0.0003 -13.3670 0.0001
# 4 0.0001 0.0003 0.0003 42.2488 0.0000 -4.7875
# 5 -23.4459 -10.8812 -13.3670 0.0000 44.4493 0.0000
# 6 0.0000 0.0000 0.0001 -4.7875 0.0000 49.9330
#
#
#
# Elastic Compliance Matrix: (Units=1/GPa)
#
#
# Indices 1 2 3 4 5 6 
#
# 1 0.010744 -0.002692 -0.005736 0.000000 0.003283 0.000000
# 2 -0.002692 0.010674 0.001836 0.000000 0.001745 0.000000
# 3 -0.005736 0.001836 0.031092 0.000000 0.006774 0.000000
# 4 0.000000 0.000000 0.000000 0.023929 0.000000 0.002294
# 5 0.003283 0.001745 0.006774 0.000000 0.026694 0.000000
# 6 0.000000 0.000000 0.000000 0.002294 0.000000 0.020247
#
#
# Mechanical properties :
#
#
# Convention : Reuss Voigt Hill
#
# Bulk Modulus (GPa) = 25.42907 42.13989 33.78448
# Shear Modulus (GPa) = 33.40616 41.07994 37.24305
#
# Velocity S-wave (km/s) = 3.55031 3.93702 3.74866
# Velocity P-wave (km/s) = 5.13820 6.04706 5.61106
#
# Compressibility (1/GPa) = 0.03932508
#
# Stress axis : x y z
#
# Youngs Moduli (GPa) = 93.07407 93.68530 32.16278
#
# Poissons Ratio (x) = 0.25217 0.18449
# Poissons Ratio (y) = 0.25053 -0.05904
# Poissons Ratio (z) = 0.53390 -0.17196
#
# Static dielectric constant tensor:
#      x y z
#    x 4.946330 0.000000 -0.264300 
#    y 0.000000 4.603450 0.000000 
#    z -0.264300 0.000000 4.769190 
# 
# 
# High freq. dielectric constant tensor:
#      x y z
#    x 2.075850 0.000000 -0.016090 
#    y 0.000000 2.071330 0.000000 
#    z -0.016090 0.000000 2.054890 
# 
# From -- ./inp_files/11552.got.cif
#   From: 2010.06.25/outbox.cif.g09.slc.cpg/sg9_6_cif.got.tgz:11552.got - 2010.06.27 21:40:51.
