data_PCOD8055392
_publ_section_title
;
Structure prediction by ZEFSAII (Michael W. Deem and Ramdas Pophale) SiO2 
 PCOD8055392
Probable space group: C C
;
_chemical_formula_sum "Si O2"
_cell_formula_units_Z 32
_cell_length_a 15.220340
_cell_length_b 7.655882
_cell_length_c 23.037876
_cell_angle_alpha 90.000000
_cell_angle_beta 146.704192
_cell_angle_gamma 90.000000
_cell_volume 1473.682885
_symmetry_space_group_name_H-M "C C"
_symmetry_group_IT_number 9
_symmetry_cell_setting 'monoclinic'
loop_
_space_group_symop_operation_xyz
x,y,z
x,-y,1/2+z
1/2+x,1/2+y,z
1/2+x,1/2-y,1/2+z
loop_
_atom_site_type_symbol
_atom_site_label
_atom_site_fract_x
_atom_site_fract_y
_atom_site_fract_z
Si Si1 0.235880 0.296206 0.359600
Si Si2 0.631001 0.867585 0.957660
Si Si3 0.995354 0.702235 0.826409
Si Si4 0.644588 0.326288 0.101316
Si Si5 0.010722 0.626841 0.639343
Si Si6 0.507763 0.031574 0.508228
Si Si7 0.923341 0.008854 0.057250
Si Si8 0.174565 0.983597 0.996944
O O1 0.086806 0.251037 0.317967
O O2 0.332075 0.115750 0.398357
O O3 0.348358 0.433848 0.454110
O O4 0.169118 0.395499 0.265916
O O5 0.587697 0.662008 0.927740
O O6 0.513858 0.998201 0.856909
O O7 0.629588 0.906160 0.025652
O O8 0.809934 0.884831 0.032062
O O9 0.073590 0.819739 0.919149
O O10 0.813773 0.755187 0.713879
O O11 0.584855 0.412267 0.128285
O O12 0.514686 0.179159 0.010804
O O13 0.672749 0.467662 0.065889
O O14 0.858372 0.512890 0.575598
O O15 0.064553 0.589948 0.603404
O O16 0.957399 0.827313 0.617019
#
# Coordination Sequence:
#
# PCOD8055392 Si02
#       8
#     4   4   4   4   4   4   4   4
#     4  10  22  43  69  98 139 180 229 282 346 403
#     4  11  24  46  67 100 140 182 227 286 340 405
#     4  11  24  47  70 103 139 184 229 289 343 414
#     4  12  25  43  70 105 139 182 233 284 348 412
#     4  11  21  42  70 102 137 182 226 286 344 408
#     4  11  23  43  68 100 143 180 233 283 347 408
#     4  10  23  43  66  95 143 177 225 290 331 406
#     4  12  22  45  72  99 144 177 226 290 343 412
#
# _framework density 21.714305
#
# number of rings (size 3 to 8) (size 9 to 14) (size 15 to 20)
#    0.000    1.000    6.250    2.250    1.750    2.000 
#    4.500    1.250    0.000    0.000    0.000    0.000 
#    0.000    0.000    0.000    0.000    0.000    0.000 
#
# Total GULP energy -198328.733787 kJ/mol
# GULP energy per Si atom -12395.545862 kJ/mol
# Density = 2.166488 g / cm^3
# Si number density = 21.714305 Si / 1000 Ang^3
#
#
#
# Elastic Constant Matrix: (Units=GPa)
#
#
# Indices 1 2 3 4 5 6 
#
# 1 148.8436 26.7041 29.4088 0.0000 -4.4329 0.0000
# 2 26.7041 112.8009 19.5239 0.0000 6.7274 0.0000
# 3 29.4088 19.5239 78.3630 0.0003 -2.7935 0.0001
# 4 0.0000 0.0000 0.0003 18.7715 0.0001 2.4311
# 5 -4.4329 6.7274 -2.7935 0.0001 32.6743 0.0000
# 6 0.0000 0.0000 0.0001 2.4311 0.0000 35.1595
#
#
#
# Elastic Compliance Matrix: (Units=1/GPa)
#
#
# Indices 1 2 3 4 5 6 
#
# 1 0.007483 -0.001419 -0.002416 0.000000 0.001101 0.000000
# 2 -0.001419 0.009681 -0.001963 0.000000 -0.002354 0.000000
# 3 -0.002416 -0.001963 0.014203 0.000000 0.001291 0.000000
# 4 0.000000 0.000000 0.000000 0.053754 0.000000 -0.003717
# 5 0.001101 -0.002354 0.001291 0.000000 0.031349 0.000000
# 6 0.000000 0.000000 0.000000 -0.003717 0.000000 0.028699
#
#
# Mechanical properties :
#
#
# Convention : Reuss Voigt Hill
#
# Bulk Modulus (GPa) = 50.57854 54.58678 52.58266
# Shear Modulus (GPa) = 30.60807 34.94578 32.77692
#
# Velocity S-wave (km/s) = 3.75851 4.01601 3.88939
# Velocity P-wave (km/s) = 6.49450 6.83357 6.66619
#
# Compressibility (1/GPa) = 0.01977123
#
# Stress axis : x y z
#
# Youngs Moduli (GPa) = 133.63421 103.29157 70.40843
#
# Poissons Ratio (x) = 0.14658 0.17007
# Poissons Ratio (y) = 0.18964 0.13824
# Poissons Ratio (z) = 0.32280 0.20280
#
# Static dielectric constant tensor:
#      x y z
#    x 4.140230 0.000000 -0.021460 
#    y 0.000000 3.880630 0.000000 
#    z -0.021460 0.000000 3.702920 
# 
# 
# High freq. dielectric constant tensor:
#      x y z
#    x 1.874550 0.000000 -0.007110 
#    y 0.000000 1.845520 0.000000 
#    z -0.007110 0.000000 1.827720 
# 
# From -- ./inp_files/25583.got.cif
#   From: 2010.06.25/outbox.cif.g09.slc.cpg/sg9_13_cif.got.tgz:25583.got - 2010.06.27 21:40:51.
