data_PCOD8055056
_publ_section_title
;
Structure prediction by ZEFSAII (Michael W. Deem and Ramdas Pophale) SiO2 
 PCOD8055056
Probable space group: C C
;
_chemical_formula_sum "Si O2"
_cell_formula_units_Z 32
_cell_length_a 25.502163
_cell_length_b 12.947354
_cell_length_c 9.273942
_cell_angle_alpha 90.000000
_cell_angle_beta 149.542304
_cell_angle_gamma 90.000000
_cell_volume 1552.195640
_symmetry_space_group_name_H-M "C C"
_symmetry_group_IT_number 9
_symmetry_cell_setting 'monoclinic'
loop_
_space_group_symop_operation_xyz
x,y,z
x,-y,1/2+z
1/2+x,1/2+y,z
1/2+x,1/2-y,1/2+z
loop_
_atom_site_type_symbol
_atom_site_label
_atom_site_fract_x
_atom_site_fract_y
_atom_site_fract_z
Si Si1 0.129590 0.593364 0.135290
Si Si2 0.660885 0.611888 0.653459
Si Si3 0.124007 0.640557 0.625495
Si Si4 0.965671 0.781399 0.075697
Si Si5 0.742594 0.800788 0.677059
Si Si6 0.247067 0.700772 0.674942
Si Si7 0.651142 0.590002 0.954894
Si Si8 0.969665 0.242938 0.255946
O O1 0.099562 0.478104 0.113406
O O2 0.211543 0.597807 0.197241
O O3 0.178549 0.664860 0.377477
O O4 0.023964 0.650705 0.833114
O O5 0.732090 0.701175 0.754756
O O6 0.691864 0.579900 0.887790
O O7 0.681525 0.514336 0.603313
O O8 0.542406 0.647149 0.386632
O O9 0.221080 0.625011 0.746137
O O10 0.026372 0.695752 0.316282
O O11 0.161497 0.706309 0.852120
O O12 0.030170 0.886928 0.201333
O O13 0.860039 0.812136 0.904033
O O14 0.943450 0.738878 0.862701
O O15 0.210017 0.810082 0.653954
O O16 0.367419 0.713092 0.923418
#
# Coordination Sequence:
#
# PCOD8055056 Si02
#       8
#     4   4   4   4   4   4   4   4
#     4  11  23  43  63  95 132 163 219 267 316 386
#     4  10  23  41  62  91 126 161 210 260 311 381
#     4  11  23  39  68  94 124 174 210 263 326 380
#     4  10  22  42  62  93 128 163 215 262 317 381
#     4  11  23  41  62  96 129 161 215 267 317 383
#     4  11  21  43  66  89 131 171 205 268 325 375
#     4  10  22  42  63  90 125 165 206 260 314 377
#     4  10  21  43  64  90 127 168 210 265 318 375
#
# _framework density 20.615957999999999
#
# number of rings (size 3 to 8) (size 9 to 14) (size 15 to 20)
#    0.000    1.500    6.250    0.750    3.500    5.000 
#    0.000    0.000    0.000    0.000    0.000    0.000 
#    0.000    0.000    0.000    0.000    0.000    0.000 
#
# Total GULP energy -198229.985189 kJ/mol
# GULP energy per Si atom -12389.374074 kJ/mol
# Density = 2.056903 g / cm^3
# Si number density = 20.615958 Si / 1000 Ang^3
#
#
#
# Elastic Constant Matrix: (Units=GPa)
#
#
# Indices 1 2 3 4 5 6 
#
# 1 90.8766 2.4472 1.2759 0.0000 -5.7585 0.0000
# 2 2.4472 76.1438 2.6678 0.0000 -16.6792 0.0000
# 3 1.2759 2.6678 53.3447 0.0000 -2.0944 0.0000
# 4 0.0000 0.0000 0.0000 15.6127 0.0000 -8.8050
# 5 -5.7585 -16.6792 -2.0944 0.0000 29.0597 0.0000
# 6 0.0000 0.0000 0.0000 -8.8050 0.0000 31.2434
#
#
#
# Elastic Compliance Matrix: (Units=1/GPa)
#
#
# Indices 1 2 3 4 5 6 
#
# 1 0.011147 0.000148 -0.000184 0.000000 0.002280 0.000000
# 2 0.000148 0.015033 -0.000417 0.000000 0.008627 0.000000
# 3 -0.000184 -0.000417 0.018814 0.000000 0.001080 0.000000
# 4 0.000000 0.000000 0.000000 0.076154 0.000000 0.021462
# 5 0.002280 0.008627 0.001080 0.000000 0.039893 0.000000
# 6 0.000000 0.000000 0.000000 0.021462 0.000000 0.038055
#
#
# Mechanical properties :
#
#
# Convention : Reuss Voigt Hill
#
# Bulk Modulus (GPa) = 22.68255 25.90522 24.29388
# Shear Modulus (GPa) = 23.28849 29.44812 26.36830
#
# Velocity S-wave (km/s) = 3.36465 3.78354 3.58022
# Velocity P-wave (km/s) = 5.11085 5.62848 5.37590
#
# Compressibility (1/GPa) = 0.04408676
#
# Stress axis : x y z
#
# Youngs Moduli (GPa) = 89.70989 66.52155 53.15282
#
# Poissons Ratio (x) = -0.00983 0.00981
# Poissons Ratio (y) = -0.01325 0.02214
# Poissons Ratio (z) = 0.01655 0.02771
#
# Static dielectric constant tensor:
#      x y z
#    x 3.959980 0.000000 -0.075310 
#    y 0.000000 3.557930 0.000000 
#    z -0.075310 0.000000 3.553320 
# 
# 
# High freq. dielectric constant tensor:
#      x y z
#    x 1.819880 0.000000 -0.007440 
#    y 0.000000 1.796740 0.000000 
#    z -0.007440 0.000000 1.788690 
# 
# From -- ./inp_files/10870.got.cif
#   From: 2010.06.25/outbox.cif.g09.slc.cpg/sg9_6_cif.got.tgz:10870.got - 2010.06.27 21:40:51.
