data_PCOD8055814
_publ_section_title
;
Structure prediction by ZEFSAII (Michael W. Deem and Ramdas Pophale) SiO2 
 PCOD8055814
Probable space group: C C
;
_chemical_formula_sum "Si O2"
_cell_formula_units_Z 32
_cell_length_a 24.653516
_cell_length_b 6.490079
_cell_length_c 13.840801
_cell_angle_alpha 90.000000
_cell_angle_beta 143.333826
_cell_angle_gamma 90.000000
_cell_volume 1322.436241
_symmetry_space_group_name_H-M "C C"
_symmetry_group_IT_number 9
_symmetry_cell_setting 'monoclinic'
loop_
_space_group_symop_operation_xyz
x,y,z
x,-y,1/2+z
1/2+x,1/2+y,z
1/2+x,1/2-y,1/2+z
loop_
_atom_site_type_symbol
_atom_site_label
_atom_site_fract_x
_atom_site_fract_y
_atom_site_fract_z
Si Si1 0.215850 0.053391 0.244310
Si Si2 0.942527 0.518731 0.250302
Si Si3 0.408797 0.773608 0.008475
Si Si4 0.567119 0.119305 0.589177
Si Si5 0.980845 0.084457 0.710669
Si Si6 0.248197 0.031403 0.003831
Si Si7 0.130829 0.785377 0.968346
Si Si8 0.129001 0.613725 0.356776
O O1 0.306434 0.166161 0.332100
O O2 0.129551 0.205795 0.128533
O O3 0.241486 0.948348 0.380035
O O4 0.195337 0.857382 0.147140
O O5 0.949596 0.410299 0.155519
O O6 0.027579 0.474184 0.445029
O O7 0.934563 0.767154 0.223086
O O8 0.850395 0.461338 0.175909
O O9 0.479805 0.791144 0.021714
O O10 0.406812 0.532777 0.038319
O O11 0.629618 0.989853 0.751858
O O12 0.046894 0.223003 0.739185
O O13 0.034848 0.901042 0.842921
O O14 0.220883 0.255338 0.007737
O O15 0.179200 0.854286 0.937812
O O16 0.119022 0.539705 0.934831
#
# Coordination Sequence:
#
# PCOD8055814 Si02
#       8
#     4   4   4   4   4   4   4   4
#     4  11  24  44  75 106 139 198 241 294 375 436
#     4  11  24  42  66 103 139 185 239 289 368 438
#     4  11  25  47  69 102 151 182 240 312 354 441
#     4  12  22  45  71 102 140 189 239 295 367 436
#     4  11  21  42  67  94 139 184 227 296 361 423
#     4  10  24  42  65 101 143 180 238 299 360 433
#     4  11  21  44  70  97 144 181 240 304 354 435
#     4  11  23  42  73  97 137 191 236 301 361 426
#
# _framework density 24.197763999999999
#
# number of rings (size 3 to 8) (size 9 to 14) (size 15 to 20)
#    0.000    1.000    5.000    1.500    1.750    2.000 
#    2.250    2.500    0.000    0.000    0.000    0.000 
#    0.000    0.000    0.000    0.000    0.000    0.000 
#
# Total GULP energy -198290.202139 kJ/mol
# GULP energy per Si atom -12393.137634 kJ/mol
# Density = 2.414269 g / cm^3
# Si number density = 24.197764 Si / 1000 Ang^3
#
#
#
# Elastic Constant Matrix: (Units=GPa)
#
#
# Indices 1 2 3 4 5 6 
#
# 1 92.4350 8.2192 27.0711 0.0000 15.3152 0.0000
# 2 8.2192 85.9968 25.4717 0.0000 3.2052 0.0000
# 3 27.0711 25.4717 106.8167 0.0000 6.8322 0.0000
# 4 0.0000 0.0000 0.0000 44.2532 0.0000 -2.6015
# 5 15.3152 3.2052 6.8322 0.0000 40.0709 0.0000
# 6 0.0000 0.0000 0.0000 -2.6015 0.0000 27.7602
#
#
#
# Elastic Compliance Matrix: (Units=1/GPa)
#
#
# Indices 1 2 3 4 5 6 
#
# 1 0.012361 -0.000189 -0.002817 0.000000 -0.004229 0.000000
# 2 -0.000189 0.012525 -0.002911 0.000000 -0.000433 0.000000
# 3 -0.002817 -0.002911 0.010804 0.000000 -0.000533 0.000000
# 4 0.000000 0.000000 0.000000 0.022722 0.000000 0.002129
# 5 -0.004229 -0.000433 -0.000533 0.000000 0.026697 0.000000
# 6 0.000000 0.000000 0.000000 0.002129 0.000000 0.036222
#
#
# Mechanical properties :
#
#
# Convention : Reuss Voigt Hill
#
# Bulk Modulus (GPa) = 41.92014 45.19695 43.55855
# Shear Modulus (GPa) = 35.43122 37.38262 36.40692
#
# Velocity S-wave (km/s) = 3.83068 3.93476 3.88307
# Velocity P-wave (km/s) = 6.07677 6.27390 6.17612
#
# Compressibility (1/GPa) = 0.02385488
#
# Stress axis : x y z
#
# Youngs Moduli (GPa) = 80.89999 79.84157 92.55835
#
# Poissons Ratio (x) = 0.01512 0.26074
# Poissons Ratio (y) = 0.01532 0.26944
# Poissons Ratio (z) = 0.22790 0.23242
#
# Static dielectric constant tensor:
#      x y z
#    x 4.543520 0.000000 0.112240 
#    y 0.000000 4.475510 0.000000 
#    z 0.112240 0.000000 4.379610 
# 
# 
# High freq. dielectric constant tensor:
#      x y z
#    x 1.970580 0.000000 0.005480 
#    y 0.000000 1.954050 0.000000 
#    z 0.005480 0.000000 1.953740 
# 
# From -- ./inp_files/27893.got.cif
#   From: 2010.06.25/outbox.cif.g09.slc.cpg/sg9_14_cif.got.tgz:27893.got - 2010.06.27 21:40:51.
