data_PCOD8055150
_publ_section_title
;
Structure prediction by ZEFSAII (Michael W. Deem and Ramdas Pophale) SiO2 
 PCOD8055150
Probable space group: C C
;
_chemical_formula_sum "Si O2"
_cell_formula_units_Z 28
_cell_length_a 11.699492
_cell_length_b 18.666670
_cell_length_c 8.747616
_cell_angle_alpha 90.000000
_cell_angle_beta 39.167758
_cell_angle_gamma 90.000000
_cell_volume 1206.593426
_symmetry_space_group_name_H-M "C C"
_symmetry_group_IT_number 9
_symmetry_cell_setting 'monoclinic'
loop_
_space_group_symop_operation_xyz
x,y,z
x,-y,1/2+z
1/2+x,1/2+y,z
1/2+x,1/2-y,1/2+z
loop_
_atom_site_type_symbol
_atom_site_label
_atom_site_fract_x
_atom_site_fract_y
_atom_site_fract_z
Si Si1 0.712890 0.430993 0.776280
Si Si2 0.978310 0.704935 0.659494
Si Si3 0.214493 0.465257 0.991784
Si Si4 0.832209 0.157280 0.174178
Si Si5 0.300368 0.933321 0.352962
Si Si6 0.869269 0.121112 0.802033
Si Si7 0.592384 0.136630 0.852678
O O1 0.680040 0.436404 0.630396
O O2 0.705094 0.514643 0.832397
O O3 0.903073 0.391981 0.617328
O O4 0.558239 0.384883 0.018188
O O5 0.932652 0.787308 0.682822
O O6 0.807977 0.651404 0.800810
O O7 0.124772 0.681843 0.382239
O O8 0.053907 0.693498 0.755604
O O9 0.214538 0.429555 0.160731
O O10 0.004629 0.461348 0.161276
O O11 0.344000 0.421050 0.740666
O O12 0.279792 0.545493 0.936148
O O13 0.909444 0.159495 0.922068
O O14 0.721651 0.166797 0.854593
#
# Coordination Sequence:
#
# PCOD8055150 Si02
#       7
#     4   4   4   4   4   4   4
#     4  10  22  35  62 105 131 174 219 278 332 402
#     4   9  22  46  66  91 136 189 225 274 344 408
#     4   9  20  37  67  94 138 173 216 277 343 395
#     4  10  23  43  67  98 130 186 226 278 335 411
#     4   9  20  39  63  95 137 175 215 277 338 398
#     4  12  22  37  69 103 134 168 232 283 336 390
#     4   9  21  43  62  92 138 179 217 283 336 398
#
# _framework density 23.205826999999999
#
# number of rings (size 3 to 8) (size 9 to 14) (size 15 to 20)
#    0.000    2.857    1.429    0.857   10.000    1.143 
#   10.286    2.857    3.143    0.000    0.000    0.000 
#    0.000    0.000    0.000    0.000    0.000    0.000 
#
# Total GULP energy -173472.233342 kJ/mol
# GULP energy per Si atom -12390.873810 kJ/mol
# Density = 2.315301 g / cm^3
# Si number density = 23.205827 Si / 1000 Ang^3
#
#
#
# Elastic Constant Matrix: (Units=GPa)
#
#
# Indices 1 2 3 4 5 6 
#
# 1 84.0633 46.3108 41.8984 -0.0001 15.0590 0.0001
# 2 46.3108 79.6456 30.9967 0.0000 10.4586 0.0000
# 3 41.8984 30.9967 150.0259 -0.0001 14.6439 0.0001
# 4 -0.0001 0.0000 -0.0001 18.3822 0.0001 1.5836
# 5 15.0590 10.4586 14.6439 0.0001 20.3066 -0.0001
# 6 0.0001 0.0000 0.0001 1.5836 -0.0001 31.5916
#
#
#
# Elastic Compliance Matrix: (Units=1/GPa)
#
#
# Indices 1 2 3 4 5 6 
#
# 1 0.019927 -0.009447 -0.002846 0.000000 -0.007859 0.000000
# 2 -0.009447 0.018700 -0.001042 0.000000 -0.001874 0.000000
# 3 -0.002846 -0.001042 0.007979 0.000000 -0.003106 0.000000
# 4 0.000000 0.000000 0.000000 0.054637 0.000000 -0.002739
# 5 -0.007859 -0.001874 -0.003106 0.000000 0.058279 0.000000
# 6 0.000000 0.000000 0.000000 -0.002739 0.000000 0.031791
#
#
# Mechanical properties :
#
#
# Convention : Reuss Voigt Hill
#
# Bulk Modulus (GPa) = 50.16267 61.34963 55.75615
# Shear Modulus (GPa) = 22.25903 27.02468 24.64185
#
# Velocity S-wave (km/s) = 3.10046 3.41627 3.26219
# Velocity P-wave (km/s) = 5.87200 6.48504 6.18612
#
# Compressibility (1/GPa) = 0.01993514
#
# Stress axis : x y z
#
# Youngs Moduli (GPa) = 50.18442 53.47492 125.32992
#
# Poissons Ratio (x) = 0.50517 0.35669
# Poissons Ratio (y) = 0.47408 0.13066
# Poissons Ratio (z) = 0.14283 0.05575
#
# Static dielectric constant tensor:
#      x y z
#    x 3.994720 0.000000 0.060950 
#    y 0.000000 4.022500 0.000000 
#    z 0.060950 0.000000 4.292320 
# 
# 
# High freq. dielectric constant tensor:
#      x y z
#    x 1.897480 0.000000 -0.003360 
#    y 0.000000 1.892770 0.000000 
#    z -0.003360 0.000000 1.930950 
# 
# From -- ./inp_files/8239.got.cif
#   From: 2010.06.25/outbox.cif.g09.slc.cpg/sg9_5_cif.got.tgz:8239.got - 2010.06.27 21:40:51.
