data_PCOD8055780
_publ_section_title
;
Structure prediction by ZEFSAII (Michael W. Deem and Ramdas Pophale) SiO2 
 PCOD8055780
Probable space group: C C
;
_chemical_formula_sum "Si O2"
_cell_formula_units_Z 28
_cell_length_a 28.190797
_cell_length_b 5.170956
_cell_length_c 9.101309
_cell_angle_alpha 90.000000
_cell_angle_beta 71.308187
_cell_angle_gamma 90.000000
_cell_volume 1256.751632
_symmetry_space_group_name_H-M "C C"
_symmetry_group_IT_number 9
_symmetry_cell_setting 'monoclinic'
loop_
_space_group_symop_operation_xyz
x,y,z
x,-y,1/2+z
1/2+x,1/2+y,z
1/2+x,1/2-y,1/2+z
loop_
_atom_site_type_symbol
_atom_site_label
_atom_site_fract_x
_atom_site_fract_y
_atom_site_fract_z
Si Si1 0.412830 0.369269 0.326930
Si Si2 0.707643 0.251892 0.909023
Si Si3 0.322196 0.824837 0.772815
Si Si4 0.373764 0.869665 0.440665
Si Si5 0.018329 0.240146 0.617119
Si Si6 0.671271 0.241729 0.276688
Si Si7 0.054944 0.258500 0.915136
O O1 0.360337 0.399898 0.288889
O O2 0.415025 0.641432 0.409442
O O3 0.459493 0.327314 0.172494
O O4 0.407503 0.125550 0.443639
O O5 0.680476 0.244312 0.092954
O O6 0.766292 0.281596 0.882554
O O7 0.686779 0.485392 0.831411
O O8 0.701448 0.986252 0.826136
O O9 0.326186 0.837931 0.594295
O O10 0.345806 0.092452 0.812479
O O11 0.026986 0.516255 0.532408
O O12 0.046923 0.017795 0.499843
O O13 0.035949 0.247210 0.767804
O O14 0.613447 0.181714 0.360515
#
# Coordination Sequence:
#
# PCOD8055780 Si02
#       7
#     4   4   4   4   4   4   4
#     4  10  26  40  69  97 142 169 227 268 337 405
#     4  12  27  44  76 102 140 184 232 283 357 414
#     4  10  26  41  70  96 143 167 230 264 343 399
#     4  10  24  39  65  93 141 176 211 275 319 398
#     4  12  27  44  76 102 139 185 233 281 360 406
#     4  12  26  47  71 103 138 182 236 293 347 407
#     4  12  26  47  71 103 139 181 237 294 343 413
#
# _framework density 22.279658000000001
#
# number of rings (size 3 to 8) (size 9 to 14) (size 15 to 20)
#    0.857    0.000    0.000    6.000   10.000    0.000 
#    0.000    0.000    0.000    0.000    0.000    0.000 
#    0.000    0.000    0.000    0.000    0.000    0.000 
#
# Total GULP energy -173492.624611 kJ/mol
# GULP energy per Si atom -12392.330329 kJ/mol
# Density = 2.222895 g / cm^3
# Si number density = 22.279658 Si / 1000 Ang^3
#
#
#
# Elastic Constant Matrix: (Units=GPa)
#
#
# Indices 1 2 3 4 5 6 
#
# 1 78.7150 17.7577 18.4008 0.0000 -11.7420 0.0000
# 2 17.7577 146.6070 38.8231 0.0000 6.8818 0.0000
# 3 18.4008 38.8231 115.3533 0.0000 7.0441 0.0000
# 4 0.0000 0.0000 0.0000 32.8216 0.0000 -0.2639
# 5 -11.7420 6.8818 7.0441 0.0000 49.2827 0.0000
# 6 0.0000 0.0000 0.0000 -0.2639 0.0000 25.1522
#
#
#
# Elastic Compliance Matrix: (Units=1/GPa)
#
#
# Indices 1 2 3 4 5 6 
#
# 1 0.014051 -0.001346 -0.002022 0.000000 0.003825 0.000000
# 2 -0.001346 0.007641 -0.002292 0.000000 -0.001060 0.000000
# 3 -0.002022 -0.002292 0.009859 0.000000 -0.001571 0.000000
# 4 0.000000 0.000000 0.000000 0.030470 0.000000 0.000320
# 5 0.003825 -0.001060 -0.001571 0.000000 0.021575 0.000000
# 6 0.000000 0.000000 0.000000 0.000320 0.000000 0.039761
#
#
# Mechanical properties :
#
#
# Convention : Reuss Voigt Hill
#
# Bulk Modulus (GPa) = 49.43036 54.51538 51.97287
# Shear Modulus (GPa) = 35.35555 39.16422 37.25988
#
# Velocity S-wave (km/s) = 3.98791 4.19722 4.09390
# Velocity P-wave (km/s) = 6.59083 6.92897 6.76201
#
# Compressibility (1/GPa) = 0.02023048
#
# Stress axis : x y z
#
# Youngs Moduli (GPa) = 71.16978 130.87764 101.43127
#
# Poissons Ratio (x) = 0.17616 0.20508
# Poissons Ratio (y) = 0.09580 0.23249
# Poissons Ratio (z) = 0.14390 0.29998
#
# Static dielectric constant tensor:
#      x y z
#    x 3.967470 0.000000 -0.144180 
#    y 0.000000 4.204420 0.000000 
#    z -0.144180 0.000000 4.090620 
# 
# 
# High freq. dielectric constant tensor:
#      x y z
#    x 1.876320 0.000000 -0.008120 
#    y 0.000000 1.891560 0.000000 
#    z -0.008120 0.000000 1.888390 
# 
# From -- ./inp_files/12612.got.cif
#   From: 2010.06.25/outbox.cif.g09.slc.cpg/sg9_7_cif.got.tgz:12612.got - 2010.06.27 21:40:51.
