data_PCOD8055879
_publ_section_title
;
Structure prediction by ZEFSAII (Michael W. Deem and Ramdas Pophale) SiO2 
 PCOD8055879
Probable space group: C C
;
_chemical_formula_sum "Si O2"
_cell_formula_units_Z 32
_cell_length_a 32.778256
_cell_length_b 8.418105
_cell_length_c 8.781388
_cell_angle_alpha 90.000000
_cell_angle_beta 144.680516
_cell_angle_gamma 90.000000
_cell_volume 1400.853454
_symmetry_space_group_name_H-M "C C"
_symmetry_group_IT_number 9
_symmetry_cell_setting 'monoclinic'
loop_
_space_group_symop_operation_xyz
x,y,z
x,-y,1/2+z
1/2+x,1/2+y,z
1/2+x,1/2-y,1/2+z
loop_
_atom_site_type_symbol
_atom_site_label
_atom_site_fract_x
_atom_site_fract_y
_atom_site_fract_z
Si Si1 0.550020 0.728050 0.746220
Si Si2 0.544256 0.564852 0.414988
Si Si3 0.185217 0.413631 0.081802
Si Si4 0.806051 0.339489 0.466856
Si Si5 0.885990 0.862363 0.421651
Si Si6 0.174765 0.271505 0.715823
Si Si7 0.309325 0.331477 0.680827
Si Si8 0.901177 0.349914 0.248930
O O1 0.548930 0.595973 0.609046
O O2 0.555445 0.622638 0.916405
O O3 0.485727 0.854556 0.533017
O O4 0.617684 0.835835 0.951039
O O5 0.601061 0.678385 0.502844
O O6 0.465685 0.599051 0.118053
O O7 0.176198 0.603148 0.079515
O O8 0.251529 0.346312 0.373843
O O9 0.192133 0.370038 0.923912
O O10 0.850374 0.187916 0.655806
O O11 0.736473 0.357352 0.363454
O O12 0.782515 0.295525 0.223922
O O13 0.858581 0.487667 0.636774
O O14 0.883127 0.715676 0.528130
O O15 0.836966 0.004066 0.339822
O O16 0.379501 0.268733 0.815168
#
# Coordination Sequence:
#
# PCOD8055879 Si02
#       8
#     4   4   4   4   4   4   4   4
#     4  10  24  46  70 100 140 182 232 287 345 415
#     4  10  24  44  70  99 135 185 227 289 342 412
#     4  11  25  45  70 102 140 183 235 283 349 419
#     4  12  26  42  70 105 140 185 231 293 355 411
#     4  11  23  45  70  98 140 182 236 285 348 427
#     4  11  25  46  68 104 140 183 233 287 349 419
#     4  12  24  43  72 101 137 192 228 288 352 416
#     4  11  25  45  68 103 142 180 236 294 348 417
#
# _framework density 22.843216999999999
#
# number of rings (size 3 to 8) (size 9 to 14) (size 15 to 20)
#    0.000    1.000    2.500    3.000    5.250    2.000 
#    2.250    0.000    0.000    0.000    0.000    0.000 
#    0.000    0.000    0.000    0.000    0.000    0.000 
#
# Total GULP energy -198327.672365 kJ/mol
# GULP energy per Si atom -12395.479523 kJ/mol
# Density = 2.279123 g / cm^3
# Si number density = 22.843217 Si / 1000 Ang^3
#
#
#
# Elastic Constant Matrix: (Units=GPa)
#
#
# Indices 1 2 3 4 5 6 
#
# 1 103.3548 37.6065 41.2975 0.0000 23.0896 0.0000
# 2 37.6065 100.7541 34.8917 0.0000 11.6365 0.0000
# 3 41.2975 34.8917 95.5522 0.0000 19.7653 0.0000
# 4 0.0000 0.0000 0.0000 32.4723 0.0000 5.1980
# 5 23.0896 11.6365 19.7653 0.0000 32.6575 0.0000
# 6 0.0000 0.0000 0.0000 5.1980 0.0000 43.5088
#
#
#
# Elastic Compliance Matrix: (Units=1/GPa)
#
#
# Indices 1 2 3 4 5 6 
#
# 1 0.013626 -0.003164 -0.003400 0.000000 -0.006449 0.000000
# 2 -0.003164 0.012185 -0.003026 0.000000 -0.000274 0.000000
# 3 -0.003400 -0.003026 0.014083 0.000000 -0.005041 0.000000
# 4 0.000000 0.000000 0.000000 0.031396 0.000000 -0.003751
# 5 -0.006449 -0.000274 -0.005041 0.000000 0.038329 0.000000
# 6 0.000000 0.000000 0.000000 -0.003751 0.000000 0.023432
#
#
# Mechanical properties :
#
#
# Convention : Reuss Voigt Hill
#
# Bulk Modulus (GPa) = 48.27315 58.58362 53.42839
# Shear Modulus (GPa) = 31.42011 34.11874 32.76943
#
# Velocity S-wave (km/s) = 3.71275 3.86891 3.79164
# Velocity P-wave (km/s) = 6.28949 6.75719 6.52753
#
# Compressibility (1/GPa) = 0.02071545
#
# Stress axis : x y z
#
# Youngs Moduli (GPa) = 73.39109 82.06541 71.00993
#
# Poissons Ratio (x) = 0.25962 0.24142
# Poissons Ratio (y) = 0.23218 0.21485
# Poissons Ratio (z) = 0.24952 0.24830
#
# Static dielectric constant tensor:
#      x y z
#    x 4.292030 0.000000 0.164800 
#    y 0.000000 4.074730 0.000000 
#    z 0.164800 0.000000 4.092580 
# 
# 
# High freq. dielectric constant tensor:
#      x y z
#    x 1.916220 0.000000 0.012030 
#    y 0.000000 1.893250 0.000000 
#    z 0.012030 0.000000 1.907950 
# 
# From -- ./inp_files/12701.got.cif
#   From: 2010.06.25/outbox.cif.g09.slc.cpg/sg9_7_cif.got.tgz:12701.got - 2010.06.27 21:40:51.
