data_PCOD8055556
_publ_section_title
;
Structure prediction by ZEFSAII (Michael W. Deem and Ramdas Pophale) SiO2 
 PCOD8055556
Probable space group: C C
;
_chemical_formula_sum "Si O2"
_cell_formula_units_Z 32
_cell_length_a 15.420338
_cell_length_b 10.476387
_cell_length_c 18.402262
_cell_angle_alpha 90.000000
_cell_angle_beta 28.962644
_cell_angle_gamma 90.000000
_cell_volume 1439.582801
_symmetry_space_group_name_H-M "C C"
_symmetry_group_IT_number 9
_symmetry_cell_setting 'monoclinic'
loop_
_space_group_symop_operation_xyz
x,y,z
x,-y,1/2+z
1/2+x,1/2+y,z
1/2+x,1/2-y,1/2+z
loop_
_atom_site_type_symbol
_atom_site_label
_atom_site_fract_x
_atom_site_fract_y
_atom_site_fract_z
Si Si1 0.760700 0.855631 0.718100
Si Si2 0.347784 0.852908 0.760024
Si Si3 0.468231 0.242400 0.023475
Si Si4 0.911127 0.400751 0.306397
Si Si5 0.016233 0.128248 0.729914
Si Si6 0.884551 0.766465 0.474920
Si Si7 0.025603 0.148529 0.150640
Si Si8 0.131939 0.603246 0.777336
O O1 0.827711 0.846494 0.586316
O O2 0.564746 0.798518 0.869374
O O3 0.888339 0.807695 0.688027
O O4 0.743224 0.005127 0.744654
O O5 0.443520 0.847531 0.611852
O O6 0.414089 0.731047 0.756120
O O7 0.404820 0.989055 0.750542
O O8 0.131546 0.842948 0.914700
O O9 0.279541 0.301068 0.140501
O O10 0.490187 0.162348 0.935294
O O11 0.714461 0.361287 0.473644
O O12 0.017845 0.271438 0.208196
O O13 0.021672 0.461021 0.292362
O O14 0.228785 0.162192 0.571360
O O15 0.928753 0.139879 0.874564
O O16 0.983075 0.984342 0.724380
#
# Coordination Sequence:
#
# PCOD8055556 Si02
#       8
#     4   4   4   4   4   4   4   4
#     4  11  23  42  64  91 127 167 209 258 315 375
#     4  11  22  42  70  97 124 164 217 265 311 375
#     4  10  23  41  67  95 122 164 215 262 311 374
#     4  12  26  43  63  95 133 169 209 261 318 376
#     4  11  22  42  70  97 124 164 217 265 311 375
#     4  10  23  41  67  95 122 164 215 262 311 374
#     4  12  26  43  63  95 133 169 209 261 318 376
#     4  11  23  42  64  91 127 167 209 258 315 375
#
# _framework density 22.228663000000001
#
# number of rings (size 3 to 8) (size 9 to 14) (size 15 to 20)
#    0.000    1.000    0.000    8.250    0.000    6.000 
#    0.000    6.250    0.000    0.000    0.000    0.000 
#    0.000    0.000    0.000    0.000    0.000    0.000 
#
# Total GULP energy -198302.684921 kJ/mol
# GULP energy per Si atom -12393.917808 kJ/mol
# Density = 2.217807 g / cm^3
# Si number density = 22.228663 Si / 1000 Ang^3
#
#
#
# Elastic Constant Matrix: (Units=GPa)
#
#
# Indices 1 2 3 4 5 6 
#
# 1 112.5193 21.5593 38.8889 -0.0020 -3.5748 0.0000
# 2 21.5593 115.1733 32.3012 -0.0054 10.4184 0.0011
# 3 38.8889 32.3012 135.9066 -0.0073 11.7334 0.0020
# 4 -0.0020 -0.0054 -0.0073 -4.0560 -0.0012 3.4980
# 5 -3.5748 10.4184 11.7334 -0.0012 40.5566 0.0007
# 6 0.0000 0.0011 0.0020 3.4980 0.0007 35.0588
#
#
#
# Elastic Compliance Matrix: (Units=1/GPa)
#
#
# Indices 1 2 3 4 5 6 
#
# 1 0.010161 -0.001309 -0.002772 0.000001 0.002034 0.000000
# 2 -0.001309 0.009600 -0.001728 -0.000008 -0.002082 0.000001
# 3 -0.002772 -0.001728 0.008763 -0.000011 -0.002336 0.000001
# 4 0.000001 -0.000008 -0.000011 -0.227014 -0.000002 0.022650
# 5 0.002034 -0.002082 -0.002336 -0.000002 0.026047 0.000000
# 6 0.000000 0.000001 0.000001 0.022650 0.000000 0.026264
#
#
# Mechanical properties :
#
#
# Convention : Reuss Voigt Hill
#
# Bulk Modulus (GPa) = 59.14257 61.01089 60.07673
# Shear Modulus (GPa) = -38.78156 32.36852 -3.20652
#
# Velocity S-wave (km/s) = -4.18145 3.82011 -1.20235
# Velocity P-wave (km/s) = 1.83071 6.85304 5.01576
#
# Compressibility (1/GPa) = 0.01690829
#
# Stress axis : x y z
#
# Youngs Moduli (GPa) = 98.41780 104.16305 114.11025
#
# Poissons Ratio (x) = 0.13630 0.31632
# Poissons Ratio (y) = 0.12878 0.19713
# Poissons Ratio (z) = 0.27282 0.17995
#
# Static dielectric constant tensor:
#      x y z
#    x 4.099800 0.000000 0.021500 
#    y 0.000000 4.153590 0.000000 
#    z 0.021500 0.000000 4.232460 
# 
# 
# High freq. dielectric constant tensor:
#      x y z
#    x 1.890760 0.000000 -0.004140 
#    y 0.000000 1.867920 0.000000 
#    z -0.004140 0.000000 1.896010 
# 
# From -- ./inp_files/9128.got.cif
#   From: 2010.06.25/outbox.cif.g09.slc.cpg/sg9_5_cif.got.tgz:9128.got - 2010.06.27 21:40:51.
