data_PCOD8055359
_publ_section_title
;
Structure prediction by ZEFSAII (Michael W. Deem and Ramdas Pophale) SiO2 
 PCOD8055359
Probable space group: C C
;
_chemical_formula_sum "Si O2"
_cell_formula_units_Z 32
_cell_length_a 11.663626
_cell_length_b 9.442605
_cell_length_c 13.956507
_cell_angle_alpha 90.000000
_cell_angle_beta 65.726661
_cell_angle_gamma 90.000000
_cell_volume 1401.212234
_symmetry_space_group_name_H-M "C C"
_symmetry_group_IT_number 9
_symmetry_cell_setting 'monoclinic'
loop_
_space_group_symop_operation_xyz
x,y,z
x,-y,1/2+z
1/2+x,1/2+y,z
1/2+x,1/2-y,1/2+z
loop_
_atom_site_type_symbol
_atom_site_label
_atom_site_fract_x
_atom_site_fract_y
_atom_site_fract_z
Si Si1 0.367710 0.400985 0.125000
Si Si2 0.748525 0.592360 0.587960
Si Si3 0.275789 0.125521 0.793142
Si Si4 0.950955 0.444733 0.859122
Si Si5 0.581223 0.398508 0.517711
Si Si6 0.152914 0.597122 0.553272
Si Si7 0.230853 0.447481 0.826664
Si Si8 0.039287 0.685894 0.152386
O O1 0.443068 0.534282 0.054638
O O2 0.247454 0.359526 0.104598
O O3 0.324005 0.439879 0.247189
O O4 0.456909 0.263735 0.099892
O O5 0.783685 0.551234 0.685747
O O6 0.871262 0.604897 0.478697
O O7 0.655683 0.473412 0.578690
O O8 0.675986 0.742571 0.614325
O O9 0.277274 0.293351 0.776950
O O10 0.389406 0.077457 0.823766
O O11 0.148018 0.080238 0.892066
O O12 0.089228 0.488117 0.845306
O O13 0.966312 0.313036 0.779608
O O14 0.571375 0.232238 0.547116
O O15 0.240414 0.539876 0.437410
O O16 0.055424 0.477995 0.619000
#
# Coordination Sequence:
#
# PCOD8055359 Si02
#       8
#     4   4   4   4   4   4   4   4
#     4  11  25  45  67 103 138 175 229 281 343 410
#     4  10  22  44  69  99 140 180 227 286 342 403
#     4  10  22  42  70  98 135 183 226 279 341 404
#     4  11  24  41  68 102 134 178 231 277 340 411
#     4   9  24  44  68 100 135 178 230 277 343 406
#     4  11  25  45  68  99 139 177 228 283 333 406
#     4  11  25  43  66 105 135 181 233 276 347 405
#     4  11  25  44  68 102 136 180 230 281 347 407
#
# _framework density 22.837368999999999
#
# number of rings (size 3 to 8) (size 9 to 14) (size 15 to 20)
#    0.000    1.500    2.500    0.000    7.000    7.000 
#    0.000    0.000    0.000    0.000    0.000    0.000 
#    0.000    0.000    0.000    0.000    0.000    0.000 
#
# Total GULP energy -198406.446931 kJ/mol
# GULP energy per Si atom -12400.402933 kJ/mol
# Density = 2.278539 g / cm^3
# Si number density = 22.837369 Si / 1000 Ang^3
#
#
#
# Elastic Constant Matrix: (Units=GPa)
#
#
# Indices 1 2 3 4 5 6 
#
# 1 71.7748 50.0495 28.5489 0.0000 -9.2450 0.0000
# 2 50.0495 77.5322 44.3023 0.0000 -6.4227 0.0000
# 3 28.5489 44.3023 147.8440 0.0000 3.6558 0.0000
# 4 0.0000 0.0000 0.0000 28.3861 0.0000 -6.4081
# 5 -9.2450 -6.4227 3.6558 0.0000 38.3244 0.0000
# 6 0.0000 0.0000 0.0000 -6.4081 0.0000 21.8471
#
#
#
# Elastic Compliance Matrix: (Units=1/GPa)
#
#
# Indices 1 2 3 4 5 6 
#
# 1 0.025792 -0.016244 -0.000200 0.000000 0.003519 0.000000
# 2 -0.016244 0.026160 -0.004725 0.000000 0.000916 0.000000
# 3 -0.000200 -0.004725 0.008259 0.000000 -0.001628 0.000000
# 4 0.000000 0.000000 0.000000 0.037727 0.000000 0.011066
# 5 0.003519 0.000916 -0.001628 0.000000 0.027251 0.000000
# 6 0.000000 0.000000 0.000000 0.011066 0.000000 0.049019
#
#
# Mechanical properties :
#
#
# Convention : Reuss Voigt Hill
#
# Bulk Modulus (GPa) = 55.95037 60.32803 58.13920
# Shear Modulus (GPa) = 22.47173 29.32819 25.89996
#
# Velocity S-wave (km/s) = 3.14026 3.58749 3.37130
# Velocity P-wave (km/s) = 6.14011 6.60559 6.37710
#
# Compressibility (1/GPa) = 0.01787298
#
# Stress axis : x y z
#
# Youngs Moduli (GPa) = 38.77105 38.22686 121.08670
#
# Poissons Ratio (x) = 0.62096 0.02421
# Poissons Ratio (y) = 0.62980 0.57211
# Poissons Ratio (z) = 0.00775 0.18061
#
# Static dielectric constant tensor:
#      x y z
#    x 3.985630 0.000000 -0.032540 
#    y 0.000000 3.931400 0.000000 
#    z -0.032540 0.000000 4.473640 
# 
# 
# High freq. dielectric constant tensor:
#      x y z
#    x 1.900080 0.000000 -0.002760 
#    y 0.000000 1.886850 0.000000 
#    z -0.002760 0.000000 1.918110 
# 
# From -- ./inp_files/24206.got.cif
#   From: 2010.06.25/outbox.cif.g09.slc.cpg/sg9_13_cif.got.tgz:24206.got - 2010.06.27 21:40:51.
