data_PCOD8055450
_publ_section_title
;
Structure prediction by ZEFSAII (Michael W. Deem and Ramdas Pophale) SiO2 
 PCOD8055450
Probable space group: C C
;
_chemical_formula_sum "Si O2"
_cell_formula_units_Z 28
_cell_length_a 5.355827
_cell_length_b 23.643944
_cell_length_c 9.020158
_cell_angle_alpha 90.000000
_cell_angle_beta 71.096517
_cell_angle_gamma 90.000000
_cell_volume 1080.642115
_symmetry_space_group_name_H-M "C C"
_symmetry_group_IT_number 9
_symmetry_cell_setting 'monoclinic'
loop_
_space_group_symop_operation_xyz
x,y,z
x,-y,1/2+z
1/2+x,1/2+y,z
1/2+x,1/2-y,1/2+z
loop_
_atom_site_type_symbol
_atom_site_label
_atom_site_fract_x
_atom_site_fract_y
_atom_site_fract_z
Si Si1 0.838710 0.242869 0.289430
Si Si2 0.536585 0.346264 0.329141
Si Si3 0.816829 0.498184 0.916958
Si Si4 0.480170 0.074457 0.648703
Si Si5 0.299643 0.687450 0.585567
Si Si6 0.152210 0.641080 0.159067
Si Si7 0.115812 0.924683 0.712169
O O1 0.702092 0.299057 0.387589
O O2 0.946502 0.204118 0.405068
O O3 0.075374 0.265334 0.143669
O O4 0.644418 0.204982 0.223609
O O5 0.494418 0.311343 0.185389
O O6 0.272877 0.361634 0.469374
O O7 0.695733 0.402529 0.258265
O O8 0.037195 0.526398 0.763574
O O9 0.595278 0.467509 0.855739
O O10 0.965485 0.451966 0.988242
O O11 0.675112 0.543855 0.046845
O O12 0.696329 0.122969 0.600672
O O13 0.857197 0.617714 0.205016
O O14 0.340402 0.606935 0.237861
#
# Coordination Sequence:
#
# PCOD8055450 Si02
#       7
#     4   4   4   4   4   4   4
#     4  11  26  43  68 103 141 194 231 296 365 433
#     4  11  25  42  68 100 140 189 230 306 347 444
#     4  10  22  47  70  98 140 185 238 300 361 425
#     4  10  22  45  64 101 134 182 241 294 362 421
#     4  11  25  43  69 100 143 183 245 291 362 434
#     4  12  26  47  72 105 147 186 241 296 363 434
#     4  11  26  45  73 105 141 187 240 295 362 429
#
# _framework density 25.910520000000002
#
# number of rings (size 3 to 8) (size 9 to 14) (size 15 to 20)
#    0.000    1.143    2.857    1.714    8.000    1.143 
#   10.286    0.000    0.000    0.000    0.000    0.000 
#    0.000    0.000    0.000    0.000    0.000    0.000 
#
# Total GULP energy -173546.424890 kJ/mol
# GULP energy per Si atom -12396.173206 kJ/mol
# Density = 2.585155 g / cm^3
# Si number density = 25.910520 Si / 1000 Ang^3
#
#
#
# Elastic Constant Matrix: (Units=GPa)
#
#
# Indices 1 2 3 4 5 6 
#
# 1 55.5916 20.3855 3.5080 0.0000 10.6199 0.0000
# 2 20.3855 124.6291 45.8054 0.0000 9.6347 0.0000
# 3 3.5080 45.8054 115.6382 0.0000 32.4790 0.0000
# 4 0.0000 0.0000 0.0000 45.8802 0.0000 9.4561
# 5 10.6199 9.6347 32.4790 0.0000 28.5489 0.0000
# 6 0.0000 0.0000 0.0000 9.4561 0.0000 17.0746
#
#
#
# Elastic Compliance Matrix: (Units=1/GPa)
#
#
# Indices 1 2 3 4 5 6 
#
# 1 0.021412 -0.004163 0.004176 0.000000 -0.011312 0.000000
# 2 -0.004163 0.010248 -0.004992 0.000000 0.003769 0.000000
# 3 0.004176 -0.004992 0.015374 0.000000 -0.017359 0.000000
# 4 0.000000 0.000000 0.000000 0.024604 0.000000 -0.013626
# 5 -0.011312 0.003769 -0.017359 0.000000 0.057712 0.000000
# 6 0.000000 0.000000 0.000000 -0.013626 0.000000 0.066113
#
#
# Mechanical properties :
#
#
# Convention : Reuss Voigt Hill
#
# Bulk Modulus (GPa) = 26.97014 48.36185 37.66599
# Shear Modulus (GPa) = 22.95906 33.37807 28.16856
#
# Velocity S-wave (km/s) = 2.97996 3.59305 3.30077
# Velocity P-wave (km/s) = 4.71929 5.99323 5.39400
#
# Compressibility (1/GPa) = 0.03707804
#
# Stress axis : x y z
#
# Youngs Moduli (GPa) = 46.70225 97.58063 65.04571
#
# Poissons Ratio (x) = 0.40622 -0.27166
# Poissons Ratio (y) = 0.19442 0.32468
# Poissons Ratio (z) = -0.19505 0.48708
#
# Static dielectric constant tensor:
#      x y z
#    x 4.130280 0.000000 0.273120 
#    y 0.000000 4.984900 0.000000 
#    z 0.273120 0.000000 4.785280 
# 
# 
# High freq. dielectric constant tensor:
#      x y z
#    x 1.997610 0.000000 0.013010 
#    y 0.000000 2.063210 0.000000 
#    z 0.013010 0.000000 2.053550 
# 
# From -- ./inp_files/3990.got.cif
#   From: 2010.06.25/outbox.cif.g09.slc.cpg/sg9_2_cif.got.tgz:3990.got - 2010.06.27 21:40:51.
