data_PCOD8055928
_publ_section_title
;
Structure prediction by ZEFSAII (Michael W. Deem and Ramdas Pophale) SiO2 
 PCOD8055928
Probable space group: C C
;
_chemical_formula_sum "Si O2"
_cell_formula_units_Z 32
_cell_length_a 10.516317
_cell_length_b 9.704109
_cell_length_c 13.506831
_cell_angle_alpha 90.000000
_cell_angle_beta 62.152310
_cell_angle_gamma 90.000000
_cell_volume 1218.763991
_symmetry_space_group_name_H-M "C C"
_symmetry_group_IT_number 9
_symmetry_cell_setting 'monoclinic'
loop_
_space_group_symop_operation_xyz
x,y,z
x,-y,1/2+z
1/2+x,1/2+y,z
1/2+x,1/2-y,1/2+z
loop_
_atom_site_type_symbol
_atom_site_label
_atom_site_fract_x
_atom_site_fract_y
_atom_site_fract_z
Si Si1 0.649560 0.838419 0.633960
Si Si2 0.450628 0.080335 0.677827
Si Si3 0.891646 0.587997 0.913393
Si Si4 0.183747 0.365703 0.394108
Si Si5 0.126486 0.935804 0.937429
Si Si6 0.646305 0.549845 0.723752
Si Si7 0.340895 0.459153 0.167787
Si Si8 0.679295 0.730937 0.116901
O O1 0.710961 0.855732 0.501000
O O2 0.592935 0.687432 0.686968
O O3 0.506749 0.929856 0.689921
O O4 0.776140 0.892627 0.660176
O O5 0.411592 0.151581 0.796947
O O6 0.320066 0.056530 0.651197
O O7 0.565528 0.186479 0.587926
O O8 0.770209 0.467161 0.949875
O O9 0.041616 0.543774 0.913496
O O10 0.823586 0.710043 0.002688
O O11 0.148970 0.208950 0.373380
O O12 0.328650 0.437089 0.292505
O O13 0.101769 0.044874 0.856374
O O14 0.996113 0.935991 0.063511
O O15 0.601550 0.410107 0.682370
O O16 0.224210 0.339850 0.184486
#
# Coordination Sequence:
#
# PCOD8055928 Si02
#       8
#     4   4   4   4   4   4   4   4
#     4  11  26  48  76 115 149 212 261 323 394 471
#     4  10  24  47  72 106 154 199 258 317 394 459
#     4  11  22  42  75 108 146 199 254 312 392 462
#     4  12  23  50  80 105 163 212 256 329 397 472
#     4  11  25  46  78 116 151 206 262 326 393 476
#     4  11  24  49  73 111 155 198 260 325 391 465
#     4  11  25  50  73 114 159 202 271 318 403 467
#     4  11  21  44  73 103 147 202 248 316 386 464
#
# _framework density 26.256107
#
# number of rings (size 3 to 8) (size 9 to 14) (size 15 to 20)
#    0.000    1.000    5.000    1.500    1.750    0.000 
#   20.250    0.000    0.000    0.000    0.000    0.000 
#    0.000    0.000    0.000    0.000    0.000    0.000 
#
# Total GULP energy -198266.847542 kJ/mol
# GULP energy per Si atom -12391.677971 kJ/mol
# Density = 2.619635 g / cm^3
# Si number density = 26.256107 Si / 1000 Ang^3
#
#
#
# Elastic Constant Matrix: (Units=GPa)
#
#
# Indices 1 2 3 4 5 6 
#
# 1 85.8276 35.1852 29.5942 0.0000 -0.2718 0.0000
# 2 35.1852 128.9211 38.2964 0.0000 4.1956 0.0000
# 3 29.5942 38.2964 144.3150 0.0000 -10.7130 0.0000
# 4 0.0000 0.0000 0.0000 28.6885 0.0000 -4.3856
# 5 -0.2718 4.1956 -10.7130 0.0000 45.1379 0.0000
# 6 0.0000 0.0000 0.0000 -4.3856 0.0000 29.9052
#
#
#
# Elastic Compliance Matrix: (Units=1/GPa)
#
#
# Indices 1 2 3 4 5 6 
#
# 1 0.013612 -0.003127 -0.001969 0.000000 -0.000095 0.000000
# 2 -0.003127 0.009219 -0.001904 0.000000 -0.001328 0.000000
# 3 -0.001969 -0.001904 0.007991 0.000000 0.002062 0.000000
# 4 0.000000 0.000000 0.000000 0.035657 0.000000 0.005229
# 5 -0.000095 -0.001328 0.002062 0.000000 0.022767 0.000000
# 6 0.000000 0.000000 0.000000 0.005229 0.000000 0.034206
#
#
# Mechanical properties :
#
#
# Convention : Reuss Voigt Hill
#
# Bulk Modulus (GPa) = 59.44172 62.80170 61.12171
# Shear Modulus (GPa) = 34.95117 37.81219 36.38168
#
# Velocity S-wave (km/s) = 3.65247 3.79902 3.72647
# Velocity P-wave (km/s) = 6.36205 6.57375 6.46877
#
# Compressibility (1/GPa) = 0.01682320
#
# Stress axis : x y z
#
# Youngs Moduli (GPa) = 73.46634 108.47387 125.13808
#
# Poissons Ratio (x) = 0.33921 0.24633
# Poissons Ratio (y) = 0.22973 0.23822
# Poissons Ratio (z) = 0.14462 0.20650
#
# Static dielectric constant tensor:
#      x y z
#    x 4.674930 0.000000 -0.020560 
#    y 0.000000 4.739410 0.000000 
#    z -0.020560 0.000000 4.813930 
# 
# 
# High freq. dielectric constant tensor:
#      x y z
#    x 2.050750 0.000000 -0.002920 
#    y 0.000000 2.037900 0.000000 
#    z -0.002920 0.000000 2.062630 
# 
# From -- ./inp_files/24342.got.cif
#   From: 2010.06.25/outbox.cif.g09.slc.cpg/sg9_13_cif.got.tgz:24342.got - 2010.06.27 21:40:51.
