data_PCOD8055852
_publ_section_title
;
Structure prediction by ZEFSAII (Michael W. Deem and Ramdas Pophale) SiO2 
 PCOD8055852
Probable space group: C C
;
_chemical_formula_sum "Si O2"
_cell_formula_units_Z 28
_cell_length_a 8.823464
_cell_length_b 11.029692
_cell_length_c 13.925662
_cell_angle_alpha 90.000000
_cell_angle_beta 106.652160
_cell_angle_gamma 90.000000
_cell_volume 1298.410479
_symmetry_space_group_name_H-M "C C"
_symmetry_group_IT_number 9
_symmetry_cell_setting 'monoclinic'
loop_
_space_group_symop_operation_xyz
x,y,z
x,-y,1/2+z
1/2+x,1/2+y,z
1/2+x,1/2-y,1/2+z
loop_
_atom_site_type_symbol
_atom_site_label
_atom_site_fract_x
_atom_site_fract_y
_atom_site_fract_z
Si Si1 0.627010 0.759100 0.879700
Si Si2 0.216833 0.320400 0.090789
Si Si3 0.547908 0.581632 0.699854
Si Si4 0.737533 0.675049 0.564543
Si Si5 0.459568 0.779791 0.398631
Si Si6 0.449624 0.051378 0.453773
Si Si7 0.528285 0.699629 0.207675
O O1 0.561107 0.650564 0.803771
O O2 0.797639 0.801113 0.866250
O O3 0.494233 0.865389 0.867267
O O4 0.679660 0.722371 0.998562
O O5 0.393089 0.370221 0.117799
O O6 0.183749 0.249993 0.182916
O O7 0.099574 0.437087 0.054103
O O8 0.695203 0.600352 0.653869
O O9 0.537078 0.442631 0.726198
O O10 0.579700 0.743663 0.503947
O O11 0.794759 0.593972 0.484877
O O12 0.873145 0.770994 0.616504
O O13 0.911773 0.419035 0.408168
O O14 0.539177 0.768190 0.310150
#
# Coordination Sequence:
#
# PCOD8055852 Si02
#       7
#     4   4   4   4   4   4   4
#     4  10  24  44  63 101 130 174 225 264 338 386
#     4   9  23  48  62  97 134 174 218 272 330 392
#     4  12  24  43  70  96 139 175 215 286 322 396
#     4  11  24  43  66  99 131 177 223 266 338 392
#     4  12  24  43  69  98 134 174 219 278 328 392
#     4   9  24  45  64  94 134 170 221 274 323 393
#     4  11  27  42  68 105 128 174 231 262 343 399
#
# _framework density 21.564829
#
# number of rings (size 3 to 8) (size 9 to 14) (size 15 to 20)
#    0.857    0.571    2.857    0.857    6.000    1.143 
#    5.143    0.000    0.000    0.000    0.000    0.000 
#    0.000    0.000    0.000    0.000    0.000    0.000 
#
# Total GULP energy -173464.935479 kJ/mol
# GULP energy per Si atom -12390.352534 kJ/mol
# Density = 2.151575 g / cm^3
# Si number density = 21.564829 Si / 1000 Ang^3
#
#
#
# Elastic Constant Matrix: (Units=GPa)
#
#
# Indices 1 2 3 4 5 6 
#
# 1 86.3242 32.7551 -0.8236 0.0000 -24.4318 0.0000
# 2 32.7551 110.0700 28.9819 0.0000 -21.3846 0.0000
# 3 -0.8236 28.9819 55.4833 0.0000 -25.4274 0.0000
# 4 0.0000 0.0000 0.0000 30.6661 0.0000 -4.8460
# 5 -24.4318 -21.3846 -25.4274 0.0000 43.8732 0.0000
# 6 0.0000 0.0000 0.0000 -4.8460 0.0000 20.6630
#
#
#
# Elastic Compliance Matrix: (Units=1/GPa)
#
#
# Indices 1 2 3 4 5 6 
#
# 1 0.016837 -0.004884 0.008180 0.000000 0.011736 0.000000
# 2 -0.004884 0.012182 -0.006755 0.000000 -0.000697 0.000000
# 3 0.008180 -0.006755 0.030300 0.000000 0.018823 0.000000
# 4 0.000000 0.000000 0.000000 0.033864 0.000000 0.007942
# 5 0.011736 -0.000697 0.018823 0.000000 0.039898 0.000000
# 6 0.000000 0.000000 0.000000 0.007942 0.000000 0.050258
#
#
# Mechanical properties :
#
#
# Convention : Reuss Voigt Hill
#
# Bulk Modulus (GPa) = 19.08404 41.52270 30.30337
# Shear Modulus (GPa) = 24.07024 31.77140 27.92082
#
# Velocity S-wave (km/s) = 3.34455 3.84252 3.60215
# Velocity P-wave (km/s) = 4.87684 6.24366 5.60209
#
# Compressibility (1/GPa) = 0.05239981
#
# Stress axis : x y z
#
# Youngs Moduli (GPa) = 59.39245 82.08989 33.00323
#
# Poissons Ratio (x) = 0.40093 -0.26996
# Poissons Ratio (y) = 0.29008 0.22295
# Poissons Ratio (z) = -0.48582 0.55454
#
# Static dielectric constant tensor:
#      x y z
#    x 4.115790 0.000000 -0.091180 
#    y 0.000000 3.497560 0.000000 
#    z -0.091180 0.000000 3.825510 
# 
# 
# High freq. dielectric constant tensor:
#      x y z
#    x 1.865710 0.000000 -0.005000 
#    y 0.000000 1.812860 0.000000 
#    z -0.005000 0.000000 1.852720 
# 
# From -- ./inp_files/22771.got.cif
#   From: 2010.06.25/outbox.cif.g09.slc.cpg/sg9_12_cif.got.tgz:22771.got - 2010.06.27 21:40:51.
