data_PCOD8055521
_publ_section_title
;
Structure prediction by ZEFSAII (Michael W. Deem and Ramdas Pophale) SiO2 
 PCOD8055521
Probable space group: C C
;
_chemical_formula_sum "Si O2"
_cell_formula_units_Z 24
_cell_length_a 8.866278
_cell_length_b 27.700661
_cell_length_c 7.878496
_cell_angle_alpha 90.000000
_cell_angle_beta 34.920567
_cell_angle_gamma 90.000000
_cell_volume 1107.656118
_symmetry_space_group_name_H-M "C C"
_symmetry_group_IT_number 9
_symmetry_cell_setting 'monoclinic'
loop_
_space_group_symop_operation_xyz
x,y,z
x,-y,1/2+z
1/2+x,1/2+y,z
1/2+x,1/2-y,1/2+z
loop_
_atom_site_type_symbol
_atom_site_label
_atom_site_fract_x
_atom_site_fract_y
_atom_site_fract_z
Si Si1 0.666020 0.216694 0.810050
Si Si2 0.844229 0.359021 0.467760
Si Si3 0.504290 0.360920 0.102249
Si Si4 0.212123 0.442547 0.200974
Si Si5 0.259389 0.452167 0.776446
Si Si6 0.732156 0.604601 0.723911
O O1 0.896747 0.255028 0.584498
O O2 0.767202 0.177681 0.858831
O O3 0.589003 0.179499 0.726221
O O4 0.697446 0.361147 0.421854
O O5 0.941317 0.413026 0.426488
O O6 0.656875 0.340977 0.794076
O O7 0.400469 0.414485 0.157271
O O8 0.689707 0.363166 0.095603
O O9 0.344898 0.448117 0.893826
O O10 0.154300 0.494446 0.334243
O O11 0.025745 0.415830 0.944023
O O12 0.515457 0.438172 0.430211
#
# Coordination Sequence:
#
# PCOD8055521 Si02
#       6
#     4   4   4   4   4   4
#     4  11  23  43  71  97 124 164 206 261 329 389
#     4  10  23  44  65  94 129 169 210 265 319 380
#     4  11  23  42  70  91 132 167 212 262 325 372
#     4  10  23  38  62  93 132 175 216 265 311 361
#     4  11  24  40  60  94 134 171 224 259 303 373
#     4  11  26  41  64  97 129 172 216 260 311 373
#
# _framework density 21.667376000000001
#
# number of rings (size 3 to 8) (size 9 to 14) (size 15 to 20)
#    0.000    1.333    3.333    1.000    9.333    1.333 
#    0.000    1.667    0.000    0.000    0.000    0.000 
#    0.000    0.000    0.000    0.000    0.000    0.000 
#
# Total GULP energy -148668.364663 kJ/mol
# GULP energy per Si atom -12389.030389 kJ/mol
# Density = 2.161806 g / cm^3
# Si number density = 21.667376 Si / 1000 Ang^3
#
#
#
# Elastic Constant Matrix: (Units=GPa)
#
#
# Indices 1 2 3 4 5 6 
#
# 1 164.7526 50.6247 27.4861 0.0000 -1.1873 0.0000
# 2 50.6247 99.3707 8.0852 0.0000 -4.3828 0.0000
# 3 27.4861 8.0852 61.9315 0.0000 -7.6053 0.0000
# 4 0.0000 0.0000 0.0000 29.9935 0.0000 -10.5437
# 5 -1.1873 -4.3828 -7.6053 0.0000 28.5177 0.0000
# 6 0.0000 0.0000 0.0000 -10.5437 0.0000 14.6340
#
#
#
# Elastic Compliance Matrix: (Units=1/GPa)
#
#
# Indices 1 2 3 4 5 6 
#
# 1 0.007721 -0.003731 -0.003071 0.000000 -0.001071 0.000000
# 2 -0.003731 0.012017 0.000305 0.000000 0.001773 0.000000
# 3 -0.003071 0.000305 0.018051 0.000000 0.004733 0.000000
# 4 0.000000 0.000000 0.000000 0.044649 0.000000 0.032170
# 5 -0.001071 0.001773 0.004733 0.000000 0.036556 0.000000
# 6 0.000000 0.000000 0.000000 0.032170 0.000000 0.091512
#
#
# Mechanical properties :
#
#
# Convention : Reuss Voigt Hill
#
# Bulk Modulus (GPa) = 40.33061 55.38297 47.85679
# Shear Modulus (GPa) = 21.57345 30.61962 26.09653
#
# Velocity S-wave (km/s) = 3.15884 3.76329 3.47423
# Velocity P-wave (km/s) = 5.65317 6.67077 6.18294
#
# Compressibility (1/GPa) = 0.02479506
#
# Stress axis : x y z
#
# Youngs Moduli (GPa) = 129.52203 83.21295 55.39766
#
# Poissons Ratio (x) = 0.31044 0.17013
# Poissons Ratio (y) = 0.48321 -0.01687
# Poissons Ratio (z) = 0.39777 -0.02534
#
# Static dielectric constant tensor:
#      x y z
#    x 3.988180 0.000000 -0.175510 
#    y 0.000000 4.105540 0.000000 
#    z -0.175510 0.000000 3.813430 
# 
# 
# High freq. dielectric constant tensor:
#      x y z
#    x 1.848260 0.000000 -0.027030 
#    y 0.000000 1.853880 0.000000 
#    z -0.027030 0.000000 1.837010 
# 
# From -- ./inp_files/886.got.cif
#   From: 2010.06.25/outbox.cif.g09.slc.cpg/sg9_1_cif.got.tgz:886.got - 2010.06.27 21:40:51.
