data_PCOD8055115
_publ_section_title
;
Structure prediction by ZEFSAII (Michael W. Deem and Ramdas Pophale) SiO2 
 PCOD8055115
Probable space group: C C
;
_chemical_formula_sum "Si O2"
_cell_formula_units_Z 28
_cell_length_a 11.281327
_cell_length_b 8.636543
_cell_length_c 20.656782
_cell_angle_alpha 90.000000
_cell_angle_beta 34.438567
_cell_angle_gamma 90.000000
_cell_volume 1138.184091
_symmetry_space_group_name_H-M "C C"
_symmetry_group_IT_number 9
_symmetry_cell_setting 'monoclinic'
loop_
_space_group_symop_operation_xyz
x,y,z
x,-y,1/2+z
1/2+x,1/2+y,z
1/2+x,1/2-y,1/2+z
loop_
_atom_site_type_symbol
_atom_site_label
_atom_site_fract_x
_atom_site_fract_y
_atom_site_fract_z
Si Si1 0.379790 0.899067 0.318650
Si Si2 0.469824 0.615813 0.835108
Si Si3 0.317760 0.311274 0.964749
Si Si4 0.610389 0.693588 0.449421
Si Si5 0.318784 0.511508 0.657293
Si Si6 0.911179 0.329749 0.085528
Si Si7 0.641696 0.850957 0.853925
O O1 0.335853 0.839902 0.411383
O O2 0.622872 0.936887 0.202095
O O3 0.326758 0.764220 0.291681
O O4 0.247281 0.051361 0.360982
O O5 0.453937 0.452238 0.876041
O O6 0.259346 0.655054 0.888869
O O7 0.681713 0.598951 0.697655
O O8 0.485711 0.762032 0.875833
O O9 0.416968 0.266490 0.988745
O O10 0.071051 0.363832 0.074052
O O11 0.499835 0.641935 0.567435
O O12 0.397765 0.355914 0.586085
O O13 0.254424 0.488645 0.762097
O O14 0.009641 0.404537 0.975869
#
# Coordination Sequence:
#
# PCOD8055115 Si02
#       7
#     4   4   4   4   4   4   4
#     4  11  23  44  71 103 140 189 240 288 367 422
#     4  11  24  45  70 107 140 187 240 297 364 424
#     4  11  25  44  70 108 142 181 244 294 358 436
#     4  12  24  45  73 105 141 189 243 286 362 436
#     4  11  23  42  74 108 139 194 237 298 361 432
#     4  10  22  44  71  98 146 191 229 306 361 410
#     4  10  21  44  71 103 140 185 239 291 359 426
#
# _framework density 24.600587999999998
#
# number of rings (size 3 to 8) (size 9 to 14) (size 15 to 20)
#    0.000    1.143    7.143    0.000    4.000    3.429 
#   10.286    0.000    0.000    0.000    0.000    0.000 
#    0.000    0.000    0.000    0.000    0.000    0.000 
#
# Total GULP energy -173507.968738 kJ/mol
# GULP energy per Si atom -12393.426338 kJ/mol
# Density = 2.454460 g / cm^3
# Si number density = 24.600588 Si / 1000 Ang^3
#
#
#
# Elastic Constant Matrix: (Units=GPa)
#
#
# Indices 1 2 3 4 5 6 
#
# 1 129.7701 13.7260 56.3212 0.0000 -15.7599 0.0000
# 2 13.7260 31.8568 15.3152 0.0000 -5.4488 0.0000
# 3 56.3212 15.3152 143.4230 0.0001 -16.2029 -0.0001
# 4 0.0000 0.0000 0.0001 18.7835 -0.0001 -3.8844
# 5 -15.7599 -5.4488 -16.2029 -0.0001 32.9764 0.0000
# 6 0.0000 0.0000 -0.0001 -3.8844 0.0000 36.8728
#
#
#
# Elastic Compliance Matrix: (Units=1/GPa)
#
#
# Indices 1 2 3 4 5 6 
#
# 1 0.009675 -0.002141 -0.003270 0.000000 0.002663 0.000000
# 2 -0.002141 0.034056 -0.002409 0.000000 0.003420 0.000000
# 3 -0.003270 -0.002409 0.008780 0.000000 0.002353 0.000000
# 4 0.000000 0.000000 0.000000 0.054424 0.000000 0.005733
# 5 0.002663 0.003420 0.002353 0.000000 0.033319 0.000000
# 6 0.000000 0.000000 0.000000 0.005733 0.000000 0.027724
#
#
# Mechanical properties :
#
#
# Convention : Reuss Voigt Hill
#
# Bulk Modulus (GPa) = 27.12222 52.86384 39.99303
# Shear Modulus (GPa) = 25.52211 32.37237 28.94724
#
# Velocity S-wave (km/s) = 3.22446 3.63149 3.43401
# Velocity P-wave (km/s) = 4.99117 6.25453 5.65822
#
# Compressibility (1/GPa) = 0.03687013
#
# Stress axis : x y z
#
# Youngs Moduli (GPa) = 103.35957 29.36312 113.90152
#
# Poissons Ratio (x) = 0.06287 0.37243
# Poissons Ratio (y) = 0.22130 0.27444
# Poissons Ratio (z) = 0.33796 0.07075
#
# Static dielectric constant tensor:
#      x y z
#    x 4.551830 0.000000 -0.333420 
#    y 0.000000 4.191200 0.000000 
#    z -0.333420 0.000000 4.499560 
# 
# 
# High freq. dielectric constant tensor:
#      x y z
#    x 1.973360 0.000000 -0.021660 
#    y 0.000000 1.963510 0.000000 
#    z -0.021660 0.000000 1.984480 
# 
# From -- ./inp_files/35293.got.cif
#   From: 2010.06.25/outbox.cif.g09.slc.cpg/sg9_18_cif.got.tgz:35293.got - 2010.06.27 21:40:51.
