data_PCOD8055992
_publ_section_title
;
Structure prediction by ZEFSAII (Michael W. Deem and Ramdas Pophale) SiO2 
 PCOD8055992
Probable space group: C C
;
_chemical_formula_sum "Si O2"
_cell_formula_units_Z 28
_cell_length_a 25.092133
_cell_length_b 5.468370
_cell_length_c 9.895817
_cell_angle_alpha 90.000000
_cell_angle_beta 61.479313
_cell_angle_gamma 90.000000
_cell_volume 1193.054982
_symmetry_space_group_name_H-M "C C"
_symmetry_group_IT_number 9
_symmetry_cell_setting 'monoclinic'
loop_
_space_group_symop_operation_xyz
x,y,z
x,-y,1/2+z
1/2+x,1/2+y,z
1/2+x,1/2-y,1/2+z
loop_
_atom_site_type_symbol
_atom_site_label
_atom_site_fract_x
_atom_site_fract_y
_atom_site_fract_z
Si Si1 0.791200 0.249494 0.008870
Si Si2 0.105000 0.013928 0.467371
Si Si3 0.657016 0.717528 0.664314
Si Si4 0.408446 0.546213 0.289037
Si Si5 0.836967 0.570712 0.725596
Si Si6 0.441364 0.227553 0.016062
Si Si7 0.557802 0.973305 0.925426
O O1 0.722671 0.154623 0.066048
O O2 0.795361 0.298074 0.164770
O O3 0.797803 0.482336 0.900992
O O4 0.842044 0.057227 0.906617
O O5 0.157437 0.963365 0.293241
O O6 0.059599 0.773638 0.518154
O O7 0.139095 0.035052 0.566622
O O8 0.071568 0.271378 0.483104
O O9 0.606677 0.931664 0.745381
O O10 0.394014 0.778679 0.214416
O O11 0.450102 0.367659 0.148322
O O12 0.447696 0.602104 0.375569
O O13 0.871585 0.361963 0.597468
O O14 0.490397 0.008284 0.945815
#
# Coordination Sequence:
#
# PCOD8055992 Si02
#       7
#     4   4   4   4   4   4   4
#     4  11  23  43  71 109 143 193 244 309 378 459
#     4  10  25  47  70 111 138 203 249 305 381 435
#     4  10  25  46  75 105 152 197 253 314 376 455
#     4  11  24  42  74 105 148 192 250 308 392 443
#     4  11  23  42  67 108 145 188 243 306 383 446
#     4  11  25  47  69 109 143 197 249 319 369 459
#     4  10  27  45  76 105 149 192 254 305 377 439
#
# _framework density 23.469162000000001
#
# number of rings (size 3 to 8) (size 9 to 14) (size 15 to 20)
#    0.857    0.571    2.857    0.857    4.000    4.571 
#    0.000    0.000    0.000    0.000    0.000    0.000 
#    0.000    0.000    0.000    0.000    0.000    0.000 
#
# Total GULP energy -173445.622305 kJ/mol
# GULP energy per Si atom -12388.973022 kJ/mol
# Density = 2.341575 g / cm^3
# Si number density = 23.469162 Si / 1000 Ang^3
#
#
#
# Elastic Constant Matrix: (Units=GPa)
#
#
# Indices 1 2 3 4 5 6 
#
# 1 124.5399 41.6519 67.5949 0.0000 -1.6237 0.0000
# 2 41.6519 111.0402 37.5468 0.0000 3.7717 0.0000
# 3 67.5949 37.5468 122.9840 0.0000 15.7480 0.0000
# 4 0.0000 0.0000 0.0000 32.0393 0.0000 -0.3083
# 5 -1.6237 3.7717 15.7480 0.0000 31.3109 0.0000
# 6 0.0000 0.0000 0.0000 -0.3083 0.0000 36.0656
#
#
#
# Elastic Compliance Matrix: (Units=1/GPa)
#
#
# Indices 1 2 3 4 5 6 
#
# 1 0.012579 -0.002610 -0.006670 0.000000 0.004322 0.000000
# 2 -0.002610 0.010588 -0.001729 0.000000 -0.000541 0.000000
# 3 -0.006670 -0.001729 0.013192 0.000000 -0.006773 0.000000
# 4 0.000000 0.000000 0.000000 0.031214 0.000000 0.000267
# 5 0.004322 -0.000541 -0.006773 0.000000 0.035633 0.000000
# 6 0.000000 0.000000 0.000000 0.000267 0.000000 0.027729
#
#
# Mechanical properties :
#
#
# Convention : Reuss Voigt Hill
#
# Bulk Modulus (GPa) = 69.72828 72.46126 71.09477
# Shear Modulus (GPa) = 31.69883 34.00120 32.85002
#
# Velocity S-wave (km/s) = 3.67912 3.81039 3.74533
# Velocity P-wave (km/s) = 6.91542 7.09231 7.00442
#
# Compressibility (1/GPa) = 0.01434138
#
# Stress axis : x y z
#
# Youngs Moduli (GPa) = 79.49668 94.44997 75.80148
#
# Poissons Ratio (x) = 0.24650 0.50563
# Poissons Ratio (y) = 0.20747 0.13104
# Poissons Ratio (z) = 0.53027 0.16327
#
# Static dielectric constant tensor:
#      x y z
#    x 3.935810 0.000000 0.031560 
#    y 0.000000 4.066870 0.000000 
#    z 0.031560 0.000000 4.184280 
# 
# 
# High freq. dielectric constant tensor:
#      x y z
#    x 1.917690 0.000000 0.001960 
#    y 0.000000 1.916820 0.000000 
#    z 0.001960 0.000000 1.936050 
# 
# From -- ./inp_files/12614.got.cif
#   From: 2010.06.25/outbox.cif.g09.slc.cpg/sg9_7_cif.got.tgz:12614.got - 2010.06.27 21:40:51.
