data_PCOD8055936
_publ_section_title
;
Structure prediction by ZEFSAII (Michael W. Deem and Ramdas Pophale) SiO2 
 PCOD8055936
Probable space group: C C
;
_chemical_formula_sum "Si O2"
_cell_formula_units_Z 20
_cell_length_a 6.948882
_cell_length_b 13.584831
_cell_length_c 9.794601
_cell_angle_alpha 90.000000
_cell_angle_beta 62.048836
_cell_angle_gamma 90.000000
_cell_volume 816.746860
_symmetry_space_group_name_H-M "C C"
_symmetry_group_IT_number 9
_symmetry_cell_setting 'monoclinic'
loop_
_space_group_symop_operation_xyz
x,y,z
x,-y,1/2+z
1/2+x,1/2+y,z
1/2+x,1/2-y,1/2+z
loop_
_atom_site_type_symbol
_atom_site_label
_atom_site_fract_x
_atom_site_fract_y
_atom_site_fract_z
Si Si1 0.114520 0.127277 0.801770
Si Si2 0.463036 0.627313 0.571002
Si Si3 0.769041 0.414231 0.747389
Si Si4 0.255031 0.577853 0.135715
Si Si5 0.890599 0.208439 0.319983
O O1 0.010534 0.180457 0.701031
O O2 0.330122 0.182776 0.786891
O O3 0.180072 0.019836 0.724860
O O4 0.934075 0.128354 0.979484
O O5 0.696089 0.590905 0.431310
O O6 0.299680 0.536293 0.648693
O O7 0.346847 0.698940 0.497912
O O8 0.642934 0.325769 0.707869
O O9 0.024321 0.407370 0.637661
O O10 0.240048 0.631907 0.286624
#
# Coordination Sequence:
#
# PCOD8055936 Si02
#       5
#     4   4   4   4   4
#     4  11  23  47  79 105 148 199 247 308 372 439
#     4   9  21  46  70 105 146 199 234 304 378 426
#     4   9  23  45  76 100 154 194 239 306 385 427
#     4  11  21  46  75 105 149 197 243 306 375 442
#     4  10  24  48  68 109 151 189 253 298 368 452
#
# _framework density 24.487390999999999
#
# number of rings (size 3 to 8) (size 9 to 14) (size 15 to 20)
#    1.200    0.800    2.000    0.000    0.000    6.400 
#    7.200    0.000    4.400    0.000    0.000    0.000 
#    0.000    0.000    0.000    0.000    0.000    0.000 
#
# Total GULP energy -123889.197987 kJ/mol
# GULP energy per Si atom -12388.919799 kJ/mol
# Density = 2.443166 g / cm^3
# Si number density = 24.487391 Si / 1000 Ang^3
#
#
#
# Elastic Constant Matrix: (Units=GPa)
#
#
# Indices 1 2 3 4 5 6 
#
# 1 174.1478 54.5239 61.1847 0.0000 0.7985 0.0000
# 2 54.5239 68.4489 37.0152 0.0000 -2.0441 0.0000
# 3 61.1847 37.0152 69.2747 0.0000 12.7099 0.0000
# 4 0.0000 0.0000 0.0000 22.2995 0.0000 1.0556
# 5 0.7985 -2.0441 12.7099 0.0000 62.2169 0.0000
# 6 0.0000 0.0000 0.0000 1.0556 0.0000 50.8088
#
#
#
# Elastic Compliance Matrix: (Units=1/GPa)
#
#
# Indices 1 2 3 4 5 6 
#
# 1 0.009124 -0.003909 -0.006156 0.000000 0.001012 0.000000
# 2 -0.003909 0.022786 -0.009215 0.000000 0.002681 0.000000
# 3 -0.006156 -0.009215 0.025804 0.000000 -0.005495 0.000000
# 4 0.000000 0.000000 0.000000 0.044888 0.000000 -0.000933
# 5 0.001012 0.002681 -0.005495 0.000000 0.017270 0.000000
# 6 0.000000 0.000000 0.000000 -0.000933 0.000000 0.019701
#
#
# Mechanical properties :
#
#
# Convention : Reuss Voigt Hill
#
# Bulk Modulus (GPa) = 52.20384 68.59099 60.39742
# Shear Modulus (GPa) = 27.09763 37.67489 32.38626
#
# Velocity S-wave (km/s) = 3.33016 3.92668 3.64066
# Velocity P-wave (km/s) = 6.01262 6.97352 6.51082
#
# Compressibility (1/GPa) = 0.01915568
#
# Stress axis : x y z
#
# Youngs Moduli (GPa) = 109.59890 43.88604 38.75380
#
# Poissons Ratio (x) = 0.17155 0.23856
# Poissons Ratio (y) = 0.42842 0.35711
# Poissons Ratio (z) = 0.67465 0.40440
#
# Static dielectric constant tensor:
#      x y z
#    x 4.355260 0.000000 0.209150 
#    y 0.000000 4.114880 0.000000 
#    z 0.209150 0.000000 4.030640 
# 
# 
# High freq. dielectric constant tensor:
#      x y z
#    x 1.974730 0.000000 0.012480 
#    y 0.000000 1.962160 0.000000 
#    z 0.012480 0.000000 1.954630 
# 
# From -- ./inp_files/12969.got.cif
#   From: 2010.06.25/outbox.cif.g09.slc.cpg/sg9_7_cif.got.tgz:12969.got - 2010.06.27 21:40:51.
