data_PCOD8055942
_publ_section_title
;
Structure prediction by ZEFSAII (Michael W. Deem and Ramdas Pophale) SiO2 
 PCOD8055942
Probable space group: C C
;
_chemical_formula_sum "Si O2"
_cell_formula_units_Z 32
_cell_length_a 20.427755
_cell_length_b 14.877519
_cell_length_c 8.210822
_cell_angle_alpha 90.000000
_cell_angle_beta 148.221152
_cell_angle_gamma 90.000000
_cell_volume 1314.175254
_symmetry_space_group_name_H-M "C C"
_symmetry_group_IT_number 9
_symmetry_cell_setting 'monoclinic'
loop_
_space_group_symop_operation_xyz
x,y,z
x,-y,1/2+z
1/2+x,1/2+y,z
1/2+x,1/2-y,1/2+z
loop_
_atom_site_type_symbol
_atom_site_label
_atom_site_fract_x
_atom_site_fract_y
_atom_site_fract_z
Si Si1 0.963190 0.029180 0.901850
Si Si2 0.916438 0.797357 0.522029
Si Si3 0.076387 0.449941 0.111356
Si Si4 0.676699 0.773864 0.218843
Si Si5 0.690709 0.725774 0.622295
Si Si6 0.603958 0.400946 0.412547
Si Si7 0.827749 0.379564 0.666384
Si Si8 0.223543 0.577148 0.233910
O O1 0.843785 0.017226 0.532159
O O2 0.084458 0.050591 0.046125
O O3 0.929755 0.109102 0.954232
O O4 0.993377 0.935927 0.059445
O O5 0.811383 0.802480 0.437382
O O6 0.889683 0.714485 0.346670
O O7 0.049108 0.779215 0.886616
O O8 0.088394 0.361007 0.025055
O O9 0.101580 0.542874 0.072660
O O10 0.190317 0.438406 0.477117
O O11 0.936166 0.454027 0.881251
O O12 0.694343 0.726847 0.433278
O O13 0.603131 0.706059 0.942271
O O14 0.748133 0.817701 0.819011
O O15 0.760422 0.640219 0.849944
O O16 0.736848 0.421967 0.610698
#
# Coordination Sequence:
#
# PCOD8055942 Si02
#       8
#     4   4   4   4   4   4   4   4
#     4  12  25  47  72 112 149 185 255 312 366 443
#     4  11  23  47  70 104 146 190 249 302 367 447
#     4  11  25  48  69 106 146 188 242 302 372 446
#     4  10  24  48  74 102 145 197 244 302 376 438
#     4  11  23  48  74 106 142 199 249 304 366 452
#     4  11  27  43  73 105 148 193 240 308 372 434
#     4  11  24  48  74 103 151 197 246 301 372 453
#     4  11  25  43  74 104 145 189 239 309 365 431
#
# _framework density 24.349872000000001
#
# number of rings (size 3 to 8) (size 9 to 14) (size 15 to 20)
#    0.000    1.000    5.000    0.750    5.250    3.000 
#    4.500    0.000    0.000    0.000    0.000    0.000 
#    0.000    0.000    0.000    0.000    0.000    0.000 
#
# Total GULP energy -198318.193371 kJ/mol
# GULP energy per Si atom -12394.887086 kJ/mol
# Density = 2.429445 g / cm^3
# Si number density = 24.349872 Si / 1000 Ang^3
#
#
#
# Elastic Constant Matrix: (Units=GPa)
#
#
# Indices 1 2 3 4 5 6 
#
# 1 137.4271 48.2842 36.3111 0.0000 24.6776 0.0000
# 2 48.2842 79.2280 42.0526 0.0000 -4.2275 0.0000
# 3 36.3111 42.0526 116.8752 0.0000 8.9100 0.0000
# 4 0.0000 0.0000 0.0000 34.3868 0.0000 -4.9379
# 5 24.6776 -4.2275 8.9100 0.0000 28.1198 0.0000
# 6 0.0000 0.0000 0.0000 -4.9379 0.0000 38.3832
#
#
#
# Elastic Compliance Matrix: (Units=1/GPa)
#
#
# Indices 1 2 3 4 5 6 
#
# 1 0.012289 -0.008146 0.000029 0.000000 -0.012019 0.000000
# 2 -0.008146 0.021507 -0.006148 0.000000 0.012330 0.000000
# 3 0.000029 -0.006148 0.011100 0.000000 -0.004467 0.000000
# 4 0.000000 0.000000 0.000000 0.029628 0.000000 0.003812
# 5 -0.012019 0.012330 -0.004467 0.000000 0.049379 0.000000
# 6 0.000000 0.000000 0.000000 0.003812 0.000000 0.026543
#
#
# Mechanical properties :
#
#
# Convention : Reuss Voigt Hill
#
# Bulk Modulus (GPa) = 61.09893 65.20291 63.15092
# Shear Modulus (GPa) = 27.11030 33.97011 30.54020
#
# Velocity S-wave (km/s) = 3.34033 3.73913 3.54534
# Velocity P-wave (km/s) = 6.32643 6.74367 6.53838
#
# Compressibility (1/GPa) = 0.01636690
#
# Stress axis : x y z
#
# Youngs Moduli (GPa) = 81.37216 46.49552 90.09390
#
# Poissons Ratio (x) = 0.37877 -0.00264
# Poissons Ratio (y) = 0.66289 0.55387
# Poissons Ratio (z) = -0.00239 0.28584
#
# Static dielectric constant tensor:
#      x y z
#    x 4.554170 0.000000 0.128210 
#    y 0.000000 4.426180 0.000000 
#    z 0.128210 0.000000 4.362730 
# 
# 
# High freq. dielectric constant tensor:
#      x y z
#    x 1.977590 0.000000 0.008530 
#    y 0.000000 1.957340 0.000000 
#    z 0.008530 0.000000 1.959210 
# 
# From -- ./inp_files/11794.got.cif
#   From: 2010.06.25/outbox.cif.g09.slc.cpg/sg9_6_cif.got.tgz:11794.got - 2010.06.27 21:40:51.
