data_PCOD8055623
_publ_section_title
;
Structure prediction by ZEFSAII (Michael W. Deem and Ramdas Pophale) SiO2 
 PCOD8055623
Probable space group: C C
;
_chemical_formula_sum "Si O2"
_cell_formula_units_Z 32
_cell_length_a 11.176327
_cell_length_b 9.329393
_cell_length_c 14.196891
_cell_angle_alpha 90.000000
_cell_angle_beta 70.893678
_cell_angle_gamma 90.000000
_cell_volume 1398.741527
_symmetry_space_group_name_H-M "C C"
_symmetry_group_IT_number 9
_symmetry_cell_setting 'monoclinic'
loop_
_space_group_symop_operation_xyz
x,y,z
x,-y,1/2+z
1/2+x,1/2+y,z
1/2+x,1/2-y,1/2+z
loop_
_atom_site_type_symbol
_atom_site_label
_atom_site_fract_x
_atom_site_fract_y
_atom_site_fract_z
Si Si1 0.769000 0.880471 0.310010
Si Si2 0.381501 0.941204 0.423479
Si Si3 0.693609 0.673690 0.483189
Si Si4 0.773059 0.140117 0.447868
Si Si5 0.507868 0.051904 0.567037
Si Si6 0.415130 0.409186 0.099935
Si Si7 0.812131 0.788496 0.632032
Si Si8 0.583507 0.945529 0.743737
O O1 0.720539 0.740013 0.374683
O O2 0.883853 0.837709 0.210076
O O3 0.653636 0.917741 0.270010
O O4 0.811765 0.009361 0.369215
O O5 0.345471 0.784069 0.392236
O O6 0.450512 0.053543 0.333346
O O7 0.247827 0.014407 0.479219
O O8 0.462450 0.936767 0.499879
O O9 0.546149 0.656685 0.535907
O O10 0.762359 0.779432 0.538303
O O11 0.618926 0.148599 0.490188
O O12 0.812678 0.120944 0.545801
O O13 0.391133 0.146361 0.636892
O O14 0.562797 0.959555 0.637808
O O15 0.410085 0.580491 0.117621
O O16 0.684921 0.812493 0.730733
#
# Coordination Sequence:
#
# PCOD8055623 Si02
#       8
#     4   4   4   4   4   4   4   4
#     4  11  23  44  73 102 137 193 236 285 367 419
#     4  11  27  41  71 101 139 186 232 295 352 416
#     4  11  24  47  65 105 141 180 238 293 349 426
#     4  12  23  45  70 103 143 184 238 295 351 430
#     4  11  23  44  69  98 143 179 236 285 356 411
#     4  11  24  42  73 100 144 185 234 291 354 417
#     4  10  23  43  68  99 135 185 223 297 345 411
#     4  11  23  42  67 100 130 186 229 285 346 424
#
# _framework density 22.877707999999998
#
# number of rings (size 3 to 8) (size 9 to 14) (size 15 to 20)
#    0.000    1.000    5.000    1.500    7.000    0.000 
#    0.000    2.500    0.000    0.000    0.000    0.000 
#    0.000    0.000    0.000    0.000    0.000    0.000 
#
# Total GULP energy -198251.401956 kJ/mol
# GULP energy per Si atom -12390.712622 kJ/mol
# Density = 2.282564 g / cm^3
# Si number density = 22.877708 Si / 1000 Ang^3
#
#
#
# Elastic Constant Matrix: (Units=GPa)
#
#
# Indices 1 2 3 4 5 6 
#
# 1 113.3546 36.1996 42.9220 0.0000 -12.2436 0.0000
# 2 36.1996 71.7928 30.9753 0.0000 -14.2332 0.0000
# 3 42.9220 30.9753 107.3718 0.0000 2.5013 0.0000
# 4 0.0000 0.0000 0.0000 32.4194 0.0000 -5.3579
# 5 -12.2436 -14.2332 2.5013 0.0000 21.9320 0.0000
# 6 0.0000 0.0000 0.0000 -5.3579 0.0000 28.7318
#
#
#
# Elastic Compliance Matrix: (Units=1/GPa)
#
#
# Indices 1 2 3 4 5 6 
#
# 1 0.011899 -0.003338 -0.003909 0.000000 0.004923 0.000000
# 2 -0.003338 0.019936 -0.004687 0.000000 0.011609 0.000000
# 3 -0.003909 -0.004687 0.012383 0.000000 -0.006636 0.000000
# 4 0.000000 0.000000 0.000000 0.031827 0.000000 0.005935
# 5 0.004923 0.011609 -0.006636 0.000000 0.056634 0.000000
# 6 0.000000 0.000000 0.000000 0.005935 0.000000 0.035911
#
#
# Mechanical properties :
#
#
# Convention : Reuss Voigt Hill
#
# Bulk Modulus (GPa) = 49.13847 56.96810 53.05328
# Shear Modulus (GPa) = 25.09517 28.77812 26.93665
#
# Velocity S-wave (km/s) = 3.31558 3.55055 3.43508
# Velocity P-wave (km/s) = 6.01522 6.46249 6.24286
#
# Compressibility (1/GPa) = 0.02035065
#
# Stress axis : x y z
#
# Youngs Moduli (GPa) = 84.03739 50.16087 80.75738
#
# Poissons Ratio (x) = 0.16742 0.31565
# Poissons Ratio (y) = 0.28049 0.37854
# Poissons Ratio (z) = 0.32847 0.23513
#
# Static dielectric constant tensor:
#      x y z
#    x 4.257380 0.000000 -0.062310 
#    y 0.000000 3.864120 0.000000 
#    z -0.062310 0.000000 4.425110 
# 
# 
# High freq. dielectric constant tensor:
#      x y z
#    x 1.910650 0.000000 0.000580 
#    y 0.000000 1.883520 0.000000 
#    z 0.000580 0.000000 1.907500 
# 
# From -- ./inp_files/24364.got.cif
#   From: 2010.06.25/outbox.cif.g09.slc.cpg/sg9_13_cif.got.tgz:24364.got - 2010.06.27 21:40:51.
