data_PCOD8055644
_publ_section_title
;
Structure prediction by ZEFSAII (Michael W. Deem and Ramdas Pophale) SiO2 
 PCOD8055644
Probable space group: C C
;
_chemical_formula_sum "Si O2"
_cell_formula_units_Z 28
_cell_length_a 11.492956
_cell_length_b 23.069297
_cell_length_c 4.991429
_cell_angle_alpha 90.000000
_cell_angle_beta 100.102688
_cell_angle_gamma 90.000000
_cell_volume 1302.880235
_symmetry_space_group_name_H-M "C C"
_symmetry_group_IT_number 9
_symmetry_cell_setting 'monoclinic'
loop_
_space_group_symop_operation_xyz
x,y,z
x,-y,1/2+z
1/2+x,1/2+y,z
1/2+x,1/2-y,1/2+z
loop_
_atom_site_type_symbol
_atom_site_label
_atom_site_fract_x
_atom_site_fract_y
_atom_site_fract_z
Si Si1 0.099420 0.634362 0.398060
Si Si2 0.132842 0.702644 0.903367
Si Si3 0.407471 0.040369 0.282947
Si Si4 0.085237 0.827640 0.121221
Si Si5 0.671234 0.392422 0.650500
Si Si6 0.836520 0.856061 0.243334
Si Si7 0.955952 0.036244 0.027917
O O1 0.062579 0.684484 0.602022
O O2 0.238423 0.619706 0.495464
O O3 0.027723 0.574715 0.393015
O O4 0.077646 0.659253 0.096826
O O5 0.273595 0.692180 0.908782
O O6 0.119198 0.767244 0.000822
O O7 0.304410 0.088241 0.257401
O O8 0.399330 0.987954 0.487961
O O9 0.161673 0.841241 0.421683
O O10 0.946251 0.827790 0.131654
O O11 0.113527 0.875059 0.909663
O O12 0.592673 0.446979 0.523482
O O13 0.875377 0.908150 0.448789
O O14 0.927662 0.983712 0.816433
#
# Coordination Sequence:
#
# PCOD8055644 Si02
#       7
#     4   4   4   4   4   4   4
#     4  10  24  44  64  98 133 171 223 271 318 404
#     4  10  23  44  64  98 134 170 214 276 330 391
#     4  12  25  45  69  95 139 185 219 276 330 394
#     4  11  23  43  72  98 129 178 212 280 345 378
#     4  11  24  42  65 103 132 166 234 268 324 407
#     4   9  25  41  67  97 137 158 230 272 320 408
#     4  11  22  37  63  93 126 170 208 267 329 368
#
# _framework density 21.490845
#
# number of rings (size 3 to 8) (size 9 to 14) (size 15 to 20)
#    0.857    0.571    0.000    5.143    6.000    2.286 
#    2.571    0.000    0.000    0.000    0.000    0.000 
#    0.000    0.000    0.000    0.000    0.000    0.000 
#
# Total GULP energy -173541.822244 kJ/mol
# GULP energy per Si atom -12395.844446 kJ/mol
# Density = 2.144193 g / cm^3
# Si number density = 21.490845 Si / 1000 Ang^3
#
#
#
# Elastic Constant Matrix: (Units=GPa)
#
#
# Indices 1 2 3 4 5 6 
#
# 1 123.8796 66.4284 44.4365 0.0000 2.8248 0.0000
# 2 66.4284 98.8152 22.7922 0.0000 -0.5536 0.0000
# 3 44.4365 22.7922 100.3055 0.0000 -9.7036 0.0000
# 4 0.0000 0.0000 0.0000 41.5728 0.0000 -3.9113
# 5 2.8248 -0.5536 -9.7036 0.0000 36.9114 0.0000
# 6 0.0000 0.0000 0.0000 -3.9113 0.0000 30.9473
#
#
#
# Elastic Compliance Matrix: (Units=1/GPa)
#
#
# Indices 1 2 3 4 5 6 
#
# 1 0.014438 -0.008643 -0.004671 0.000000 -0.002462 0.000000
# 2 -0.008643 0.015862 0.000320 0.000000 0.000983 0.000000
# 3 -0.004671 0.000320 0.012314 0.000000 0.003600 0.000000
# 4 0.000000 0.000000 0.000000 0.024344 0.000000 0.003077
# 5 -0.002462 0.000983 0.003600 0.000000 0.028241 0.000000
# 6 0.000000 0.000000 0.000000 0.003077 0.000000 0.032702
#
#
# Mechanical properties :
#
#
# Convention : Reuss Voigt Hill
#
# Bulk Modulus (GPa) = 60.14311 65.59051 62.86681
# Shear Modulus (GPa) = 31.36150 34.50918 32.93534
#
# Velocity S-wave (km/s) = 3.82422 4.01154 3.91900
# Velocity P-wave (km/s) = 6.89534 7.21409 7.05652
#
# Compressibility (1/GPa) = 0.01662701
#
# Stress axis : x y z
#
# Youngs Moduli (GPa) = 69.25955 63.04490 81.20625
#
# Poissons Ratio (x) = 0.54488 0.37930
# Poissons Ratio (y) = 0.59859 -0.02596
# Poissons Ratio (z) = 0.32350 -0.02016
#
# Static dielectric constant tensor:
#      x y z
#    x 3.772040 0.000000 -0.033170 
#    y 0.000000 3.653550 0.000000 
#    z -0.033170 0.000000 4.043510 
# 
# 
# High freq. dielectric constant tensor:
#      x y z
#    x 1.834630 0.000000 -0.010170 
#    y 0.000000 1.837870 0.000000 
#    z -0.010170 0.000000 1.858960 
# 
# From -- ./inp_files/1802.got.cif
#   From: 2010.06.25/outbox.cif.g09.slc.cpg/sg9_1_cif.got.tgz:1802.got - 2010.06.27 21:40:51.
