data_PCOD8055098
_publ_section_title
;
Structure prediction by ZEFSAII (Michael W. Deem and Ramdas Pophale) SiO2 
 PCOD8055098
Probable space group: C C
;
_chemical_formula_sum "Si O2"
_cell_formula_units_Z 32
_cell_length_a 12.740540
_cell_length_b 6.508446
_cell_length_c 18.032689
_cell_angle_alpha 90.000000
_cell_angle_beta 93.220517
_cell_angle_gamma 90.000000
_cell_volume 1492.929211
_symmetry_space_group_name_H-M "C C"
_symmetry_group_IT_number 9
_symmetry_cell_setting 'monoclinic'
loop_
_space_group_symop_operation_xyz
x,y,z
x,-y,1/2+z
1/2+x,1/2+y,z
1/2+x,1/2-y,1/2+z
loop_
_atom_site_type_symbol
_atom_site_label
_atom_site_fract_x
_atom_site_fract_y
_atom_site_fract_z
Si Si1 0.159690 0.152358 0.488100
Si Si2 0.657035 0.782002 0.784359
Si Si3 0.776709 0.402789 0.744762
Si Si4 0.210487 0.477201 0.148686
Si Si5 0.332920 0.147330 0.613092
Si Si6 0.797375 0.890854 0.374470
Si Si7 0.035208 0.511022 0.531618
Si Si8 0.523350 0.677360 0.906100
O O1 0.232802 0.074586 0.559259
O O2 0.225796 0.307328 0.438330
O O3 0.055790 0.268535 0.516630
O O4 0.119957 0.960138 0.439242
O O5 0.686818 0.544588 0.775705
O O6 0.641310 0.884881 0.703340
O O7 0.548212 0.764166 0.824758
O O8 0.743656 0.912491 0.834339
O O9 0.847233 0.548830 0.695616
O O10 0.827588 0.288391 0.816666
O O11 0.735543 0.235167 0.686587
O O12 0.314432 0.606873 0.126591
O O13 0.141499 0.414159 0.075489
O O14 0.437452 0.075601 0.577469
O O15 0.914209 0.950680 0.407412
O O16 0.016221 0.617938 0.453295
#
# Coordination Sequence:
#
# PCOD8055098 Si02
#       8
#     4   4   4   4   4   4   4   4
#     4  11  23  42  62  94 132 163 215 264 309 379
#     4  10  22  43  63  92 131 165 213 264 312 374
#     4  10  21  44  65  89 129 170 203 271 314 365
#     4   9  22  42  64  90 129 162 212 266 306 379
#     4  10  22  41  64  94 127 168 212 259 319 374
#     4  11  23  41  62  95 129 164 219 263 309 378
#     4  11  23  41  66  96 127 168 211 260 318 377
#     4  12  24  38  66  94 124 176 211 257 325 372
#
# _framework density 21.434373000000001
#
# number of rings (size 3 to 8) (size 9 to 14) (size 15 to 20)
#    0.000    1.500    3.750    0.750    1.750    3.000 
#    6.750    0.000    0.000    0.000    0.000    0.000 
#    0.000    0.000    0.000    0.000    0.000    0.000 
#
# Total GULP energy -198213.827001 kJ/mol
# GULP energy per Si atom -12388.364188 kJ/mol
# Density = 2.138559 g / cm^3
# Si number density = 21.434373 Si / 1000 Ang^3
#
#
#
# Elastic Constant Matrix: (Units=GPa)
#
#
# Indices 1 2 3 4 5 6 
#
# 1 87.0965 27.1707 13.1455 0.0000 -21.5962 0.0000
# 2 27.1707 63.5786 3.2875 0.0000 -4.9095 0.0000
# 3 13.1455 3.2875 74.4465 0.0000 -18.3978 0.0000
# 4 0.0000 0.0000 0.0000 41.1140 0.0000 0.9463
# 5 -21.5962 -4.9095 -18.3978 0.0000 38.1049 0.0000
# 6 0.0000 0.0000 0.0000 0.9463 0.0000 25.8890
#
#
#
# Elastic Compliance Matrix: (Units=1/GPa)
#
#
# Indices 1 2 3 4 5 6 
#
# 1 0.015309 -0.005923 -0.000552 0.000000 0.007647 0.000000
# 2 -0.005923 0.018182 -0.000009 0.000000 -0.001019 0.000000
# 3 -0.000552 -0.000009 0.015275 0.000000 0.007061 0.000000
# 4 0.000000 0.000000 0.000000 0.024343 0.000000 -0.000890
# 5 0.007647 -0.001019 0.007061 0.000000 0.033855 0.000000
# 6 0.000000 0.000000 0.000000 -0.000890 0.000000 0.038659
#
#
# Mechanical properties :
#
#
# Convention : Reuss Voigt Hill
#
# Bulk Modulus (GPa) = 27.93452 34.70322 31.31887
# Shear Modulus (GPa) = 29.32147 33.12277 31.22212
#
# Velocity S-wave (km/s) = 3.70261 3.93531 3.82073
# Velocity P-wave (km/s) = 5.59821 6.07244 5.84014
#
# Compressibility (1/GPa) = 0.03579800
#
# Stress axis : x y z
#
# Youngs Moduli (GPa) = 65.32240 55.00041 65.46493
#
# Poissons Ratio (x) = 0.32578 0.03613
# Poissons Ratio (y) = 0.38692 0.00057
# Poissons Ratio (z) = 0.03605 0.00048
#
# Static dielectric constant tensor:
#      x y z
#    x 3.635830 0.000000 -0.108870 
#    y 0.000000 3.959120 0.000000 
#    z -0.108870 0.000000 4.366870 
# 
# 
# High freq. dielectric constant tensor:
#      x y z
#    x 1.813380 0.000000 -0.010420 
#    y 0.000000 1.838680 0.000000 
#    z -0.010420 0.000000 1.868510 
# 
# From -- ./inp_files/30393.got.cif
#   From: 2010.06.25/outbox.cif.g09.slc.cpg/sg9_16_cif.got.tgz:30393.got - 2010.06.27 21:40:51.
