data_PCOD8055603
_publ_section_title
;
Structure prediction by ZEFSAII (Michael W. Deem and Ramdas Pophale) SiO2 
 PCOD8055603
Probable space group: C C
;
_chemical_formula_sum "Si O2"
_cell_formula_units_Z 32
_cell_length_a 8.829118
_cell_length_b 20.461998
_cell_length_c 8.367648
_cell_angle_alpha 90.000000
_cell_angle_beta 104.458901
_cell_angle_gamma 90.000000
_cell_volume 1463.830526
_symmetry_space_group_name_H-M "C C"
_symmetry_group_IT_number 9
_symmetry_cell_setting 'monoclinic'
loop_
_space_group_symop_operation_xyz
x,y,z
x,-y,1/2+z
1/2+x,1/2+y,z
1/2+x,1/2-y,1/2+z
loop_
_atom_site_type_symbol
_atom_site_label
_atom_site_fract_x
_atom_site_fract_y
_atom_site_fract_z
Si Si1 0.217340 0.374573 0.227990
Si Si2 0.167650 0.009479 0.620218
Si Si3 0.382297 0.105008 0.164181
Si Si4 0.248616 0.252393 0.836535
Si Si5 0.889095 0.250805 0.718496
Si Si6 0.718432 0.104682 0.349119
Si Si7 0.437760 0.489859 0.312437
Si Si8 0.378118 0.875801 0.285056
O O1 0.277689 0.300881 0.280791
O O2 0.337014 0.426768 0.336601
O O3 0.052857 0.385704 0.269548
O O4 0.206729 0.386855 0.036343
O O5 0.264799 0.076162 0.657536
O O6 0.988442 0.015100 0.640542
O O7 0.266121 0.947806 0.709992
O O8 0.117150 0.992391 0.425997
O O9 0.354663 0.173307 0.252850
O O10 0.554553 0.077087 0.242730
O O11 0.360451 0.111532 0.968572
O O12 0.251536 0.325997 0.768350
O O13 0.323399 0.199040 0.735823
O O14 0.066643 0.232603 0.814857
O O15 0.356311 0.254659 0.021956
O O16 0.850171 0.056518 0.324811
#
# Coordination Sequence:
#
# PCOD8055603 Si02
#       8
#     4   4   4   4   4   4   4   4
#     4  11  24  41  66  95 131 172 213 265 325 383
#     4  12  25  41  65  95 129 172 215 264 320 383
#     4  10  23  43  64  94 130 168 214 265 320 384
#     4   9  20  41  66  90 127 169 212 267 319 377
#     4   9  20  41  66  90 127 169 212 267 319 377
#     4  10  23  43  64  94 130 168 214 265 320 384
#     4  12  25  41  65  95 129 172 215 264 320 383
#     4  11  24  41  66  95 131 172 213 265 325 383
#
# _framework density 21.860454000000001
#
# number of rings (size 3 to 8) (size 9 to 14) (size 15 to 20)
#    0.000    1.500    2.500    1.500    7.000    3.000 
#    0.000   11.250    0.000    0.000    0.000    0.000 
#    0.000    0.000    0.000    0.000    0.000    0.000 
#
# Total GULP energy -198300.653273 kJ/mol
# GULP energy per Si atom -12393.790830 kJ/mol
# Density = 2.181070 g / cm^3
# Si number density = 21.860454 Si / 1000 Ang^3
#
#
#
# Elastic Constant Matrix: (Units=GPa)
#
#
# Indices 1 2 3 4 5 6 
#
# 1 128.1341 82.2647 19.9400 0.0000 4.1403 0.0000
# 2 82.2647 157.2063 21.1861 0.0000 -0.0983 0.0000
# 3 19.9400 21.1861 36.6449 0.0000 17.2125 0.0000
# 4 0.0000 0.0000 0.0000 27.1108 0.0000 2.8465
# 5 4.1403 -0.0983 17.2125 0.0000 39.2494 0.0000
# 6 0.0000 0.0000 0.0000 2.8465 0.0000 49.5707
#
#
#
# Elastic Compliance Matrix: (Units=1/GPa)
#
#
# Indices 1 2 3 4 5 6 
#
# 1 0.012083 -0.005887 -0.003231 0.000000 0.000128 0.000000
# 2 -0.005887 0.009925 -0.003574 0.000000 0.002213 0.000000
# 3 -0.003231 -0.003574 0.038989 0.000000 -0.016766 0.000000
# 4 0.000000 0.000000 0.000000 0.037109 0.000000 -0.002131
# 5 0.000128 0.002213 -0.016766 0.000000 0.032823 0.000000
# 6 0.000000 0.000000 0.000000 -0.002131 0.000000 0.020296
#
#
# Mechanical properties :
#
#
# Convention : Reuss Voigt Hill
#
# Bulk Modulus (GPa) = 28.08067 63.19630 45.63848
# Shear Modulus (GPa) = 26.52806 36.42581 31.47694
#
# Velocity S-wave (km/s) = 3.48734 4.08645 3.79872
# Velocity P-wave (km/s) = 5.39339 7.15801 6.33742
#
# Compressibility (1/GPa) = 0.03561169
#
# Stress axis : x y z
#
# Youngs Moduli (GPa) = 82.76257 100.75673 25.64841
#
# Poissons Ratio (x) = 0.59318 0.08287
# Poissons Ratio (y) = 0.48725 0.09167
# Poissons Ratio (z) = 0.26740 0.36012
#
# Static dielectric constant tensor:
#      x y z
#    x 3.827150 0.000000 0.299090 
#    y 0.000000 4.339560 0.000000 
#    z 0.299090 0.000000 3.809800 
# 
# 
# High freq. dielectric constant tensor:
#      x y z
#    x 1.859690 0.000000 0.027240 
#    y 0.000000 1.876300 0.000000 
#    z 0.027240 0.000000 1.845910 
# 
# From -- ./inp_files/5804.got.cif
#   From: 2010.06.25/outbox.cif.g09.slc.cpg/sg9_3_cif.got.tgz:5804.got - 2010.06.27 21:40:51.
