data_PCOD8055025
_publ_section_title
;
Structure prediction by ZEFSAII (Michael W. Deem and Ramdas Pophale) SiO2 
 PCOD8055025
Probable space group: C C
;
_chemical_formula_sum "Si O2"
_cell_formula_units_Z 32
_cell_length_a 12.269027
_cell_length_b 7.725271
_cell_length_c 12.816188
_cell_angle_alpha 90.000000
_cell_angle_beta 93.524399
_cell_angle_gamma 90.000000
_cell_volume 1212.440851
_symmetry_space_group_name_H-M "C C"
_symmetry_group_IT_number 9
_symmetry_cell_setting 'monoclinic'
loop_
_space_group_symop_operation_xyz
x,y,z
x,-y,1/2+z
1/2+x,1/2+y,z
1/2+x,1/2-y,1/2+z
loop_
_atom_site_type_symbol
_atom_site_label
_atom_site_fract_x
_atom_site_fract_y
_atom_site_fract_z
Si Si1 0.517350 0.036984 0.488110
Si Si2 0.277472 0.854957 0.125462
Si Si3 0.973722 0.499371 0.725468
Si Si4 0.817730 0.346765 0.459352
Si Si5 0.249095 0.480102 0.054225
Si Si6 0.144359 0.036000 0.793863
Si Si7 0.930098 0.824637 0.353920
Si Si8 0.697143 0.139364 0.782196
O O1 0.510866 0.985931 0.608249
O O2 0.644908 0.013323 0.469036
O O3 0.473638 0.232913 0.462966
O O4 0.435416 0.907622 0.417779
O O5 0.373062 0.864018 0.219858
O O6 0.292739 0.674401 0.066339
O O7 0.161823 0.875506 0.180194
O O8 0.289607 0.011932 0.046370
O O9 0.926546 0.317429 0.761738
O O10 0.080804 0.546268 0.803539
O O11 0.834734 0.153998 0.507506
O O12 0.716865 0.346425 0.374901
O O13 0.219515 0.401485 0.163909
O O14 0.018042 0.033615 0.821335
O O15 0.185610 0.842174 0.797689
O O16 0.807494 0.910878 0.356684
#
# Coordination Sequence:
#
# PCOD8055025 Si02
#       8
#     4   4   4   4   4   4   4   4
#     4  10  21  42  67  96 143 188 230 298 355 414
#     4  11  24  46  71 108 144 192 245 294 369 429
#     4  10  23  44  68  98 143 183 236 297 345 434
#     4  11  22  45  69  98 146 191 240 298 361 422
#     4  11  23  44  69 101 143 186 242 296 359 434
#     4  12  23  42  75 102 142 196 232 300 367 425
#     4  12  23  44  72 102 143 187 234 296 363 419
#     4  11  23  43  69  99 140 183 233 295 353 425
#
# _framework density 26.393039999999999
#
# number of rings (size 3 to 8) (size 9 to 14) (size 15 to 20)
#    0.000    1.000    5.000    2.250    1.750    1.000 
#    2.250    0.000    5.500    0.000    0.000    0.000 
#    0.000    0.000    0.000    0.000    0.000    0.000 
#
# Total GULP energy -198267.173893 kJ/mol
# GULP energy per Si atom -12391.698368 kJ/mol
# Density = 2.633297 g / cm^3
# Si number density = 26.393040 Si / 1000 Ang^3
#
#
#
# Elastic Constant Matrix: (Units=GPa)
#
#
# Indices 1 2 3 4 5 6 
#
# 1 167.6226 19.0306 6.1107 0.0000 20.9985 0.0000
# 2 19.0306 96.3946 9.7678 0.0000 0.2314 0.0000
# 3 6.1107 9.7678 72.3631 0.0000 27.1501 0.0000
# 4 0.0000 0.0000 0.0000 71.0119 0.0000 -15.6160
# 5 20.9985 0.2314 27.1501 0.0000 32.5685 0.0000
# 6 0.0000 0.0000 0.0000 -15.6160 0.0000 50.2220
#
#
#
# Elastic Compliance Matrix: (Units=1/GPa)
#
#
# Indices 1 2 3 4 5 6 
#
# 1 0.006813 -0.001519 0.001853 0.000000 -0.005927 0.000000
# 2 -0.001519 0.010915 -0.002450 0.000000 0.002944 0.000000
# 3 0.001853 -0.002450 0.021005 0.000000 -0.018688 0.000000
# 4 0.000000 0.000000 0.000000 0.015116 0.000000 0.004700
# 5 -0.005927 0.002944 -0.018688 0.000000 0.050084 0.000000
# 6 0.000000 0.000000 0.000000 0.004700 0.000000 0.021373
#
#
# Mechanical properties :
#
#
# Convention : Reuss Voigt Hill
#
# Bulk Modulus (GPa) = 28.98256 45.13316 37.05786
# Shear Modulus (GPa) = 35.45192 50.85857 43.15524
#
# Velocity S-wave (km/s) = 3.66899 4.39449 4.04802
# Velocity P-wave (km/s) = 5.38085 6.54876 5.99332
#
# Compressibility (1/GPa) = 0.03450351
#
# Stress axis : x y z
#
# Youngs Moduli (GPa) = 146.77546 91.61715 47.60804
#
# Poissons Ratio (x) = 0.13913 -0.08824
# Poissons Ratio (y) = 0.22290 0.11662
# Poissons Ratio (z) = -0.27204 0.22442
#
# Static dielectric constant tensor:
#      x y z
#    x 5.630760 0.000000 0.282530 
#    y 0.000000 4.350180 0.000000 
#    z 0.282530 0.000000 5.111320 
# 
# 
# High freq. dielectric constant tensor:
#      x y z
#    x 2.077500 0.000000 -0.009280 
#    y 0.000000 2.034670 0.000000 
#    z -0.009280 0.000000 2.082490 
# 
# From -- ./inp_files/24289.got.cif
#   From: 2010.06.25/outbox.cif.g09.slc.cpg/sg9_13_cif.got.tgz:24289.got - 2010.06.27 21:40:51.
