data_PCOD8055290
_publ_section_title
;
Structure prediction by ZEFSAII (Michael W. Deem and Ramdas Pophale) SiO2 
 PCOD8055290
Probable space group: C C
;
_chemical_formula_sum "Si O2"
_cell_formula_units_Z 32
_cell_length_a 11.841038
_cell_length_b 10.191808
_cell_length_c 13.764064
_cell_angle_alpha 90.000000
_cell_angle_beta 117.642223
_cell_angle_gamma 90.000000
_cell_volume 1471.477839
_symmetry_space_group_name_H-M "C C"
_symmetry_group_IT_number 9
_symmetry_cell_setting 'monoclinic'
loop_
_space_group_symop_operation_xyz
x,y,z
x,-y,1/2+z
1/2+x,1/2+y,z
1/2+x,1/2-y,1/2+z
loop_
_atom_site_type_symbol
_atom_site_label
_atom_site_fract_x
_atom_site_fract_y
_atom_site_fract_z
Si Si1 0.712140 0.938789 0.202340
Si Si2 0.627758 0.533906 0.187071
Si Si3 0.278712 0.679986 0.357114
Si Si4 0.476367 0.211911 0.603555
Si Si5 0.303856 0.786331 0.862134
Si Si6 0.862581 0.385913 0.241747
Si Si7 0.994953 0.349013 0.783440
Si Si8 0.896212 0.851585 0.109503
O O1 0.559842 0.921988 0.119229
O O2 0.725092 0.841175 0.299666
O O3 0.781922 0.906605 0.129593
O O4 0.760446 0.077889 0.260936
O O5 0.563672 0.661569 0.111837
O O6 0.717686 0.584091 0.311496
O O7 0.728019 0.456469 0.156604
O O8 0.520358 0.437603 0.183363
O O9 0.338732 0.811688 0.334723
O O10 0.368305 0.637492 0.483115
O O11 0.139955 0.698334 0.347454
O O12 0.347998 0.214085 0.489742
O O13 0.414480 0.220247 0.685903
O O14 0.430133 0.776747 0.847243
O O15 0.974447 0.495531 0.290110
O O16 0.929255 0.296938 0.656636
#
# Coordination Sequence:
#
# PCOD8055290 Si02
#       8
#     4   4   4   4   4   4   4   4
#     4  10  22  41  66  99 137 178 235 289 331 422
#     4  10  22  43  62 100 137 168 236 279 328 426
#     4  12  23  43  68 100 136 188 228 289 354 404
#     4  11  21  43  66  97 137 181 224 283 347 407
#     4   9  21  40  68  94 132 187 219 281 356 396
#     4  11  24  43  66  98 137 172 231 289 337 414
#     4  10  22  43  62  97 136 169 237 282 334 426
#     4  11  23  44  68  95 140 187 226 290 355 405
#
# _framework density 21.746842999999998
#
# number of rings (size 3 to 8) (size 9 to 14) (size 15 to 20)
#    0.000    1.500    2.500    3.000    0.000    2.000 
#   13.500    0.000    0.000    0.000    0.000    0.000 
#    0.000    0.000    0.000    0.000    0.000    0.000 
#
# Total GULP energy -198234.638823 kJ/mol
# GULP energy per Si atom -12389.664926 kJ/mol
# Density = 2.169735 g / cm^3
# Si number density = 21.746843 Si / 1000 Ang^3
#
#
#
# Elastic Constant Matrix: (Units=GPa)
#
#
# Indices 1 2 3 4 5 6 
#
# 1 106.6488 21.4165 22.2134 0.0000 -0.3268 0.0000
# 2 21.4165 91.9733 22.7171 0.0000 -2.8407 0.0000
# 3 22.2134 22.7171 84.6577 0.0000 4.5240 0.0000
# 4 0.0000 0.0000 0.0000 19.5055 0.0000 0.8289
# 5 -0.3268 -2.8407 4.5240 0.0000 24.6100 0.0000
# 6 0.0000 0.0000 0.0000 0.8289 0.0000 45.7356
#
#
#
# Elastic Compliance Matrix: (Units=1/GPa)
#
#
# Indices 1 2 3 4 5 6 
#
# 1 0.010203 -0.001821 -0.002206 0.000000 0.000331 0.000000
# 2 -0.001821 0.012062 -0.002860 0.000000 0.001894 0.000000
# 3 -0.002206 -0.002860 0.013309 0.000000 -0.002806 0.000000
# 4 0.000000 0.000000 0.000000 0.051307 0.000000 -0.000930
# 5 0.000331 0.001894 -0.002806 0.000000 0.041373 0.000000
# 6 0.000000 0.000000 0.000000 -0.000930 0.000000 0.021882
#
#
# Mechanical properties :
#
#
# Convention : Reuss Voigt Hill
#
# Bulk Modulus (GPa) = 45.87369 46.21933 46.04651
# Shear Modulus (GPa) = 29.20994 32.43240 30.82117
#
# Velocity S-wave (km/s) = 3.66892 3.86600 3.76875
# Velocity P-wave (km/s) = 6.25205 6.42086 6.33702
#
# Compressibility (1/GPa) = 0.02179899
#
# Stress axis : x y z
#
# Youngs Moduli (GPa) = 98.01317 82.90782 75.13944
#
# Poissons Ratio (x) = 0.15094 0.16578
# Poissons Ratio (y) = 0.17844 0.21491
# Poissons Ratio (z) = 0.21624 0.23712
#
# Static dielectric constant tensor:
#      x y z
#    x 4.075970 0.000000 0.112430 
#    y 0.000000 3.998840 0.000000 
#    z 0.112430 0.000000 3.631020 
# 
# 
# High freq. dielectric constant tensor:
#      x y z
#    x 1.870780 0.000000 0.005690 
#    y 0.000000 1.853200 0.000000 
#    z 0.005690 0.000000 1.822170 
# 
# From -- ./inp_files/16484.got.cif
#   From: 2010.06.25/outbox.cif.g09.slc.cpg/sg9_9_cif.got.tgz:16484.got - 2010.06.27 21:40:51.
