data_PCOD8055877
_publ_section_title
;
Structure prediction by ZEFSAII (Michael W. Deem and Ramdas Pophale) SiO2 
 PCOD8055877
Probable space group: C C
;
_chemical_formula_sum "Si O2"
_cell_formula_units_Z 20
_cell_length_a 4.776834
_cell_length_b 33.804308
_cell_length_c 4.844768
_cell_angle_alpha 90.000000
_cell_angle_beta 104.698574
_cell_angle_gamma 90.000000
_cell_volume 756.719158
_symmetry_space_group_name_H-M "C C"
_symmetry_group_IT_number 9
_symmetry_cell_setting 'monoclinic'
loop_
_space_group_symop_operation_xyz
x,y,z
x,-y,1/2+z
1/2+x,1/2+y,z
1/2+x,1/2-y,1/2+z
loop_
_atom_site_type_symbol
_atom_site_label
_atom_site_fract_x
_atom_site_fract_y
_atom_site_fract_z
Si Si1 0.476270 0.744840 0.588410
Si Si2 0.082175 0.580259 0.636257
Si Si3 0.136569 0.366938 0.636700
Si Si4 0.579913 0.526546 0.656075
Si Si5 0.608301 0.315379 0.525621
O O1 0.419098 0.702554 0.722301
O O2 0.297856 0.779479 0.713378
O O3 0.326807 0.744874 0.236890
O O4 0.219820 0.597050 0.952924
O O5 0.251309 0.542037 0.562562
O O6 0.762025 0.565235 0.624634
O O7 0.084403 0.616782 0.428467
O O8 0.398173 0.335300 0.697399
O O9 0.837691 0.346959 0.461040
O O10 0.640435 0.488979 0.478225
#
# Coordination Sequence:
#
# PCOD8055877 Si02
#       5
#     4   4   4   4   4
#     4   8  20  44  68 106 140 192 266 328 368 450
#     4  12  26  46  68 108 146 181 242 289 364 456
#     4  12  26  45  70 103 150 197 234 305 382 453
#     4  12  24  45  76 103 138 185 234 293 356 427
#     4  10  24  44  70 104 140 201 250 315 384 426
#
# _framework density 26.429884000000001
#
# number of rings (size 3 to 8) (size 9 to 14) (size 15 to 20)
#    1.200    0.000    0.000    6.000    2.800    1.600 
#    0.000    0.000    0.000    0.000    0.000    0.000 
#    0.000    0.000    0.000    0.000    0.000    0.000 
#
# Total GULP energy -123898.286154 kJ/mol
# GULP energy per Si atom -12389.828615 kJ/mol
# Density = 2.636973 g / cm^3
# Si number density = 26.429884 Si / 1000 Ang^3
#
#
#
# Elastic Constant Matrix: (Units=GPa)
#
#
# Indices 1 2 3 4 5 6 
#
# 1 130.4694 37.1894 37.1676 0.0000 6.0883 0.0000
# 2 37.1894 99.7377 18.3417 0.0000 -9.8642 0.0000
# 3 37.1676 18.3417 104.8416 0.0000 12.0883 0.0000
# 4 0.0000 0.0000 0.0000 35.6649 0.0000 8.5735
# 5 6.0883 -9.8642 12.0883 0.0000 40.6283 0.0000
# 6 0.0000 0.0000 0.0000 8.5735 0.0000 49.2681
#
#
#
# Elastic Compliance Matrix: (Units=1/GPa)
#
#
# Indices 1 2 3 4 5 6 
#
# 1 0.009372 -0.003152 -0.002610 0.000000 -0.001393 0.000000
# 2 -0.003152 0.011828 -0.001385 0.000000 0.003756 0.000000
# 3 -0.002610 -0.001385 0.011080 0.000000 -0.003242 0.000000
# 4 0.000000 0.000000 0.000000 0.029263 0.000000 -0.005092
# 5 -0.001393 0.003756 -0.003242 0.000000 0.026699 0.000000
# 6 0.000000 0.000000 0.000000 -0.005092 0.000000 0.021183
#
#
# Mechanical properties :
#
#
# Convention : Reuss Voigt Hill
#
# Bulk Modulus (GPa) = 55.60339 57.82734 56.71536
# Shear Modulus (GPa) = 38.54649 41.26893 39.90771
#
# Velocity S-wave (km/s) = 3.82310 3.95580 3.89002
# Velocity P-wave (km/s) = 6.36961 6.54152 6.45614
#
# Compressibility (1/GPa) = 0.01798451
#
# Stress axis : x y z
#
# Youngs Moduli (GPa) = 106.70335 84.54636 90.25584
#
# Poissons Ratio (x) = 0.26651 0.23560
# Poissons Ratio (y) = 0.33635 0.12499
# Poissons Ratio (z) = 0.27853 0.11708
#
# Static dielectric constant tensor:
#      x y z
#    x 4.743850 0.000000 -0.016190 
#    y 0.000000 5.081150 0.000000 
#    z -0.016190 0.000000 4.281600 
# 
# 
# High freq. dielectric constant tensor:
#      x y z
#    x 2.069350 0.000000 -0.006850 
#    y 0.000000 2.073480 0.000000 
#    z -0.006850 0.000000 2.037040 
# 
# From -- ./inp_files/306.got.cif
#   From: 2010.06.25/outbox.cif.g09.slc.cpg/sg9_1_cif.got.tgz:306.got - 2010.06.27 21:40:51.
