data_PCOD8055382
_publ_section_title
;
Structure prediction by ZEFSAII (Michael W. Deem and Ramdas Pophale) SiO2 
 PCOD8055382
Probable space group: C C
;
_chemical_formula_sum "Si O2"
_cell_formula_units_Z 32
_cell_length_a 19.032020
_cell_length_b 8.737380
_cell_length_c 14.574505
_cell_angle_alpha 90.000000
_cell_angle_beta 143.782520
_cell_angle_gamma 90.000000
_cell_volume 1431.985131
_symmetry_space_group_name_H-M "C C"
_symmetry_group_IT_number 9
_symmetry_cell_setting 'monoclinic'
loop_
_space_group_symop_operation_xyz
x,y,z
x,-y,1/2+z
1/2+x,1/2+y,z
1/2+x,1/2-y,1/2+z
loop_
_atom_site_type_symbol
_atom_site_label
_atom_site_fract_x
_atom_site_fract_y
_atom_site_fract_z
Si Si1 0.807270 0.812199 0.297980
Si Si2 0.199141 0.728825 0.998198
Si Si3 0.690560 0.587902 0.307650
Si Si4 0.319927 0.184619 0.013657
Si Si5 0.463656 0.243694 0.861379
Si Si6 0.178777 0.385635 0.982755
Si Si7 0.448181 0.424885 0.028440
Si Si8 0.947329 0.605293 0.327981
O O1 0.708150 0.703972 0.241081
O O2 0.915686 0.699466 0.386208
O O3 0.841609 0.952934 0.400306
O O4 0.774720 0.882104 0.165156
O O5 0.222868 0.825628 0.933773
O O6 0.162730 0.558114 0.931183
O O7 0.080960 0.795707 0.925850
O O8 0.328532 0.724775 0.184470
O O9 0.780910 0.442178 0.397730
O O10 0.557395 0.528471 0.174768
O O11 0.207334 0.288425 0.922378
O O12 0.417038 0.299561 0.073110
O O13 0.353381 0.103127 0.145325
O O14 0.476299 0.064114 0.893823
O O15 0.482930 0.336754 0.973862
O O16 0.061216 0.314994 0.903202
#
# Coordination Sequence:
#
# PCOD8055382 Si02
#       8
#     4   4   4   4   4   4   4   4
#     4  11  24  42  68  96 144 171 240 283 363 416
#     4  11  25  46  72 101 142 187 238 291 360 432
#     4  12  27  42  69 105 137 185 235 299 356 423
#     4  11  24  42  68  96 144 171 240 283 363 416
#     4  11  25  46  72 101 142 187 238 291 360 432
#     4  10  22  43  66  96 131 186 226 280 350 429
#     4  12  27  42  69 105 137 185 235 299 356 423
#     4  10  22  43  66  96 131 186 226 280 350 429
#
# _framework density 22.346602000000001
#
# number of rings (size 3 to 8) (size 9 to 14) (size 15 to 20)
#    0.000    1.000    2.500    3.000    7.000    1.000 
#    0.000    6.250    0.000    0.000    0.000    0.000 
#    0.000    0.000    0.000    0.000    0.000    0.000 
#
# Total GULP energy -198255.461188 kJ/mol
# GULP energy per Si atom -12390.966324 kJ/mol
# Density = 2.229574 g / cm^3
# Si number density = 22.346602 Si / 1000 Ang^3
#
#
#
# Elastic Constant Matrix: (Units=GPa)
#
#
# Indices 1 2 3 4 5 6 
#
# 1 105.4805 35.5162 10.2737 0.0000 15.7149 0.0000
# 2 35.5162 100.0471 5.3720 0.0000 -6.8683 0.0000
# 3 10.2737 5.3720 54.5820 0.0000 8.2004 0.0000
# 4 0.0000 0.0000 0.0000 27.6018 0.0000 3.2133
# 5 15.7149 -6.8683 8.2004 0.0000 38.6756 0.0000
# 6 0.0000 0.0000 0.0000 3.2133 0.0000 38.3427
#
#
#
# Elastic Compliance Matrix: (Units=1/GPa)
#
#
# Indices 1 2 3 4 5 6 
#
# 1 0.011920 -0.004553 -0.000978 0.000000 -0.005445 0.000000
# 2 -0.004553 0.011949 -0.000946 0.000000 0.004172 0.000000
# 3 -0.000978 -0.000946 0.019175 0.000000 -0.003836 0.000000
# 4 0.000000 0.000000 0.000000 0.036586 0.000000 -0.003066
# 5 -0.005445 0.004172 -0.003836 0.000000 0.029623 0.000000
# 6 0.000000 0.000000 0.000000 -0.003066 0.000000 0.026338
#
#
# Mechanical properties :
#
#
# Convention : Reuss Voigt Hill
#
# Bulk Modulus (GPa) = 33.23293 40.27038 36.75165
# Shear Modulus (GPa) = 31.53136 34.85387 33.19262
#
# Velocity S-wave (km/s) = 3.76042 3.95358 3.85821
# Velocity P-wave (km/s) = 5.81018 6.23707 6.02741
#
# Compressibility (1/GPa) = 0.03009064
#
# Stress axis : x y z
#
# Youngs Moduli (GPa) = 83.89453 83.69095 52.15247
#
# Poissons Ratio (x) = 0.38102 0.05098
# Poissons Ratio (y) = 0.38195 0.04933
# Poissons Ratio (z) = 0.08201 0.07917
#
# Static dielectric constant tensor:
#      x y z
#    x 4.113360 0.000000 0.165650 
#    y 0.000000 4.215120 0.000000 
#    z 0.165650 0.000000 3.931420 
# 
# 
# High freq. dielectric constant tensor:
#      x y z
#    x 1.884320 0.000000 0.009020 
#    y 0.000000 1.896270 0.000000 
#    z 0.009020 0.000000 1.867700 
# 
# From -- ./inp_files/20015.got.cif
#   From: 2010.06.25/outbox.cif.g09.slc.cpg/sg9_11_cif.got.tgz:20015.got - 2010.06.27 21:40:51.
