data_PCOD8055355
_publ_section_title
;
Structure prediction by ZEFSAII (Michael W. Deem and Ramdas Pophale) SiO2 
 PCOD8055355
Probable space group: C C
;
_chemical_formula_sum "Si O2"
_cell_formula_units_Z 32
_cell_length_a 14.766974
_cell_length_b 7.551241
_cell_length_c 12.968258
_cell_angle_alpha 90.000000
_cell_angle_beta 92.965264
_cell_angle_gamma 90.000000
_cell_volume 1444.141034
_symmetry_space_group_name_H-M "C C"
_symmetry_group_IT_number 9
_symmetry_cell_setting 'monoclinic'
loop_
_space_group_symop_operation_xyz
x,y,z
x,-y,1/2+z
1/2+x,1/2+y,z
1/2+x,1/2-y,1/2+z
loop_
_atom_site_type_symbol
_atom_site_label
_atom_site_fract_x
_atom_site_fract_y
_atom_site_fract_z
Si Si1 0.777700 0.089885 0.015830
Si Si2 0.341703 0.252744 0.945332
Si Si3 0.953132 0.202492 0.104702
Si Si4 0.614148 0.449733 0.743508
Si Si5 0.607840 0.752015 0.599549
Si Si6 0.510205 0.474237 0.930255
Si Si7 0.924089 0.601473 0.153568
Si Si8 0.299500 0.119369 0.341295
O O1 0.861192 0.081627 0.104477
O O2 0.685513 0.111930 0.073194
O O3 0.806047 0.246927 0.937604
O O4 0.764114 0.902696 0.956026
O O5 0.421629 0.360408 0.890633
O O6 0.304841 0.084772 0.880633
O O7 0.372262 0.206776 0.062432
O O8 0.919012 0.399464 0.118385
O O9 0.033288 0.165858 0.189903
O O10 0.991387 0.153249 0.993396
O O11 0.652840 0.597502 0.669446
O O12 0.567566 0.543597 0.837926
O O13 0.702719 0.339104 0.781724
O O14 0.570492 0.668647 0.493401
O O15 0.529414 0.842903 0.662828
O O16 0.879901 0.644246 0.262500
#
# Coordination Sequence:
#
# PCOD8055355 Si02
#       8
#     4   4   4   4   4   4   4   4
#     4  11  23  48  70  98 140 187 228 287 348 409
#     4  10  24  44  70  98 141 181 230 285 348 410
#     4  10  22  42  70  95 143 184 220 290 346 403
#     4  11  23  40  68 102 137 181 232 282 343 416
#     4  10  23  41  64  99 140 174 231 288 340 405
#     4   9  20  41  65  98 135 183 224 282 346 406
#     4  11  24  44  69 103 137 181 233 288 347 411
#     4  12  25  44  72 101 137 185 236 280 346 422
#
# _framework density 22.158501000000001
#
# number of rings (size 3 to 8) (size 9 to 14) (size 15 to 20)
#    0.000    1.500    2.500    2.250    3.500    2.000 
#    9.000    0.000    0.000    0.000    0.000    0.000 
#    0.000    0.000    0.000    0.000    0.000    0.000 
#
# Total GULP energy -198246.826528 kJ/mol
# GULP energy per Si atom -12390.426658 kJ/mol
# Density = 2.210807 g / cm^3
# Si number density = 22.158501 Si / 1000 Ang^3
#
#
#
# Elastic Constant Matrix: (Units=GPa)
#
#
# Indices 1 2 3 4 5 6 
#
# 1 139.2973 26.4372 55.9382 0.0000 -10.3771 0.0000
# 2 26.4372 78.5601 26.4534 0.0000 -11.9225 0.0000
# 3 55.9382 26.4534 57.4165 0.0000 -14.0427 0.0000
# 4 0.0000 0.0000 0.0000 24.2251 0.0000 -5.9126
# 5 -10.3771 -11.9225 -14.0427 0.0000 41.9431 0.0000
# 6 0.0000 0.0000 0.0000 -5.9126 0.0000 32.6148
#
#
#
# Elastic Compliance Matrix: (Units=1/GPa)
#
#
# Indices 1 2 3 4 5 6 
#
# 1 0.011835 -0.000204 -0.011691 0.000000 -0.001044 0.000000
# 2 -0.000204 0.015247 -0.006293 0.000000 0.002176 0.000000
# 3 -0.011691 -0.006293 0.033287 0.000000 0.006463 0.000000
# 4 0.000000 0.000000 0.000000 0.043191 0.000000 0.007830
# 5 -0.001044 0.002176 0.006463 0.000000 0.026366 0.000000
# 6 0.000000 0.000000 0.000000 0.007830 0.000000 0.032080
#
#
# Mechanical properties :
#
#
# Convention : Reuss Voigt Hill
#
# Bulk Modulus (GPa) = 41.68223 54.77018 48.22620
# Shear Modulus (GPa) = 24.22693 30.85294 27.53993
#
# Velocity S-wave (km/s) = 3.31017 3.73550 3.52925
# Velocity P-wave (km/s) = 5.78458 6.58608 6.19830
#
# Compressibility (1/GPa) = 0.02399104
#
# Stress axis : x y z
#
# Youngs Moduli (GPa) = 84.49633 65.58498 30.04149
#
# Poissons Ratio (x) = 0.01340 0.35123
# Poissons Ratio (y) = 0.01727 0.18907
# Poissons Ratio (z) = 0.98788 0.41276
#
# Static dielectric constant tensor:
#      x y z
#    x 4.120160 0.000000 -0.002050 
#    y 0.000000 4.038920 0.000000 
#    z -0.002050 0.000000 3.965360 
# 
# 
# High freq. dielectric constant tensor:
#      x y z
#    x 1.879960 0.000000 -0.002480 
#    y 0.000000 1.865270 0.000000 
#    z -0.002480 0.000000 1.867760 
# 
# From -- ./inp_files/17779.got.cif
#   From: 2010.06.25/outbox.cif.g09.slc.cpg/sg9_9_cif.got.tgz:17779.got - 2010.06.27 21:40:51.
