data_PCOD8055993
_publ_section_title
;
Structure prediction by ZEFSAII (Michael W. Deem and Ramdas Pophale) SiO2 
 PCOD8055993
Probable space group: C C
;
_chemical_formula_sum "Si O2"
_cell_formula_units_Z 20
_cell_length_a 17.546692
_cell_length_b 5.068743
_cell_length_c 8.931455
_cell_angle_alpha 90.000000
_cell_angle_beta 82.526895
_cell_angle_gamma 90.000000
_cell_volume 787.613398
_symmetry_space_group_name_H-M "C C"
_symmetry_group_IT_number 9
_symmetry_cell_setting 'monoclinic'
loop_
_space_group_symop_operation_xyz
x,y,z
x,-y,1/2+z
1/2+x,1/2+y,z
1/2+x,1/2-y,1/2+z
loop_
_atom_site_type_symbol
_atom_site_label
_atom_site_fract_x
_atom_site_fract_y
_atom_site_fract_z
Si Si1 0.911570 0.006856 0.238320
Si Si2 0.457704 0.842672 0.971920
Si Si3 0.326650 0.808291 0.504814
Si Si4 0.650100 0.279534 0.589059
Si Si5 0.094055 0.276245 0.436827
O O1 0.966827 0.209219 0.132907
O O2 0.844766 0.144619 0.351147
O O3 0.974016 0.855179 0.328727
O O4 0.864961 0.819509 0.140368
O O5 0.641231 0.006117 0.016995
O O6 0.367226 0.907900 0.976274
O O7 0.506643 0.113433 0.947602
O O8 0.237527 0.868522 0.546663
O O9 0.595177 0.493622 0.520519
O O10 0.632042 0.261926 0.767265
#
# Coordination Sequence:
#
# PCOD8055993 Si02
#       5
#     4   4   4   4   4
#     4  10  25  46  79 114 152 205 274 329 390 466
#     4  11  27  46  80 112 158 206 273 326 397 472
#     4  11  25  45  81 109 155 202 268 325 397 473
#     4  12  30  52  81 118 165 212 264 327 410 476
#     4  12  31  53  79 117 166 211 263 331 402 481
#
# _framework density 25.393167999999999
#
# number of rings (size 3 to 8) (size 9 to 14) (size 15 to 20)
#    0.000    0.800    0.000    3.600   22.400    0.000 
#    0.000    0.000    0.000    0.000    0.000    0.000 
#    0.000    0.000    0.000    0.000    0.000    0.000 
#
# Total GULP energy -124038.302115 kJ/mol
# GULP energy per Si atom -12403.830212 kJ/mol
# Density = 2.533537 g / cm^3
# Si number density = 25.393168 Si / 1000 Ang^3
#
#
#
# Elastic Constant Matrix: (Units=GPa)
#
#
# Indices 1 2 3 4 5 6 
#
# 1 100.1591 -1.6026 21.7106 0.0000 -25.2757 0.0000
# 2 -1.6026 78.9466 52.1655 0.0000 -19.3822 0.0000
# 3 21.7106 52.1655 177.4014 0.0000 -18.3176 0.0000
# 4 0.0000 0.0000 0.0000 12.4981 0.0000 10.5322
# 5 -25.2757 -19.3822 -18.3176 0.0000 27.6805 0.0000
# 6 0.0000 0.0000 0.0000 10.5322 0.0000 24.6310
#
#
#
# Elastic Compliance Matrix: (Units=1/GPa)
#
#
# Indices 1 2 3 4 5 6 
#
# 1 0.014402 0.005268 -0.001688 0.000000 0.015722 0.000000
# 2 0.005268 0.019780 -0.004867 0.000000 0.015440 0.000000
# 3 -0.001688 -0.004867 0.007260 0.000000 -0.000145 0.000000
# 4 0.000000 0.000000 0.000000 0.125086 0.000000 -0.053487
# 5 0.015722 0.015440 -0.000145 0.000000 0.061198 0.000000
# 6 0.000000 0.000000 0.000000 -0.053487 0.000000 0.063470
#
#
# Mechanical properties :
#
#
# Convention : Reuss Voigt Hill
#
# Bulk Modulus (GPa) = 25.72862 55.67268 40.70065
# Shear Modulus (GPa) = 16.30121 31.91081 24.10601
#
# Velocity S-wave (km/s) = 2.53643 3.54880 3.08443
# Velocity P-wave (km/s) = 4.32805 6.22606 5.36171
#
# Compressibility (1/GPa) = 0.03886722
#
# Stress axis : x y z
#
# Youngs Moduli (GPa) = 69.43540 50.55554 137.74749
#
# Poissons Ratio (x) = -0.26631 0.23254
# Poissons Ratio (y) = -0.36577 0.67040
# Poissons Ratio (z) = 0.11722 0.24605
#
# Static dielectric constant tensor:
#      x y z
#    x 4.494790 0.000000 -0.099490 
#    y 0.000000 4.835360 0.000000 
#    z -0.099490 0.000000 4.868440 
# 
# 
# High freq. dielectric constant tensor:
#      x y z
#    x 2.009150 0.000000 -0.003610 
#    y 0.000000 2.027770 0.000000 
#    z -0.003610 0.000000 2.040680 
# 
# From -- ./inp_files/10204.got.cif
#   From: 2010.06.25/outbox.cif.g09.slc.cpg/sg9_6_cif.got.tgz:10204.got - 2010.06.27 21:40:51.
