data_PCOD8055560
_publ_section_title
;
Structure prediction by ZEFSAII (Michael W. Deem and Ramdas Pophale) SiO2 
 PCOD8055560
Probable space group: C C
;
_chemical_formula_sum "Si O2"
_cell_formula_units_Z 32
_cell_length_a 14.718699
_cell_length_b 11.585516
_cell_length_c 8.619839
_cell_angle_alpha 90.000000
_cell_angle_beta 97.907536
_cell_angle_gamma 90.000000
_cell_volume 1455.910434
_symmetry_space_group_name_H-M "C C"
_symmetry_group_IT_number 9
_symmetry_cell_setting 'monoclinic'
loop_
_space_group_symop_operation_xyz
x,y,z
x,-y,1/2+z
1/2+x,1/2+y,z
1/2+x,1/2-y,1/2+z
loop_
_atom_site_type_symbol
_atom_site_label
_atom_site_fract_x
_atom_site_fract_y
_atom_site_fract_z
Si Si1 0.601730 0.244027 0.295580
Si Si2 0.427345 0.361901 0.369099
Si Si3 0.331422 0.523288 0.561388
Si Si4 0.804820 0.748550 0.879652
Si Si5 0.034995 0.507468 0.299197
Si Si6 0.404214 0.960537 0.509645
Si Si7 0.322478 0.808331 0.033127
Si Si8 0.167027 0.652393 0.993401
O O1 0.527946 0.344802 0.317118
O O2 0.699702 0.294490 0.368058
O O3 0.603979 0.203081 0.116213
O O4 0.577946 0.124994 0.380407
O O5 0.417815 0.448947 0.514183
O O6 0.357413 0.412373 0.225597
O O7 0.398383 0.236767 0.428712
O O8 0.310230 0.618869 0.426971
O O9 0.241384 0.443621 0.569374
O O10 0.839593 0.740281 0.710764
O O11 0.863039 0.668412 0.012148
O O12 0.103988 0.399881 0.341642
O O13 0.932756 0.482134 0.338910
O O14 0.005445 0.524733 0.112731
O O15 0.326535 0.053078 0.538537
O O16 0.224684 0.762413 0.944265
#
# Coordination Sequence:
#
# PCOD8055560 Si02
#       8
#     4   4   4   4   4   4   4   4
#     4  11  22  42  64  98 130 169 224 276 328 387
#     4  11  23  41  69  97 130 172 219 277 325 404
#     4  11  23  42  67  96 132 176 219 264 347 391
#     4  11  24  44  66  94 136 179 217 276 335 399
#     4  12  22  39  66  98 125 171 233 272 323 386
#     4  12  24  41  65  95 136 175 221 275 334 402
#     4  10  23  42  67  94 134 174 221 270 343 393
#     4  10  23  41  68  96 131 170 224 284 317 402
#
# _framework density 21.979375000000001
#
# number of rings (size 3 to 8) (size 9 to 14) (size 15 to 20)
#    0.000    1.000    5.000    3.000    1.750    0.000 
#    4.500    0.000    0.000    0.000    0.000    0.000 
#    0.000    0.000    0.000    0.000    0.000    0.000 
#
# Total GULP energy -198231.341016 kJ/mol
# GULP energy per Si atom -12389.458814 kJ/mol
# Density = 2.192935 g / cm^3
# Si number density = 21.979375 Si / 1000 Ang^3
#
#
#
# Elastic Constant Matrix: (Units=GPa)
#
#
# Indices 1 2 3 4 5 6 
#
# 1 112.0791 38.1389 36.9968 0.0000 0.8106 0.0000
# 2 38.1389 88.1950 26.4980 0.0000 3.9913 0.0000
# 3 36.9968 26.4980 59.6599 0.0000 0.3676 0.0000
# 4 0.0000 0.0000 0.0000 27.6503 0.0000 -1.0303
# 5 0.8106 3.9913 0.3676 0.0000 38.0290 0.0000
# 6 0.0000 0.0000 0.0000 -1.0303 0.0000 52.3351
#
#
#
# Elastic Compliance Matrix: (Units=1/GPa)
#
#
# Indices 1 2 3 4 5 6 
#
# 1 0.012053 -0.003431 -0.005952 0.000000 0.000161 0.000000
# 2 -0.003431 0.014128 -0.004138 0.000000 -0.001370 0.000000
# 3 -0.005952 -0.004138 0.022288 0.000000 0.000346 0.000000
# 4 0.000000 0.000000 0.000000 0.036193 0.000000 0.000713
# 5 0.000161 -0.001370 0.000346 0.000000 0.026433 0.000000
# 6 0.000000 0.000000 0.000000 0.000713 0.000000 0.019122
#
#
# Mechanical properties :
#
#
# Convention : Reuss Voigt Hill
#
# Bulk Modulus (GPa) = 46.67104 51.46682 49.06893
# Shear Modulus (GPa) = 30.41334 34.15623 32.28478
#
# Velocity S-wave (km/s) = 3.72388 3.94637 3.83674
# Velocity P-wave (km/s) = 6.30633 6.65071 6.48081
#
# Compressibility (1/GPa) = 0.02142656
#
# Stress axis : x y z
#
# Youngs Moduli (GPa) = 82.96434 70.78253 44.86645
#
# Poissons Ratio (x) = 0.24289 0.26702
# Poissons Ratio (y) = 0.28469 0.18568
# Poissons Ratio (z) = 0.49377 0.29293
#
# Static dielectric constant tensor:
#      x y z
#    x 3.878510 0.000000 -0.180390 
#    y 0.000000 4.004950 0.000000 
#    z -0.180390 0.000000 3.805410 
# 
# 
# High freq. dielectric constant tensor:
#      x y z
#    x 1.855490 0.000000 -0.017500 
#    y 0.000000 1.861340 0.000000 
#    z -0.017500 0.000000 1.859450 
# 
# From -- ./inp_files/9130.got.cif
#   From: 2010.06.25/outbox.cif.g09.slc.cpg/sg9_5_cif.got.tgz:9130.got - 2010.06.27 21:40:51.
