data_PCOD8055328
_publ_section_title
;
Structure prediction by ZEFSAII (Michael W. Deem and Ramdas Pophale) SiO2 
 PCOD8055328
Probable space group: C C
;
_chemical_formula_sum "Si O2"
_cell_formula_units_Z 24
_cell_length_a 16.237661
_cell_length_b 9.474204
_cell_length_c 9.587877
_cell_angle_alpha 90.000000
_cell_angle_beta 133.520795
_cell_angle_gamma 90.000000
_cell_volume 1069.550339
_symmetry_space_group_name_H-M "C C"
_symmetry_group_IT_number 9
_symmetry_cell_setting 'monoclinic'
loop_
_space_group_symop_operation_xyz
x,y,z
x,-y,1/2+z
1/2+x,1/2+y,z
1/2+x,1/2-y,1/2+z
loop_
_atom_site_type_symbol
_atom_site_label
_atom_site_fract_x
_atom_site_fract_y
_atom_site_fract_z
Si Si1 0.383380 0.352283 0.322290
Si Si2 0.068865 0.947147 0.749929
Si Si3 0.777685 0.272510 0.948794
Si Si4 0.488429 0.776214 0.374853
Si Si5 0.519881 0.249164 0.225456
Si Si6 0.671007 0.018246 0.973071
O O1 0.480721 0.435001 0.519764
O O2 0.336989 0.230078 0.368275
O O3 0.423916 0.267203 0.232527
O O4 0.285907 0.467463 0.180727
O O5 0.026085 0.866965 0.839266
O O6 0.092976 0.108167 0.819072
O O7 0.187348 0.894531 0.831698
O O8 0.868154 0.321404 0.170110
O O9 0.713449 0.122896 0.900408
O O10 0.461835 0.756007 0.506347
O O11 0.586844 0.894299 0.475459
O O12 0.601692 0.115882 0.337370
#
# Coordination Sequence:
#
# PCOD8055328 Si02
#       6
#     4   4   4   4   4   4
#     4  11  22  40  66  96 131 174 220 271 324 385
#     4  10  22  42  66  95 132 174 216 267 327 388
#     4  10  22  44  66  90 134 178 215 270 327 386
#     4  10  24  44  66  95 132 175 221 268 326 389
#     4  12  24  40  67 101 129 167 221 270 327 391
#     4  11  24  42  67  97 132 176 221 270 325 389
#
# _framework density 22.439337999999999
#
# number of rings (size 3 to 8) (size 9 to 14) (size 15 to 20)
#    0.000    1.333    0.000    6.000    0.000    6.667 
#    0.000    3.333    0.000    0.000    0.000    0.000 
#    0.000    0.000    0.000    0.000    0.000    0.000 
#
# Total GULP energy -148762.076755 kJ/mol
# GULP energy per Si atom -12396.839730 kJ/mol
# Density = 2.238827 g / cm^3
# Si number density = 22.439338 Si / 1000 Ang^3
#
#
#
# Elastic Constant Matrix: (Units=GPa)
#
#
# Indices 1 2 3 4 5 6 
#
# 1 145.3121 61.4191 92.5941 0.0000 -7.2261 0.0000
# 2 61.4191 104.7548 71.1971 0.0000 7.7963 0.0000
# 3 92.5941 71.1971 115.8383 0.0000 -12.5108 0.0000
# 4 0.0000 0.0000 0.0000 22.9294 0.0000 7.7453
# 5 -7.2261 7.7963 -12.5108 0.0000 48.5224 0.0000
# 6 0.0000 0.0000 0.0000 7.7453 0.0000 27.2094
#
#
#
# Elastic Compliance Matrix: (Units=1/GPa)
#
#
# Indices 1 2 3 4 5 6 
#
# 1 0.014104 -0.000908 -0.010773 0.000000 -0.000532 0.000000
# 2 -0.000908 0.017944 -0.010934 0.000000 -0.005837 0.000000
# 3 -0.010773 -0.010934 0.024668 0.000000 0.006513 0.000000
# 4 0.000000 0.000000 0.000000 0.048252 0.000000 -0.013735
# 5 -0.000532 -0.005837 0.006513 0.000000 0.023147 0.000000
# 6 0.000000 0.000000 0.000000 -0.013735 0.000000 0.040662
#
#
# Mechanical properties :
#
#
# Convention : Reuss Voigt Hill
#
# Bulk Modulus (GPa) = 87.06104 90.70287 88.88196
# Shear Modulus (GPa) = 22.95329 29.11189 26.03259
#
# Velocity S-wave (km/s) = 3.20176 3.60580 3.40977
# Velocity P-wave (km/s) = 7.24920 7.60558 7.42953
#
# Compressibility (1/GPa) = 0.01148619
#
# Stress axis : x y z
#
# Youngs Moduli (GPa) = 70.90333 55.72946 40.53871
#
# Poissons Ratio (x) = 0.05058 0.43673
# Poissons Ratio (y) = 0.06435 0.44324
# Poissons Ratio (z) = 0.76386 0.60933
#
# Static dielectric constant tensor:
#      x y z
#    x 4.249480 0.000000 0.005010 
#    y 0.000000 4.044380 0.000000 
#    z 0.005010 0.000000 4.018680 
# 
# 
# High freq. dielectric constant tensor:
#      x y z
#    x 1.894940 0.000000 -0.002370 
#    y 0.000000 1.882460 0.000000 
#    z -0.002370 0.000000 1.885670 
# 
# From -- ./inp_files/10467.got.cif
#   From: 2010.06.25/outbox.cif.g09.slc.cpg/sg9_6_cif.got.tgz:10467.got - 2010.06.27 21:40:51.
