data_PCOD8055692
_publ_section_title
;
Structure prediction by ZEFSAII (Michael W. Deem and Ramdas Pophale) SiO2 
 PCOD8055692
Probable space group: C C
;
_chemical_formula_sum "Si O2"
_cell_formula_units_Z 24
_cell_length_a 6.533333
_cell_length_b 17.672040
_cell_length_c 14.499134
_cell_angle_alpha 90.000000
_cell_angle_beta 40.709265
_cell_angle_gamma 90.000000
_cell_volume 1091.838275
_symmetry_space_group_name_H-M "C C"
_symmetry_group_IT_number 9
_symmetry_cell_setting 'monoclinic'
loop_
_space_group_symop_operation_xyz
x,y,z
x,-y,1/2+z
1/2+x,1/2+y,z
1/2+x,1/2-y,1/2+z
loop_
_atom_site_type_symbol
_atom_site_label
_atom_site_fract_x
_atom_site_fract_y
_atom_site_fract_z
Si Si1 0.229490 0.607746 0.167010
Si Si2 0.947519 0.513188 0.112145
Si Si3 0.850522 0.743950 0.223555
Si Si4 0.759421 0.941404 0.848063
Si Si5 0.249792 0.782785 0.546083
Si Si6 0.381054 0.847983 0.101914
O O1 0.130706 0.556442 0.288199
O O2 0.577387 0.640913 0.068679
O O3 0.212854 0.548562 0.088091
O O4 0.987641 0.676005 0.237569
O O5 0.635885 0.563202 0.222992
O O6 0.838745 0.426776 0.173074
O O7 0.107723 0.512375 0.955479
O O8 0.519308 0.766649 0.379774
O O9 0.859362 0.713369 0.114874
O O10 0.065197 0.819235 0.159688
O O11 0.644954 0.862345 0.932738
O O12 0.001834 0.714326 0.631624
#
# Coordination Sequence:
#
# PCOD8055692 Si02
#       6
#     4   4   4   4   4   4
#     4  11  23  42  69  98 141 182 230 293 351 413
#     4  10  24  41  68  97 140 178 229 277 356 407
#     4  11  24  43  72 100 137 185 239 290 352 419
#     4  10  23  45  64  98 137 187 225 289 341 430
#     4  11  23  41  70 102 138 184 238 290 348 419
#     4   9  23  42  65  99 137 180 231 285 348 416
#
# _framework density 21.981276999999999
#
# number of rings (size 3 to 8) (size 9 to 14) (size 15 to 20)
#    1.000    0.667    0.000    4.000    0.000   10.667 
#    0.000    0.000    0.000    0.000    0.000    0.000 
#    0.000    0.000    0.000    0.000    0.000    0.000 
#
# Total GULP energy -148670.259623 kJ/mol
# GULP energy per Si atom -12389.188302 kJ/mol
# Density = 2.193125 g / cm^3
# Si number density = 21.981277 Si / 1000 Ang^3
#
#
#
# Elastic Constant Matrix: (Units=GPa)
#
#
# Indices 1 2 3 4 5 6 
#
# 1 133.0991 64.1474 60.3482 0.0003 4.1109 -0.0002
# 2 64.1474 104.8059 32.6726 0.0001 0.3303 -0.0001
# 3 60.3482 32.6726 118.9638 0.0004 5.5289 -0.0001
# 4 0.0003 0.0001 0.0004 32.0514 -0.0001 4.2065
# 5 4.1109 0.3303 5.5289 -0.0001 34.6535 0.0001
# 6 -0.0002 -0.0001 -0.0001 4.2065 0.0001 49.5307
#
#
#
# Elastic Compliance Matrix: (Units=1/GPa)
#
#
# Indices 1 2 3 4 5 6 
#
# 1 0.012696 -0.006311 -0.004675 0.000000 -0.000700 0.000000
# 2 -0.006311 0.013577 -0.000560 0.000000 0.000709 0.000000
# 3 -0.004675 -0.000560 0.010987 0.000000 -0.001193 0.000000
# 4 0.000000 0.000000 0.000000 0.031552 0.000000 -0.002680
# 5 -0.000700 0.000709 -0.001193 0.000000 0.029124 0.000000
# 6 0.000000 0.000000 0.000000 -0.002680 0.000000 0.020417
#
#
# Mechanical properties :
#
#
# Convention : Reuss Voigt Hill
#
# Bulk Modulus (GPa) = 70.58472 74.57835 72.58153
# Shear Modulus (GPa) = 34.20770 36.56048 35.38409
#
# Velocity S-wave (km/s) = 3.94917 4.08273 4.01651
# Velocity P-wave (km/s) = 7.27844 7.49844 7.38926
#
# Compressibility (1/GPa) = 0.01416737
#
# Stress axis : x y z
#
# Youngs Moduli (GPa) = 78.76475 73.65582 91.02059
#
# Poissons Ratio (x) = 0.46486 0.42548
# Poissons Ratio (y) = 0.49710 0.05098
# Poissons Ratio (z) = 0.36819 0.04125
#
# Static dielectric constant tensor:
#      x y z
#    x 3.989480 0.000000 -0.030110 
#    y 0.000000 3.904250 0.000000 
#    z -0.030110 0.000000 3.731180 
# 
# 
# High freq. dielectric constant tensor:
#      x y z
#    x 1.865990 0.000000 -0.004250 
#    y 0.000000 1.867470 0.000000 
#    z -0.004250 0.000000 1.852610 
# 
# From -- ./inp_files/3870.got.cif
#   From: 2010.06.25/outbox.cif.g09.slc.cpg/sg9_2_cif.got.tgz:3870.got - 2010.06.27 21:40:51.
