data_PCOD8055897
_publ_section_title
;
Structure prediction by ZEFSAII (Michael W. Deem and Ramdas Pophale) SiO2 
 PCOD8055897
Probable space group: C C
;
_chemical_formula_sum "Si O2"
_cell_formula_units_Z 32
_cell_length_a 17.679440
_cell_length_b 7.580615
_cell_length_c 22.884384
_cell_angle_alpha 90.000000
_cell_angle_beta 155.179726
_cell_angle_gamma 90.000000
_cell_volume 1287.439868
_symmetry_space_group_name_H-M "C C"
_symmetry_group_IT_number 9
_symmetry_cell_setting 'monoclinic'
loop_
_space_group_symop_operation_xyz
x,y,z
x,-y,1/2+z
1/2+x,1/2+y,z
1/2+x,1/2-y,1/2+z
loop_
_atom_site_type_symbol
_atom_site_label
_atom_site_fract_x
_atom_site_fract_y
_atom_site_fract_z
Si Si1 0.939040 0.440147 0.141980
Si Si2 0.059529 0.808152 0.034218
Si Si3 0.430821 0.422262 0.589410
Si Si4 0.060328 0.836682 0.909144
Si Si5 0.145751 0.270471 0.719358
Si Si6 0.988967 0.812992 0.505332
Si Si7 0.537067 0.011444 0.338752
Si Si8 0.855770 0.188167 0.788019
O O1 0.017206 0.241605 0.186494
O O2 0.011727 0.573872 0.144570
O O3 0.983322 0.533187 0.234094
O O4 0.723130 0.414633 0.984629
O O5 0.840824 0.792237 0.884932
O O6 0.129747 0.749412 0.019462
O O7 0.153435 0.709294 0.154181
O O8 0.106857 0.014787 0.071936
O O9 0.575870 0.577609 0.688620
O O10 0.376103 0.352308 0.485541
O O11 0.253520 0.498114 0.496795
O O12 0.955704 0.676546 0.803460
O O13 0.923138 0.991450 0.826511
O O14 0.145384 0.669974 0.625173
O O15 0.866751 0.755503 0.364460
O O16 0.469307 0.176768 0.328333
#
# Coordination Sequence:
#
# PCOD8055897 Si02
#       8
#     4   4   4   4   4   4   4   4
#     4  11  24  42  68  98 144 179 233 295 351 421
#     4  10  24  45  70 106 139 180 245 288 345 430
#     4  10  25  42  64 104 137 183 238 286 353 424
#     4  10  25  42  64 104 137 183 238 286 353 424
#     4  11  24  45  74  96 143 186 231 295 356 416
#     4  10  24  45  70 106 139 180 245 288 345 430
#     4  11  24  42  68  98 144 179 233 295 351 421
#     4  11  24  45  74  96 143 186 231 295 356 416
#
# _framework density 24.855528
#
# number of rings (size 3 to 8) (size 9 to 14) (size 15 to 20)
#    0.000    1.500    0.000    3.750   10.500    6.000 
#    0.000    0.000    0.000    0.000    0.000    0.000 
#    0.000    0.000    0.000    0.000    0.000    0.000 
#
# Total GULP energy -198357.134676 kJ/mol
# GULP energy per Si atom -12397.320917 kJ/mol
# Density = 2.479896 g / cm^3
# Si number density = 24.855528 Si / 1000 Ang^3
#
#
#
# Elastic Constant Matrix: (Units=GPa)
#
#
# Indices 1 2 3 4 5 6 
#
# 1 96.8742 31.7141 -3.9942 -0.0008 -3.4961 -0.0001
# 2 31.7141 105.4460 13.5056 -0.0001 0.8567 -0.0001
# 3 -3.9942 13.5056 43.8545 -0.0020 -13.3505 -0.0006
# 4 -0.0008 -0.0001 -0.0020 30.5798 0.0005 3.7134
# 5 -3.4961 0.8567 -13.3505 0.0005 35.7439 0.0000
# 6 -0.0001 -0.0001 -0.0006 3.7134 0.0000 53.3164
#
#
#
# Elastic Compliance Matrix: (Units=1/GPa)
#
#
# Indices 1 2 3 4 5 6 
#
# 1 0.011831 -0.003965 0.003024 0.000000 0.002382 0.000000
# 2 -0.003965 0.011278 -0.004552 0.000000 -0.002358 0.000000
# 3 0.003024 -0.004552 0.027760 0.000002 0.010773 0.000000
# 4 0.000000 0.000000 0.000002 0.032980 0.000000 -0.002297
# 5 0.002382 -0.002358 0.010773 0.000000 0.032290 0.000000
# 6 0.000000 0.000000 0.000000 -0.002297 0.000000 0.018916
#
#
# Mechanical properties :
#
#
# Convention : Reuss Voigt Hill
#
# Bulk Modulus (GPa) = 25.07408 36.51396 30.79402
# Shear Modulus (GPa) = 31.38002 37.59132 34.48567
#
# Velocity S-wave (km/s) = 3.55702 3.89317 3.72888
# Velocity P-wave (km/s) = 5.19419 5.91028 5.56377
#
# Compressibility (1/GPa) = 0.03988182
#
# Stress axis : x y z
#
# Youngs Moduli (GPa) = 84.52137 88.66596 36.02344
#
# Poissons Ratio (x) = 0.35156 -0.10892
# Poissons Ratio (y) = 0.33513 0.16399
# Poissons Ratio (z) = -0.25557 0.40364
#
# Static dielectric constant tensor:
#      x y z
#    x 4.859050 0.000000 -0.036580 
#    y 0.000000 4.428160 0.000000 
#    z -0.036580 0.000000 4.246540 
# 
# 
# High freq. dielectric constant tensor:
#      x y z
#    x 2.006060 0.000000 0.010550 
#    y 0.000000 1.990140 0.000000 
#    z 0.010550 0.000000 1.981490 
# 
# From -- ./inp_files/33739.got.cif
#   From: 2010.06.25/outbox.cif.g09.slc.cpg/sg9_17_cif.got.tgz:33739.got - 2010.06.27 21:40:51.
