data_PCOD8055111
_publ_section_title
;
Structure prediction by ZEFSAII (Michael W. Deem and Ramdas Pophale) SiO2 
 PCOD8055111
Probable space group: C C
;
_chemical_formula_sum "Si O2"
_cell_formula_units_Z 32
_cell_length_a 8.968039
_cell_length_b 11.471860
_cell_length_c 15.023217
_cell_angle_alpha 90.000000
_cell_angle_beta 64.292411
_cell_angle_gamma 90.000000
_cell_volume 1392.606740
_symmetry_space_group_name_H-M "C C"
_symmetry_group_IT_number 9
_symmetry_cell_setting 'monoclinic'
loop_
_space_group_symop_operation_xyz
x,y,z
x,-y,1/2+z
1/2+x,1/2+y,z
1/2+x,1/2-y,1/2+z
loop_
_atom_site_type_symbol
_atom_site_label
_atom_site_fract_x
_atom_site_fract_y
_atom_site_fract_z
Si Si1 0.522920 0.684536 0.640300
Si Si2 0.847305 0.044663 0.453460
Si Si3 0.078295 0.853654 0.324269
Si Si4 0.258172 0.250697 0.075767
Si Si5 0.158463 0.418670 0.652269
Si Si6 0.426752 0.893876 0.167942
Si Si7 0.284286 0.982286 0.024744
Si Si8 0.594076 0.099662 0.366510
O O1 0.490022 0.646737 0.750678
O O2 0.348433 0.727051 0.646364
O O3 0.651700 0.791940 0.609851
O O4 0.606704 0.582488 0.557700
O O5 0.867912 0.182266 0.470948
O O6 0.705846 0.040368 0.414303
O O7 0.789547 0.993209 0.563429
O O8 0.011808 0.972898 0.386697
O O9 0.275976 0.854842 0.268413
O O10 0.044091 0.737059 0.391110
O O11 0.249211 0.116205 0.053506
O O12 0.070842 0.296886 0.132046
O O13 0.197480 0.413246 0.747707
O O14 0.981717 0.481370 0.690936
O O15 0.368622 0.911335 0.082749
O O16 0.416924 0.968651 0.910204
#
# Coordination Sequence:
#
# PCOD8055111 Si02
#       8
#     4   4   4   4   4   4   4   4
#     4  10  22  42  72 104 134 186 229 288 353 422
#     4  11  24  43  68 103 141 180 238 290 346 423
#     4  10  25  42  69 105 139 188 235 286 359 422
#     4  11  23  43  73 103 140 184 233 295 347 415
#     4  10  21  44  69  99 142 183 231 292 346 411
#     4  10  22  45  67 100 146 176 235 297 340 423
#     4  11  22  45  71 104 146 180 234 291 355 421
#     4  11  23  42  71 102 142 189 227 291 358 419
#
# _framework density 22.978489
#
# number of rings (size 3 to 8) (size 9 to 14) (size 15 to 20)
#    0.000    1.500    3.750    0.750    3.500    5.000 
#    9.000    3.750    0.000    0.000    0.000    0.000 
#    0.000    0.000    0.000    0.000    0.000    0.000 
#
# Total GULP energy -198267.023447 kJ/mol
# GULP energy per Si atom -12391.688965 kJ/mol
# Density = 2.292619 g / cm^3
# Si number density = 22.978489 Si / 1000 Ang^3
#
#
#
# Elastic Constant Matrix: (Units=GPa)
#
#
# Indices 1 2 3 4 5 6 
#
# 1 63.4156 47.9407 30.7763 0.0000 -24.2443 0.0000
# 2 47.9407 163.0792 53.2854 0.0000 -22.6927 0.0000
# 3 30.7763 53.2854 87.7840 0.0000 -15.9247 0.0000
# 4 0.0000 0.0000 0.0000 40.4031 0.0000 -3.0167
# 5 -24.2443 -22.6927 -15.9247 0.0000 27.8970 0.0000
# 6 0.0000 0.0000 0.0000 -3.0167 0.0000 30.2285
#
#
#
# Elastic Compliance Matrix: (Units=1/GPa)
#
#
# Indices 1 2 3 4 5 6 
#
# 1 0.028074 -0.004425 -0.003774 0.000000 0.018644 0.000000
# 2 -0.004425 0.008765 -0.003540 0.000000 0.001263 0.000000
# 3 -0.003774 -0.003540 0.015334 0.000000 0.002594 0.000000
# 4 0.000000 0.000000 0.000000 0.024936 0.000000 0.002489
# 5 0.018644 0.001263 0.002594 0.000000 0.054557 0.000000
# 6 0.000000 0.000000 0.000000 0.002489 0.000000 0.033330
#
#
# Mechanical properties :
#
#
# Convention : Reuss Voigt Hill
#
# Bulk Modulus (GPa) = 34.85005 64.25375 49.55190
# Shear Modulus (GPa) = 25.24742 31.85748 28.55245
#
# Velocity S-wave (km/s) = 3.31832 3.72748 3.52884
# Velocity P-wave (km/s) = 5.46635 6.82267 6.18182
#
# Compressibility (1/GPa) = 0.02869437
#
# Stress axis : x y z
#
# Youngs Moduli (GPa) = 35.62046 114.08466 65.21441
#
# Poissons Ratio (x) = 0.50488 0.24612
# Poissons Ratio (y) = 0.15764 0.23085
# Poissons Ratio (z) = 0.13443 0.40385
#
# Static dielectric constant tensor:
#      x y z
#    x 4.135530 0.000000 0.016400 
#    y 0.000000 4.395660 0.000000 
#    z 0.016400 0.000000 4.104320 
# 
# 
# High freq. dielectric constant tensor:
#      x y z
#    x 1.900460 0.000000 0.006220 
#    y 0.000000 1.921750 0.000000 
#    z 0.006220 0.000000 1.895370 
# 
# From -- ./inp_files/22717.got.cif
#   From: 2010.06.25/outbox.cif.g09.slc.cpg/sg9_12_cif.got.tgz:22717.got - 2010.06.27 21:40:51.
