data_PCOD8055041
_publ_section_title
;
Structure prediction by ZEFSAII (Michael W. Deem and Ramdas Pophale) SiO2 
 PCOD8055041
Probable space group: C C
;
_chemical_formula_sum "Si O2"
_cell_formula_units_Z 32
_cell_length_a 15.065650
_cell_length_b 9.507398
_cell_length_c 10.399877
_cell_angle_alpha 90.000000
_cell_angle_beta 65.153112
_cell_angle_gamma 90.000000
_cell_volume 1351.738735
_symmetry_space_group_name_H-M "C C"
_symmetry_group_IT_number 9
_symmetry_cell_setting 'monoclinic'
loop_
_space_group_symop_operation_xyz
x,y,z
x,-y,1/2+z
1/2+x,1/2+y,z
1/2+x,1/2-y,1/2+z
loop_
_atom_site_type_symbol
_atom_site_label
_atom_site_fract_x
_atom_site_fract_y
_atom_site_fract_z
Si Si1 0.176820 0.132741 0.520860
Si Si2 0.794597 0.088110 0.551918
Si Si3 0.244015 0.369802 0.803671
Si Si4 0.829633 0.567605 0.708704
Si Si5 0.885371 0.384075 0.892676
Si Si6 0.068208 0.782434 0.335966
Si Si7 0.187314 0.123595 0.158812
Si Si8 0.519838 0.416756 0.922719
O O1 0.282931 0.202474 0.427000
O O2 0.149298 0.173551 0.682411
O O3 0.086247 0.169018 0.485058
O O4 0.203839 0.963004 0.515386
O O5 0.774170 0.046182 0.415424
O O6 0.730251 0.222726 0.624419
O O7 0.908205 0.129833 0.500658
O O8 0.764164 0.963823 0.665724
O O9 0.307250 0.228405 0.755985
O O10 0.127817 0.330552 0.886368
O O11 0.898461 0.509071 0.780869
O O12 0.886733 0.556805 0.537861
O O13 0.734938 0.461921 0.752754
O O14 0.975615 0.280650 0.818543
O O15 0.028668 0.915178 0.441262
O O16 0.069402 0.126086 0.256177
#
# Coordination Sequence:
#
# PCOD8055041 Si02
#       8
#     4   4   4   4   4   4   4   4
#     4  10  21  42  71 103 142 197 252 296 371 465
#     4  12  30  44  77 113 158 190 259 325 377 442
#     4  12  26  54  68 111 158 198 246 326 383 447
#     4  11  22  47  76  98 150 194 246 303 375 452
#     4  11  22  41  75 109 138 189 257 305 367 453
#     4  11  24  44  75 103 147 205 248 306 387 455
#     4  10  22  45  70 106 143 195 247 303 367 462
#     4  11  23  43  74 105 146 206 245 304 385 456
#
# _framework density 23.673213000000001
#
# number of rings (size 3 to 8) (size 9 to 14) (size 15 to 20)
#    0.000    1.000    5.000    3.000    5.250    3.000 
#    9.000    0.000    0.000    0.000    0.000    0.000 
#    0.000    0.000    0.000    0.000    0.000    0.000 
#
# Total GULP energy -198300.090318 kJ/mol
# GULP energy per Si atom -12393.755645 kJ/mol
# Density = 2.361933 g / cm^3
# Si number density = 23.673213 Si / 1000 Ang^3
#
#
#
# Elastic Constant Matrix: (Units=GPa)
#
#
# Indices 1 2 3 4 5 6 
#
# 1 139.4951 30.5994 32.6160 0.0000 -4.4150 0.0000
# 2 30.5994 83.5801 32.9090 0.0000 -3.4106 0.0000
# 3 32.6160 32.9090 84.2255 0.0000 16.0163 0.0000
# 4 0.0000 0.0000 0.0000 29.6840 0.0000 5.1704
# 5 -4.4150 -3.4106 16.0163 0.0000 47.2144 0.0000
# 6 0.0000 0.0000 0.0000 5.1704 0.0000 38.8082
#
#
#
# Elastic Compliance Matrix: (Units=1/GPa)
#
#
# Indices 1 2 3 4 5 6 
#
# 1 0.008278 -0.001874 -0.002774 0.000000 0.001580 0.000000
# 2 -0.001874 0.015000 -0.005674 0.000000 0.002833 0.000000
# 3 -0.002774 -0.005674 0.016346 0.000000 -0.006214 0.000000
# 4 0.000000 0.000000 0.000000 0.034489 0.000000 -0.004595
# 5 0.001580 0.002833 -0.006214 0.000000 0.023640 0.000000
# 6 0.000000 0.000000 0.000000 -0.004595 0.000000 0.026380
#
#
# Mechanical properties :
#
#
# Convention : Reuss Voigt Hill
#
# Bulk Modulus (GPa) = 52.68587 55.50550 54.09568
# Shear Modulus (GPa) = 33.08973 37.21974 35.15474
#
# Velocity S-wave (km/s) = 3.74273 3.96944 3.85775
# Velocity P-wave (km/s) = 6.40166 6.67128 6.53786
#
# Compressibility (1/GPa) = 0.01898042
#
# Stress axis : x y z
#
# Youngs Moduli (GPa) = 120.79637 66.66477 61.17799
#
# Poissons Ratio (x) = 0.12494 0.16970
# Poissons Ratio (y) = 0.22639 0.34713
# Poissons Ratio (z) = 0.33508 0.37826
#
# Static dielectric constant tensor:
#      x y z
#    x 4.311690 0.000000 0.089840 
#    y 0.000000 4.033780 0.000000 
#    z 0.089840 0.000000 4.409020 
# 
# 
# High freq. dielectric constant tensor:
#      x y z
#    x 1.937320 0.000000 0.006600 
#    y 0.000000 1.911750 0.000000 
#    z 0.006600 0.000000 1.947230 
# 
# From -- ./inp_files/17926.got.cif
#   From: 2010.06.25/outbox.cif.g09.slc.cpg/sg9_9_cif.got.tgz:17926.got - 2010.06.27 21:40:51.
