data_PCOD8055388
_publ_section_title
;
Structure prediction by ZEFSAII (Michael W. Deem and Ramdas Pophale) SiO2 
 PCOD8055388
Probable space group: C C
;
_chemical_formula_sum "Si O2"
_cell_formula_units_Z 32
_cell_length_a 10.922210
_cell_length_b 10.760880
_cell_length_c 19.729172
_cell_angle_alpha 90.000000
_cell_angle_beta 39.877095
_cell_angle_gamma 90.000000
_cell_volume 1486.695415
_symmetry_space_group_name_H-M "C C"
_symmetry_group_IT_number 9
_symmetry_cell_setting 'monoclinic'
loop_
_space_group_symop_operation_xyz
x,y,z
x,-y,1/2+z
1/2+x,1/2+y,z
1/2+x,1/2-y,1/2+z
loop_
_atom_site_type_symbol
_atom_site_label
_atom_site_fract_x
_atom_site_fract_y
_atom_site_fract_z
Si Si1 0.260400 0.522599 0.559500
Si Si2 0.008693 0.395918 0.775838
Si Si3 0.784597 0.690882 0.693809
Si Si4 0.972634 0.192879 0.328264
Si Si5 0.599984 0.950380 0.991026
Si Si6 0.625426 0.703667 0.115501
Si Si7 0.158575 0.990458 0.847130
Si Si8 0.460739 0.065165 0.920052
O O1 0.161188 0.469505 0.532209
O O2 0.251248 0.671369 0.550544
O O3 0.480829 0.478870 0.472687
O O4 0.155779 0.481007 0.671695
O O5 0.807994 0.401070 0.821882
O O6 0.974041 0.445478 0.866235
O O7 0.092770 0.255497 0.745753
O O8 0.752365 0.615937 0.778159
O O9 0.886402 0.605632 0.593486
O O10 0.933424 0.797904 0.652315
O O11 0.079489 0.201699 0.212950
O O12 0.747273 0.163877 0.414479
O O13 0.019819 0.316019 0.350842
O O14 0.070540 0.075062 0.319925
O O15 0.597616 0.041496 0.926854
O O16 0.747173 0.585102 0.039612
#
# Coordination Sequence:
#
# PCOD8055388 Si02
#       8
#     4   4   4   4   4   4   4   4
#     4  10  22  43  68  91 138 185 216 287 365 404
#     4  12  26  41  68 104 133 183 239 287 347 431
#     4  11  23  44  67  96 142 187 229 291 359 414
#     4  11  22  42  73  98 138 183 233 294 358 423
#     4  10  22  44  68 101 138 187 228 291 359 418
#     4  11  21  43  69  96 131 186 230 291 357 419
#     4  11  23  44  65  96 143 183 224 293 354 416
#     4  12  23  41  72 104 131 182 249 280 351 435
#
# _framework density 21.524246999999999
#
# number of rings (size 3 to 8) (size 9 to 14) (size 15 to 20)
#    0.000    1.000    7.500    1.500    1.750    4.000 
#    0.000    2.500    0.000    0.000    0.000    0.000 
#    0.000    0.000    0.000    0.000    0.000    0.000 
#
# Total GULP energy -198321.065497 kJ/mol
# GULP energy per Si atom -12395.066594 kJ/mol
# Density = 2.147526 g / cm^3
# Si number density = 21.524247 Si / 1000 Ang^3
#
#
#
# Elastic Constant Matrix: (Units=GPa)
#
#
# Indices 1 2 3 4 5 6 
#
# 1 97.2870 22.5752 55.1853 0.0000 -4.5266 0.0000
# 2 22.5752 41.4591 29.0399 -0.0001 -6.1506 0.0000
# 3 55.1853 29.0399 141.0896 -0.0003 3.5031 0.0001
# 4 0.0000 -0.0001 -0.0003 23.3734 0.0001 2.7401
# 5 -4.5266 -6.1506 3.5031 0.0001 38.3768 0.0000
# 6 0.0000 0.0000 0.0001 2.7401 0.0000 40.4281
#
#
#
# Elastic Compliance Matrix: (Units=1/GPa)
#
#
# Indices 1 2 3 4 5 6 
#
# 1 0.013931 -0.004132 -0.004633 0.000000 0.001404 0.000000
# 2 -0.004132 0.030424 -0.004766 0.000000 0.004824 0.000000
# 3 -0.004633 -0.004766 0.009936 0.000000 -0.002217 0.000000
# 4 0.000000 0.000000 0.000000 0.043126 0.000000 -0.002923
# 5 0.001404 0.004824 -0.002217 0.000000 0.027198 0.000000
# 6 0.000000 0.000000 0.000000 -0.002923 0.000000 0.024933
#
#
# Mechanical properties :
#
#
# Convention : Reuss Voigt Hill
#
# Bulk Modulus (GPa) = 36.72572 54.82628 45.77600
# Shear Modulus (GPa) = 26.92695 31.97135 29.44915
#
# Velocity S-wave (km/s) = 3.54079 3.85822 3.70291
# Velocity P-wave (km/s) = 5.81514 6.73610 6.29249
#
# Compressibility (1/GPa) = 0.02722887
#
# Stress axis : x y z
#
# Youngs Moduli (GPa) = 71.78085 32.86905 100.64489
#
# Poissons Ratio (x) = 0.13582 0.46633
# Poissons Ratio (y) = 0.29660 0.47963
# Poissons Ratio (z) = 0.33259 0.15664
#
# Static dielectric constant tensor:
#      x y z
#    x 3.902620 0.000000 0.013180 
#    y 0.000000 3.585790 0.000000 
#    z 0.013180 0.000000 4.246940 
# 
# 
# High freq. dielectric constant tensor:
#      x y z
#    x 1.838450 0.000000 0.007830 
#    y 0.000000 1.812560 0.000000 
#    z 0.007830 0.000000 1.870610 
# 
# From -- ./inp_files/22811.got.cif
#   From: 2010.06.25/outbox.cif.g09.slc.cpg/sg9_12_cif.got.tgz:22811.got - 2010.06.27 21:40:51.
