data_PCOD8055624
_publ_section_title
;
Structure prediction by ZEFSAII (Michael W. Deem and Ramdas Pophale) SiO2 
 PCOD8055624
Probable space group: C C
;
_chemical_formula_sum "Si O2"
_cell_formula_units_Z 24
_cell_length_a 6.585575
_cell_length_b 18.518033
_cell_length_c 9.549193
_cell_angle_alpha 90.000000
_cell_angle_beta 63.591784
_cell_angle_gamma 90.000000
_cell_volume 1043.019868
_symmetry_space_group_name_H-M "C C"
_symmetry_group_IT_number 9
_symmetry_cell_setting 'monoclinic'
loop_
_space_group_symop_operation_xyz
x,y,z
x,-y,1/2+z
1/2+x,1/2+y,z
1/2+x,1/2-y,1/2+z
loop_
_atom_site_type_symbol
_atom_site_label
_atom_site_fract_x
_atom_site_fract_y
_atom_site_fract_z
Si Si1 0.990860 0.167902 0.088760
Si Si2 0.422498 0.486816 0.679835
Si Si3 0.758136 0.088928 0.504130
Si Si4 0.178419 0.827039 0.824894
Si Si5 0.574227 0.271775 0.270316
Si Si6 0.773979 0.400799 0.052998
O O1 0.755747 0.208149 0.195031
O O2 0.932165 0.084143 0.080024
O O3 0.179100 0.169376 0.156142
O O4 0.109582 0.199524 0.916121
O O5 0.275110 0.548011 0.647008
O O6 0.321669 0.467571 0.861770
O O7 0.674351 0.520940 0.622718
O O8 0.503749 0.115291 0.563977
O O9 0.912485 0.161609 0.450264
O O10 0.312876 0.755159 0.830805
O O11 0.300311 0.893305 0.874376
O O12 0.606874 0.335828 0.149900
#
# Coordination Sequence:
#
# PCOD8055624 Si02
#       6
#     4   4   4   4   4   4
#     4  11  26  42  71 106 142 187 244 297 355 423
#     4  10  23  43  69 101 142 181 239 290 365 420
#     4  10  23  44  71 101 141 189 233 295 355 429
#     4  10  23  44  67  99 140 184 232 299 350 411
#     4  12  25  44  70 104 143 189 245 296 356 425
#     4  11  24  45  72 103 144 186 237 297 357 434
#
# _framework density 23.010107999999999
#
# number of rings (size 3 to 8) (size 9 to 14) (size 15 to 20)
#    0.000    1.333    1.667    3.000    2.333    9.333 
#    0.000    0.000    0.000    0.000    0.000    0.000 
#    0.000    0.000    0.000    0.000    0.000    0.000 
#
# Total GULP energy -148673.018693 kJ/mol
# GULP energy per Si atom -12389.418224 kJ/mol
# Density = 2.295774 g / cm^3
# Si number density = 23.010108 Si / 1000 Ang^3
#
#
#
# Elastic Constant Matrix: (Units=GPa)
#
#
# Indices 1 2 3 4 5 6 
#
# 1 136.8885 41.1656 40.1203 0.0000 6.3386 0.0000
# 2 41.1656 125.0716 38.2924 0.0000 -12.5860 0.0000
# 3 40.1203 38.2924 85.3004 0.0000 10.3423 0.0000
# 4 0.0000 0.0000 0.0000 47.3585 0.0000 -1.4308
# 5 6.3386 -12.5860 10.3423 0.0000 36.6626 0.0000
# 6 0.0000 0.0000 0.0000 -1.4308 0.0000 44.3479
#
#
#
# Elastic Compliance Matrix: (Units=1/GPa)
#
#
# Indices 1 2 3 4 5 6 
#
# 1 0.008910 -0.002138 -0.003060 0.000000 -0.001411 0.000000
# 2 -0.002138 0.010563 -0.004370 0.000000 0.005229 0.000000
# 3 -0.003060 -0.004370 0.015782 0.000000 -0.005423 0.000000
# 4 0.000000 0.000000 0.000000 0.021136 0.000000 0.000682
# 5 -0.001411 0.005229 -0.005423 0.000000 0.030845 0.000000
# 6 0.000000 0.000000 0.000000 0.000682 0.000000 0.022571
#
#
# Mechanical properties :
#
#
# Convention : Reuss Voigt Hill
#
# Bulk Modulus (GPa) = 62.03884 65.15745 63.59815
# Shear Modulus (GPa) = 37.22533 40.85262 39.03898
#
# Velocity S-wave (km/s) = 4.02653 4.21815 4.12345
# Velocity P-wave (km/s) = 6.97405 7.21817 7.09716
#
# Compressibility (1/GPa) = 0.01611893
#
# Stress axis : x y z
#
# Youngs Moduli (GPa) = 112.22928 94.66739 63.36308
#
# Poissons Ratio (x) = 0.20238 0.19390
# Poissons Ratio (y) = 0.23993 0.27693
# Poissons Ratio (z) = 0.34343 0.41374
#
# Static dielectric constant tensor:
#      x y z
#    x 4.308960 0.000000 0.253800 
#    y 0.000000 4.102860 0.000000 
#    z 0.253800 0.000000 4.094590 
# 
# 
# High freq. dielectric constant tensor:
#      x y z
#    x 1.916700 0.000000 0.023730 
#    y 0.000000 1.903600 0.000000 
#    z 0.023730 0.000000 1.899290 
# 
# From -- ./inp_files/3834.got.cif
#   From: 2010.06.25/outbox.cif.g09.slc.cpg/sg9_2_cif.got.tgz:3834.got - 2010.06.27 21:40:51.
