data_PCOD8055883
_publ_section_title
;
Structure prediction by ZEFSAII (Michael W. Deem and Ramdas Pophale) SiO2 
 PCOD8055883
Probable space group: C C
;
_chemical_formula_sum "Si O2"
_cell_formula_units_Z 32
_cell_length_a 13.617230
_cell_length_b 10.435571
_cell_length_c 18.037723
_cell_angle_alpha 90.000000
_cell_angle_beta 31.951992
_cell_angle_gamma 90.000000
_cell_volume 1356.480376
_symmetry_space_group_name_H-M "C C"
_symmetry_group_IT_number 9
_symmetry_cell_setting 'monoclinic'
loop_
_space_group_symop_operation_xyz
x,y,z
x,-y,1/2+z
1/2+x,1/2+y,z
1/2+x,1/2-y,1/2+z
loop_
_atom_site_type_symbol
_atom_site_label
_atom_site_fract_x
_atom_site_fract_y
_atom_site_fract_z
Si Si1 0.814740 0.005727 0.203810
Si Si2 0.211491 0.257165 0.209721
Si Si3 0.334374 0.378107 0.984042
Si Si4 0.698826 0.155851 0.409610
Si Si5 0.482133 0.115548 0.319161
Si Si6 0.237143 0.651059 0.025204
Si Si7 0.220834 0.951834 0.389699
Si Si8 0.943286 0.542583 0.109354
O O1 0.840272 0.072226 0.268016
O O2 0.639475 0.070474 0.275361
O O3 0.774284 0.853891 0.235054
O O4 0.006713 0.012789 0.036619
O O5 0.354425 0.140557 0.107930
O O6 0.018861 0.201754 0.359843
O O7 0.204820 0.332332 0.135578
O O8 0.219795 0.353169 0.983898
O O9 0.364818 0.531618 0.972396
O O10 0.723901 0.301275 0.370739
O O11 0.494816 0.088588 0.531273
O O12 0.359115 0.223191 0.437391
O O13 0.580238 0.182077 0.186419
O O14 0.348899 0.997275 0.377391
O O15 0.133965 0.608029 0.016053
O O16 0.294589 0.021442 0.269452
#
# Coordination Sequence:
#
# PCOD8055883 Si02
#       8
#     4   4   4   4   4   4   4   4
#     4  12  26  43  74 108 141 201 256 309 376 460
#     4  12  24  47  74 105 145 197 256 306 383 451
#     4  11  26  44  72 102 149 191 250 315 369 465
#     4  11  26  45  67 110 148 190 256 308 388 450
#     4  11  25  47  73 105 151 197 248 310 387 447
#     4  10  24  48  68 106 148 192 248 313 382 449
#     4  11  25  46  74 102 154 198 243 325 379 448
#     4  10  24  44  72 104 144 194 247 316 374 456
#
# _framework density 23.590464999999998
#
# number of rings (size 3 to 8) (size 9 to 14) (size 15 to 20)
#    0.000    1.000    1.250    3.750    7.000    8.000 
#    2.250    0.000    0.000    0.000    0.000    0.000 
#    0.000    0.000    0.000    0.000    0.000    0.000 
#
# Total GULP energy -198314.993738 kJ/mol
# GULP energy per Si atom -12394.687109 kJ/mol
# Density = 2.353677 g / cm^3
# Si number density = 23.590465 Si / 1000 Ang^3
#
#
#
# Elastic Constant Matrix: (Units=GPa)
#
#
# Indices 1 2 3 4 5 6 
#
# 1 52.9360 25.4790 18.4774 0.0004 2.0261 0.0002
# 2 25.4790 150.8984 61.4186 0.0105 -3.4089 -0.0035
# 3 18.4774 61.4186 136.8248 0.0260 -9.8615 -0.0102
# 4 0.0004 0.0105 0.0260 49.0769 -0.0029 -3.5056
# 5 2.0261 -3.4089 -9.8615 -0.0029 31.3284 0.0005
# 6 0.0002 -0.0035 -0.0102 -3.5056 0.0005 30.8896
#
#
#
# Elastic Compliance Matrix: (Units=1/GPa)
#
#
# Indices 1 2 3 4 5 6 
#
# 1 0.020961 -0.002903 -0.001686 0.000001 -0.002202 -0.000001
# 2 -0.002903 0.008513 -0.003427 0.000000 0.000035 0.000000
# 3 -0.001686 -0.003427 0.009266 -0.000004 0.002653 0.000002
# 4 0.000001 0.000000 -0.000004 0.020543 0.000001 0.002331
# 5 -0.002202 0.000035 0.002653 0.000001 0.032901 0.000000
# 6 -0.000001 0.000000 0.000002 0.002331 0.000000 0.032638
#
#
# Mechanical properties :
#
#
# Convention : Reuss Voigt Hill
#
# Bulk Modulus (GPa) = 44.03773 61.26767 52.65270
# Shear Modulus (GPa) = 33.68785 37.94460 35.81622
#
# Velocity S-wave (km/s) = 3.78303 4.01493 3.90070
# Velocity P-wave (km/s) = 6.14734 6.89352 6.53110
#
# Compressibility (1/GPa) = 0.02270780
#
# Stress axis : x y z
#
# Youngs Moduli (GPa) = 47.70825 117.47321 107.92445
#
# Poissons Ratio (x) = 0.34097 0.18201
# Poissons Ratio (y) = 0.13847 0.36982
# Poissons Ratio (z) = 0.08046 0.40254
#
# Static dielectric constant tensor:
#      x y z
#    x 4.393950 0.000000 -0.074510 
#    y 0.000000 4.730110 0.000000 
#    z -0.074510 0.000000 4.343270 
# 
# 
# High freq. dielectric constant tensor:
#      x y z
#    x 1.921400 0.000000 0.005630 
#    y 0.000000 1.947750 0.000000 
#    z 0.005630 0.000000 1.943020 
# 
# From -- ./inp_files/33701.got.cif
#   From: 2010.06.25/outbox.cif.g09.slc.cpg/sg9_17_cif.got.tgz:33701.got - 2010.06.27 21:40:51.
