data_PCOD8055518
_publ_section_title
;
Structure prediction by ZEFSAII (Michael W. Deem and Ramdas Pophale) SiO2 
 PCOD8055518
Probable space group: C C
;
_chemical_formula_sum "Si O2"
_cell_formula_units_Z 32
_cell_length_a 20.575105
_cell_length_b 6.066200
_cell_length_c 12.218266
_cell_angle_alpha 90.000000
_cell_angle_beta 61.473916
_cell_angle_gamma 90.000000
_cell_volume 1339.860111
_symmetry_space_group_name_H-M "C C"
_symmetry_group_IT_number 9
_symmetry_cell_setting 'monoclinic'
loop_
_space_group_symop_operation_xyz
x,y,z
x,-y,1/2+z
1/2+x,1/2+y,z
1/2+x,1/2-y,1/2+z
loop_
_atom_site_type_symbol
_atom_site_label
_atom_site_fract_x
_atom_site_fract_y
_atom_site_fract_z
Si Si1 0.266200 0.651689 0.153750
Si Si2 0.004735 0.944844 0.696458
Si Si3 0.065360 0.590738 0.498253
Si Si4 0.361784 0.353035 0.951361
Si Si5 0.621447 0.601135 0.762477
Si Si6 0.686263 0.774026 0.343579
Si Si7 0.808087 0.455019 0.314318
Si Si8 0.931001 0.704481 0.111709
O O1 0.197474 0.788130 0.160610
O O2 0.241978 0.426986 0.232212
O O3 0.310552 0.797300 0.206012
O O4 0.318600 0.584368 0.008707
O O5 0.065219 0.097604 0.706535
O O6 0.970229 0.071992 0.620855
O O7 0.046769 0.724093 0.623735
O O8 0.940112 0.888215 0.832105
O O9 0.086163 0.755513 0.386104
O O10 0.133512 0.421635 0.464389
O O11 0.992607 0.462353 0.519303
O O12 0.309460 0.192100 0.922686
O O13 0.374790 0.246662 0.058823
O O14 0.635083 0.355791 0.797722
O O15 0.732929 0.598860 0.378105
O O16 0.882053 0.603765 0.250044
#
# Coordination Sequence:
#
# PCOD8055518 Si02
#       8
#     4   4   4   4   4   4   4   4
#     4  10  24  50  72 108 147 190 249 310 365 456
#     4  12  26  46  71 115 145 194 251 305 381 451
#     4  11  24  46  73 105 147 195 242 312 369 454
#     4  12  25  46  78 105 150 196 244 307 384 441
#     4  10  25  49  74 104 147 195 251 304 376 444
#     4  10  22  51  72 103 149 188 247 309 365 449
#     4  11  25  47  75 112 146 196 248 306 382 444
#     4  12  27  47  71 106 149 184 248 313 362 451
#
# _framework density 23.883092999999999
#
# number of rings (size 3 to 8) (size 9 to 14) (size 15 to 20)
#    0.000    1.000    2.500    3.000    3.500    2.000 
#   18.000    0.000    0.000    0.000    0.000    0.000 
#    0.000    0.000    0.000    0.000    0.000    0.000 
#
# Total GULP energy -198482.438537 kJ/mol
# GULP energy per Si atom -12405.152409 kJ/mol
# Density = 2.382873 g / cm^3
# Si number density = 23.883093 Si / 1000 Ang^3
#
#
#
# Elastic Constant Matrix: (Units=GPa)
#
#
# Indices 1 2 3 4 5 6 
#
# 1 134.6494 58.3848 54.7047 0.0000 -0.5025 0.0000
# 2 58.3848 127.5107 57.2478 0.0002 -7.9048 0.0001
# 3 54.7047 57.2478 112.6122 0.0000 -17.2796 0.0000
# 4 0.0000 0.0002 0.0000 44.1659 0.0000 -16.0756
# 5 -0.5025 -7.9048 -17.2796 0.0000 39.6854 0.0000
# 6 0.0000 0.0001 0.0000 -16.0756 0.0000 41.5975
#
#
#
# Elastic Compliance Matrix: (Units=1/GPa)
#
#
# Indices 1 2 3 4 5 6 
#
# 1 0.010308 -0.003184 -0.003715 0.000000 -0.002121 0.000000
# 2 -0.003184 0.011147 -0.004057 0.000000 0.000414 0.000000
# 3 -0.003715 -0.004057 0.013519 0.000000 0.005031 0.000000
# 4 0.000000 0.000000 0.000000 0.026348 0.000000 0.010182
# 5 -0.002121 0.000414 0.005031 0.000000 0.027444 0.000000
# 6 0.000000 0.000000 0.000000 0.010182 0.000000 0.027975
#
#
# Mechanical properties :
#
#
# Convention : Reuss Voigt Hill
#
# Bulk Modulus (GPa) = 76.54468 79.49411 78.01940
# Shear Modulus (GPa) = 34.96337 38.71876 36.84106
#
# Velocity S-wave (km/s) = 3.83030 4.03075 3.93180
# Velocity P-wave (km/s) = 7.18894 7.41752 7.30412
#
# Compressibility (1/GPa) = 0.01306427
#
# Stress axis : x y z
#
# Youngs Moduli (GPa) = 97.00788 89.70807 73.97126
#
# Poissons Ratio (x) = 0.28562 0.27477
# Poissons Ratio (y) = 0.30886 0.30008
# Poissons Ratio (z) = 0.36034 0.36392
#
# Static dielectric constant tensor:
#      x y z
#    x 4.367250 0.000000 -0.260600 
#    y 0.000000 4.583660 0.000000 
#    z -0.260600 0.000000 4.089690 
# 
# 
# High freq. dielectric constant tensor:
#      x y z
#    x 1.954750 0.000000 -0.019390 
#    y 0.000000 1.960510 0.000000 
#    z -0.019390 0.000000 1.938260 
# 
# From -- ./inp_files/19792.got.cif
#   From: 2010.06.25/outbox.cif.g09.slc.cpg/sg9_10_cif.got.tgz:19792.got - 2010.06.27 21:40:51.
