data_PCOD8055070
_publ_section_title
;
Structure prediction by ZEFSAII (Michael W. Deem and Ramdas Pophale) SiO2 
 PCOD8055070
Probable space group: C C
;
_chemical_formula_sum "Si O2"
_cell_formula_units_Z 28
_cell_length_a 7.406807
_cell_length_b 17.355589
_cell_length_c 14.641726
_cell_angle_alpha 90.000000
_cell_angle_beta 132.978836
_cell_angle_gamma 90.000000
_cell_volume 1377.018147
_symmetry_space_group_name_H-M "C C"
_symmetry_group_IT_number 9
_symmetry_cell_setting 'monoclinic'
loop_
_space_group_symop_operation_xyz
x,y,z
x,-y,1/2+z
1/2+x,1/2+y,z
1/2+x,1/2-y,1/2+z
loop_
_atom_site_type_symbol
_atom_site_label
_atom_site_fract_x
_atom_site_fract_y
_atom_site_fract_z
Si Si1 0.514950 0.031032 0.698790
Si Si2 0.722436 0.508569 0.270214
Si Si3 0.883567 0.613790 0.472285
Si Si4 0.979286 0.158250 0.205858
Si Si5 0.246242 0.737290 0.660200
Si Si6 0.009599 0.894590 0.333863
Si Si7 0.473114 0.867564 0.613581
O O1 0.367628 0.073587 0.565953
O O2 0.772403 0.073981 0.807083
O O3 0.350545 0.036766 0.732429
O O4 0.577229 0.941473 0.702805
O O5 0.925475 0.546031 0.410660
O O6 0.544924 0.578579 0.174429
O O7 0.544382 0.447515 0.257274
O O8 0.628784 0.657286 0.354815
O O9 0.102948 0.676620 0.545753
O O10 0.688924 0.166962 0.124790
O O11 0.054516 0.229455 0.168109
O O12 0.463833 0.693332 0.788450
O O13 0.377481 0.803496 0.649252
O O14 0.249193 0.898989 0.477314
#
# Coordination Sequence:
#
# PCOD8055070 Si02
#       7
#     4   4   4   4   4   4   4
#     4  11  21  42  69  95 130 177 223 275 341 385
#     4  10  21  43  67  97 128 176 222 276 336 387
#     4   9  21  43  63  97 136 166 226 285 311 407
#     4  10  22  41  63  93 135 172 219 276 335 398
#     4  11  24  41  66  96 139 174 222 274 347 388
#     4  11  25  43  65 103 135 166 235 283 316 417
#     4  12  22  41  67  95 135 179 215 279 336 400
#
# _framework density 20.333791999999999
#
# number of rings (size 3 to 8) (size 9 to 14) (size 15 to 20)
#    0.857    0.571    4.286    0.857    0.000    4.571 
#    5.143    4.286    0.000    0.000    0.000    0.000 
#    0.000    0.000    0.000    0.000    0.000    0.000 
#
# Total GULP energy -173541.076917 kJ/mol
# GULP energy per Si atom -12395.791208 kJ/mol
# Density = 2.028751 g / cm^3
# Si number density = 20.333792 Si / 1000 Ang^3
#
#
#
# Elastic Constant Matrix: (Units=GPa)
#
#
# Indices 1 2 3 4 5 6 
#
# 1 116.7593 36.5920 39.9933 0.0000 -0.3288 0.0000
# 2 36.5920 104.8078 22.0331 0.0000 -1.6991 0.0000
# 3 39.9933 22.0331 76.4017 0.0000 6.3011 0.0000
# 4 0.0000 0.0000 0.0000 32.2303 0.0000 0.0098
# 5 -0.3288 -1.6991 6.3011 0.0000 26.9973 0.0000
# 6 0.0000 0.0000 0.0000 0.0098 0.0000 27.7250
#
#
#
# Elastic Compliance Matrix: (Units=1/GPa)
#
#
# Indices 1 2 3 4 5 6 
#
# 1 0.011215 -0.002813 -0.005155 0.000000 0.001163 0.000000
# 2 -0.002813 0.010911 -0.001762 0.000000 0.001064 0.000000
# 3 -0.005155 -0.001762 0.016630 0.000000 -0.004055 0.000000
# 4 0.000000 0.000000 0.000000 0.031027 0.000000 -0.000011
# 5 0.001163 0.001064 -0.004055 0.000000 0.038068 0.000000
# 6 0.000000 0.000000 0.000000 -0.000011 0.000000 0.036068
#
#
# Mechanical properties :
#
#
# Convention : Reuss Voigt Hill
#
# Bulk Modulus (GPa) = 51.82496 55.02285 53.42391
# Shear Modulus (GPa) = 29.44429 30.68057 30.06243
#
# Velocity S-wave (km/s) = 3.80945 3.88860 3.84923
# Velocity P-wave (km/s) = 6.70012 6.87606 6.78866
#
# Compressibility (1/GPa) = 0.01929572
#
# Stress axis : x y z
#
# Youngs Moduli (GPa) = 89.16320 91.65058 60.13261
#
# Poissons Ratio (x) = 0.25781 0.31001
# Poissons Ratio (y) = 0.25082 0.10594
# Poissons Ratio (z) = 0.45968 0.16147
#
# Static dielectric constant tensor:
#      x y z
#    x 3.451560 0.000000 0.026290 
#    y 0.000000 3.833310 0.000000 
#    z 0.026290 0.000000 3.558740 
# 
# 
# High freq. dielectric constant tensor:
#      x y z
#    x 1.779630 0.000000 0.003750 
#    y 0.000000 1.807980 0.000000 
#    z 0.003750 0.000000 1.782690 
# 
# From -- ./inp_files/22198.got.cif
#   From: 2010.06.25/outbox.cif.g09.slc.cpg/sg9_12_cif.got.tgz:22198.got - 2010.06.27 21:40:51.
