data_PCOD8055235
_publ_section_title
;
Structure prediction by ZEFSAII (Michael W. Deem and Ramdas Pophale) SiO2 
 PCOD8055235
Probable space group: C C
;
_chemical_formula_sum "Si O2"
_cell_formula_units_Z 24
_cell_length_a 7.602152
_cell_length_b 22.510684
_cell_length_c 7.250976
_cell_angle_alpha 90.000000
_cell_angle_beta 76.858743
_cell_angle_gamma 90.000000
_cell_volume 1208.361994
_symmetry_space_group_name_H-M "C C"
_symmetry_group_IT_number 9
_symmetry_cell_setting 'monoclinic'
loop_
_space_group_symop_operation_xyz
x,y,z
x,-y,1/2+z
1/2+x,1/2+y,z
1/2+x,1/2-y,1/2+z
loop_
_atom_site_type_symbol
_atom_site_label
_atom_site_fract_x
_atom_site_fract_y
_atom_site_fract_z
Si Si1 0.487610 0.371061 0.224640
Si Si2 0.833235 0.083055 0.414540
Si Si3 0.616445 0.806740 0.867613
Si Si4 0.842682 0.300464 0.241268
Si Si5 0.819137 0.046449 0.021384
Si Si6 0.118723 0.653500 0.967003
O O1 0.669885 0.338897 0.230938
O O2 0.472165 0.434446 0.336213
O O3 0.314689 0.330166 0.328103
O O4 0.484530 0.385417 0.006017
O O5 0.667010 0.128344 0.433101
O O6 0.906827 0.065678 0.196418
O O7 0.766231 0.022754 0.531580
O O8 0.782641 0.760814 0.852959
O O9 0.573242 0.807452 0.658847
O O10 0.446574 0.784831 0.027200
O O11 0.963345 0.337425 0.355023
O O12 0.634478 0.083949 0.024681
#
# Coordination Sequence:
#
# PCOD8055235 Si02
#       6
#     4   4   4   4   4   4
#     4  10  22  40  66  94 129 173 214 269 324 382
#     4  11  19  40  70  94 127 175 214 262 334 385
#     4  11  25  40  67  95 131 179 212 276 322 386
#     4  12  25  43  63  98 132 171 229 263 329 385
#     4   9  19  38  70  91 126 172 213 265 332 381
#     4   9  22  43  64  96 129 172 212 273 323 387
#
# _framework density 19.861597
#
# number of rings (size 3 to 8) (size 9 to 14) (size 15 to 20)
#    1.000    0.667    3.333    1.000    2.333    2.667 
#    0.000    1.667    0.000    0.000    0.000    0.000 
#    0.000    0.000    0.000    0.000    0.000    0.000 
#
# Total GULP energy -148664.714035 kJ/mol
# GULP energy per Si atom -12388.726170 kJ/mol
# Density = 1.981639 g / cm^3
# Si number density = 19.861597 Si / 1000 Ang^3
#
#
#
# Elastic Constant Matrix: (Units=GPa)
#
#
# Indices 1 2 3 4 5 6 
#
# 1 130.1485 49.5629 69.4830 0.0000 11.4611 0.0000
# 2 49.5629 101.6776 44.5341 0.0000 -1.6803 0.0000
# 3 69.4830 44.5341 130.5969 0.0000 15.4525 0.0000
# 4 0.0000 0.0000 0.0000 28.3513 0.0000 7.1244
# 5 11.4611 -1.6803 15.4525 0.0000 37.9661 0.0000
# 6 0.0000 0.0000 0.0000 7.1244 0.0000 24.1894
#
#
#
# Elastic Compliance Matrix: (Units=1/GPa)
#
#
# Indices 1 2 3 4 5 6 
#
# 1 0.011814 -0.003675 -0.004823 0.000000 -0.001766 0.000000
# 2 -0.003675 0.012887 -0.002771 0.000000 0.002808 0.000000
# 3 -0.004823 -0.002771 0.011568 0.000000 -0.003375 0.000000
# 4 0.000000 0.000000 0.000000 0.038091 0.000000 -0.011219
# 5 -0.001766 0.002808 -0.003375 0.000000 0.028370 0.000000
# 6 0.000000 0.000000 0.000000 -0.011219 0.000000 0.044645
#
#
# Mechanical properties :
#
#
# Convention : Reuss Voigt Hill
#
# Bulk Modulus (GPa) = 72.84045 76.62034 74.73039
# Shear Modulus (GPa) = 28.65511 31.35757 30.00634
#
# Velocity S-wave (km/s) = 3.80246 3.97773 3.89108
# Velocity P-wave (km/s) = 7.48545 7.73028 7.60885
#
# Compressibility (1/GPa) = 0.01372864
#
# Stress axis : x y z
#
# Youngs Moduli (GPa) = 84.64848 77.59943 86.44865
#
# Poissons Ratio (x) = 0.28520 0.41695
# Poissons Ratio (y) = 0.31110 0.23957
# Poissons Ratio (z) = 0.40827 0.21505
#
# Static dielectric constant tensor:
#      x y z
#    x 3.205480 0.000000 0.232480 
#    y 0.000000 3.658280 0.000000 
#    z 0.232480 0.000000 3.851670 
# 
# 
# High freq. dielectric constant tensor:
#      x y z
#    x 1.736170 0.000000 0.030410 
#    y 0.000000 1.775720 0.000000 
#    z 0.030410 0.000000 1.788360 
# 
# From -- ./inp_files/3929.got.cif
#   From: 2010.06.25/outbox.cif.g09.slc.cpg/sg9_2_cif.got.tgz:3929.got - 2010.06.27 21:40:51.
