data_PCOD8055127
_publ_section_title
;
Structure prediction by ZEFSAII (Michael W. Deem and Ramdas Pophale) SiO2 
 PCOD8055127
Probable space group: C C
;
_chemical_formula_sum "Si O2"
_cell_formula_units_Z 32
_cell_length_a 26.379405
_cell_length_b 13.276332
_cell_length_c 9.343163
_cell_angle_alpha 90.000000
_cell_angle_beta 151.746850
_cell_angle_gamma 90.000000
_cell_volume 1548.945044
_symmetry_space_group_name_H-M "C C"
_symmetry_group_IT_number 9
_symmetry_cell_setting 'monoclinic'
loop_
_space_group_symop_operation_xyz
x,y,z
x,-y,1/2+z
1/2+x,1/2+y,z
1/2+x,1/2-y,1/2+z
loop_
_atom_site_type_symbol
_atom_site_label
_atom_site_fract_x
_atom_site_fract_y
_atom_site_fract_z
Si Si1 0.528850 0.649224 0.390670
Si Si2 0.123237 0.796156 0.416588
Si Si3 0.953303 0.754077 0.229554
Si Si4 0.273600 0.879260 0.190273
Si Si5 0.287807 0.620318 0.739503
Si Si6 0.110908 0.720867 0.851396
Si Si7 0.694564 0.490505 0.732756
Si Si8 0.279102 0.582072 0.385905
O O1 0.540953 0.681698 0.584478
O O2 0.595814 0.729258 0.467650
O O3 0.577401 0.536341 0.484587
O O4 0.407524 0.662726 0.038416
O O5 0.202983 0.704055 0.580057
O O6 0.190156 0.896996 0.612979
O O7 0.054498 0.781955 0.387062
O O8 0.000165 0.703040 0.491081
O O9 0.889040 0.672795 0.976614
O O10 0.881204 0.849995 0.094888
O O11 0.261244 0.924024 0.318056
O O12 0.182741 0.796014 0.933321
O O13 0.263764 0.963688 0.044573
O O14 0.261625 0.583049 0.513742
O O15 0.292639 0.531672 0.868430
O O16 0.173268 0.618068 0.038491
#
# Coordination Sequence:
#
# PCOD8055127 Si02
#       8
#     4   4   4   4   4   4   4   4
#     4  11  24  42  71  96 131 176 226 275 339 394
#     4  12  26  44  64 101 141 172 227 276 335 405
#     4  11  24  44  69  97 132 182 217 277 342 397
#     4  10  23  40  67  97 129 167 225 270 331 390
#     4  12  28  43  69 103 134 185 226 278 338 404
#     4  10  21  45  68  93 133 176 219 279 334 398
#     4  11  22  42  66  99 129 168 220 283 321 399
#     4  11  26  46  68  98 139 178 230 278 334 409
#
# _framework density 20.659222
#
# number of rings (size 3 to 8) (size 9 to 14) (size 15 to 20)
#    0.000    1.000    5.000    0.750    7.000    0.000 
#    2.250    0.000    0.000    0.000    0.000    0.000 
#    0.000    0.000    0.000    0.000    0.000    0.000 
#
# Total GULP energy -198359.711832 kJ/mol
# GULP energy per Si atom -12397.481990 kJ/mol
# Density = 2.061220 g / cm^3
# Si number density = 20.659222 Si / 1000 Ang^3
#
#
#
# Elastic Constant Matrix: (Units=GPa)
#
#
# Indices 1 2 3 4 5 6 
#
# 1 71.3995 23.1249 24.1465 0.0000 -12.5599 0.0000
# 2 23.1249 57.1550 34.6002 0.0000 7.8002 0.0000
# 3 24.1465 34.6002 99.5855 0.0000 -12.8017 0.0000
# 4 0.0000 0.0000 0.0000 26.0994 0.0000 -5.9490
# 5 -12.5599 7.8002 -12.8017 0.0000 31.4536 0.0000
# 6 0.0000 0.0000 0.0000 -5.9490 0.0000 26.6091
#
#
#
# Elastic Compliance Matrix: (Units=1/GPa)
#
#
# Indices 1 2 3 4 5 6 
#
# 1 0.018553 -0.008615 -0.000294 0.000000 0.009426 0.000000
# 2 -0.008615 0.028938 -0.009845 0.000000 -0.014624 0.000000
# 3 -0.000294 -0.009845 0.014596 0.000000 0.008265 0.000000
# 4 0.000000 0.000000 0.000000 0.040372 0.000000 0.009026
# 5 0.009426 -0.014624 0.008265 0.000000 0.042547 0.000000
# 6 0.000000 0.000000 0.000000 0.009026 0.000000 0.039599
#
#
# Mechanical properties :
#
#
# Convention : Reuss Voigt Hill
#
# Bulk Modulus (GPa) = 40.68527 43.54258 42.11392
# Shear Modulus (GPa) = 21.71020 26.58366 24.14693
#
# Velocity S-wave (km/s) = 3.24523 3.59105 3.42251
# Velocity P-wave (km/s) = 5.81191 6.19003 6.00395
#
# Compressibility (1/GPa) = 0.02457892
#
# Stress axis : x y z
#
# Youngs Moduli (GPa) = 53.89841 34.55695 68.51256
#
# Poissons Ratio (x) = 0.29772 0.02012
# Poissons Ratio (y) = 0.46435 0.67451
# Poissons Ratio (z) = 0.01583 0.34022
#
# Static dielectric constant tensor:
#      x y z
#    x 3.746050 0.000000 -0.080160 
#    y 0.000000 3.633830 0.000000 
#    z -0.080160 0.000000 3.659870 
# 
# 
# High freq. dielectric constant tensor:
#      x y z
#    x 1.815180 0.000000 -0.015020 
#    y 0.000000 1.799810 0.000000 
#    z -0.015020 0.000000 1.811350 
# 
# From -- ./inp_files/7404.got.cif
#   From: 2010.06.25/outbox.cif.g09.slc.cpg/sg9_4_cif.got.tgz:7404.got - 2010.06.27 21:40:51.
