data_PCOD8055393
_publ_section_title
;
Structure prediction by ZEFSAII (Michael W. Deem and Ramdas Pophale) SiO2 
 PCOD8055393
Probable space group: C C
;
_chemical_formula_sum "Si O2"
_cell_formula_units_Z 32
_cell_length_a 13.264094
_cell_length_b 6.685726
_cell_length_c 16.783694
_cell_angle_alpha 90.000000
_cell_angle_beta 73.358759
_cell_angle_gamma 90.000000
_cell_volume 1426.041366
_symmetry_space_group_name_H-M "C C"
_symmetry_group_IT_number 9
_symmetry_cell_setting 'monoclinic'
loop_
_space_group_symop_operation_xyz
x,y,z
x,-y,1/2+z
1/2+x,1/2+y,z
1/2+x,1/2-y,1/2+z
loop_
_atom_site_type_symbol
_atom_site_label
_atom_site_fract_x
_atom_site_fract_y
_atom_site_fract_z
Si Si1 0.514250 0.097548 0.883820
Si Si2 0.818778 0.568085 0.514744
Si Si3 0.272224 0.711157 0.639533
Si Si4 0.607871 0.098382 0.225620
Si Si5 0.439804 0.607378 0.088813
Si Si6 0.710060 0.456254 0.268611
Si Si7 0.120535 0.082932 0.454087
Si Si8 0.436428 0.173836 0.742554
O O1 0.558560 0.211756 0.950406
O O2 0.472493 0.250010 0.822568
O O3 0.415214 0.965822 0.933128
O O4 0.605748 0.963767 0.821043
O O5 0.777824 0.363793 0.564518
O O6 0.856938 0.732664 0.570264
O O7 0.719956 0.645311 0.485469
O O8 0.185365 0.535858 0.653418
O O9 0.385175 0.605152 0.616869
O O10 0.244609 0.831239 0.726006
O O11 0.641121 0.331666 0.218390
O O12 0.489634 0.050041 0.219137
O O13 0.482677 0.683101 0.164103
O O14 0.542983 0.576606 0.012260
O O15 0.650149 0.485477 0.363910
O O16 0.811912 0.323858 0.263904
#
# Coordination Sequence:
#
# PCOD8055393 Si02
#       8
#     4   4   4   4   4   4   4   4
#     4  10  23  47  69 106 142 182 251 294 356 442
#     4  12  25  48  69 103 148 185 242 302 358 434
#     4  12  23  45  68 101 143 183 243 292 360 437
#     4  10  22  43  69  99 136 189 233 292 359 426
#     4  12  26  49  72 109 146 193 242 305 365 431
#     4  12  22  46  73  98 143 189 237 297 365 435
#     4  12  25  46  74 104 142 196 233 302 367 421
#     4  10  22  46  68 104 144 181 243 302 350 434
#
# _framework density 22.439741999999999
#
# number of rings (size 3 to 8) (size 9 to 14) (size 15 to 20)
#    0.750    0.000    6.250    1.500    0.000    0.000 
#   22.500    0.000    0.000    0.000    0.000    0.000 
#    0.000    0.000    0.000    0.000    0.000    0.000 
#
# Total GULP energy -198255.232732 kJ/mol
# GULP energy per Si atom -12390.952046 kJ/mol
# Density = 2.238867 g / cm^3
# Si number density = 22.439742 Si / 1000 Ang^3
#
#
#
# Elastic Constant Matrix: (Units=GPa)
#
#
# Indices 1 2 3 4 5 6 
#
# 1 98.4851 32.9068 25.3325 0.0000 -1.3034 0.0000
# 2 32.9068 85.1913 36.5658 0.0001 2.2992 0.0001
# 3 25.3325 36.5658 104.6657 0.0000 -13.6494 0.0000
# 4 0.0000 0.0001 0.0000 31.2383 0.0000 -0.1486
# 5 -1.3034 2.2992 -13.6494 0.0000 43.9636 0.0000
# 6 0.0000 0.0001 0.0000 -0.1486 0.0000 33.2339
#
#
#
# Elastic Compliance Matrix: (Units=1/GPa)
#
#
# Indices 1 2 3 4 5 6 
#
# 1 0.011854 -0.003948 -0.001477 0.000000 0.000099 0.000000
# 2 -0.003948 0.015353 -0.004719 0.000000 -0.002385 0.000000
# 3 -0.001477 -0.004719 0.012076 0.000000 0.003952 0.000000
# 4 0.000000 0.000000 0.000000 0.032013 0.000000 0.000143
# 5 0.000099 -0.002385 0.003952 0.000000 0.024101 0.000000
# 6 0.000000 0.000000 0.000000 0.000143 0.000000 0.030090
#
#
# Mechanical properties :
#
#
# Convention : Reuss Voigt Hill
#
# Bulk Modulus (GPa) = 52.64490 53.10582 52.87536
# Shear Modulus (GPa) = 32.87172 34.58965 33.73068
#
# Velocity S-wave (km/s) = 3.83154 3.93038 3.88128
# Velocity P-wave (km/s) = 6.56397 6.65692 6.61061
#
# Compressibility (1/GPa) = 0.01899519
#
# Stress axis : x y z
#
# Youngs Moduli (GPa) = 84.35928 65.13328 82.80992
#
# Poissons Ratio (x) = 0.25712 0.12231
# Poissons Ratio (y) = 0.33302 0.39081
# Poissons Ratio (z) = 0.12460 0.30739
#
# Static dielectric constant tensor:
#      x y z
#    x 3.993850 0.000000 -0.196250 
#    y 0.000000 3.825480 0.000000 
#    z -0.196250 0.000000 4.124570 
# 
# 
# High freq. dielectric constant tensor:
#      x y z
#    x 1.883040 0.000000 -0.021480 
#    y 0.000000 1.862620 0.000000 
#    z -0.021480 0.000000 1.897780 
# 
# From -- ./inp_files/30372.got.cif
#   From: 2010.06.25/outbox.cif.g09.slc.cpg/sg9_16_cif.got.tgz:30372.got - 2010.06.27 21:40:51.
