data_PCOD8055660
_publ_section_title
;
Structure prediction by ZEFSAII (Michael W. Deem and Ramdas Pophale) SiO2 
 PCOD8055660
Probable space group: C C
;
_chemical_formula_sum "Si O2"
_cell_formula_units_Z 32
_cell_length_a 8.855615
_cell_length_b 25.305218
_cell_length_c 13.550150
_cell_angle_alpha 90.000000
_cell_angle_beta 149.743865
_cell_angle_gamma 90.000000
_cell_volume 1529.989225
_symmetry_space_group_name_H-M "C C"
_symmetry_group_IT_number 9
_symmetry_cell_setting 'monoclinic'
loop_
_space_group_symop_operation_xyz
x,y,z
x,-y,1/2+z
1/2+x,1/2+y,z
1/2+x,1/2-y,1/2+z
loop_
_atom_site_type_symbol
_atom_site_label
_atom_site_fract_x
_atom_site_fract_y
_atom_site_fract_z
Si Si1 0.779690 0.608173 0.685380
Si Si2 0.309941 0.612684 0.683947
Si Si3 0.333947 0.100330 0.130744
Si Si4 0.433085 0.583933 0.085355
Si Si5 0.157562 0.688684 0.193683
Si Si6 0.189836 0.873974 0.925147
Si Si7 0.158304 0.806852 0.256778
Si Si8 0.309347 0.460940 0.007180
O O1 0.691999 0.591329 0.525641
O O2 0.655715 0.666033 0.647189
O O3 0.638056 0.564085 0.676187
O O4 0.130608 0.614802 0.896096
O O5 0.400290 0.665026 0.675005
O O6 0.203365 0.564061 0.552787
O O7 0.034808 0.636225 0.591967
O O8 0.577450 0.589319 0.904124
O O9 0.543551 0.148617 0.214528
O O10 0.566948 0.052229 0.283809
O O11 0.172651 0.109366 0.145223
O O12 0.529747 0.592164 0.251837
O O13 0.363365 0.522535 0.033911
O O14 0.499111 0.678462 0.348573
O O15 0.103648 0.745194 0.212633
O O16 0.968034 0.682313 0.987408
#
# Coordination Sequence:
#
# PCOD8055660 Si02
#       8
#     4   4   4   4   4   4   4   4
#     4  11  23  43  65  96 137 170 218 279 322 398
#     4  10  24  44  66  98 136 168 225 273 323 402
#     4  11  23  46  65  93 135 174 218 271 331 393
#     4  12  25  41  64 100 131 176 224 269 331 389
#     4  11  23  43  71  96 134 174 221 274 337 401
#     4  12  23  43  66  98 137 172 218 281 322 392
#     4  10  23  44  68  99 130 178 218 270 341 397
#     4  11  24  42  67  92 134 178 218 271 331 392
#
# _framework density 20.915181
#
# number of rings (size 3 to 8) (size 9 to 14) (size 15 to 20)
#    0.000    1.000    5.000    1.500    1.750    2.000 
#    2.250    1.250    0.000    0.000    0.000    0.000 
#    0.000    0.000    0.000    0.000    0.000    0.000 
#
# Total GULP energy -198264.605618 kJ/mol
# GULP energy per Si atom -12391.537851 kJ/mol
# Density = 2.086758 g / cm^3
# Si number density = 20.915181 Si / 1000 Ang^3
#
#
#
# Elastic Constant Matrix: (Units=GPa)
#
#
# Indices 1 2 3 4 5 6 
#
# 1 138.4828 53.1505 51.9405 0.0000 -2.3567 0.0000
# 2 53.1505 111.5710 31.7248 0.0000 -4.1148 0.0000
# 3 51.9405 31.7248 106.5291 0.0000 -7.0278 0.0000
# 4 0.0000 0.0000 0.0000 20.9322 0.0000 -2.2900
# 5 -2.3567 -4.1148 -7.0278 0.0000 45.1824 0.0000
# 6 0.0000 0.0000 0.0000 -2.2900 0.0000 14.3552
#
#
#
# Elastic Compliance Matrix: (Units=1/GPa)
#
#
# Indices 1 2 3 4 5 6 
#
# 1 0.010083 -0.003729 -0.003833 0.000000 -0.000410 0.000000
# 2 -0.003729 0.011180 -0.001472 0.000000 0.000595 0.000000
# 3 -0.003833 -0.001472 0.011793 0.000000 0.001500 0.000000
# 4 0.000000 0.000000 0.000000 0.048622 0.000000 0.007756
# 5 -0.000410 0.000595 0.001500 0.000000 0.022399 0.000000
# 6 0.000000 0.000000 0.000000 0.007756 0.000000 0.070898
#
#
# Mechanical properties :
#
#
# Convention : Reuss Voigt Hill
#
# Bulk Modulus (GPa) = 66.71674 70.02384 68.37029
# Shear Modulus (GPa) = 25.24775 30.74511 27.99643
#
# Velocity S-wave (km/s) = 3.47817 3.83820 3.66262
# Velocity P-wave (km/s) = 6.93529 7.29349 7.11664
#
# Compressibility (1/GPa) = 0.01498874
#
# Stress axis : x y z
#
# Youngs Moduli (GPa) = 99.17985 89.44822 84.79446
#
# Poissons Ratio (x) = 0.33351 0.32499
# Poissons Ratio (y) = 0.36979 0.12483
# Poissons Ratio (z) = 0.38013 0.13169
#
# Static dielectric constant tensor:
#      x y z
#    x 4.052540 0.000000 -0.015110 
#    y 0.000000 3.473420 0.000000 
#    z -0.015110 0.000000 4.193900 
# 
# 
# High freq. dielectric constant tensor:
#      x y z
#    x 1.832180 0.000000 -0.001850 
#    y 0.000000 1.786120 0.000000 
#    z -0.001850 0.000000 1.845270 
# 
# From -- ./inp_files/6333.got.cif
#   From: 2010.06.25/outbox.cif.g09.slc.cpg/sg9_4_cif.got.tgz:6333.got - 2010.06.27 21:40:51.
