data_PCOD8055087
_publ_section_title
;
Structure prediction by ZEFSAII (Michael W. Deem and Ramdas Pophale) SiO2 
 PCOD8055087
Probable space group: C C
;
_chemical_formula_sum "Si O2"
_cell_formula_units_Z 32
_cell_length_a 10.905826
_cell_length_b 9.599519
_cell_length_c 14.742344
_cell_angle_alpha 90.000000
_cell_angle_beta 122.373854
_cell_angle_gamma 90.000000
_cell_volume 1303.501210
_symmetry_space_group_name_H-M "C C"
_symmetry_group_IT_number 9
_symmetry_cell_setting 'monoclinic'
loop_
_space_group_symop_operation_xyz
x,y,z
x,-y,1/2+z
1/2+x,1/2+y,z
1/2+x,1/2-y,1/2+z
loop_
_atom_site_type_symbol
_atom_site_label
_atom_site_fract_x
_atom_site_fract_y
_atom_site_fract_z
Si Si1 0.571310 0.957205 0.969440
Si Si2 0.115926 0.246854 0.148220
Si Si3 0.834708 0.958800 0.316182
Si Si4 0.800969 0.598466 0.937632
Si Si5 0.629873 0.496070 0.526684
Si Si6 0.631558 0.170540 0.311071
Si Si7 0.494870 0.303650 0.100720
Si Si8 0.370649 0.570418 0.137000
O O1 0.543258 0.868862 0.866769
O O2 0.426228 0.047107 0.921764
O O3 0.574233 0.859619 0.057589
O O4 0.711627 0.061272 0.025841
O O5 0.242851 0.316637 0.260574
O O6 0.969503 0.204127 0.146873
O O7 0.184289 0.111661 0.125585
O O8 0.986089 0.924821 0.425702
O O9 0.753703 0.052889 0.357504
O O10 0.855925 0.062385 0.239241
O O11 0.747726 0.487373 0.992401
O O12 0.671501 0.662968 0.826459
O O13 0.845292 0.745738 0.001672
O O14 0.604185 0.648080 0.562333
O O15 0.547163 0.169731 0.181166
O O16 0.461037 0.434650 0.148140
#
# Coordination Sequence:
#
# PCOD8055087 Si02
#       8
#     4   4   4   4   4   4   4   4
#     4  11  24  44  69 104 145 187 226 289 352 409
#     4  10  22  45  73 101 138 183 231 290 350 419
#     4  11  23  44  71 102 143 184 229 293 356 407
#     4  12  24  44  71 101 142 187 233 285 348 422
#     4  11  23  46  71 103 144 185 231 294 354 412
#     4  12  24  46  69  98 145 185 231 293 350 413
#     4  11  23  44  74  98 141 187 232 292 344 419
#     4  10  21  43  72 105 140 182 231 288 354 411
#
# _framework density 24.549268000000001
#
# number of rings (size 3 to 8) (size 9 to 14) (size 15 to 20)
#    0.000    1.000    3.750    3.750    0.000    4.000 
#    6.750    0.000    0.000    0.000    0.000    0.000 
#    0.000    0.000    0.000    0.000    0.000    0.000 
#
# Total GULP energy -198246.342271 kJ/mol
# GULP energy per Si atom -12390.396392 kJ/mol
# Density = 2.449339 g / cm^3
# Si number density = 24.549268 Si / 1000 Ang^3
#
#
#
# Elastic Constant Matrix: (Units=GPa)
#
#
# Indices 1 2 3 4 5 6 
#
# 1 142.9016 43.9294 39.2450 0.0000 -5.5056 0.0000
# 2 43.9294 67.3530 38.7475 0.0000 -3.0363 0.0000
# 3 39.2450 38.7475 88.8023 0.0000 -7.7628 0.0000
# 4 0.0000 0.0000 0.0000 20.5347 0.0000 7.8385
# 5 -5.5056 -3.0363 -7.7628 0.0000 18.3228 0.0000
# 6 0.0000 0.0000 0.0000 7.8385 0.0000 41.0000
#
#
#
# Elastic Compliance Matrix: (Units=1/GPa)
#
#
# Indices 1 2 3 4 5 6 
#
# 1 0.009007 -0.004794 -0.001788 0.000000 0.001155 0.000000
# 2 -0.004794 0.022378 -0.007734 0.000000 -0.001009 0.000000
# 3 -0.001788 -0.007734 0.015854 0.000000 0.004898 0.000000
# 4 0.000000 0.000000 0.000000 0.052532 0.000000 -0.010043
# 5 0.001155 -0.001009 0.004898 0.000000 0.056832 0.000000
# 6 0.000000 0.000000 0.000000 -0.010043 0.000000 0.026310
#
#
# Mechanical properties :
#
#
# Convention : Reuss Voigt Hill
#
# Bulk Modulus (GPa) = 53.74233 60.32229 57.03231
# Shear Modulus (GPa) = 22.96259 27.78049 25.37154
#
# Velocity S-wave (km/s) = 3.06170 3.36761 3.21829
# Velocity P-wave (km/s) = 5.86837 6.30447 6.09032
#
# Compressibility (1/GPa) = 0.01860731
#
# Stress axis : x y z
#
# Youngs Moduli (GPa) = 111.02434 44.68764 63.07692
#
# Poissons Ratio (x) = 0.21424 0.11277
# Poissons Ratio (y) = 0.53226 0.48781
# Poissons Ratio (z) = 0.19849 0.34560
#
# Static dielectric constant tensor:
#      x y z
#    x 4.652310 0.000000 -0.139660 
#    y 0.000000 4.182590 0.000000 
#    z -0.139660 0.000000 4.372200 
# 
# 
# High freq. dielectric constant tensor:
#      x y z
#    x 1.978950 0.000000 -0.007390 
#    y 0.000000 1.959680 0.000000 
#    z -0.007390 0.000000 1.981450 
# 
# From -- ./inp_files/24195.got.cif
#   From: 2010.06.25/outbox.cif.g09.slc.cpg/sg9_13_cif.got.tgz:24195.got - 2010.06.27 21:40:51.
