data_PCOD8055710
_publ_section_title
;
Structure prediction by ZEFSAII (Michael W. Deem and Ramdas Pophale) SiO2 
 PCOD8055710
Probable space group: C C
;
_chemical_formula_sum "Si O2"
_cell_formula_units_Z 32
_cell_length_a 13.827361
_cell_length_b 10.143931
_cell_length_c 19.868349
_cell_angle_alpha 90.000000
_cell_angle_beta 30.901068
_cell_angle_gamma 90.000000
_cell_volume 1431.186495
_symmetry_space_group_name_H-M "C C"
_symmetry_group_IT_number 9
_symmetry_cell_setting 'monoclinic'
loop_
_space_group_symop_operation_xyz
x,y,z
x,-y,1/2+z
1/2+x,1/2+y,z
1/2+x,1/2-y,1/2+z
loop_
_atom_site_type_symbol
_atom_site_label
_atom_site_fract_x
_atom_site_fract_y
_atom_site_fract_z
Si Si1 0.680720 0.580113 0.195900
Si Si2 0.326503 0.638682 0.602829
Si Si3 0.359608 0.866287 0.187506
Si Si4 0.758437 0.935316 0.994082
Si Si5 0.759391 0.549675 0.513838
Si Si6 0.105832 0.313662 0.638679
Si Si7 0.232341 0.963185 0.878648
Si Si8 0.171370 0.380024 0.748007
O O1 0.778814 0.716517 0.159872
O O2 0.771220 0.459013 0.182331
O O3 0.457273 0.594075 0.340837
O O4 0.718819 0.560907 0.093644
O O5 0.239723 0.624475 0.580212
O O6 0.547902 0.615254 0.467303
O O7 0.240764 0.531068 0.705229
O O8 0.305629 0.712873 0.212166
O O9 0.264558 0.907409 0.314838
O O10 0.586629 0.876508 0.052520
O O11 0.732644 0.093375 0.014874
O O12 0.606654 0.666025 0.610144
O O13 0.740787 0.486740 0.450771
O O14 0.962493 0.617883 0.403407
O O15 0.186585 0.316426 0.665412
O O16 0.891769 0.358421 0.766331
#
# Coordination Sequence:
#
# PCOD8055710 Si02
#       8
#     4   4   4   4   4   4   4   4
#     4  12  26  45  72 106 143 185 231 301 351 423
#     4  11  26  46  68  99 150 183 225 295 362 416
#     4  11  23  48  77 101 136 192 238 292 348 421
#     4  10  24  46  70 101 146 184 233 290 359 412
#     4  11  24  42  70 106 140 178 244 287 352 421
#     4   9  20  42  71 102 133 184 231 293 337 419
#     4  10  24  42  71 101 141 185 233 292 359 414
#     4  10  23  45  71 100 135 183 235 288 344 422
#
# _framework density 22.359072000000001
#
# number of rings (size 3 to 8) (size 9 to 14) (size 15 to 20)
#    0.000    1.500    2.500    1.500    8.750    1.000 
#   11.250    0.000    0.000    0.000    0.000    0.000 
#    0.000    0.000    0.000    0.000    0.000    0.000 
#
# Total GULP energy -198445.355138 kJ/mol
# GULP energy per Si atom -12402.834696 kJ/mol
# Density = 2.230818 g / cm^3
# Si number density = 22.359072 Si / 1000 Ang^3
#
#
#
# Elastic Constant Matrix: (Units=GPa)
#
#
# Indices 1 2 3 4 5 6 
#
# 1 94.0704 39.6626 50.7077 -0.0031 -7.1278 0.0004
# 2 39.6626 124.1591 37.8340 0.0019 3.9068 -0.0011
# 3 50.7077 37.8340 120.1345 0.0012 -8.1283 -0.0023
# 4 -0.0031 0.0019 0.0012 15.6666 0.0000 2.9456
# 5 -7.1278 3.9068 -8.1283 0.0000 44.6221 -0.0002
# 6 0.0004 -0.0011 -0.0023 2.9456 -0.0002 32.8335
#
#
#
# Elastic Compliance Matrix: (Units=1/GPa)
#
#
# Indices 1 2 3 4 5 6 
#
# 1 0.014908 -0.003246 -0.005153 0.000004 0.001727 -0.000001
# 2 -0.003246 0.009692 -0.001797 -0.000002 -0.001694 0.000000
# 3 -0.005153 -0.001797 0.011157 -0.000002 0.001367 0.000001
# 4 0.000004 -0.000002 -0.000002 0.064925 0.000000 -0.005825
# 5 0.001727 -0.001694 0.001367 0.000000 0.023084 0.000000
# 6 -0.000001 0.000000 0.000001 -0.005825 0.000000 0.030979
#
#
# Mechanical properties :
#
#
# Convention : Reuss Voigt Hill
#
# Bulk Modulus (GPa) = 65.08431 66.08586 65.58508
# Shear Modulus (GPa) = 27.73782 32.63507 30.18644
#
# Velocity S-wave (km/s) = 3.52598 3.82460 3.67832
# Velocity P-wave (km/s) = 6.76377 7.00887 6.88741
#
# Compressibility (1/GPa) = 0.01536469
#
# Stress axis : x y z
#
# Youngs Moduli (GPa) = 67.07948 103.17756 89.62636
#
# Poissons Ratio (x) = 0.33495 0.46186
# Poissons Ratio (y) = 0.21776 0.16103
# Poissons Ratio (z) = 0.34567 0.18538
#
# Static dielectric constant tensor:
#      x y z
#    x 4.096480 0.000000 0.018830 
#    y 0.000000 3.873410 0.000000 
#    z 0.018830 0.000000 4.083750 
# 
# 
# High freq. dielectric constant tensor:
#      x y z
#    x 1.878800 0.000000 -0.006610 
#    y 0.000000 1.874670 0.000000 
#    z -0.006610 0.000000 1.886420 
# 
# From -- ./inp_files/33709.got.cif
#   From: 2010.06.25/outbox.cif.g09.slc.cpg/sg9_17_cif.got.tgz:33709.got - 2010.06.27 21:40:51.
