data_PCOD8055230
_publ_section_title
;
Structure prediction by ZEFSAII (Michael W. Deem and Ramdas Pophale) SiO2 
 PCOD8055230
Probable space group: C C
;
_chemical_formula_sum "Si O2"
_cell_formula_units_Z 32
_cell_length_a 20.381743
_cell_length_b 13.396374
_cell_length_c 13.839595
_cell_angle_alpha 90.000000
_cell_angle_beta 158.220171
_cell_angle_gamma 90.000000
_cell_volume 1402.083234
_symmetry_space_group_name_H-M "C C"
_symmetry_group_IT_number 9
_symmetry_cell_setting 'monoclinic'
loop_
_space_group_symop_operation_xyz
x,y,z
x,-y,1/2+z
1/2+x,1/2+y,z
1/2+x,1/2-y,1/2+z
loop_
_atom_site_type_symbol
_atom_site_label
_atom_site_fract_x
_atom_site_fract_y
_atom_site_fract_z
Si Si1 0.008760 0.254199 0.590430
Si Si2 0.784478 0.856482 0.251902
Si Si3 0.995509 0.965221 0.383698
Si Si4 0.192554 0.633758 0.190867
Si Si5 0.445954 0.974225 0.765825
Si Si6 0.877009 0.527876 0.959485
Si Si7 0.195410 0.165181 0.028085
Si Si8 0.238544 0.455609 0.384374
O O1 0.119032 0.267780 0.643574
O O2 0.855604 0.175266 0.350686
O O3 0.933977 0.359692 0.521149
O O4 0.139007 0.214776 0.850922
O O5 0.808730 0.742358 0.250210
O O6 0.790154 0.867812 0.377513
O O7 0.925875 0.929798 0.393246
O O8 0.594189 0.890271 0.951895
O O9 0.022306 0.868043 0.351838
O O10 0.188080 0.013438 0.652890
O O11 0.860085 0.043768 0.147051
O O12 0.279223 0.558588 0.385666
O O13 0.035567 0.578916 0.919142
O O14 0.346268 0.994577 0.530128
O O15 0.312903 0.933379 0.665540
O O16 0.029691 0.452909 0.126791
#
# Coordination Sequence:
#
# PCOD8055230 Si02
#       8
#     4   4   4   4   4   4   4   4
#     4  11  21  39  66 101 131 170 237 288 337 402
#     4  11  23  40  69 100 138 178 233 291 347 401
#     4  12  24  41  69 103 135 184 230 283 359 417
#     4  10  22  40  65 100 135 172 224 294 342 399
#     4  11  23  42  68 100 144 183 227 291 353 410
#     4  11  24  43  68  99 141 185 232 288 352 417
#     4  12  23  40  71 103 132 181 240 294 340 418
#     4  10  22  45  62 102 138 179 225 291 350 416
#
# _framework density 22.823181999999999
#
# number of rings (size 3 to 8) (size 9 to 14) (size 15 to 20)
#    0.000    1.000    3.750    4.500    1.750    2.000 
#    0.000    1.250    0.000    0.000    0.000    0.000 
#    0.000    0.000    0.000    0.000    0.000    0.000 
#
# Total GULP energy -198304.458501 kJ/mol
# GULP energy per Si atom -12394.028656 kJ/mol
# Density = 2.277124 g / cm^3
# Si number density = 22.823182 Si / 1000 Ang^3
#
#
#
# Elastic Constant Matrix: (Units=GPa)
#
#
# Indices 1 2 3 4 5 6 
#
# 1 84.5096 17.4710 23.3243 0.0000 2.8612 0.0000
# 2 17.4710 53.7510 18.3815 0.0000 -3.2969 0.0000
# 3 23.3243 18.3815 113.9852 0.0000 -6.3058 0.0000
# 4 0.0000 0.0000 0.0000 36.7159 0.0000 5.5940
# 5 2.8612 -3.2969 -6.3058 0.0000 35.2083 0.0000
# 6 0.0000 0.0000 0.0000 5.5940 0.0000 29.3566
#
#
#
# Elastic Compliance Matrix: (Units=1/GPa)
#
#
# Indices 1 2 3 4 5 6 
#
# 1 0.013266 -0.003663 -0.002225 0.000000 -0.001819 0.000000
# 2 -0.003663 0.020759 -0.002499 0.000000 0.001794 0.000000
# 3 -0.002225 -0.002499 0.009725 0.000000 0.001688 0.000000
# 4 0.000000 0.000000 0.000000 0.028051 0.000000 -0.005345
# 5 -0.001819 0.001794 0.001688 0.000000 0.029021 0.000000
# 6 0.000000 0.000000 0.000000 -0.005345 0.000000 0.035082
#
#
# Mechanical properties :
#
#
# Convention : Reuss Voigt Hill
#
# Bulk Modulus (GPa) = 37.06801 41.17771 39.12286
# Shear Modulus (GPa) = 30.92751 33.12742 32.02747
#
# Velocity S-wave (km/s) = 3.68515 3.81396 3.75011
# Velocity P-wave (km/s) = 5.86377 6.12179 5.99417
#
# Compressibility (1/GPa) = 0.02697744
#
# Stress axis : x y z
#
# Youngs Moduli (GPa) = 75.38216 48.17085 102.83134
#
# Poissons Ratio (x) = 0.17644 0.22875
# Poissons Ratio (y) = 0.27610 0.25697
# Poissons Ratio (z) = 0.16769 0.12038
#
# Static dielectric constant tensor:
#      x y z
#    x 4.411240 0.000000 0.203750 
#    y 0.000000 3.897090 0.000000 
#    z 0.203750 0.000000 3.953650 
# 
# 
# High freq. dielectric constant tensor:
#      x y z
#    x 1.911100 0.000000 0.013820 
#    y 0.000000 1.876170 0.000000 
#    z 0.013820 0.000000 1.894600 
# 
# From -- ./inp_files/11798.got.cif
#   From: 2010.06.25/outbox.cif.g09.slc.cpg/sg9_6_cif.got.tgz:11798.got - 2010.06.27 21:40:51.
