data_PCOD8055862
_publ_section_title
;
Structure prediction by ZEFSAII (Michael W. Deem and Ramdas Pophale) SiO2 
 PCOD8055862
Probable space group: C C
;
_chemical_formula_sum "Si O2"
_cell_formula_units_Z 28
_cell_length_a 8.303401
_cell_length_b 16.207642
_cell_length_c 10.349451
_cell_angle_alpha 90.000000
_cell_angle_beta 111.911023
_cell_angle_gamma 90.000000
_cell_volume 1292.203463
_symmetry_space_group_name_H-M "C C"
_symmetry_group_IT_number 9
_symmetry_cell_setting 'monoclinic'
loop_
_space_group_symop_operation_xyz
x,y,z
x,-y,1/2+z
1/2+x,1/2+y,z
1/2+x,1/2-y,1/2+z
loop_
_atom_site_type_symbol
_atom_site_label
_atom_site_fract_x
_atom_site_fract_y
_atom_site_fract_z
Si Si1 0.211600 0.095473 0.117010
Si Si2 0.041905 0.076440 0.634846
Si Si3 0.339788 0.822458 0.119211
Si Si4 0.011271 0.497135 0.104126
Si Si5 0.922102 0.870904 0.363606
Si Si6 0.680990 0.269152 0.806707
Si Si7 0.728230 0.989459 0.915657
O O1 0.379383 0.073272 0.082039
O O2 0.232797 0.144391 0.256780
O O3 0.134953 0.008056 0.131977
O O4 0.097045 0.155253 0.990757
O O5 0.176020 0.152874 0.661203
O O6 0.972487 0.071177 0.759287
O O7 0.871007 0.081824 0.490570
O O8 0.479124 0.760423 0.230035
O O9 0.437124 0.906268 0.109463
O O10 0.244958 0.775610 0.973170
O O11 0.158984 0.522725 0.250250
O O12 0.076540 0.494488 0.976505
O O13 0.807738 0.796332 0.275438
O O14 0.817668 0.921088 0.441871
#
# Coordination Sequence:
#
# PCOD8055862 Si02
#       7
#     4   4   4   4   4   4   4
#     4  10  25  39  72  98 130 182 233 277 351 414
#     4  10  24  44  67 100 133 183 233 289 336 421
#     4  11  25  44  72  96 148 179 237 285 359 419
#     4  11  23  42  72 105 135 182 236 292 340 429
#     4  11  23  43  64  95 146 173 221 289 349 414
#     4  12  23  47  65 104 138 187 220 297 356 418
#     4  11  21  41  70 100 136 176 232 287 347 401
#
# _framework density 21.668413999999999
#
# number of rings (size 3 to 8) (size 9 to 14) (size 15 to 20)
#    0.000    1.143    4.286    0.857   10.000    0.000 
#    5.143    0.000    0.000    0.000    0.000    0.000 
#    0.000    0.000    0.000    0.000    0.000    0.000 
#
# Total GULP energy -173451.985320 kJ/mol
# GULP energy per Si atom -12389.427523 kJ/mol
# Density = 2.161910 g / cm^3
# Si number density = 21.668414 Si / 1000 Ang^3
#
#
#
# Elastic Constant Matrix: (Units=GPa)
#
#
# Indices 1 2 3 4 5 6 
#
# 1 112.0384 36.0486 26.5405 0.0000 6.8931 0.0000
# 2 36.0486 51.3245 22.0248 0.0000 12.7311 0.0000
# 3 26.5405 22.0248 108.1937 0.0000 19.2343 0.0000
# 4 0.0000 0.0000 0.0000 23.4301 0.0000 -4.2245
# 5 6.8931 12.7311 19.2343 0.0000 39.2095 0.0000
# 6 0.0000 0.0000 0.0000 -4.2245 0.0000 19.7429
#
#
#
# Elastic Compliance Matrix: (Units=1/GPa)
#
#
# Indices 1 2 3 4 5 6 
#
# 1 0.011751 -0.007921 -0.001490 0.000000 0.001237 0.000000
# 2 -0.007921 0.027726 -0.002573 0.000000 -0.006348 0.000000
# 3 -0.001490 -0.002573 0.010886 0.000000 -0.004243 0.000000
# 4 0.000000 0.000000 0.000000 0.044393 0.000000 0.009499
# 5 0.001237 -0.006348 -0.004243 0.000000 0.029429 0.000000
# 6 0.000000 0.000000 0.000000 0.009499 0.000000 0.052684
#
#
# Mechanical properties :
#
#
# Convention : Reuss Voigt Hill
#
# Bulk Modulus (GPa) = 37.88449 48.97604 43.43027
# Shear Modulus (GPa) = 23.85111 28.93936 26.39523
#
# Velocity S-wave (km/s) = 3.32133 3.65849 3.49398
# Velocity P-wave (km/s) = 5.67715 6.36378 6.03024
#
# Compressibility (1/GPa) = 0.02639603
#
# Stress axis : x y z
#
# Youngs Moduli (GPa) = 85.09968 36.06752 91.85952
#
# Poissons Ratio (x) = 0.28569 0.13687
# Poissons Ratio (y) = 0.67406 0.23631
# Poissons Ratio (z) = 0.12680 0.09279
#
# Static dielectric constant tensor:
#      x y z
#    x 4.360470 0.000000 0.406730 
#    y 0.000000 3.721940 0.000000 
#    z 0.406730 0.000000 4.045370 
# 
# 
# High freq. dielectric constant tensor:
#      x y z
#    x 1.859290 0.000000 0.016120 
#    y 0.000000 1.828860 0.000000 
#    z 0.016120 0.000000 1.861300 
# 
# From -- ./inp_files/5388.got.cif
#   From: 2010.06.25/outbox.cif.g09.slc.cpg/sg9_3_cif.got.tgz:5388.got - 2010.06.27 21:40:51.
