data_PCOD8055822
_publ_section_title
;
Structure prediction by ZEFSAII (Michael W. Deem and Ramdas Pophale) SiO2 
 PCOD8055822
Probable space group: C C
;
_chemical_formula_sum "Si O2"
_cell_formula_units_Z 32
_cell_length_a 14.782876
_cell_length_b 11.665362
_cell_length_c 8.681365
_cell_angle_alpha 90.000000
_cell_angle_beta 98.307753
_cell_angle_gamma 90.000000
_cell_volume 1481.370564
_symmetry_space_group_name_H-M "C C"
_symmetry_group_IT_number 9
_symmetry_cell_setting 'monoclinic'
loop_
_space_group_symop_operation_xyz
x,y,z
x,-y,1/2+z
1/2+x,1/2+y,z
1/2+x,1/2-y,1/2+z
loop_
_atom_site_type_symbol
_atom_site_label
_atom_site_fract_x
_atom_site_fract_y
_atom_site_fract_z
Si Si1 0.541710 0.492305 0.575190
Si Si2 0.830899 0.725116 0.133101
Si Si3 0.597480 0.079915 0.500249
Si Si4 0.509203 0.117515 0.173103
Si Si5 0.641864 0.281625 0.080929
Si Si6 0.909725 0.056890 0.780184
Si Si7 0.142764 0.785305 0.727288
Si Si8 0.266560 0.636189 0.340834
O O1 0.628319 0.580150 0.585546
O O2 0.446751 0.541516 0.616997
O O3 0.504143 0.447427 0.401894
O O4 0.572072 0.388507 0.692736
O O5 0.900075 0.618256 0.123754
O O6 0.863850 0.817124 0.271193
O O7 0.736532 0.673323 0.171191
O O8 0.823035 0.780605 0.963604
O O9 0.518393 0.101500 0.357894
O O10 0.601452 0.178198 0.627330
O O11 0.691766 0.069216 0.427385
O O12 0.571192 0.967394 0.587949
O O13 0.545138 0.241073 0.127315
O O14 0.722041 0.220504 0.200228
O O15 0.656497 0.247763 0.906923
O O16 0.832130 0.960038 0.785630
#
# Coordination Sequence:
#
# PCOD8055822 Si02
#       8
#     4   4   4   4   4   4   4   4
#     4  12  25  45  71  96 138 180 224 270 344 400
#     4  11  25  43  65  99 137 169 225 281 330 387
#     4  10  24  42  70  94 133 176 216 268 338 393
#     4  11  22  45  66 100 130 173 218 280 322 402
#     4  11  24  43  70  96 134 178 218 274 337 397
#     4  12  23  43  69 102 131 174 227 280 324 395
#     4  11  26  44  68  98 133 180 223 270 337 400
#     4  10  25  41  67 103 132 172 221 279 328 400
#
# _framework density 21.601616
#
# number of rings (size 3 to 8) (size 9 to 14) (size 15 to 20)
#    0.000    1.000    3.750    1.500   14.000    0.000 
#    4.500    0.000    0.000    0.000    0.000    0.000 
#    0.000    0.000    0.000    0.000    0.000    0.000 
#
# Total GULP energy -198283.397967 kJ/mol
# GULP energy per Si atom -12392.712373 kJ/mol
# Density = 2.155245 g / cm^3
# Si number density = 21.601616 Si / 1000 Ang^3
#
#
#
# Elastic Constant Matrix: (Units=GPa)
#
#
# Indices 1 2 3 4 5 6 
#
# 1 82.7441 34.6636 29.8018 0.0000 16.1152 0.0000
# 2 34.6636 76.5200 43.4426 0.0000 12.5373 0.0000
# 3 29.8018 43.4426 131.3565 0.0000 11.4329 0.0000
# 4 0.0000 0.0000 0.0000 7.0669 0.0000 -24.0012
# 5 16.1152 12.5373 11.4329 0.0000 27.5269 0.0000
# 6 0.0000 0.0000 0.0000 -24.0012 0.0000 6.7307
#
#
#
# Elastic Compliance Matrix: (Units=1/GPa)
#
#
# Indices 1 2 3 4 5 6 
#
# 1 0.016101 -0.005528 -0.001269 0.000000 -0.006381 0.000000
# 2 -0.005528 0.018772 -0.004660 0.000000 -0.003378 0.000000
# 3 -0.001269 -0.004660 0.009537 0.000000 -0.001096 0.000000
# 4 0.000000 0.000000 0.000000 -0.012736 0.000000 -0.045414
# 5 -0.006381 -0.003378 -0.001096 0.000000 0.042058 0.000000
# 6 0.000000 0.000000 0.000000 -0.045414 0.000000 -0.013372
#
#
# Mechanical properties :
#
#
# Convention : Reuss Voigt Hill
#
# Bulk Modulus (GPa) = 46.52045 56.27075 51.39560
# Shear Modulus (GPa) = 55.28526 20.44574 37.86550
#
# Velocity S-wave (km/s) = 5.06445 3.07985 4.19131
# Velocity P-wave (km/s) = 7.46864 6.22520 6.87509
#
# Compressibility (1/GPa) = 0.02149592
#
# Stress axis : x y z
#
# Youngs Moduli (GPa) = 62.10740 53.27185 104.84988
#
# Poissons Ratio (x) = 0.29446 0.13310
# Poissons Ratio (y) = 0.34330 0.48861
# Poissons Ratio (z) = 0.07884 0.24825
#
# Static dielectric constant tensor:
#      x y z
#    x 3.779490 0.000000 0.095130 
#    y 0.000000 3.726170 0.000000 
#    z 0.095130 0.000000 4.059730 
# 
# 
# High freq. dielectric constant tensor:
#      x y z
#    x 1.846480 0.000000 0.003280 
#    y 0.000000 1.839530 0.000000 
#    z 0.003280 0.000000 1.863380 
# 
# From -- ./inp_files/9124.got.cif
#   From: 2010.06.25/outbox.cif.g09.slc.cpg/sg9_5_cif.got.tgz:9124.got - 2010.06.27 21:40:51.
