data_PCOD8055561
_publ_section_title
;
Structure prediction by ZEFSAII (Michael W. Deem and Ramdas Pophale) SiO2 
 PCOD8055561
Probable space group: C C
;
_chemical_formula_sum "Si O2"
_cell_formula_units_Z 28
_cell_length_a 4.946320
_cell_length_b 18.215077
_cell_length_c 14.374508
_cell_angle_alpha 90.000000
_cell_angle_beta 108.781142
_cell_angle_gamma 90.000000
_cell_volume 1226.150966
_symmetry_space_group_name_H-M "C C"
_symmetry_group_IT_number 9
_symmetry_cell_setting 'monoclinic'
loop_
_space_group_symop_operation_xyz
x,y,z
x,-y,1/2+z
1/2+x,1/2+y,z
1/2+x,1/2-y,1/2+z
loop_
_atom_site_type_symbol
_atom_site_label
_atom_site_fract_x
_atom_site_fract_y
_atom_site_fract_z
Si Si1 0.038290 0.382872 0.108380
Si Si2 0.163617 0.999345 0.829090
Si Si3 0.430847 0.292322 0.801401
Si Si4 0.255917 0.036345 0.044238
Si Si5 0.167482 0.856838 0.228963
Si Si6 0.008622 0.354170 0.896382
Si Si7 0.824049 0.087719 0.153090
O O1 0.326545 0.365453 0.197387
O O2 0.954370 0.467507 0.093149
O O3 0.777960 0.345925 0.135609
O O4 0.089502 0.349363 0.012975
O O5 0.296875 0.069252 0.789508
O O6 0.393580 0.934022 0.854016
O O7 0.100657 0.025236 0.928099
O O8 0.878648 0.968721 0.745960
O O9 0.283370 0.213580 0.796919
O O10 0.771365 0.290573 0.854540
O O11 0.391175 0.329777 0.695463
O O12 0.290541 0.342453 0.866501
O O13 0.501953 0.097764 0.078550
O O14 0.015738 0.056853 0.090858
#
# Coordination Sequence:
#
# PCOD8055561 Si02
#       7
#     4   4   4   4   4   4   4
#     4  11  22  41  69  97 128 177 222 277 325 404
#     4  10  23  41  71  96 127 170 220 287 319 389
#     4  11  24  43  65  96 134 181 210 272 338 404
#     4  11  22  39  67 101 123 171 226 269 330 386
#     4  12  24  42  66  98 137 167 222 278 339 379
#     4  10  23  44  69  91 130 177 229 259 338 407
#     4  11  22  42  65  91 137 169 217 268 327 405
#
# _framework density 22.835685000000002
#
# number of rings (size 3 to 8) (size 9 to 14) (size 15 to 20)
#    0.000    1.143    2.857    3.429    0.000    8.000 
#    7.714    0.000    0.000    0.000    0.000    0.000 
#    0.000    0.000    0.000    0.000    0.000    0.000 
#
# Total GULP energy -173504.232360 kJ/mol
# GULP energy per Si atom -12393.159454 kJ/mol
# Density = 2.278371 g / cm^3
# Si number density = 22.835685 Si / 1000 Ang^3
#
#
#
# Elastic Constant Matrix: (Units=GPa)
#
#
# Indices 1 2 3 4 5 6 
#
# 1 89.0093 -6.5231 35.3858 0.0000 -7.2093 0.0000
# 2 -6.5231 93.3968 23.2423 0.0000 2.3334 0.0000
# 3 35.3858 23.2423 101.0698 0.0000 -10.8736 0.0000
# 4 0.0000 0.0000 0.0000 15.2983 0.0000 0.0873
# 5 -7.2093 2.3334 -10.8736 0.0000 36.2137 0.0000
# 6 0.0000 0.0000 0.0000 0.0873 0.0000 24.1516
#
#
#
# Elastic Compliance Matrix: (Units=1/GPa)
#
#
# Indices 1 2 3 4 5 6 
#
# 1 0.013516 0.002195 -0.005128 0.000000 0.001009 0.000000
# 2 0.002195 0.011800 -0.003634 0.000000 -0.001415 0.000000
# 3 -0.005128 -0.003634 0.012856 0.000000 0.003073 0.000000
# 4 0.000000 0.000000 0.000000 0.065368 0.000000 -0.000236
# 5 0.001009 -0.001415 0.003073 0.000000 0.028829 0.000000
# 6 0.000000 0.000000 0.000000 -0.000236 0.000000 0.041406
#
#
# Mechanical properties :
#
#
# Convention : Reuss Voigt Hill
#
# Bulk Modulus (GPa) = 39.94074 43.07621 41.50848
# Shear Modulus (GPa) = 25.60736 30.55743 28.08240
#
# Velocity S-wave (km/s) = 3.35233 3.66203 3.51060
# Velocity P-wave (km/s) = 5.70198 6.06508 5.88633
#
# Compressibility (1/GPa) = 0.02503709
#
# Stress axis : x y z
#
# Youngs Moduli (GPa) = 73.98531 84.74535 77.78430
#
# Poissons Ratio (x) = -0.18602 0.39891
# Poissons Ratio (y) = -0.16240 0.28269
# Poissons Ratio (z) = 0.37942 0.30799
#
# Static dielectric constant tensor:
#      x y z
#    x 3.939790 0.000000 0.004290 
#    y 0.000000 4.049600 0.000000 
#    z 0.004290 0.000000 4.247880 
# 
# 
# High freq. dielectric constant tensor:
#      x y z
#    x 1.902210 0.000000 -0.003930 
#    y 0.000000 1.882340 0.000000 
#    z -0.003930 0.000000 1.902400 
# 
# From -- ./inp_files/21871.got.cif
#   From: 2010.06.25/outbox.cif.g09.slc.cpg/sg9_11_cif.got.tgz:21871.got - 2010.06.27 21:40:51.
