data_PCOD8055859
_publ_section_title
;
Structure prediction by ZEFSAII (Michael W. Deem and Ramdas Pophale) SiO2 
 PCOD8055859
Probable space group: C C
;
_chemical_formula_sum "Si O2"
_cell_formula_units_Z 28
_cell_length_a 12.982091
_cell_length_b 6.554555
_cell_length_c 16.187921
_cell_angle_alpha 90.000000
_cell_angle_beta 107.792504
_cell_angle_gamma 90.000000
_cell_volume 1311.575055
_symmetry_space_group_name_H-M "C C"
_symmetry_group_IT_number 9
_symmetry_cell_setting 'monoclinic'
loop_
_space_group_symop_operation_xyz
x,y,z
x,-y,1/2+z
1/2+x,1/2+y,z
1/2+x,1/2-y,1/2+z
loop_
_atom_site_type_symbol
_atom_site_label
_atom_site_fract_x
_atom_site_fract_y
_atom_site_fract_z
Si Si1 0.531330 0.378714 0.527190
Si Si2 0.409374 0.403201 0.866920
Si Si3 0.294144 0.990353 0.317379
Si Si4 0.188312 0.483885 0.069531
Si Si5 0.295470 0.687923 0.950396
Si Si6 0.385306 0.317822 0.213474
Si Si7 0.100725 0.198752 0.675780
O O1 0.516588 0.533068 0.445347
O O2 0.414033 0.282690 0.521854
O O3 0.580688 0.498744 0.616116
O O4 0.609379 0.195067 0.520429
O O5 0.394684 0.159986 0.861874
O O6 0.304047 0.503201 0.886118
O O7 0.418592 0.486738 0.776194
O O8 0.192962 0.856689 0.263825
O O9 0.261529 0.107612 0.393267
O O10 0.333493 0.142038 0.256161
O O11 0.302134 0.384109 0.122310
O O12 0.137898 0.606034 0.133190
O O13 0.206404 0.637984 0.997553
O O14 0.492163 0.232251 0.195516
#
# Coordination Sequence:
#
# PCOD8055859 Si02
#       7
#     4   4   4   4   4   4   4
#     4  10  24  44  66 100 135 176 235 279 350 411
#     4   9  22  45  67  95 141 177 228 288 339 417
#     4  11  23  48  70 100 140 189 225 286 362 401
#     4  12  24  45  71 102 139 185 227 291 351 409
#     4   9  24  45  69  98 142 176 233 291 330 432
#     4  11  23  45  66 102 139 170 236 289 333 422
#     4  12  26  40  73 101 132 187 228 284 351 412
#
# _framework density 21.348379000000001
#
# number of rings (size 3 to 8) (size 9 to 14) (size 15 to 20)
#    0.857    0.571    4.286    0.000    2.000    5.714 
#    0.000    0.000    0.000    0.000    0.000    0.000 
#    0.000    0.000    0.000    0.000    0.000    0.000 
#
# Total GULP energy -173597.999849 kJ/mol
# GULP energy per Si atom -12399.857132 kJ/mol
# Density = 2.129979 g / cm^3
# Si number density = 21.348379 Si / 1000 Ang^3
#
#
#
# Elastic Constant Matrix: (Units=GPa)
#
#
# Indices 1 2 3 4 5 6 
#
# 1 113.1946 35.4787 38.9954 0.0000 -5.2410 0.0000
# 2 35.4787 95.6351 50.5718 0.0000 2.2256 0.0000
# 3 38.9954 50.5718 95.0997 0.0000 9.0436 0.0000
# 4 0.0000 0.0000 0.0000 39.7433 0.0000 3.8742
# 5 -5.2410 2.2256 9.0436 0.0000 27.1745 0.0000
# 6 0.0000 0.0000 0.0000 3.8742 0.0000 30.7753
#
#
#
# Elastic Compliance Matrix: (Units=1/GPa)
#
#
# Indices 1 2 3 4 5 6 
#
# 1 0.010946 -0.002216 -0.003644 0.000000 0.003505 0.000000
# 2 -0.002216 0.015049 -0.007163 0.000000 0.000724 0.000000
# 3 -0.003644 -0.007163 0.016347 0.000000 -0.005556 0.000000
# 4 0.000000 0.000000 0.000000 0.025474 0.000000 -0.003207
# 5 0.003505 0.000724 -0.005556 0.000000 0.039265 0.000000
# 6 0.000000 0.000000 0.000000 -0.003207 0.000000 0.032897
#
#
# Mechanical properties :
#
#
# Convention : Reuss Voigt Hill
#
# Bulk Modulus (GPa) = 61.35855 61.55789 61.45822
# Shear Modulus (GPa) = 29.16185 31.46418 30.31301
#
# Velocity S-wave (km/s) = 3.69995 3.84323 3.77227
# Velocity P-wave (km/s) = 6.85980 6.97076 6.91550
#
# Compressibility (1/GPa) = 0.01629765
#
# Stress axis : x y z
#
# Youngs Moduli (GPa) = 91.35495 66.44744 61.17343
#
# Poissons Ratio (x) = 0.14723 0.22289
# Poissons Ratio (y) = 0.20242 0.43820
# Poissons Ratio (z) = 0.33286 0.47598
#
# Static dielectric constant tensor:
#      x y z
#    x 3.631150 0.000000 0.079540 
#    y 0.000000 3.673100 0.000000 
#    z 0.079540 0.000000 3.855400 
# 
# 
# High freq. dielectric constant tensor:
#      x y z
#    x 1.825430 0.000000 0.005340 
#    y 0.000000 1.834580 0.000000 
#    z 0.005340 0.000000 1.843090 
# 
# From -- ./inp_files/30406.got.cif
#   From: 2010.06.25/outbox.cif.g09.slc.cpg/sg9_16_cif.got.tgz:30406.got - 2010.06.27 21:40:51.
