data_PCOD8055439
_publ_section_title
;
Structure prediction by ZEFSAII (Michael W. Deem and Ramdas Pophale) SiO2 
 PCOD8055439
Probable space group: C C
;
_chemical_formula_sum "Si O2"
_cell_formula_units_Z 28
_cell_length_a 6.520204
_cell_length_b 14.311349
_cell_length_c 15.926092
_cell_angle_alpha 90.000000
_cell_angle_beta 123.524191
_cell_angle_gamma 90.000000
_cell_volume 1238.899691
_symmetry_space_group_name_H-M "C C"
_symmetry_group_IT_number 9
_symmetry_cell_setting 'monoclinic'
loop_
_space_group_symop_operation_xyz
x,y,z
x,-y,1/2+z
1/2+x,1/2+y,z
1/2+x,1/2-y,1/2+z
loop_
_atom_site_type_symbol
_atom_site_label
_atom_site_fract_x
_atom_site_fract_y
_atom_site_fract_z
Si Si1 0.303190 0.130591 0.430810
Si Si2 0.081252 0.227602 0.891949
Si Si3 0.685290 0.376640 0.097476
Si Si4 0.713284 0.076394 0.746359
Si Si5 0.239735 0.490851 0.061934
Si Si6 0.047146 0.668191 0.082670
Si Si7 0.264600 0.379944 0.799285
O O1 0.441053 0.225273 0.437705
O O2 0.222951 0.128637 0.508012
O O3 0.492431 0.044864 0.457159
O O4 0.041125 0.132395 0.322495
O O5 0.203171 0.309398 0.861613
O O6 0.895570 0.163198 0.798920
O O7 0.281755 0.159738 0.979171
O O8 0.483865 0.456612 0.070150
O O9 0.605442 0.275549 0.108778
O O10 0.934281 0.395678 0.204012
O O11 0.742404 0.050245 0.655945
O O12 0.763655 0.990648 0.822770
O O13 0.228685 0.604346 0.065546
O O14 0.057071 0.629310 0.179942
#
# Coordination Sequence:
#
# PCOD8055439 Si02
#       7
#     4   4   4   4   4   4   4
#     4  11  22  43  65  97 138 183 236 291 354 427
#     4  12  24  45  71 103 146 187 235 306 355 430
#     4  11  22  45  64 101 138 182 236 294 354 426
#     4  10  25  41  69 102 136 186 239 294 357 429
#     4  10  22  44  70  98 145 180 238 303 349 431
#     4  11  23  44  70 102 136 190 236 293 367 417
#     4  11  24  44  67 103 141 184 244 291 360 430
#
# _framework density 22.600698999999999
#
# number of rings (size 3 to 8) (size 9 to 14) (size 15 to 20)
#    0.000    1.143    2.857    2.571    2.000    3.429 
#   10.286    0.000    0.000    0.000    0.000    0.000 
#    0.000    0.000    0.000    0.000    0.000    0.000 
#
# Total GULP energy -173459.472022 kJ/mol
# GULP energy per Si atom -12389.962287 kJ/mol
# Density = 2.254926 g / cm^3
# Si number density = 22.600699 Si / 1000 Ang^3
#
#
#
# Elastic Constant Matrix: (Units=GPa)
#
#
# Indices 1 2 3 4 5 6 
#
# 1 113.4651 37.2074 47.5026 0.0000 27.7718 0.0000
# 2 37.2074 100.3196 27.6126 0.0000 16.4572 0.0000
# 3 47.5026 27.6126 99.5452 0.0000 23.5243 0.0000
# 4 0.0000 0.0000 0.0000 36.9386 0.0000 4.7965
# 5 27.7718 16.4572 23.5243 0.0000 32.7154 0.0000
# 6 0.0000 0.0000 0.0000 4.7965 0.0000 34.4768
#
#
#
# Elastic Compliance Matrix: (Units=1/GPa)
#
#
# Indices 1 2 3 4 5 6 
#
# 1 0.012973 -0.002620 -0.003822 0.000000 -0.006946 0.000000
# 2 -0.002620 0.011762 -0.001373 0.000000 -0.002705 0.000000
# 3 -0.003822 -0.001373 0.013638 0.000000 -0.005871 0.000000
# 4 0.000000 0.000000 0.000000 0.027570 0.000000 -0.003836
# 5 -0.006946 -0.002705 -0.005871 0.000000 0.042046 0.000000
# 6 0.000000 0.000000 0.000000 -0.003836 0.000000 0.029539
#
#
# Mechanical properties :
#
#
# Convention : Reuss Voigt Hill
#
# Bulk Modulus (GPa) = 43.97190 59.77503 51.87346
# Shear Modulus (GPa) = 31.10660 34.22664 32.66662
#
# Velocity S-wave (km/s) = 3.71395 3.89576 3.80594
# Velocity P-wave (km/s) = 6.15544 6.83679 6.50504
#
# Compressibility (1/GPa) = 0.02274180
#
# Stress axis : x y z
#
# Youngs Moduli (GPa) = 77.08464 85.02293 73.32455
#
# Poissons Ratio (x) = 0.22275 0.28027
# Poissons Ratio (y) = 0.20195 0.10068
# Poissons Ratio (z) = 0.29464 0.11674
#
# Static dielectric constant tensor:
#      x y z
#    x 4.162250 0.000000 0.485200 
#    y 0.000000 4.586300 0.000000 
#    z 0.485200 0.000000 4.415670 
# 
# 
# High freq. dielectric constant tensor:
#      x y z
#    x 1.879600 0.000000 0.020410 
#    y 0.000000 1.901820 0.000000 
#    z 0.020410 0.000000 1.897780 
# 
# From -- ./inp_files/21696.got.cif
#   From: 2010.06.25/outbox.cif.g09.slc.cpg/sg9_11_cif.got.tgz:21696.got - 2010.06.27 21:40:51.
