data_PCOD8055319
_publ_section_title
;
Structure prediction by ZEFSAII (Michael W. Deem and Ramdas Pophale) SiO2 
 PCOD8055319
Probable space group: C C
;
_chemical_formula_sum "Si O2"
_cell_formula_units_Z 28
_cell_length_a 14.672139
_cell_length_b 7.946721
_cell_length_c 22.062083
_cell_angle_alpha 90.000000
_cell_angle_beta 29.955958
_cell_angle_gamma 90.000000
_cell_volume 1284.455871
_symmetry_space_group_name_H-M "C C"
_symmetry_group_IT_number 9
_symmetry_cell_setting 'monoclinic'
loop_
_space_group_symop_operation_xyz
x,y,z
x,-y,1/2+z
1/2+x,1/2+y,z
1/2+x,1/2-y,1/2+z
loop_
_atom_site_type_symbol
_atom_site_label
_atom_site_fract_x
_atom_site_fract_y
_atom_site_fract_z
Si Si1 0.195210 0.357430 0.662530
Si Si2 0.027012 0.658372 0.040987
Si Si3 0.189049 0.937195 0.244209
Si Si4 0.566950 0.468865 0.944755
Si Si5 0.337645 0.072798 0.886319
Si Si6 0.879734 0.048051 0.339843
Si Si7 0.602495 0.611312 0.610940
O O1 0.244922 0.255259 0.696002
O O2 0.352253 0.495096 0.564800
O O3 0.201358 0.232130 0.601977
O O4 0.999094 0.446402 0.775362
O O5 0.013355 0.779116 0.107966
O O6 0.835628 0.571618 0.135311
O O7 0.086593 0.770163 0.948472
O O8 0.171873 0.509795 0.967916
O O9 0.170330 0.973753 0.325308
O O10 0.997291 0.945815 0.320311
O O11 0.669185 0.572720 0.937298
O O12 0.411293 0.261155 0.842439
O O13 0.259239 0.015372 0.996498
O O14 0.948479 0.004169 0.232232
#
# Coordination Sequence:
#
# PCOD8055319 Si02
#       7
#     4   4   4   4   4   4   4
#     4  11  22  41  63  91 124 161 203 251 304 364
#     4  11  22  41  63  91 124 161 203 251 304 364
#     4  11  23  39  62  90 120 160 204 251 302 359
#     4  11  23  39  62  90 120 160 204 251 302 359
#     4  11  24  41  62  91 124 162 204 251 305 362
#     4  11  24  41  62  91 124 162 204 251 305 362
#     4  10  22  42  64  88 124 166 204 250 304 362
#
# _framework density 21.799113999999999
#
# number of rings (size 3 to 8) (size 9 to 14) (size 15 to 20)
#    0.000    1.143    0.000    8.571    0.000    8.000 
#    0.000   10.000    0.000    0.000    0.000    0.000 
#    0.000    0.000    0.000    0.000    0.000    0.000 
#
# Total GULP energy -173585.119530 kJ/mol
# GULP energy per Si atom -12398.937109 kJ/mol
# Density = 2.174950 g / cm^3
# Si number density = 21.799114 Si / 1000 Ang^3
#
#
#
# Elastic Constant Matrix: (Units=GPa)
#
#
# Indices 1 2 3 4 5 6 
#
# 1 69.6220 24.6438 28.4875 0.0001 4.4689 -0.0002
# 2 24.6438 118.7657 38.4659 -0.0001 11.6985 -0.0004
# 3 28.4875 38.4659 90.3983 -0.0003 6.7574 0.0000
# 4 0.0001 -0.0001 -0.0003 39.6548 0.0001 -4.1476
# 5 4.4689 11.6985 6.7574 0.0001 38.2279 0.0000
# 6 -0.0002 -0.0004 0.0000 -4.1476 0.0000 32.5576
#
#
#
# Elastic Compliance Matrix: (Units=1/GPa)
#
#
# Indices 1 2 3 4 5 6 
#
# 1 0.016929 -0.002020 -0.004432 0.000000 -0.000577 0.000000
# 2 -0.002020 0.010208 -0.003538 0.000000 -0.002262 0.000000
# 3 -0.004432 -0.003538 0.014030 0.000000 -0.000879 0.000000
# 4 0.000000 0.000000 0.000000 0.025558 0.000000 0.003256
# 5 -0.000577 -0.002262 -0.000879 0.000000 0.027074 0.000000
# 6 0.000000 0.000000 0.000000 0.003256 0.000000 0.031130
#
#
# Mechanical properties :
#
#
# Convention : Reuss Voigt Hill
#
# Bulk Modulus (GPa) = 47.20030 51.33113 49.26572
# Shear Modulus (GPa) = 32.90099 34.56731 33.73415
#
# Velocity S-wave (km/s) = 3.88916 3.98643 3.93810
# Velocity P-wave (km/s) = 6.47046 6.69233 6.58233
#
# Compressibility (1/GPa) = 0.02118630
#
# Stress axis : x y z
#
# Youngs Moduli (GPa) = 59.07038 97.96397 71.27618
#
# Poissons Ratio (x) = 0.19793 0.31589
# Poissons Ratio (y) = 0.11935 0.25216
# Poissons Ratio (z) = 0.26180 0.34658
#
# Static dielectric constant tensor:
#      x y z
#    x 3.853050 0.000000 0.130910 
#    y 0.000000 4.024850 0.000000 
#    z 0.130910 0.000000 4.091820 
# 
# 
# High freq. dielectric constant tensor:
#      x y z
#    x 1.852900 0.000000 -0.003420 
#    y 0.000000 1.861750 0.000000 
#    z -0.003420 0.000000 1.864240 
# 
# From -- ./inp_files/17556.got.cif
#   From: 2010.06.25/outbox.cif.g09.slc.cpg/sg9_9_cif.got.tgz:17556.got - 2010.06.27 21:40:51.
