data_PCOD8055711
_publ_section_title
;
Structure prediction by ZEFSAII (Michael W. Deem and Ramdas Pophale) SiO2 
 PCOD8055711
Probable space group: C C
;
_chemical_formula_sum "Si O2"
_cell_formula_units_Z 20
_cell_length_a 12.204254
_cell_length_b 7.461497
_cell_length_c 17.049799
_cell_angle_alpha 90.000000
_cell_angle_beta 29.676711
_cell_angle_gamma 90.000000
_cell_volume 768.695377
_symmetry_space_group_name_H-M "C C"
_symmetry_group_IT_number 9
_symmetry_cell_setting 'monoclinic'
loop_
_space_group_symop_operation_xyz
x,y,z
x,-y,1/2+z
1/2+x,1/2+y,z
1/2+x,1/2-y,1/2+z
loop_
_atom_site_type_symbol
_atom_site_label
_atom_site_fract_x
_atom_site_fract_y
_atom_site_fract_z
Si Si1 0.919340 0.770585 0.904760
Si Si2 0.796101 0.641363 0.276205
Si Si3 0.380251 0.559468 0.040512
Si Si4 0.201126 0.472968 0.431149
Si Si5 0.508386 0.902861 0.891013
O O1 0.180733 0.775317 0.768770
O O2 0.858212 0.558441 0.942580
O O3 0.875210 0.873420 0.850405
O O4 0.784737 0.879627 0.057177
O O5 0.634707 0.482546 0.409294
O O6 0.826903 0.792660 0.324717
O O7 0.036073 0.567664 0.105981
O O8 0.381305 0.713586 0.971771
O O9 0.238546 0.622161 0.202010
O O10 0.054505 0.550615 0.452386
#
# Coordination Sequence:
#
# PCOD8055711 Si02
#       5
#     4   4   4   4   4
#     4   9  24  43  72 105 145 191 242 300 375 438
#     4   9  21  42  72 104 150 182 243 307 352 442
#     4  10  23  45  71 100 150 194 231 312 370 416
#     4  11  21  45  74 108 145 194 249 298 379 438
#     4  11  23  45  73 103 150 191 245 309 364 444
#
# _framework density 26.018108999999999
#
# number of rings (size 3 to 8) (size 9 to 14) (size 15 to 20)
#    1.200    0.800    0.000    3.600    0.000    1.600 
#   10.800    0.000    0.000    0.000    0.000    0.000 
#    0.000    0.000    0.000    0.000    0.000    0.000 
#
# Total GULP energy -123907.579874 kJ/mol
# GULP energy per Si atom -12390.757987 kJ/mol
# Density = 2.595889 g / cm^3
# Si number density = 26.018109 Si / 1000 Ang^3
#
#
#
# Elastic Constant Matrix: (Units=GPa)
#
#
# Indices 1 2 3 4 5 6 
#
# 1 76.0952 38.6834 20.3823 -0.0005 -0.8903 0.0001
# 2 38.6834 201.1893 61.1648 -0.0007 3.1865 0.0003
# 3 20.3823 61.1648 130.8035 -0.0021 13.3657 0.0011
# 4 -0.0005 -0.0007 -0.0021 29.7317 0.0015 11.3589
# 5 -0.8903 3.1865 13.3657 0.0015 19.2949 -0.0007
# 6 0.0001 0.0003 0.0011 11.3589 -0.0007 54.0677
#
#
#
# Elastic Compliance Matrix: (Units=1/GPa)
#
#
# Indices 1 2 3 4 5 6 
#
# 1 0.014780 -0.002461 -0.001360 0.000000 0.002030 0.000000
# 2 -0.002461 0.006221 -0.002593 0.000000 0.000655 0.000000
# 3 -0.001360 -0.002593 0.009720 0.000001 -0.006368 -0.000001
# 4 0.000000 0.000000 0.000001 0.036569 -0.000004 -0.007683
# 5 0.002030 0.000655 -0.006368 -0.000004 0.056224 0.000002
# 6 0.000000 0.000000 -0.000001 -0.007683 0.000002 0.020109
#
#
# Mechanical properties :
#
#
# Convention : Reuss Voigt Hill
#
# Bulk Modulus (GPa) = 55.88097 72.06101 63.97099
# Shear Modulus (GPa) = 30.78523 39.80935 35.29729
#
# Velocity S-wave (km/s) = 3.44353 3.91585 3.68726
# Velocity P-wave (km/s) = 6.11023 6.94275 6.53975
#
# Compressibility (1/GPa) = 0.01789518
#
# Stress axis : x y z
#
# Youngs Moduli (GPa) = 67.65756 160.73578 102.88065
#
# Poissons Ratio (x) = 0.39550 0.13992
# Poissons Ratio (y) = 0.16648 0.26674
# Poissons Ratio (z) = 0.09202 0.41674
#
# Static dielectric constant tensor:
#      x y z
#    x 4.220990 0.000000 0.172640 
#    y 0.000000 5.371420 0.000000 
#    z 0.172640 0.000000 4.142100 
# 
# 
# High freq. dielectric constant tensor:
#      x y z
#    x 2.016600 0.000000 0.016540 
#    y 0.000000 2.056690 0.000000 
#    z 0.016540 0.000000 2.017380 
# 
# From -- ./inp_files/30533.got.cif
#   From: 2010.06.25/outbox.cif.g09.slc.cpg/sg9_16_cif.got.tgz:30533.got - 2010.06.27 21:40:51.
