data_PCOD8055063
_publ_section_title
;
Structure prediction by ZEFSAII (Michael W. Deem and Ramdas Pophale) SiO2 
 PCOD8055063
Probable space group: C C
;
_chemical_formula_sum "Si O2"
_cell_formula_units_Z 32
_cell_length_a 21.663426
_cell_length_b 6.221234
_cell_length_c 18.144071
_cell_angle_alpha 90.000000
_cell_angle_beta 35.082996
_cell_angle_gamma 90.000000
_cell_volume 1405.486822
_symmetry_space_group_name_H-M "C C"
_symmetry_group_IT_number 9
_symmetry_cell_setting 'monoclinic'
loop_
_space_group_symop_operation_xyz
x,y,z
x,-y,1/2+z
1/2+x,1/2+y,z
1/2+x,1/2-y,1/2+z
loop_
_atom_site_type_symbol
_atom_site_label
_atom_site_fract_x
_atom_site_fract_y
_atom_site_fract_z
Si Si1 0.741790 0.198437 0.132570
Si Si2 0.713147 0.630464 0.981372
Si Si3 0.615547 0.579548 0.315417
Si Si4 0.383854 0.824492 0.871930
Si Si5 0.873942 0.035054 0.271635
Si Si6 0.573178 0.129126 0.731421
Si Si7 0.068133 0.192841 0.994315
Si Si8 0.715948 0.954249 0.300828
O O1 0.688391 0.433345 0.191111
O O2 0.766787 0.111993 0.189683
O O3 0.662507 0.043147 0.165646
O O4 0.855198 0.215275 0.978482
O O5 0.769461 0.414479 0.954718
O O6 0.665354 0.586043 0.946579
O O7 0.802033 0.817013 0.893826
O O8 0.616069 0.706979 0.128172
O O9 0.541846 0.730674 0.334865
O O10 0.546091 0.436851 0.439958
O O11 0.693894 0.723956 0.288137
O O12 0.428016 0.648639 0.770389
O O13 0.469907 0.011497 0.799267
O O14 0.801841 0.918204 0.280871
O O15 0.961054 0.188179 0.147451
O O16 0.104751 0.437152 0.939876
#
# Coordination Sequence:
#
# PCOD8055063 Si02
#       8
#     4   4   4   4   4   4   4   4
#     4  10  22  42  64  96 133 172 225 281 337 399
#     4  11  23  44  63  95 136 171 223 285 334 408
#     4  10  21  43  66  90 136 174 219 287 334 395
#     4  12  25  39  70  99 128 186 221 274 353 401
#     4  11  24  41  65  99 135 176 225 278 339 410
#     4  11  24  41  65  98 135 170 225 282 338 400
#     4  10  23  40  66  95 131 176 224 276 340 402
#     4   9  22  42  65  92 132 177 220 283 331 403
#
# _framework density 22.767913
#
# number of rings (size 3 to 8) (size 9 to 14) (size 15 to 20)
#    0.000    1.500    2.500    1.500    1.750    8.000 
#    0.000    0.000    0.000    0.000    0.000    0.000 
#    0.000    0.000    0.000    0.000    0.000    0.000 
#
# Total GULP energy -198413.668419 kJ/mol
# GULP energy per Si atom -12400.854276 kJ/mol
# Density = 2.271609 g / cm^3
# Si number density = 22.767913 Si / 1000 Ang^3
#
#
#
# Elastic Constant Matrix: (Units=GPa)
#
#
# Indices 1 2 3 4 5 6 
#
# 1 79.5747 20.5484 25.3972 0.0013 16.0380 -0.0104
# 2 20.5484 61.7357 14.0010 0.1228 10.0562 -0.0828
# 3 25.3972 14.0010 94.6128 0.0794 15.9552 -0.0322
# 4 0.0013 0.1228 0.0794 26.1317 -0.0862 3.1775
# 5 16.0380 10.0562 15.9552 -0.0862 27.4940 -0.0260
# 6 -0.0104 -0.0828 -0.0322 3.1775 -0.0260 43.0482
#
#
#
# Elastic Compliance Matrix: (Units=1/GPa)
#
#
# Indices 1 2 3 4 5 6 
#
# 1 0.015584 -0.003576 -0.002596 0.000004 -0.006276 -0.000009
# 2 -0.003576 0.018280 -0.001074 -0.000100 -0.003977 0.000038
# 3 -0.002596 -0.001074 0.012308 -0.000050 -0.005236 0.000007
# 4 0.000004 -0.000100 -0.000050 0.038616 0.000182 -0.002850
# 5 -0.006276 -0.003977 -0.005236 0.000182 0.044526 0.000000
# 6 -0.000009 0.000038 0.000007 -0.002850 0.000000 0.023440
#
#
# Mechanical properties :
#
#
# Convention : Reuss Voigt Hill
#
# Bulk Modulus (GPa) = 31.56595 39.53515 35.55055
# Shear Modulus (GPa) = 28.12061 31.06654 29.59358
#
# Velocity S-wave (km/s) = 3.51821 3.69791 3.60918
# Velocity P-wave (km/s) = 5.51344 5.96949 5.74599
#
# Compressibility (1/GPa) = 0.03167971
#
# Stress axis : x y z
#
# Youngs Moduli (GPa) = 64.17024 54.70448 81.24721
#
# Poissons Ratio (x) = 0.19562 0.21088
# Poissons Ratio (y) = 0.22947 0.08730
# Poissons Ratio (z) = 0.16656 0.05878
#
# Static dielectric constant tensor:
#      x y z
#    x 4.199400 -0.000230 0.295030 
#    y -0.000230 4.015280 0.000310 
#    z 0.295030 0.000310 3.850030 
# 
# 
# High freq. dielectric constant tensor:
#      x y z
#    x 1.909890 -0.000010 0.023600 
#    y -0.000010 1.897410 0.000030 
#    z 0.023600 0.000030 1.880960 
# 
# From -- ./inp_files/19787.got.cif
#   From: 2010.06.25/outbox.cif.g09.slc.cpg/sg9_10_cif.got.tgz:19787.got - 2010.06.27 21:40:51.
