data_PCOD8055795
_publ_section_title
;
Structure prediction by ZEFSAII (Michael W. Deem and Ramdas Pophale) SiO2 
 PCOD8055795
Probable space group: C C
;
_chemical_formula_sum "Si O2"
_cell_formula_units_Z 24
_cell_length_a 24.435089
_cell_length_b 5.122596
_cell_length_c 11.573050
_cell_angle_alpha 90.000000
_cell_angle_beta 135.571973
_cell_angle_gamma 90.000000
_cell_volume 1014.046362
_symmetry_space_group_name_H-M "C C"
_symmetry_group_IT_number 9
_symmetry_cell_setting 'monoclinic'
loop_
_space_group_symop_operation_xyz
x,y,z
x,-y,1/2+z
1/2+x,1/2+y,z
1/2+x,1/2-y,1/2+z
loop_
_atom_site_type_symbol
_atom_site_label
_atom_site_fract_x
_atom_site_fract_y
_atom_site_fract_z
Si Si1 0.621410 0.632335 0.958120
Si Si2 0.249884 0.266460 0.324536
Si Si3 0.991289 0.242426 0.933555
Si Si4 0.398821 0.519740 0.478219
Si Si5 0.120091 0.367821 0.301530
Si Si6 0.400956 0.969076 0.115056
O O1 0.698235 0.610331 0.153497
O O2 0.545115 0.592558 0.922265
O O3 0.624278 0.419812 0.862406
O O4 0.616195 0.919754 0.895624
O O5 0.304518 0.477364 0.338948
O O6 0.196347 0.585424 0.837156
O O7 0.306348 0.061319 0.477430
O O8 0.044065 0.391757 0.106647
O O9 0.933999 0.025970 0.903787
O O10 0.935669 0.461329 0.791928
O O11 0.422954 0.804299 0.556887
O O12 0.438023 0.301277 0.623110
#
# Coordination Sequence:
#
# PCOD8055795 Si02
#       6
#     4   4   4   4   4   4
#     4  11  26  44  69  98 137 180 225 277 335 409
#     4   9  26  42  69  98 133 176 225 275 338 393
#     4  11  24  45  69 100 136 178 226 282 336 404
#     4  10  24  40  67 100 129 173 220 280 333 392
#     4  11  26  43  69  97 138 179 226 272 341 403
#     4  10  24  42  65  99 133 168 226 272 341 385
#
# _framework density 23.667560999999999
#
# number of rings (size 3 to 8) (size 9 to 14) (size 15 to 20)
#    1.000    0.667    0.000    2.000    7.000    8.000 
#    0.000    0.000    0.000    0.000    0.000    0.000 
#    0.000    0.000    0.000    0.000    0.000    0.000 
#
# Total GULP energy -148780.054946 kJ/mol
# GULP energy per Si atom -12398.337912 kJ/mol
# Density = 2.361369 g / cm^3
# Si number density = 23.667561 Si / 1000 Ang^3
#
#
#
# Elastic Constant Matrix: (Units=GPa)
#
#
# Indices 1 2 3 4 5 6 
#
# 1 154.8688 8.6583 32.6554 0.0000 5.9859 0.0000
# 2 8.6583 72.3719 11.7923 0.0003 4.0344 0.0000
# 3 32.6554 11.7923 150.1537 0.0000 12.7638 0.0000
# 4 0.0000 0.0003 0.0000 21.8366 0.0000 0.9451
# 5 5.9859 4.0344 12.7638 0.0000 28.3966 0.0000
# 6 0.0000 0.0000 0.0000 0.9451 0.0000 20.5775
#
#
#
# Elastic Compliance Matrix: (Units=1/GPa)
#
#
# Indices 1 2 3 4 5 6 
#
# 1 0.006806 -0.000549 -0.001374 0.000000 -0.000739 0.000000
# 2 -0.000549 0.014107 -0.000861 0.000000 -0.001502 0.000000
# 3 -0.001374 -0.000861 0.007269 0.000000 -0.002855 0.000000
# 4 0.000000 0.000000 0.000000 0.045886 0.000000 -0.002107
# 5 -0.000739 -0.001502 -0.002855 0.000000 0.036868 0.000000
# 6 0.000000 0.000000 0.000000 -0.002107 0.000000 0.048694
#
#
# Mechanical properties :
#
#
# Convention : Reuss Voigt Hill
#
# Bulk Modulus (GPa) = 44.22065 53.73405 48.97735
# Shear Modulus (GPa) = 28.94586 35.78136 32.36361
#
# Velocity S-wave (km/s) = 3.50096 3.89245 3.70188
# Velocity P-wave (km/s) = 5.92174 6.55397 6.24586
#
# Compressibility (1/GPa) = 0.02261387
#
# Stress axis : x y z
#
# Youngs Moduli (GPa) = 146.92676 70.88590 137.56985
#
# Poissons Ratio (x) = 0.03893 0.18906
# Poissons Ratio (y) = 0.08068 0.11843
# Poissons Ratio (z) = 0.20191 0.06102
#
# Static dielectric constant tensor:
#      x y z
#    x 4.381490 0.000000 0.146700 
#    y 0.000000 3.783890 0.000000 
#    z 0.146700 0.000000 4.334560 
# 
# 
# High freq. dielectric constant tensor:
#      x y z
#    x 1.948650 0.000000 0.007340 
#    y 0.000000 1.918980 0.000000 
#    z 0.007340 0.000000 1.942510 
# 
# From -- ./inp_files/21337.got.cif
#   From: 2010.06.25/outbox.cif.g09.slc.cpg/sg9_11_cif.got.tgz:21337.got - 2010.06.27 21:40:51.
