data_PCOD8055576
_publ_section_title
;
Structure prediction by ZEFSAII (Michael W. Deem and Ramdas Pophale) SiO2 
 PCOD8055576
Probable space group: C C
;
_chemical_formula_sum "Si O2"
_cell_formula_units_Z 32
_cell_length_a 10.558584
_cell_length_b 7.897503
_cell_length_c 18.358506
_cell_angle_alpha 90.000000
_cell_angle_beta 73.370245
_cell_angle_gamma 90.000000
_cell_volume 1466.821387
_symmetry_space_group_name_H-M "C C"
_symmetry_group_IT_number 9
_symmetry_cell_setting 'monoclinic'
loop_
_space_group_symop_operation_xyz
x,y,z
x,-y,1/2+z
1/2+x,1/2+y,z
1/2+x,1/2-y,1/2+z
loop_
_atom_site_type_symbol
_atom_site_label
_atom_site_fract_x
_atom_site_fract_y
_atom_site_fract_z
Si Si1 0.330040 0.680260 0.321780
Si Si2 0.856641 0.552124 0.329357
Si Si3 0.774556 0.819611 0.563688
Si Si4 0.270911 0.067199 0.086601
Si Si5 0.492279 0.942862 0.660542
Si Si6 0.976651 0.164375 0.150898
Si Si7 0.434924 0.167382 0.935557
Si Si8 0.220369 0.370838 0.413110
O O1 0.402776 0.616721 0.237680
O O2 0.430990 0.685289 0.374648
O O3 0.222964 0.540330 0.363161
O O4 0.275565 0.875603 0.320572
O O5 0.966797 0.589599 0.250088
O O6 0.927960 0.513740 0.394345
O O7 0.767255 0.716608 0.354316
O O8 0.805475 0.622060 0.557718
O O9 0.884539 0.902243 0.599417
O O10 0.794968 0.890894 0.478294
O O11 0.626984 0.849459 0.617682
O O12 0.116446 0.071179 0.128917
O O13 0.361769 0.124969 0.139754
O O14 0.311325 0.186031 0.011515
O O15 0.510352 0.139139 0.639681
O O16 0.569386 0.170546 0.959258
#
# Coordination Sequence:
#
# PCOD8055576 Si02
#       8
#     4   4   4   4   4   4   4   4
#     4   9  24  44  63 100 126 171 220 266 327 394
#     4   9  23  45  60  98 131 165 215 280 315 391
#     4  11  24  41  64 100 125 174 219 260 335 389
#     4  11  23  43  64  94 136 168 217 274 319 393
#     4  10  23  42  65  93 134 167 212 271 329 385
#     4  10  25  43  64  95 134 170 216 269 325 394
#     4  10  23  44  62  97 132 166 223 275 314 399
#     4  12  23  44  70  93 132 175 220 269 338 381
#
# _framework density 21.815881000000001
#
# number of rings (size 3 to 8) (size 9 to 14) (size 15 to 20)
#    0.750    1.000    2.500    0.000    7.000    2.000 
#    2.250    0.000    0.000    0.000    0.000    0.000 
#    0.000    0.000    0.000    0.000    0.000    0.000 
#
# Total GULP energy -198226.729556 kJ/mol
# GULP energy per Si atom -12389.170597 kJ/mol
# Density = 2.176623 g / cm^3
# Si number density = 21.815881 Si / 1000 Ang^3
#
#
#
# Elastic Constant Matrix: (Units=GPa)
#
#
# Indices 1 2 3 4 5 6 
#
# 1 95.1364 4.7807 16.8287 0.0000 -2.5442 0.0000
# 2 4.7807 62.2831 14.9695 0.0000 -12.7589 0.0000
# 3 16.8287 14.9695 114.6979 0.0000 -9.6752 0.0000
# 4 0.0000 0.0000 0.0000 24.8153 0.0000 -6.1108
# 5 -2.5442 -12.7589 -9.6752 0.0000 31.8006 0.0000
# 6 0.0000 0.0000 0.0000 -6.1108 0.0000 21.7649
#
#
#
# Elastic Compliance Matrix: (Units=1/GPa)
#
#
# Indices 1 2 3 4 5 6 
#
# 1 0.010806 -0.000418 -0.001511 0.000000 0.000237 0.000000
# 2 -0.000418 0.017853 -0.001711 0.000000 0.006609 0.000000
# 3 -0.001511 -0.001711 0.009335 0.000000 0.002033 0.000000
# 4 0.000000 0.000000 0.000000 0.043291 0.000000 0.012154
# 5 0.000237 0.006609 0.002033 0.000000 0.034735 0.000000
# 6 0.000000 0.000000 0.000000 0.012154 0.000000 0.049358
#
#
# Mechanical properties :
#
#
# Convention : Reuss Voigt Hill
#
# Bulk Modulus (GPa) = 32.55840 38.36392 35.46116
# Shear Modulus (GPa) = 27.33804 31.37872 29.35838
#
# Velocity S-wave (km/s) = 3.54379 3.79666 3.67240
# Velocity P-wave (km/s) = 5.63038 6.06985 5.85424
#
# Compressibility (1/GPa) = 0.03071404
#
# Stress axis : x y z
#
# Youngs Moduli (GPa) = 92.54266 56.01326 107.12320
#
# Poissons Ratio (x) = 0.02340 0.16186
# Poissons Ratio (y) = 0.03865 0.18332
# Poissons Ratio (z) = 0.13983 0.09585
#
# Static dielectric constant tensor:
#      x y z
#    x 3.620410 0.000000 0.152470 
#    y 0.000000 3.736290 0.000000 
#    z 0.152470 0.000000 4.012150 
# 
# 
# High freq. dielectric constant tensor:
#      x y z
#    x 1.830660 0.000000 0.002660 
#    y 0.000000 1.844070 0.000000 
#    z 0.002660 0.000000 1.875930 
# 
# From -- ./inp_files/29831.got.cif
#   From: 2010.06.25/outbox.cif.g09.slc.cpg/sg9_15_cif.got.tgz:29831.got - 2010.06.27 21:40:51.
