data_PCOD8055470
_publ_section_title
;
Structure prediction by ZEFSAII (Michael W. Deem and Ramdas Pophale) SiO2 
 PCOD8055470
Probable space group: C C
;
_chemical_formula_sum "Si O2"
_cell_formula_units_Z 32
_cell_length_a 16.623755
_cell_length_b 9.885849
_cell_length_c 10.070882
_cell_angle_alpha 90.000000
_cell_angle_beta 62.581186
_cell_angle_gamma 90.000000
_cell_volume 1469.126951
_symmetry_space_group_name_H-M "C C"
_symmetry_group_IT_number 9
_symmetry_cell_setting 'monoclinic'
loop_
_space_group_symop_operation_xyz
x,y,z
x,-y,1/2+z
1/2+x,1/2+y,z
1/2+x,1/2-y,1/2+z
loop_
_atom_site_type_symbol
_atom_site_label
_atom_site_fract_x
_atom_site_fract_y
_atom_site_fract_z
Si Si1 0.156710 0.320892 0.161200
Si Si2 0.393917 0.098858 0.537130
Si Si3 0.197727 0.984733 0.677482
Si Si4 0.094116 0.955051 0.002117
Si Si5 0.995745 0.529287 0.713740
Si Si6 0.904735 0.915658 0.570393
Si Si7 0.138047 0.348729 0.459732
Si Si8 0.796873 0.995654 0.909312
O O1 0.051888 0.328018 0.186387
O O2 0.150408 0.409917 0.301700
O O3 0.200418 0.176064 0.158218
O O4 0.223615 0.383425 0.003195
O O5 0.292099 0.057701 0.576969
O O6 0.457466 0.025874 0.381458
O O7 0.410065 0.258868 0.526178
O O8 0.415680 0.044154 0.668011
O O9 0.121539 0.034969 0.633829
O O10 0.166755 0.026860 0.849221
O O11 0.094949 0.797483 0.968084
O O12 0.998588 0.023295 0.048226
O O13 0.068840 0.423238 0.606968
O O14 0.834317 0.944900 0.740620
O O15 0.875366 0.993591 0.458943
O O16 0.240560 0.361553 0.442349
#
# Coordination Sequence:
#
# PCOD8055470 Si02
#       8
#     4   4   4   4   4   4   4   4
#     4  10  22  45  69  98 134 182 223 279 352 414
#     4  12  27  44  71 106 137 183 236 287 349 415
#     4  11  25  45  67  96 136 179 227 282 350 407
#     4  11  25  45  67  96 136 179 227 282 350 407
#     4  11  24  44  71 101 139 176 233 287 344 419
#     4  12  27  44  71 106 137 183 236 287 349 415
#     4  10  22  45  69  98 134 182 223 279 352 414
#     4  11  24  44  71 101 139 176 233 287 344 419
#
# _framework density 21.781645000000001
#
# number of rings (size 3 to 8) (size 9 to 14) (size 15 to 20)
#    0.000    1.000    2.500    3.000    7.000    3.000 
#    0.000    0.000    0.000    0.000    0.000    0.000 
#    0.000    0.000    0.000    0.000    0.000    0.000 
#
# Total GULP energy -198288.262559 kJ/mol
# GULP energy per Si atom -12393.016410 kJ/mol
# Density = 2.173207 g / cm^3
# Si number density = 21.781645 Si / 1000 Ang^3
#
#
#
# Elastic Constant Matrix: (Units=GPa)
#
#
# Indices 1 2 3 4 5 6 
#
# 1 127.7020 30.8793 3.8469 0.0000 -1.1869 0.0000
# 2 30.8793 77.9268 16.7675 0.0000 -10.4263 0.0000
# 3 3.8469 16.7675 76.0343 0.0000 1.0294 0.0000
# 4 0.0000 0.0000 0.0000 25.9014 0.0000 -0.1187
# 5 -1.1869 -10.4263 1.0294 0.0000 42.0443 0.0000
# 6 0.0000 0.0000 0.0000 -0.1187 0.0000 38.5175
#
#
#
# Elastic Compliance Matrix: (Units=1/GPa)
#
#
# Indices 1 2 3 4 5 6 
#
# 1 0.008686 -0.003609 0.000365 0.000000 -0.000659 0.000000
# 2 -0.003609 0.015480 -0.003283 0.000000 0.003817 0.000000
# 3 0.000365 -0.003283 0.013873 0.000000 -0.001143 0.000000
# 4 0.000000 0.000000 0.000000 0.038608 0.000000 0.000119
# 5 -0.000659 0.003817 -0.001143 0.000000 0.024740 0.000000
# 6 0.000000 0.000000 0.000000 0.000119 0.000000 0.025963
#
#
# Mechanical properties :
#
#
# Convention : Reuss Voigt Hill
#
# Bulk Modulus (GPa) = 40.02193 42.73895 41.38044
# Shear Modulus (GPa) = 33.61762 36.63725 35.12743
#
# Velocity S-wave (km/s) = 3.93287 4.10570 4.02021
# Velocity P-wave (km/s) = 6.24798 6.49152 6.37091
#
# Compressibility (1/GPa) = 0.02498630
#
# Stress axis : x y z
#
# Youngs Moduli (GPa) = 115.12482 64.60101 72.08305
#
# Poissons Ratio (x) = 0.23313 -0.02633
# Poissons Ratio (y) = 0.41545 0.23663
# Poissons Ratio (z) = -0.04205 0.21207
#
# Static dielectric constant tensor:
#      x y z
#    x 4.178330 0.000000 0.211440 
#    y 0.000000 3.841400 0.000000 
#    z 0.211440 0.000000 4.411150 
# 
# 
# High freq. dielectric constant tensor:
#      x y z
#    x 1.867510 0.000000 0.007600 
#    y 0.000000 1.841250 0.000000 
#    z 0.007600 0.000000 1.878590 
# 
# From -- ./inp_files/19127.got.cif
#   From: 2010.06.25/outbox.cif.g09.slc.cpg/sg9_10_cif.got.tgz:19127.got - 2010.06.27 21:40:51.
