data_PCOD8055028
_publ_section_title
;
Structure prediction by ZEFSAII (Michael W. Deem and Ramdas Pophale) SiO2 
 PCOD8055028
Probable space group: C C
;
_chemical_formula_sum "Si O2"
_cell_formula_units_Z 32
_cell_length_a 16.857511
_cell_length_b 13.170213
_cell_length_c 8.497769
_cell_angle_alpha 90.000000
_cell_angle_beta 128.175860
_cell_angle_gamma 90.000000
_cell_volume 1483.127767
_symmetry_space_group_name_H-M "C C"
_symmetry_group_IT_number 9
_symmetry_cell_setting 'monoclinic'
loop_
_space_group_symop_operation_xyz
x,y,z
x,-y,1/2+z
1/2+x,1/2+y,z
1/2+x,1/2-y,1/2+z
loop_
_atom_site_type_symbol
_atom_site_label
_atom_site_fract_x
_atom_site_fract_y
_atom_site_fract_z
Si Si1 0.464590 0.750941 0.867370
Si Si2 0.625789 0.609287 0.938772
Si Si3 0.548774 0.293275 0.043546
Si Si4 0.273793 0.776975 0.820199
Si Si5 0.704534 0.382013 0.039770
Si Si6 0.844119 0.245739 0.402262
Si Si7 0.144599 0.603149 0.614135
Si Si8 0.169708 0.609672 0.291399
O O1 0.530902 0.646105 0.934075
O O2 0.390801 0.752305 0.928741
O O3 0.398497 0.769375 0.631671
O O4 0.534238 0.848694 0.972415
O O5 0.590922 0.620188 0.715449
O O6 0.718514 0.685404 0.091344
O O7 0.667668 0.496830 0.019434
O O8 0.602905 0.313784 0.942253
O O9 0.576432 0.185635 0.154513
O O10 0.427673 0.292879 0.877316
O O11 0.220540 0.672681 0.811002
O O12 0.254067 0.862085 0.930000
O O13 0.786961 0.347304 0.271589
O O14 0.767938 0.151869 0.323638
O O15 0.194685 0.593678 0.504112
O O16 0.132625 0.494781 0.674906
#
# Coordination Sequence:
#
# PCOD8055028 Si02
#       8
#     4   4   4   4   4   4   4   4
#     4  10  21  45  70  88 130 180 211 260 333 394
#     4  10  21  43  67  90 131 181 212 267 333 398
#     4  10  21  44  64  90 134 172 210 264 334 384
#     4  11  22  42  64  97 136 167 217 274 328 388
#     4  11  24  37  66 103 130 167 221 276 321 391
#     4  10  21  42  68  92 132 173 211 267 326 390
#     4  11  24  41  68  92 130 173 216 269 329 390
#     4  11  22  42  65  94 129 169 214 265 330 389
#
# _framework density 21.576022999999999
#
# number of rings (size 3 to 8) (size 9 to 14) (size 15 to 20)
#    0.000    1.500    5.000    1.500    3.500    4.000 
#    2.250    1.250    0.000    0.000    0.000    0.000 
#    0.000    0.000    0.000    0.000    0.000    0.000 
#
# Total GULP energy -198317.128376 kJ/mol
# GULP energy per Si atom -12394.820523 kJ/mol
# Density = 2.152692 g / cm^3
# Si number density = 21.576023 Si / 1000 Ang^3
#
#
#
# Elastic Constant Matrix: (Units=GPa)
#
#
# Indices 1 2 3 4 5 6 
#
# 1 147.4248 30.1079 32.5013 0.0000 7.3201 0.0000
# 2 30.1079 117.5750 44.2492 0.0000 2.8458 0.0000
# 3 32.5013 44.2492 47.6529 0.0000 12.6711 0.0000
# 4 0.0000 0.0000 0.0000 33.1076 0.0000 -3.9329
# 5 7.3201 2.8458 12.6711 0.0000 28.5125 0.0000
# 6 0.0000 0.0000 0.0000 -3.9329 0.0000 25.9688
#
#
#
# Elastic Compliance Matrix: (Units=1/GPa)
#
#
# Indices 1 2 3 4 5 6 
#
# 1 0.007988 0.000059 -0.005620 0.000000 0.000441 0.000000
# 2 0.000059 0.013639 -0.013992 0.000000 0.004842 0.000000
# 3 -0.005620 -0.013992 0.042022 0.000000 -0.015835 0.000000
# 4 0.000000 0.000000 0.000000 0.030758 0.000000 0.004658
# 5 0.000441 0.004842 -0.015835 0.000000 0.041513 0.000000
# 6 0.000000 0.000000 0.000000 0.004658 0.000000 0.039213
#
#
# Mechanical properties :
#
#
# Convention : Reuss Voigt Hill
#
# Bulk Modulus (GPa) = 40.74712 58.48550 49.61631
# Shear Modulus (GPa) = 22.47981 31.23739 26.85860
#
# Velocity S-wave (km/s) = 3.23133 3.80910 3.53205
# Velocity P-wave (km/s) = 5.73135 6.81991 6.29919
#
# Compressibility (1/GPa) = 0.02454161
#
# Stress axis : x y z
#
# Youngs Moduli (GPa) = 125.18400 73.31932 23.79704
#
# Poissons Ratio (x) = -0.00432 0.13375
# Poissons Ratio (y) = -0.00738 0.33298
# Poissons Ratio (z) = 0.70357 1.02592
#
# Static dielectric constant tensor:
#      x y z
#    x 4.240850 0.000000 0.102390 
#    y 0.000000 3.750850 0.000000 
#    z 0.102390 0.000000 3.807190 
# 
# 
# High freq. dielectric constant tensor:
#      x y z
#    x 1.862680 0.000000 0.003640 
#    y 0.000000 1.832340 0.000000 
#    z 0.003640 0.000000 1.833390 
# 
# From -- ./inp_files/10750.got.cif
#   From: 2010.06.25/outbox.cif.g09.slc.cpg/sg9_6_cif.got.tgz:10750.got - 2010.06.27 21:40:51.
