data_PCOD8055022
_publ_section_title
;
Structure prediction by ZEFSAII (Michael W. Deem and Ramdas Pophale) SiO2 
 PCOD8055022
Probable space group: C C
;
_chemical_formula_sum "Si O2"
_cell_formula_units_Z 32
_cell_length_a 22.248188
_cell_length_b 8.566052
_cell_length_c 14.543375
_cell_angle_alpha 90.000000
_cell_angle_beta 32.719186
_cell_angle_gamma 90.000000
_cell_volume 1498.145493
_symmetry_space_group_name_H-M "C C"
_symmetry_group_IT_number 9
_symmetry_cell_setting 'monoclinic'
loop_
_space_group_symop_operation_xyz
x,y,z
x,-y,1/2+z
1/2+x,1/2+y,z
1/2+x,1/2-y,1/2+z
loop_
_atom_site_type_symbol
_atom_site_label
_atom_site_fract_x
_atom_site_fract_y
_atom_site_fract_z
Si Si1 0.207480 0.128210 0.175890
Si Si2 0.255645 0.304208 0.483563
Si Si3 0.914458 0.578847 0.355720
Si Si4 0.305601 0.825652 0.734680
Si Si5 0.334515 0.364901 0.915332
Si Si6 0.528712 0.765576 0.869511
Si Si7 0.436526 0.104592 0.661309
Si Si8 0.460194 0.571919 0.432568
O O1 0.214145 0.122750 0.277661
O O2 0.088757 0.087518 0.290308
O O3 0.234893 0.300718 0.106284
O O4 0.302631 0.018768 0.012077
O O5 0.374779 0.244297 0.367338
O O6 0.232099 0.243234 0.411557
O O7 0.274428 0.486617 0.450239
O O8 0.156874 0.241329 0.676535
O O9 0.987896 0.488025 0.183320
O O10 0.983273 0.598607 0.360076
O O11 0.389995 0.691805 0.586634
O O12 0.364303 0.983543 0.694017
O O13 0.367762 0.253097 0.788058
O O14 0.437377 0.396609 0.853755
O O15 0.446121 0.614593 0.970196
O O16 0.530430 0.829038 0.971909
#
# Coordination Sequence:
#
# PCOD8055022 Si02
#       8
#     4   4   4   4   4   4   4   4
#     4  10  21  42  67  94 129 176 215 271 336 395
#     4  11  23  41  63  99 128 170 217 280 328 390
#     4  10  21  43  62  95 137 166 216 278 329 399
#     4  10  23  42  65  95 133 170 224 275 335 399
#     4  10  23  42  66  96 136 167 223 277 329 400
#     4  12  23  42  69  97 134 177 228 275 337 401
#     4  10  23  42  67  95 133 181 214 280 338 393
#     4  11  23  42  69  97 132 179 223 276 338 399
#
# _framework density 21.359739999999999
#
# number of rings (size 3 to 8) (size 9 to 14) (size 15 to 20)
#    0.000    1.500    3.750    0.750    1.750    2.000 
#    4.500    3.750    0.000    0.000    0.000    0.000 
#    0.000    0.000    0.000    0.000    0.000    0.000 
#
# Total GULP energy -198224.805042 kJ/mol
# GULP energy per Si atom -12389.050315 kJ/mol
# Density = 2.131112 g / cm^3
# Si number density = 21.359740 Si / 1000 Ang^3
#
#
#
# Elastic Constant Matrix: (Units=GPa)
#
#
# Indices 1 2 3 4 5 6 
#
# 1 100.1389 24.7797 43.5832 0.0007 21.5595 -0.0004
# 2 24.7797 112.0026 32.9187 0.0009 19.3838 -0.0005
# 3 43.5832 32.9187 94.2178 0.0001 29.0753 -0.0003
# 4 0.0007 0.0009 0.0001 29.6653 -0.0003 8.5855
# 5 21.5595 19.3838 29.0753 -0.0003 35.5441 0.0003
# 6 -0.0004 -0.0005 -0.0003 8.5855 0.0003 33.6944
#
#
#
# Elastic Compliance Matrix: (Units=1/GPa)
#
#
# Indices 1 2 3 4 5 6 
#
# 1 0.012981 -0.000899 -0.004564 0.000000 -0.003650 0.000000
# 2 -0.000899 0.010340 -0.002174 0.000000 -0.003316 0.000000
# 3 -0.004564 -0.002174 0.016406 0.000000 -0.009466 0.000000
# 4 0.000000 0.000000 0.000000 0.036393 0.000001 -0.009273
# 5 -0.003650 -0.003316 -0.009466 0.000001 0.039899 -0.000001
# 6 0.000000 0.000000 0.000000 -0.009273 -0.000001 0.032041
#
#
# Mechanical properties :
#
#
# Convention : Reuss Voigt Hill
#
# Bulk Modulus (GPa) = 40.89505 56.54694 48.72099
# Shear Modulus (GPa) = 29.15708 33.45261 31.30484
#
# Velocity S-wave (km/s) = 3.69866 3.96176 3.83247
# Velocity P-wave (km/s) = 6.11781 6.88901 6.51483
#
# Compressibility (1/GPa) = 0.02445284
#
# Stress axis : x y z
#
# Youngs Moduli (GPa) = 77.03660 96.71273 60.95425
#
# Poissons Ratio (x) = 0.08692 0.27822
# Poissons Ratio (y) = 0.06924 0.13250
# Poissons Ratio (z) = 0.35162 0.21023
#
# Static dielectric constant tensor:
#      x y z
#    x 3.815230 0.000000 0.331900 
#    y 0.000000 4.348030 0.000000 
#    z 0.331900 0.000000 3.734080 
# 
# 
# High freq. dielectric constant tensor:
#      x y z
#    x 1.835600 0.000000 0.024110 
#    y 0.000000 1.862090 0.000000 
#    z 0.024110 0.000000 1.815640 
# 
# From -- ./inp_files/17834.got.cif
#   From: 2010.06.25/outbox.cif.g09.slc.cpg/sg9_9_cif.got.tgz:17834.got - 2010.06.27 21:40:51.
