data_PCOD8055863
_publ_section_title
;
Structure prediction by ZEFSAII (Michael W. Deem and Ramdas Pophale) SiO2 
 PCOD8055863
Probable space group: C C
;
_chemical_formula_sum "Si O2"
_cell_formula_units_Z 32
_cell_length_a 20.101368
_cell_length_b 16.335883
_cell_length_c 9.067773
_cell_angle_alpha 90.000000
_cell_angle_beta 28.438141
_cell_angle_gamma 90.000000
_cell_volume 1417.970127
_symmetry_space_group_name_H-M "C C"
_symmetry_group_IT_number 9
_symmetry_cell_setting 'monoclinic'
loop_
_space_group_symop_operation_xyz
x,y,z
x,-y,1/2+z
1/2+x,1/2+y,z
1/2+x,1/2-y,1/2+z
loop_
_atom_site_type_symbol
_atom_site_label
_atom_site_fract_x
_atom_site_fract_y
_atom_site_fract_z
Si Si1 0.667220 0.167855 0.339970
Si Si2 0.056781 0.037656 0.193670
Si Si3 0.764979 0.668262 0.743755
Si Si4 0.855195 0.287571 0.382249
Si Si5 0.322094 0.074539 0.154553
Si Si6 0.960237 0.558290 0.198426
Si Si7 0.871961 0.965017 0.313715
Si Si8 0.225846 0.619615 0.549028
O O1 0.766093 0.247404 0.151937
O O2 0.521598 0.195705 0.550830
O O3 0.645404 0.144963 0.555569
O O4 0.747325 0.100126 0.085727
O O5 0.998554 0.069262 0.465825
O O6 0.123679 0.117107 0.983426
O O7 0.929383 0.997890 0.355557
O O8 0.177022 0.969676 0.969710
O O9 0.776673 0.674509 0.896071
O O10 0.902718 0.621659 0.427900
O O11 0.795032 0.333473 0.645671
O O12 0.813981 0.191318 0.459701
O O13 0.397952 0.075464 0.160867
O O14 0.423671 0.032271 0.831847
O O15 0.123789 0.578105 0.869625
O O16 0.824549 0.044473 0.312886
#
# Coordination Sequence:
#
# PCOD8055863 Si02
#       8
#     4   4   4   4   4   4   4   4
#     4  11  24  46  68  98 139 175 232 284 342 407
#     4  11  23  41  69 100 138 172 237 272 345 403
#     4  10  24  44  67 101 136 177 224 290 336 415
#     4  11  23  45  69  96 137 182 222 290 347 398
#     4  11  22  42  72 101 136 181 223 287 335 415
#     4  11  23  43  69 102 135 177 227 277 347 408
#     4  12  24  43  69  99 133 188 220 288 336 408
#     4  11  25  44  67 101 138 174 233 284 338 416
#
# _framework density 22.567471000000001
#
# number of rings (size 3 to 8) (size 9 to 14) (size 15 to 20)
#    0.000    1.000    2.500    5.250    0.000    4.000 
#    4.500    0.000    0.000    0.000    0.000    0.000 
#    0.000    0.000    0.000    0.000    0.000    0.000 
#
# Total GULP energy -198303.600330 kJ/mol
# GULP energy per Si atom -12393.975021 kJ/mol
# Density = 2.251611 g / cm^3
# Si number density = 22.567471 Si / 1000 Ang^3
#
#
#
# Elastic Constant Matrix: (Units=GPa)
#
#
# Indices 1 2 3 4 5 6 
#
# 1 74.5116 19.4347 11.5780 -0.0003 -7.6655 0.0003
# 2 19.4347 113.1913 24.5479 -0.0002 -0.6105 0.0001
# 3 11.5780 24.5479 104.1450 -0.0008 -1.5300 0.0002
# 4 -0.0003 -0.0002 -0.0008 21.0997 0.0003 -2.2454
# 5 -7.6655 -0.6105 -1.5300 0.0003 35.4831 -0.0002
# 6 0.0003 0.0001 0.0002 -2.2454 -0.0002 29.1875
#
#
#
# Elastic Compliance Matrix: (Units=1/GPa)
#
#
# Indices 1 2 3 4 5 6 
#
# 1 0.014481 -0.002245 -0.001036 0.000000 0.003045 0.000000
# 2 -0.002245 0.009659 -0.002033 0.000000 -0.000407 0.000000
# 3 -0.001036 -0.002033 0.010199 0.000000 0.000181 0.000000
# 4 0.000000 0.000000 0.000000 0.047785 0.000000 0.003676
# 5 0.003045 -0.000407 0.000181 0.000000 0.028841 0.000000
# 6 0.000000 0.000000 0.000000 0.003676 0.000000 0.034544
#
#
# Mechanical properties :
#
#
# Convention : Reuss Voigt Hill
#
# Bulk Modulus (GPa) = 42.17600 44.77431 43.47515
# Shear Modulus (GPa) = 30.48031 32.90655 31.69343
#
# Velocity S-wave (km/s) = 3.67908 3.82270 3.75158
# Velocity P-wave (km/s) = 6.06440 6.27434 6.17026
#
# Compressibility (1/GPa) = 0.02371017
#
# Stress axis : x y z
#
# Youngs Moduli (GPa) = 69.05808 103.53244 98.04859
#
# Poissons Ratio (x) = 0.23245 0.10157
# Poissons Ratio (y) = 0.15505 0.19934
# Poissons Ratio (z) = 0.07154 0.21049
#
# Static dielectric constant tensor:
#      x y z
#    x 3.957380 0.000000 -0.131600 
#    y 0.000000 4.284650 0.000000 
#    z -0.131600 0.000000 4.248880 
# 
# 
# High freq. dielectric constant tensor:
#      x y z
#    x 1.888580 0.000000 -0.004140 
#    y 0.000000 1.895940 0.000000 
#    z -0.004140 0.000000 1.890390 
# 
# From -- ./inp_files/11831.got.cif
#   From: 2010.06.25/outbox.cif.g09.slc.cpg/sg9_6_cif.got.tgz:11831.got - 2010.06.27 21:40:51.
