data_PCOD8055381
_publ_section_title
;
Structure prediction by ZEFSAII (Michael W. Deem and Ramdas Pophale) SiO2 
 PCOD8055381
Probable space group: C C
;
_chemical_formula_sum "Si O2"
_cell_formula_units_Z 24
_cell_length_a 8.807342
_cell_length_b 11.309121
_cell_length_c 11.794166
_cell_angle_alpha 90.000000
_cell_angle_beta 86.175933
_cell_angle_gamma 90.000000
_cell_volume 1172.122307
_symmetry_space_group_name_H-M "C C"
_symmetry_group_IT_number 9
_symmetry_cell_setting 'monoclinic'
loop_
_space_group_symop_operation_xyz
x,y,z
x,-y,1/2+z
1/2+x,1/2+y,z
1/2+x,1/2-y,1/2+z
loop_
_atom_site_type_symbol
_atom_site_label
_atom_site_fract_x
_atom_site_fract_y
_atom_site_fract_z
Si Si1 0.457330 0.186149 0.377860
Si Si2 0.186041 0.311178 0.474513
Si Si3 0.044577 0.468726 0.078293
Si Si4 0.200632 0.799542 0.206869
Si Si5 0.546440 0.774264 0.246823
Si Si6 0.262896 0.059856 0.213683
O O1 0.354937 0.300591 0.413166
O O2 0.525852 0.133857 0.487853
O O3 0.588531 0.220090 0.284960
O O4 0.350548 0.087859 0.325604
O O5 0.172315 0.441384 0.528768
O O6 0.163154 0.215661 0.575642
O O7 0.062938 0.286390 0.381778
O O8 0.100107 0.399347 0.188527
O O9 0.886728 0.540562 0.107003
O O10 0.370664 0.754279 0.224578
O O11 0.174441 0.936953 0.238026
O O12 0.645571 0.665573 0.190882
#
# Coordination Sequence:
#
# PCOD8055381 Si02
#       6
#     4   4   4   4   4   4
#     4  11  23  43  68  96 129 178 217 270 332 381
#     4  11  23  43  68  97 132 172 217 270 327 387
#     4  11  21  42  69  92 136 173 214 273 329 382
#     4  11  23  46  66  96 133 170 220 274 324 389
#     4  10  24  43  69 101 126 179 223 259 338 386
#     4  10  22  43  66  92 132 170 219 268 320 385
#
# _framework density 20.475680000000001
#
# number of rings (size 3 to 8) (size 9 to 14) (size 15 to 20)
#    0.000    1.333    5.000    2.000    0.000    4.000 
#    3.000    1.667    0.000    0.000    0.000    0.000 
#    0.000    0.000    0.000    0.000    0.000    0.000 
#
# Total GULP energy -148789.633894 kJ/mol
# GULP energy per Si atom -12399.136158 kJ/mol
# Density = 2.042908 g / cm^3
# Si number density = 20.475680 Si / 1000 Ang^3
#
#
#
# Elastic Constant Matrix: (Units=GPa)
#
#
# Indices 1 2 3 4 5 6 
#
# 1 74.8941 61.0657 53.8119 0.0000 -0.6660 0.0000
# 2 61.0657 126.6996 50.4155 0.0000 8.2970 0.0000
# 3 53.8119 50.4155 138.0748 0.0000 4.4531 0.0000
# 4 0.0000 0.0000 0.0000 29.8800 0.0000 -3.6209
# 5 -0.6660 8.2970 4.4531 0.0000 27.5865 0.0000
# 6 0.0000 0.0000 0.0000 -3.6209 0.0000 36.1588
#
#
#
# Elastic Compliance Matrix: (Units=1/GPa)
#
#
# Indices 1 2 3 4 5 6 
#
# 1 0.026901 -0.010592 -0.006775 0.000000 0.004929 0.000000
# 2 -0.010592 0.013545 -0.000682 0.000000 -0.004220 0.000000
# 3 -0.006775 -0.000682 0.010184 0.000000 -0.001602 0.000000
# 4 0.000000 0.000000 0.000000 0.033878 0.000000 0.003392
# 5 0.004929 -0.004220 -0.001602 0.000000 0.037896 0.000000
# 6 0.000000 0.000000 0.000000 0.003392 0.000000 0.027995
#
#
# Mechanical properties :
#
#
# Convention : Reuss Voigt Hill
#
# Bulk Modulus (GPa) = 68.81761 74.47272 71.64517
# Shear Modulus (GPa) = 26.13127 30.35010 28.24069
#
# Velocity S-wave (km/s) = 3.57628 3.85418 3.71783
# Velocity P-wave (km/s) = 7.12288 7.50043 7.31410
#
# Compressibility (1/GPa) = 0.01453116
#
# Stress axis : x y z
#
# Youngs Moduli (GPa) = 37.17402 73.82614 98.19691
#
# Poissons Ratio (x) = 0.78197 0.66532
# Poissons Ratio (y) = 0.39375 0.06694
# Poissons Ratio (z) = 0.25187 0.05033
#
# Static dielectric constant tensor:
#      x y z
#    x 3.644450 0.000000 -0.053670 
#    y 0.000000 3.774270 0.000000 
#    z -0.053670 0.000000 3.872760 
# 
# 
# High freq. dielectric constant tensor:
#      x y z
#    x 1.784680 0.000000 -0.002960 
#    y 0.000000 1.801390 0.000000 
#    z -0.002960 0.000000 1.814080 
# 
# From -- ./inp_files/14096.got.cif
#   From: 2010.06.25/outbox.cif.g09.slc.cpg/sg9_8_cif.got.tgz:14096.got - 2010.06.27 21:40:51.
