data_PCOD8055559
_publ_section_title
;
Structure prediction by ZEFSAII (Michael W. Deem and Ramdas Pophale) SiO2 
 PCOD8055559
Probable space group: C C
;
_chemical_formula_sum "Si O2"
_cell_formula_units_Z 28
_cell_length_a 10.579303
_cell_length_b 20.730000
_cell_length_c 5.469552
_cell_angle_alpha 90.000000
_cell_angle_beta 73.263613
_cell_angle_gamma 90.000000
_cell_volume 1148.709741
_symmetry_space_group_name_H-M "C C"
_symmetry_group_IT_number 9
_symmetry_cell_setting 'monoclinic'
loop_
_space_group_symop_operation_xyz
x,y,z
x,-y,1/2+z
1/2+x,1/2+y,z
1/2+x,1/2-y,1/2+z
loop_
_atom_site_type_symbol
_atom_site_label
_atom_site_fract_x
_atom_site_fract_y
_atom_site_fract_z
Si Si1 0.042970 0.635122 0.880550
Si Si2 0.469676 0.349649 0.917235
Si Si3 0.881530 0.529763 0.116134
Si Si4 0.431718 0.235009 0.610681
Si Si5 0.777820 0.957728 0.168124
Si Si6 0.643869 0.258233 0.103825
Si Si7 0.074850 0.029611 0.201609
O O1 0.133970 0.574921 0.752755
O O2 0.961970 0.664604 0.699497
O O3 0.120301 0.691985 0.972603
O O4 0.927846 0.604236 0.115315
O O5 0.396296 0.289276 0.833075
O O6 0.540128 0.395773 0.676370
O O7 0.369632 0.393399 0.128862
O O8 0.588943 0.322338 0.010308
O O9 0.940444 0.495781 0.323952
O O10 0.726832 0.517443 0.168164
O O11 0.566716 0.255304 0.402124
O O12 0.300792 0.231069 0.521636
O O13 0.797308 0.004100 0.396067
O O14 0.011458 0.008159 0.503948
#
# Coordination Sequence:
#
# PCOD8055559 Si02
#       7
#     4   4   4   4   4   4   4
#     4  11  26  45  72 108 148 192 264 308 394 454
#     4  11  26  45  72 108 148 192 264 308 394 454
#     4  10  23  41  68 102 140 184 238 302 374 448
#     4  11  27  46  76 107 153 204 261 329 385 467
#     4  12  28  48  82 114 158 208 258 326 398 478
#     4  11  27  46  76 107 153 204 261 329 385 467
#     4  10  23  41  68 102 140 184 238 302 374 448
#
# _framework density 24.375173
#
# number of rings (size 3 to 8) (size 9 to 14) (size 15 to 20)
#    0.000    1.143    0.000    3.429   14.000    3.429 
#    0.000    0.000    0.000    0.000    0.000    0.000 
#    0.000    0.000    0.000    0.000    0.000    0.000 
#
# Total GULP energy -173461.511822 kJ/mol
# GULP energy per Si atom -12390.107987 kJ/mol
# Density = 2.431969 g / cm^3
# Si number density = 24.375173 Si / 1000 Ang^3
#
#
#
# Elastic Constant Matrix: (Units=GPa)
#
#
# Indices 1 2 3 4 5 6 
#
# 1 80.7999 28.6914 33.0550 0.0000 20.2789 0.0000
# 2 28.6914 106.0015 45.7341 0.0000 12.5819 0.0000
# 3 33.0550 45.7341 123.4689 0.0000 15.5762 0.0000
# 4 0.0000 0.0000 0.0000 35.1160 0.0000 -10.0303
# 5 20.2789 12.5819 15.5762 0.0000 19.2864 0.0000
# 6 0.0000 0.0000 0.0000 -10.0303 0.0000 35.7995
#
#
#
# Elastic Compliance Matrix: (Units=1/GPa)
#
#
# Indices 1 2 3 4 5 6 
#
# 1 0.017926 -0.002098 -0.002023 0.000000 -0.015846 0.000000
# 2 -0.002098 0.011822 -0.003477 0.000000 -0.002698 0.000000
# 3 -0.002023 -0.003477 0.010438 0.000000 -0.004035 0.000000
# 4 0.000000 0.000000 0.000000 0.030954 0.000000 0.008673
# 5 -0.015846 -0.002698 -0.004035 0.000000 0.073530 0.000000
# 6 0.000000 0.000000 0.000000 0.008673 0.000000 0.030363
#
#
# Mechanical properties :
#
#
# Convention : Reuss Voigt Hill
#
# Bulk Modulus (GPa) = 40.01708 58.35905 49.18806
# Shear Modulus (GPa) = 25.18145 31.55969 28.37057
#
# Velocity S-wave (km/s) = 3.21764 3.60216 3.41532
# Velocity P-wave (km/s) = 5.50064 6.42610 5.98130
#
# Compressibility (1/GPa) = 0.02498933
#
# Stress axis : x y z
#
# Youngs Moduli (GPa) = 55.78558 84.58700 95.80742
#
# Poissons Ratio (x) = 0.17750 0.19380
# Poissons Ratio (y) = 0.11706 0.33311
# Poissons Ratio (z) = 0.11284 0.29410
#
# Static dielectric constant tensor:
#      x y z
#    x 4.475560 0.000000 -0.077630 
#    y 0.000000 4.487900 0.000000 
#    z -0.077630 0.000000 4.625920 
# 
# 
# High freq. dielectric constant tensor:
#      x y z
#    x 1.988700 0.000000 -0.007440 
#    y 0.000000 1.982780 0.000000 
#    z -0.007440 0.000000 1.964060 
# 
# From -- ./inp_files/1773.got.cif
#   From: 2010.06.25/outbox.cif.g09.slc.cpg/sg9_1_cif.got.tgz:1773.got - 2010.06.27 21:40:51.
