data_PCOD8055437
_publ_section_title
;
Structure prediction by ZEFSAII (Michael W. Deem and Ramdas Pophale) SiO2 
 PCOD8055437
Probable space group: C C
;
_chemical_formula_sum "Si O2"
_cell_formula_units_Z 28
_cell_length_a 5.420125
_cell_length_b 13.934004
_cell_length_c 14.218875
_cell_angle_alpha 90.000000
_cell_angle_beta 83.916903
_cell_angle_gamma 90.000000
_cell_volume 1067.820257
_symmetry_space_group_name_H-M "C C"
_symmetry_group_IT_number 9
_symmetry_cell_setting 'monoclinic'
loop_
_space_group_symop_operation_xyz
x,y,z
x,-y,1/2+z
1/2+x,1/2+y,z
1/2+x,1/2-y,1/2+z
loop_
_atom_site_type_symbol
_atom_site_label
_atom_site_fract_x
_atom_site_fract_y
_atom_site_fract_z
Si Si1 0.810160 0.714329 0.745080
Si Si2 0.637897 0.712960 0.556309
Si Si3 0.620539 0.974437 0.414256
Si Si4 0.283948 0.724911 0.848114
Si Si5 0.960795 0.495502 0.229526
Si Si6 0.273199 0.875968 0.578701
Si Si7 0.894741 0.020708 0.573246
O O1 0.817531 0.748873 0.634642
O O2 0.551667 0.755022 0.797037
O O3 0.052909 0.757059 0.789003
O O4 0.796569 0.599209 0.752631
O O5 0.766179 0.727036 0.451504
O O6 0.364100 0.765288 0.573224
O O7 0.609796 0.599326 0.576876
O O8 0.777662 0.889732 0.359010
O O9 0.414439 0.927965 0.488586
O O10 0.514920 0.037935 0.332097
O O11 0.783524 0.042217 0.474517
O O12 0.824963 0.579223 0.179038
O O13 0.206609 0.462802 0.165149
O O14 0.988153 0.908339 0.570916
#
# Coordination Sequence:
#
# PCOD8055437 Si02
#       7
#     4   4   4   4   4   4   4
#     4  11  23  46  71 106 146 197 245 308 380 440
#     4  11  24  46  71 105 153 192 245 323 364 455
#     4   9  22  40  66  96 136 188 235 303 359 447
#     4  10  25  43  71 108 142 194 246 304 378 442
#     4  10  22  44  70  97 143 189 249 305 370 446
#     4  10  23  43  65 103 135 190 240 298 373 438
#     4  11  23  44  70 105 141 196 246 303 382 440
#
# _framework density 26.221643
#
# number of rings (size 3 to 8) (size 9 to 14) (size 15 to 20)
#    0.000    1.714    1.429    1.714    6.000    3.429 
#   15.429    0.000    0.000    0.000    0.000    0.000 
#    0.000    0.000    0.000    0.000    0.000    0.000 
#
# Total GULP energy -173479.096215 kJ/mol
# GULP energy per Si atom -12391.364015 kJ/mol
# Density = 2.616196 g / cm^3
# Si number density = 26.221643 Si / 1000 Ang^3
#
#
#
# Elastic Constant Matrix: (Units=GPa)
#
#
# Indices 1 2 3 4 5 6 
#
# 1 122.1726 4.3424 71.7771 0.0000 2.0147 0.0000
# 2 4.3424 53.0492 4.9106 0.0000 -3.0853 0.0000
# 3 71.7771 4.9106 191.9852 0.0000 50.9041 0.0000
# 4 0.0000 0.0000 0.0000 22.2792 0.0000 -1.4411
# 5 2.0147 -3.0853 50.9041 0.0000 30.0461 0.0000
# 6 0.0000 0.0000 0.0000 -1.4411 0.0000 25.8325
#
#
#
# Elastic Compliance Matrix: (Units=1/GPa)
#
#
# Indices 1 2 3 4 5 6 
#
# 1 0.012860 0.000498 -0.008362 0.000000 0.013355 0.000000
# 2 0.000498 0.019339 -0.002176 0.000000 0.005639 0.000000
# 3 -0.008362 -0.002176 0.015071 0.000000 -0.025197 0.000000
# 4 0.000000 0.000000 0.000000 0.045048 0.000000 0.002513
# 5 0.013355 0.005639 -0.025197 0.000000 0.075654 0.000000
# 6 0.000000 0.000000 0.000000 0.002513 0.000000 0.038851
#
#
# Mechanical properties :
#
#
# Convention : Reuss Voigt Hill
#
# Bulk Modulus (GPa) = 36.77709 58.80749 47.79229
# Shear Modulus (GPa) = 21.18953 34.71001 27.94977
#
# Velocity S-wave (km/s) = 2.84578 3.64224 3.26836
# Velocity P-wave (km/s) = 4.98537 6.33748 5.70165
#
# Compressibility (1/GPa) = 0.02719084
#
# Stress axis : x y z
#
# Youngs Moduli (GPa) = 77.76217 51.70890 66.35104
#
# Poissons Ratio (x) = -0.02575 0.55480
# Poissons Ratio (y) = -0.03873 0.14438
# Poissons Ratio (z) = 0.65022 0.11252
#
# Static dielectric constant tensor:
#      x y z
#    x 4.636120 0.000000 0.360090 
#    y 0.000000 4.382820 0.000000 
#    z 0.360090 0.000000 5.272130 
# 
# 
# High freq. dielectric constant tensor:
#      x y z
#    x 2.037410 0.000000 0.011730 
#    y 0.000000 2.026800 0.000000 
#    z 0.011730 0.000000 2.077770 
# 
# From -- ./inp_files/21712.got.cif
#   From: 2010.06.25/outbox.cif.g09.slc.cpg/sg9_11_cif.got.tgz:21712.got - 2010.06.27 21:40:51.
