data_PCOD8055827
_publ_section_title
;
Structure prediction by ZEFSAII (Michael W. Deem and Ramdas Pophale) SiO2 
 PCOD8055827
Probable space group: C C
;
_chemical_formula_sum "Si O2"
_cell_formula_units_Z 28
_cell_length_a 23.596988
_cell_length_b 8.363896
_cell_length_c 17.240310
_cell_angle_alpha 90.000000
_cell_angle_beta 19.384349
_cell_angle_gamma 90.000000
_cell_volume 1129.333096
_symmetry_space_group_name_H-M "C C"
_symmetry_group_IT_number 9
_symmetry_cell_setting 'monoclinic'
loop_
_space_group_symop_operation_xyz
x,y,z
x,-y,1/2+z
1/2+x,1/2+y,z
1/2+x,1/2-y,1/2+z
loop_
_atom_site_type_symbol
_atom_site_label
_atom_site_fract_x
_atom_site_fract_y
_atom_site_fract_z
Si Si1 0.281230 0.250001 0.076160
Si Si2 0.634592 0.329007 0.004260
Si Si3 0.697519 0.670994 0.878407
Si Si4 0.539801 0.269045 0.424615
Si Si5 0.638459 0.111765 0.604844
Si Si6 0.410288 0.611766 0.561188
Si Si7 0.253851 0.269045 0.496512
O O1 0.255712 0.325538 0.024579
O O2 0.348039 0.382435 0.051736
O O3 0.101513 0.174465 0.332977
O O4 0.432808 0.117566 0.882196
O O5 0.454325 0.241501 0.237479
O O6 0.683737 0.369539 0.030372
O O7 0.606665 0.500001 0.000725
O O8 0.777768 0.216982 0.781003
O O9 0.623159 0.758499 0.899815
O O10 0.897178 0.630462 0.603492
O O11 0.680531 0.783019 0.975478
O O12 0.421616 0.427979 0.571216
O O13 0.681306 0.250001 0.176084
O O14 0.692500 0.927979 0.529447
#
# Coordination Sequence:
#
# PCOD8055827 Si02
#       7
#     4   4   4   4   4   4   4
#     4  10  24  42  80 112 148 190 254 314 382 436
#     4  12  27  49  74 111 153 199 253 311 386 457
#     4  12  27  49  74 111 153 199 253 311 386 457
#     4  12  29  48  76 110 151 199 256 315 381 452
#     4  11  25  47  77 112 153 198 254 313 379 461
#     4  11  25  47  77 112 153 198 254 313 379 461
#     4  12  29  48  76 110 151 199 256 315 381 452
#
# _framework density 24.793392000000001
#
# number of rings (size 3 to 8) (size 9 to 14) (size 15 to 20)
#    0.000    0.571    0.000    6.857   16.000    2.286 
#    0.000    0.000    0.000    0.000    0.000    0.000 
#    0.000    0.000    0.000    0.000    0.000    0.000 
#
# Total GULP energy -173538.893575 kJ/mol
# GULP energy per Si atom -12395.635255 kJ/mol
# Density = 2.473696 g / cm^3
# Si number density = 24.793392 Si / 1000 Ang^3
#
#
#
# Elastic Constant Matrix: (Units=GPa)
#
#
# Indices 1 2 3 4 5 6 
#
# 1 178.2100 20.7360 54.9648 -0.0001 -12.2773 0.0000
# 2 20.7360 56.8313 24.4730 0.0010 10.0830 0.0000
# 3 54.9648 24.4730 167.7881 0.0007 -15.8406 0.0000
# 4 -0.0001 0.0010 0.0007 33.7246 0.0001 4.7940
# 5 -12.2773 10.0830 -15.8406 0.0001 49.7349 0.0000
# 6 0.0000 0.0000 0.0000 4.7940 0.0000 31.9481
#
#
#
# Elastic Compliance Matrix: (Units=1/GPa)
#
#
# Indices 1 2 3 4 5 6 
#
# 1 0.006454 -0.001874 -0.001706 0.000000 0.001430 0.000000
# 2 -0.001874 0.020513 -0.002902 -0.000001 -0.005545 0.000000
# 3 -0.001706 -0.002902 0.007173 0.000000 0.002452 0.000000
# 4 0.000000 -0.000001 0.000000 0.030298 0.000000 -0.004546
# 5 0.001430 -0.005545 0.002452 0.000000 0.022365 0.000000
# 6 0.000000 0.000000 0.000000 -0.004546 0.000000 0.031983
#
#
# Mechanical properties :
#
#
# Convention : Reuss Voigt Hill
#
# Bulk Modulus (GPa) = 47.21982 67.01966 57.11974
# Shear Modulus (GPa) = 36.02079 43.25857 39.63968
#
# Velocity S-wave (km/s) = 3.81575 4.18157 4.00284
# Velocity P-wave (km/s) = 6.20483 7.09957 6.66723
#
# Compressibility (1/GPa) = 0.02117755
#
# Stress axis : x y z
#
# Youngs Moduli (GPa) = 154.94123 48.74940 139.40315
#
# Poissons Ratio (x) = 0.09135 0.23781
# Poissons Ratio (y) = 0.29035 0.40450
# Poissons Ratio (z) = 0.26432 0.14145
#
# Static dielectric constant tensor:
#      x y z
#    x 4.748190 0.000000 -0.043630 
#    y 0.000000 4.336270 0.000000 
#    z -0.043630 0.000000 4.732000 
# 
# 
# High freq. dielectric constant tensor:
#      x y z
#    x 2.014520 0.000000 -0.008360 
#    y 0.000000 1.968860 0.000000 
#    z -0.008360 0.000000 2.011420 
# 
# From -- ./inp_files/8760.got.cif
#   From: 2010.06.25/outbox.cif.g09.slc.cpg/sg9_5_cif.got.tgz:8760.got - 2010.06.27 21:40:51.
