data_PCOD8055396
_publ_section_title
;
Structure prediction by ZEFSAII (Michael W. Deem and Ramdas Pophale) SiO2 
 PCOD8055396
Probable space group: C C
;
_chemical_formula_sum "Si O2"
_cell_formula_units_Z 32
_cell_length_a 11.773818
_cell_length_b 15.270119
_cell_length_c 9.577275
_cell_angle_alpha 90.000000
_cell_angle_beta 128.548728
_cell_angle_gamma 90.000000
_cell_volume 1346.641566
_symmetry_space_group_name_H-M "C C"
_symmetry_group_IT_number 9
_symmetry_cell_setting 'monoclinic'
loop_
_space_group_symop_operation_xyz
x,y,z
x,-y,1/2+z
1/2+x,1/2+y,z
1/2+x,1/2-y,1/2+z
loop_
_atom_site_type_symbol
_atom_site_label
_atom_site_fract_x
_atom_site_fract_y
_atom_site_fract_z
Si Si1 0.568450 0.500179 0.556310
Si Si2 0.376080 0.341119 0.873388
Si Si3 0.532938 0.311666 0.456398
Si Si4 0.067623 0.764407 0.782502
Si Si5 0.077403 0.427480 0.656910
Si Si6 0.857758 0.292591 0.599500
Si Si7 0.040617 0.429856 0.318416
Si Si8 0.238280 0.070382 0.434403
O O1 0.460370 0.579379 0.518019
O O2 0.482907 0.409052 0.465503
O O3 0.625259 0.529665 0.452401
O O4 0.702936 0.482986 0.764981
O O5 0.442932 0.312981 0.776262
O O6 0.209924 0.365071 0.718702
O O7 0.373390 0.255041 0.964498
O O8 0.525317 0.251878 0.588458
O O9 0.692177 0.316544 0.507489
O O10 0.416614 0.271167 0.263724
O O11 0.211458 0.825187 0.897936
O O12 0.101885 0.668491 0.868416
O O13 0.952927 0.380176 0.654532
O O14 0.015776 0.460999 0.459432
O O15 0.142959 0.503938 0.808623
O O16 0.898770 0.441067 0.112671
#
# Coordination Sequence:
#
# PCOD8055396 Si02
#       8
#     4   4   4   4   4   4   4   4
#     4  10  22  43  70 105 135 190 238 306 355 445
#     4  11  25  49  77 107 151 196 256 300 386 448
#     4  11  26  42  75 108 153 191 252 307 374 441
#     4  10  26  44  73 104 146 203 242 306 370 450
#     4  12  29  46  74 113 147 197 248 317 383 435
#     4  12  25  49  74 109 149 201 250 312 372 455
#     4  12  27  44  71 104 151 189 244 312 367 450
#     4  10  22  43  70 100 138 189 246 290 371 436
#
# _framework density 23.762819
#
# number of rings (size 3 to 8) (size 9 to 14) (size 15 to 20)
#    0.000    1.000    2.500    2.250    7.000    7.000 
#    0.000    0.000    0.000    0.000    0.000    0.000 
#    0.000    0.000    0.000    0.000    0.000    0.000 
#
# Total GULP energy -198343.861930 kJ/mol
# GULP energy per Si atom -12396.491371 kJ/mol
# Density = 2.370873 g / cm^3
# Si number density = 23.762819 Si / 1000 Ang^3
#
#
#
# Elastic Constant Matrix: (Units=GPa)
#
#
# Indices 1 2 3 4 5 6 
#
# 1 60.1884 20.1649 0.7067 0.0000 -7.8097 0.0000
# 2 20.1649 112.0455 16.2986 0.0000 -8.6618 0.0000
# 3 0.7067 16.2986 93.2893 0.0000 -16.0674 0.0000
# 4 0.0000 0.0000 0.0000 30.7696 0.0000 -6.7651
# 5 -7.8097 -8.6618 -16.0674 0.0000 38.3099 0.0000
# 6 0.0000 0.0000 0.0000 -6.7651 0.0000 30.8531
#
#
#
# Elastic Compliance Matrix: (Units=1/GPa)
#
#
# Indices 1 2 3 4 5 6 
#
# 1 0.018095 -0.003139 0.000996 0.000000 0.003397 0.000000
# 2 -0.003139 0.009784 -0.001525 0.000000 0.000933 0.000000
# 3 0.000996 -0.001525 0.011807 0.000000 0.004810 0.000000
# 4 0.000000 0.000000 0.000000 0.034146 0.000000 0.007487
# 5 0.003397 0.000933 0.004810 0.000000 0.029024 0.000000
# 6 0.000000 0.000000 0.000000 0.007487 0.000000 0.034053
#
#
# Mechanical properties :
#
#
# Convention : Reuss Voigt Hill
#
# Bulk Modulus (GPa) = 30.91116 37.76262 34.33689
# Shear Modulus (GPa) = 32.25244 35.21004 33.73124
#
# Velocity S-wave (km/s) = 3.68810 3.85350 3.77171
# Velocity P-wave (km/s) = 5.58324 5.97706 5.78350
#
# Compressibility (1/GPa) = 0.03235077
#
# Stress axis : x y z
#
# Youngs Moduli (GPa) = 55.26321 102.20998 84.69785
#
# Poissons Ratio (x) = 0.32083 -0.08439
# Poissons Ratio (y) = 0.17347 0.12916
# Poissons Ratio (z) = -0.05506 0.15586
#
# Static dielectric constant tensor:
#      x y z
#    x 4.149920 0.000000 -0.191730 
#    y 0.000000 4.597590 0.000000 
#    z -0.191730 0.000000 4.306830 
# 
# 
# High freq. dielectric constant tensor:
#      x y z
#    x 1.935990 0.000000 -0.017940 
#    y 0.000000 1.955250 0.000000 
#    z -0.017940 0.000000 1.943880 
# 
# From -- ./inp_files/7656.got.cif
#   From: 2010.06.25/outbox.cif.g09.slc.cpg/sg9_4_cif.got.tgz:7656.got - 2010.06.27 21:40:51.
