data_PCOD8055545
_publ_section_title
;
Structure prediction by ZEFSAII (Michael W. Deem and Ramdas Pophale) SiO2 
 PCOD8055545
Probable space group: C C
;
_chemical_formula_sum "Si O2"
_cell_formula_units_Z 32
_cell_length_a 14.860488
_cell_length_b 18.002004
_cell_length_c 5.313846
_cell_angle_alpha 90.000000
_cell_angle_beta 69.850730
_cell_angle_gamma 90.000000
_cell_volume 1334.551146
_symmetry_space_group_name_H-M "C C"
_symmetry_group_IT_number 9
_symmetry_cell_setting 'monoclinic'
loop_
_space_group_symop_operation_xyz
x,y,z
x,-y,1/2+z
1/2+x,1/2+y,z
1/2+x,1/2-y,1/2+z
loop_
_atom_site_type_symbol
_atom_site_label
_atom_site_fract_x
_atom_site_fract_y
_atom_site_fract_z
Si Si1 0.878280 0.685909 0.424720
Si Si2 0.709975 0.951305 0.787743
Si Si3 0.039742 0.813932 0.675418
Si Si4 0.209063 0.234281 0.299956
Si Si5 0.095399 0.039753 0.900939
Si Si6 0.322308 0.039726 0.699814
Si Si7 0.334179 0.320265 0.802595
Si Si8 0.083932 0.679629 0.297356
O O1 0.797354 0.679298 0.285063
O O2 0.857087 0.625011 0.660244
O O3 0.865430 0.768785 0.541287
O O4 0.987252 0.673794 0.217229
O O5 0.804894 0.900278 0.721103
O O6 0.614493 0.900205 0.877667
O O7 0.710095 0.994197 0.524251
O O8 0.120723 0.820634 0.814796
O O9 0.060764 0.874913 0.440175
O O10 0.052642 0.731013 0.558903
O O11 0.930801 0.825922 0.883164
O O12 0.174828 0.287107 0.560464
O O13 0.243272 0.287189 0.039650
O O14 0.208856 0.036737 0.800351
O O15 0.053965 0.002407 0.687948
O O16 0.363751 0.997553 0.412861
#
# Coordination Sequence:
#
# PCOD8055545 Si02
#       8
#     4   4   4   4   4   4   4   4
#     4  11  25  42  74 103 145 195 251 316 367 453
#     4  12  27  50  78 105 154 202 246 312 379 448
#     4  11  25  42  74 103 145 195 251 316 367 453
#     4  12  21  44  72 105 144 190 244 320 371 440
#     4  10  23  41  64 100 143 188 232 291 371 442
#     4  10  23  41  64 100 143 188 232 291 371 442
#     4  11  25  46  70 109 140 193 260 308 375 445
#     4  11  25  46  70 109 140 193 260 308 375 445
#
# _framework density 23.978097000000002
#
# number of rings (size 3 to 8) (size 9 to 14) (size 15 to 20)
#    0.000    1.000    2.500    3.000    8.750    2.000 
#    0.000    0.000    0.000    0.000    0.000    0.000 
#    0.000    0.000    0.000    0.000    0.000    0.000 
#
# Total GULP energy -198390.860411 kJ/mol
# GULP energy per Si atom -12399.428776 kJ/mol
# Density = 2.392352 g / cm^3
# Si number density = 23.978097 Si / 1000 Ang^3
#
#
#
# Elastic Constant Matrix: (Units=GPa)
#
#
# Indices 1 2 3 4 5 6 
#
# 1 173.9196 34.2928 12.8114 0.0000 -11.5341 0.0000
# 2 34.2928 118.8324 19.3887 0.0000 -3.4792 0.0000
# 3 12.8114 19.3887 73.9670 0.0000 -4.0401 0.0000
# 4 0.0000 0.0000 0.0000 26.2507 0.0000 1.9829
# 5 -11.5341 -3.4792 -4.0401 0.0000 15.0185 0.0000
# 6 0.0000 0.0000 0.0000 1.9829 0.0000 27.9670
#
#
#
# Elastic Compliance Matrix: (Units=1/GPa)
#
#
# Indices 1 2 3 4 5 6 
#
# 1 0.006399 -0.001646 -0.000436 0.000000 0.004416 0.000000
# 2 -0.001646 0.009245 -0.002122 0.000000 0.000307 0.000000
# 3 -0.000436 -0.002122 0.014316 0.000000 0.003025 0.000000
# 4 0.000000 0.000000 0.000000 0.038299 0.000000 -0.002715
# 5 0.004416 0.000307 0.003025 0.000000 0.070861 0.000000
# 6 0.000000 0.000000 0.000000 -0.002715 0.000000 0.035949
#
#
# Mechanical properties :
#
#
# Convention : Reuss Voigt Hill
#
# Bulk Modulus (GPa) = 46.39500 55.52276 50.95888
# Shear Modulus (GPa) = 26.22439 33.86231 30.04335
#
# Velocity S-wave (km/s) = 3.31067 3.76203 3.54354
# Velocity P-wave (km/s) = 5.83138 6.48663 6.16771
#
# Compressibility (1/GPa) = 0.02155405
#
# Stress axis : x y z
#
# Youngs Moduli (GPa) = 156.26547 108.16117 69.85014
#
# Poissons Ratio (x) = 0.17807 0.03043
# Poissons Ratio (y) = 0.25727 0.14819
# Poissons Ratio (z) = 0.06807 0.22947
#
# Static dielectric constant tensor:
#      x y z
#    x 4.868500 0.000000 -0.010120 
#    y 0.000000 4.331320 0.000000 
#    z -0.010120 0.000000 4.091980 
# 
# 
# High freq. dielectric constant tensor:
#      x y z
#    x 1.962720 0.000000 0.001210 
#    y 0.000000 1.951040 0.000000 
#    z 0.001210 0.000000 1.928570 
# 
# From -- ./inp_files/2525.got.cif
#   From: 2010.06.25/outbox.cif.g09.slc.cpg/sg9_2_cif.got.tgz:2525.got - 2010.06.27 21:40:51.
