data_PCOD8055136
_publ_section_title
;
Structure prediction by ZEFSAII (Michael W. Deem and Ramdas Pophale) SiO2 
 PCOD8055136
Probable space group: C C
;
_chemical_formula_sum "Si O2"
_cell_formula_units_Z 28
_cell_length_a 10.645444
_cell_length_b 9.479226
_cell_length_c 13.937947
_cell_angle_alpha 90.000000
_cell_angle_beta 118.171192
_cell_angle_gamma 90.000000
_cell_volume 1239.875136
_symmetry_space_group_name_H-M "C C"
_symmetry_group_IT_number 9
_symmetry_cell_setting 'monoclinic'
loop_
_space_group_symop_operation_xyz
x,y,z
x,-y,1/2+z
1/2+x,1/2+y,z
1/2+x,1/2-y,1/2+z
loop_
_atom_site_type_symbol
_atom_site_label
_atom_site_fract_x
_atom_site_fract_y
_atom_site_fract_z
Si Si1 0.137420 0.212760 0.823690
Si Si2 0.447052 0.429774 0.109544
Si Si3 0.150644 0.546144 0.810299
Si Si4 0.895260 0.640428 0.013923
Si Si5 0.195858 0.620750 0.042887
Si Si6 0.457159 0.638486 0.944066
Si Si7 0.899328 0.353639 0.089817
O O1 0.077578 0.100411 0.726558
O O2 0.119392 0.377515 0.788424
O O3 0.304402 0.169453 0.884813
O O4 0.072601 0.178223 0.905689
O O5 0.322315 0.515235 0.117954
O O6 0.371915 0.281131 0.065045
O O7 0.499715 0.508904 0.031342
O O8 0.310870 0.591327 0.836881
O O9 0.036811 0.636844 0.708831
O O10 0.137973 0.592907 0.915796
O O11 0.833167 0.507145 0.047422
O O12 0.062080 0.604904 0.063177
O O13 0.264315 0.773932 0.087037
O O14 0.439526 0.776590 0.004412
#
# Coordination Sequence:
#
# PCOD8055136 Si02
#       7
#     4   4   4   4   4   4   4
#     4  12  24  42  78 102 140 194 231 286 362 416
#     4  10  24  46  68 103 141 182 232 291 351 405
#     4  10  21  46  67 103 140 184 235 286 352 413
#     4  12  24  42  70 102 138 179 238 285 346 419
#     4  10  25  46  64 101 149 173 233 301 329 422
#     4  10  25  46  69 104 147 176 234 302 337 423
#     4  10  23  42  70  99 135 186 231 285 353 406
#
# _framework density 22.582917999999999
#
# number of rings (size 3 to 8) (size 9 to 14) (size 15 to 20)
#    0.000    1.714    4.286    0.857    4.000    5.714 
#    0.000    0.000    0.000    0.000    0.000    0.000 
#    0.000    0.000    0.000    0.000    0.000    0.000 
#
# Total GULP energy -173458.813583 kJ/mol
# GULP energy per Si atom -12389.915256 kJ/mol
# Density = 2.253152 g / cm^3
# Si number density = 22.582918 Si / 1000 Ang^3
#
#
#
# Elastic Constant Matrix: (Units=GPa)
#
#
# Indices 1 2 3 4 5 6 
#
# 1 66.4289 24.9432 9.6427 0.0000 14.8804 0.0000
# 2 24.9432 157.7412 31.6069 0.0000 7.5468 0.0000
# 3 9.6427 31.6069 98.4745 0.0000 20.1943 0.0000
# 4 0.0000 0.0000 0.0000 50.2633 0.0000 13.4591
# 5 14.8804 7.5468 20.1943 0.0000 27.1402 0.0000
# 6 0.0000 0.0000 0.0000 13.4591 0.0000 17.7715
#
#
#
# Elastic Compliance Matrix: (Units=1/GPa)
#
#
# Indices 1 2 3 4 5 6 
#
# 1 0.018121 -0.002610 0.001123 0.000000 -0.010045 0.000000
# 2 -0.002610 0.007153 -0.002273 0.000000 0.001133 0.000000
# 3 0.001123 -0.002273 0.012711 0.000000 -0.009442 0.000000
# 4 0.000000 0.000000 0.000000 0.024956 0.000000 -0.018900
# 5 -0.010045 0.001133 -0.009442 0.000000 0.049064 0.000000
# 6 0.000000 0.000000 0.000000 -0.018900 0.000000 0.070584
#
#
# Mechanical properties :
#
#
# Convention : Reuss Voigt Hill
#
# Bulk Modulus (GPa) = 32.82338 50.55892 41.69115
# Shear Modulus (GPa) = 24.96723 36.13178 30.54951
#
# Velocity S-wave (km/s) = 3.32863 4.00429 3.68199
# Velocity P-wave (km/s) = 5.41657 6.61935 6.04794
#
# Compressibility (1/GPa) = 0.03046609
#
# Stress axis : x y z
#
# Youngs Moduli (GPa) = 55.18516 139.79398 78.67462
#
# Poissons Ratio (x) = 0.36484 -0.08837
# Poissons Ratio (y) = 0.14403 0.17881
# Poissons Ratio (z) = -0.06199 0.31772
#
# Static dielectric constant tensor:
#      x y z
#    x 3.907730 0.000000 0.314610 
#    y 0.000000 4.324340 0.000000 
#    z 0.314610 0.000000 4.266270 
# 
# 
# High freq. dielectric constant tensor:
#      x y z
#    x 1.872940 0.000000 0.020520 
#    y 0.000000 1.907340 0.000000 
#    z 0.020520 0.000000 1.897090 
# 
# From -- ./inp_files/20798.got.cif
#   From: 2010.06.25/outbox.cif.g09.slc.cpg/sg9_11_cif.got.tgz:20798.got - 2010.06.27 21:40:51.
