data_PCOD8055618
_publ_section_title
;
Structure prediction by ZEFSAII (Michael W. Deem and Ramdas Pophale) SiO2 
 PCOD8055618
Probable space group: C C
;
_chemical_formula_sum "Si O2"
_cell_formula_units_Z 28
_cell_length_a 12.614799
_cell_length_b 6.357995
_cell_length_c 17.410875
_cell_angle_alpha 90.000000
_cell_angle_beta 119.252902
_cell_angle_gamma 90.000000
_cell_volume 1218.350492
_symmetry_space_group_name_H-M "C C"
_symmetry_group_IT_number 9
_symmetry_cell_setting 'monoclinic'
loop_
_space_group_symop_operation_xyz
x,y,z
x,-y,1/2+z
1/2+x,1/2+y,z
1/2+x,1/2-y,1/2+z
loop_
_atom_site_type_symbol
_atom_site_label
_atom_site_fract_x
_atom_site_fract_y
_atom_site_fract_z
Si Si1 0.792240 0.189664 0.392390
Si Si2 0.308882 0.922420 0.803373
Si Si3 0.653172 0.337622 0.018076
Si Si4 0.965274 0.422753 0.551639
Si Si5 0.621032 0.837911 0.336981
Si Si6 0.981901 0.810676 0.462626
Si Si7 0.387080 0.037585 0.677530
O O1 0.793285 0.328475 0.315249
O O2 0.831536 0.349094 0.474515
O O3 0.660075 0.084395 0.354469
O O4 0.887066 0.000162 0.427501
O O5 0.201498 0.789068 0.803652
O O6 0.442615 0.848771 0.880508
O O7 0.310375 0.896563 0.711332
O O8 0.637202 0.249856 0.927557
O O9 0.614064 0.584069 0.000545
O O10 0.792589 0.320543 0.095039
O O11 0.572648 0.210553 0.051325
O O12 0.980849 0.671869 0.539768
O O13 0.963807 0.396781 0.643683
O O14 0.481578 0.820710 0.260089
#
# Coordination Sequence:
#
# PCOD8055618 Si02
#       7
#     4   4   4   4   4   4   4
#     4   9  19  43  71  94 132 180 229 292 351 419
#     4  10  23  43  68 100 139 179 238 291 355 420
#     4  11  25  46  69 103 145 186 239 293 354 430
#     4  10  23  43  68 100 139 179 238 291 355 420
#     4  11  25  46  69 103 145 186 239 293 354 430
#     4   9  19  43  71  94 132 180 229 292 351 419
#     4  12  26  42  70 108 138 188 240 290 354 418
#
# _framework density 22.981891999999998
#
# number of rings (size 3 to 8) (size 9 to 14) (size 15 to 20)
#    0.000    1.714    0.000    5.143    4.000    4.571 
#    0.000    7.143    0.000    0.000    0.000    0.000 
#    0.000    0.000    0.000    0.000    0.000    0.000 
#
# Total GULP energy -173494.521249 kJ/mol
# GULP energy per Si atom -12392.465803 kJ/mol
# Density = 2.292958 g / cm^3
# Si number density = 22.981892 Si / 1000 Ang^3
#
#
#
# Elastic Constant Matrix: (Units=GPa)
#
#
# Indices 1 2 3 4 5 6 
#
# 1 135.8801 46.6147 83.7975 0.0000 -10.2785 0.0000
# 2 46.6147 124.6490 40.0377 0.0000 -1.9393 0.0000
# 3 83.7975 40.0377 163.4272 0.0000 -9.7484 0.0000
# 4 0.0000 0.0000 0.0000 24.0507 0.0000 1.3748
# 5 -10.2785 -1.9393 -9.7484 0.0000 60.0186 0.0000
# 6 0.0000 0.0000 0.0000 1.3748 0.0000 31.6683
#
#
#
# Elastic Compliance Matrix: (Units=1/GPa)
#
#
# Indices 1 2 3 4 5 6 
#
# 1 0.011561 -0.002630 -0.005221 0.000000 0.001047 0.000000
# 2 -0.002630 0.009306 -0.000950 0.000000 -0.000304 0.000000
# 3 -0.005221 -0.000950 0.009061 0.000000 0.000547 0.000000
# 4 0.000000 0.000000 0.000000 0.041682 0.000000 -0.001810
# 5 0.001047 -0.000304 0.000547 0.000000 0.016920 0.000000
# 6 0.000000 0.000000 0.000000 -0.001810 0.000000 0.031656
#
#
# Mechanical properties :
#
#
# Convention : Reuss Voigt Hill
#
# Bulk Modulus (GPa) = 81.12152 84.98402 83.05277
# Shear Modulus (GPa) = 35.23701 40.04795 37.64248
#
# Velocity S-wave (km/s) = 3.91992 4.17896 4.05151
# Velocity P-wave (km/s) = 7.47411 7.76813 7.62254
#
# Compressibility (1/GPa) = 0.01232719
#
# Stress axis : x y z
#
# Youngs Moduli (GPa) = 86.50037 107.45370 110.36017
#
# Poissons Ratio (x) = 0.28261 0.57619
# Poissons Ratio (y) = 0.22750 0.10479
# Poissons Ratio (z) = 0.45162 0.10203
#
# Static dielectric constant tensor:
#      x y z
#    x 4.398340 0.000000 0.194050 
#    y 0.000000 4.402060 0.000000 
#    z 0.194050 0.000000 4.204570 
# 
# 
# High freq. dielectric constant tensor:
#      x y z
#    x 1.913320 0.000000 -0.001480 
#    y 0.000000 1.896410 0.000000 
#    z -0.001480 0.000000 1.903620 
# 
# From -- ./inp_files/30486.got.cif
#   From: 2010.06.25/outbox.cif.g09.slc.cpg/sg9_16_cif.got.tgz:30486.got - 2010.06.27 21:40:51.
