data_PCOD8055231
_publ_section_title
;
Structure prediction by ZEFSAII (Michael W. Deem and Ramdas Pophale) SiO2 
 PCOD8055231
Probable space group: C C
;
_chemical_formula_sum "Si O2"
_cell_formula_units_Z 28
_cell_length_a 26.694054
_cell_length_b 4.952038
_cell_length_c 12.849302
_cell_angle_alpha 90.000000
_cell_angle_beta 137.855569
_cell_angle_gamma 90.000000
_cell_volume 1139.729323
_symmetry_space_group_name_H-M "C C"
_symmetry_group_IT_number 9
_symmetry_cell_setting 'monoclinic'
loop_
_space_group_symop_operation_xyz
x,y,z
x,-y,1/2+z
1/2+x,1/2+y,z
1/2+x,1/2-y,1/2+z
loop_
_atom_site_type_symbol
_atom_site_label
_atom_site_fract_x
_atom_site_fract_y
_atom_site_fract_z
Si Si1 0.556150 0.651759 0.399210
Si Si2 0.379049 0.199955 0.379495
Si Si3 0.086828 0.638917 0.311756
Si Si4 0.206425 0.309173 0.720303
Si Si5 0.779002 0.310538 0.915521
Si Si6 0.755373 0.975729 0.584041
Si Si7 0.472288 0.305684 0.969269
O O1 0.571901 0.356562 0.378769
O O2 0.620675 0.738138 0.578477
O O3 0.483953 0.658631 0.362949
O O4 0.549251 0.861717 0.293740
O O5 0.353925 0.202256 0.461870
O O6 0.311458 0.282282 0.198639
O O7 0.447275 0.408485 0.477281
O O8 0.405913 0.905256 0.386549
O O9 0.175143 0.600916 0.426376
O O10 0.048210 0.718586 0.144548
O O11 0.214861 0.619847 0.767001
O O12 0.244921 0.274482 0.666040
O O13 0.247803 0.116063 0.867105
O O14 0.793578 0.208384 0.054335
#
# Coordination Sequence:
#
# PCOD8055231 Si02
#       7
#     4   4   4   4   4   4   4
#     4  11  23  42  68  96 134 175 221 279 334 392
#     4  11  25  43  65  99 137 174 224 269 330 411
#     4  11  25  44  71 102 128 172 234 274 329 409
#     4  10  22  40  65 102 131 165 226 282 330 397
#     4  11  23  41  67  97 136 176 218 277 337 392
#     4  10  24  45  72 100 133 177 225 283 336 392
#     4  12  26  45  66  96 139 179 216 276 338 393
#
# _framework density 24.567239000000001
#
# number of rings (size 3 to 8) (size 9 to 14) (size 15 to 20)
#    0.000    1.143    0.000    6.857    0.000   13.714 
#    0.000    1.429    0.000    0.000    0.000    0.000 
#    0.000    0.000    0.000    0.000    0.000    0.000 
#
# Total GULP energy -173653.085656 kJ/mol
# GULP energy per Si atom -12403.791833 kJ/mol
# Density = 2.451132 g / cm^3
# Si number density = 24.567239 Si / 1000 Ang^3
#
#
#
# Elastic Constant Matrix: (Units=GPa)
#
#
# Indices 1 2 3 4 5 6 
#
# 1 139.0486 19.2040 8.4841 -0.0002 -0.4590 0.0003
# 2 19.2040 80.2496 -8.0498 -0.0003 7.7924 0.0017
# 3 8.4841 -8.0498 59.0627 -0.0001 2.0346 0.0000
# 4 -0.0002 -0.0003 -0.0001 33.8762 0.0001 1.8766
# 5 -0.4590 7.7924 2.0346 0.0001 24.8224 -0.0001
# 6 0.0003 0.0017 0.0000 1.8766 -0.0001 33.4141
#
#
#
# Elastic Compliance Matrix: (Units=1/GPa)
#
#
# Indices 1 2 3 4 5 6 
#
# 1 0.007561 -0.002036 -0.001394 0.000000 0.000893 0.000000
# 2 -0.002036 0.013616 0.002303 0.000000 -0.004501 -0.000001
# 3 -0.001394 0.002303 0.017521 0.000000 -0.002185 0.000000
# 4 0.000000 0.000000 0.000000 0.029611 0.000000 -0.001663
# 5 0.000893 -0.004501 -0.002185 0.000000 0.041895 0.000000
# 6 0.000000 -0.000001 0.000000 -0.001663 0.000000 0.030021
#
#
# Mechanical properties :
#
#
# Convention : Reuss Voigt Hill
#
# Bulk Modulus (GPa) = 27.43932 35.29304 31.36618
# Shear Modulus (GPa) = 32.33585 35.67070 34.00328
#
# Velocity S-wave (km/s) = 3.63191 3.81460 3.72437
# Velocity P-wave (km/s) = 5.36479 5.81366 5.59373
#
# Compressibility (1/GPa) = 0.03644406
#
# Stress axis : x y z
#
# Youngs Moduli (GPa) = 132.25866 73.44067 57.07551
#
# Poissons Ratio (x) = 0.14952 0.07958
# Poissons Ratio (y) = 0.26927 -0.13146
# Poissons Ratio (z) = 0.18441 -0.16916
#
# Static dielectric constant tensor:
#      x y z
#    x 4.481110 0.000000 -0.033700 
#    y 0.000000 4.344960 0.000000 
#    z -0.033700 0.000000 4.183780 
# 
# 
# High freq. dielectric constant tensor:
#      x y z
#    x 1.989790 0.000000 -0.003460 
#    y 0.000000 1.982160 0.000000 
#    z -0.003460 0.000000 1.966480 
# 
# From -- ./inp_files/26257.got.cif
#   From: 2010.06.25/outbox.cif.g09.slc.cpg/sg9_14_cif.got.tgz:26257.got - 2010.06.27 21:40:51.
