data_PCOD8055642
_publ_section_title
;
Structure prediction by ZEFSAII (Michael W. Deem and Ramdas Pophale) SiO2 
 PCOD8055642
Probable space group: C C
;
_chemical_formula_sum "Si O2"
_cell_formula_units_Z 28
_cell_length_a 7.239467
_cell_length_b 11.825881
_cell_length_c 20.643972
_cell_angle_alpha 90.000000
_cell_angle_beta 129.406200
_cell_angle_gamma 90.000000
_cell_volume 1365.603225
_symmetry_space_group_name_H-M "C C"
_symmetry_group_IT_number 9
_symmetry_cell_setting 'monoclinic'
loop_
_space_group_symop_operation_xyz
x,y,z
x,-y,1/2+z
1/2+x,1/2+y,z
1/2+x,1/2-y,1/2+z
loop_
_atom_site_type_symbol
_atom_site_label
_atom_site_fract_x
_atom_site_fract_y
_atom_site_fract_z
Si Si1 0.503080 0.812768 0.818140
Si Si2 0.354392 0.128757 0.090636
Si Si3 0.141436 0.201708 0.728969
Si Si4 0.640963 0.465421 0.666358
Si Si5 0.117309 0.563856 0.025991
Si Si6 0.503192 0.739736 0.401783
Si Si7 0.996677 0.317785 0.963128
O O1 0.474831 0.710896 0.758164
O O2 0.324765 0.913315 0.758993
O O3 0.789658 0.845121 0.878894
O O4 0.443967 0.777269 0.878051
O O5 0.585901 0.189310 0.172633
O O6 0.248137 0.038229 0.117740
O O7 0.434675 0.060739 0.045417
O O8 0.158576 0.224771 0.033409
O O9 0.418359 0.207125 0.813515
O O10 0.086407 0.092615 0.675010
O O11 0.383942 0.403643 0.609098
O O12 0.027631 0.658004 0.957063
O O13 0.117783 0.441235 0.991550
O O14 0.747946 0.672835 0.446761
#
# Coordination Sequence:
#
# PCOD8055642 Si02
#       7
#     4   4   4   4   4   4   4
#     4   9  23  41  65  91 132 166 215 263 312 387
#     4  11  23  42  62  98 130 168 215 260 322 384
#     4   9  21  45  62  92 132 164 212 268 311 382
#     4  11  22  43  68  93 131 172 211 267 322 374
#     4  12  25  40  68  98 127 170 219 259 323 384
#     4  10  23  44  63  94 130 166 216 264 314 380
#     4  12  23  43  68  92 130 174 206 271 322 371
#
# _framework density 20.503758000000001
#
# number of rings (size 3 to 8) (size 9 to 14) (size 15 to 20)
#    0.857    0.571    4.286    0.857    2.000    2.286 
#    5.143    0.000    0.000    0.000    0.000    0.000 
#    0.000    0.000    0.000    0.000    0.000    0.000 
#
# Total GULP energy -173476.051396 kJ/mol
# GULP energy per Si atom -12391.146528 kJ/mol
# Density = 2.045709 g / cm^3
# Si number density = 20.503758 Si / 1000 Ang^3
#
#
#
# Elastic Constant Matrix: (Units=GPa)
#
#
# Indices 1 2 3 4 5 6 
#
# 1 106.8091 29.1954 35.0466 0.0000 -1.2716 0.0000
# 2 29.1954 72.7776 32.2467 0.0000 -10.0206 0.0000
# 3 35.0466 32.2467 95.8759 0.0000 -8.5046 0.0000
# 4 0.0000 0.0000 0.0000 22.3166 0.0000 -1.8046
# 5 -1.2716 -10.0206 -8.5046 0.0000 38.6368 0.0000
# 6 0.0000 0.0000 0.0000 -1.8046 0.0000 28.1254
#
#
#
# Elastic Compliance Matrix: (Units=1/GPa)
#
#
# Indices 1 2 3 4 5 6 
#
# 1 0.011273 -0.003304 -0.003113 0.000000 -0.001171 0.000000
# 2 -0.003304 0.017476 -0.004363 0.000000 0.003463 0.000000
# 3 -0.003113 -0.004363 0.013184 0.000000 0.001668 0.000000
# 4 0.000000 0.000000 0.000000 0.045043 0.000000 0.002890
# 5 -0.001171 0.003463 0.001668 0.000000 0.027109 0.000000
# 6 0.000000 0.000000 0.000000 0.002890 0.000000 0.035740
#
#
# Mechanical properties :
#
#
# Convention : Reuss Voigt Hill
#
# Bulk Modulus (GPa) = 49.08687 52.04890 50.56788
# Shear Modulus (GPa) = 28.06197 29.74735 28.90466
#
# Velocity S-wave (km/s) = 3.70351 3.81310 3.75870
# Velocity P-wave (km/s) = 6.50233 6.69526 6.59950
#
# Compressibility (1/GPa) = 0.02037205
#
# Stress axis : x y z
#
# Youngs Moduli (GPa) = 88.70514 57.22152 75.85197
#
# Poissons Ratio (x) = 0.18907 0.23616
# Poissons Ratio (y) = 0.29309 0.33093
# Poissons Ratio (z) = 0.27618 0.24965
#
# Static dielectric constant tensor:
#      x y z
#    x 3.687670 0.000000 0.063560 
#    y 0.000000 3.246740 0.000000 
#    z 0.063560 0.000000 3.982620 
# 
# 
# High freq. dielectric constant tensor:
#      x y z
#    x 1.797510 0.000000 0.002570 
#    y 0.000000 1.767620 0.000000 
#    z 0.002570 0.000000 1.825970 
# 
# From -- ./inp_files/28550.got.cif
#   From: 2010.06.25/outbox.cif.g09.slc.cpg/sg9_15_cif.got.tgz:28550.got - 2010.06.27 21:40:51.
