data_PCOD8055888
_publ_section_title
;
Structure prediction by ZEFSAII (Michael W. Deem and Ramdas Pophale) SiO2 
 PCOD8055888
Probable space group: C C
;
_chemical_formula_sum "Si O2"
_cell_formula_units_Z 28
_cell_length_a 10.070454
_cell_length_b 15.710704
_cell_length_c 9.052938
_cell_angle_alpha 90.000000
_cell_angle_beta 118.484298
_cell_angle_gamma 90.000000
_cell_volume 1258.917726
_symmetry_space_group_name_H-M "C C"
_symmetry_group_IT_number 9
_symmetry_cell_setting 'monoclinic'
loop_
_space_group_symop_operation_xyz
x,y,z
x,-y,1/2+z
1/2+x,1/2+y,z
1/2+x,1/2-y,1/2+z
loop_
_atom_site_type_symbol
_atom_site_label
_atom_site_fract_x
_atom_site_fract_y
_atom_site_fract_z
Si Si1 0.817210 0.430115 0.542100
Si Si2 0.892144 0.232334 0.864100
Si Si3 0.591132 0.126480 0.315755
Si Si4 0.988912 0.280916 0.509438
Si Si5 0.138475 0.039048 0.234236
Si Si6 0.906669 0.888574 0.113328
Si Si7 0.563120 0.281172 0.741752
O O1 0.779953 0.497786 0.395222
O O2 0.685628 0.429784 0.595373
O O3 0.979139 0.451689 0.706973
O O4 0.838129 0.336445 0.474015
O O5 0.925695 0.146212 0.790038
O O6 0.716573 0.251383 0.744503
O O7 0.990805 0.311748 0.863958
O O8 0.924760 0.220006 0.053796
O O9 0.627852 0.180504 0.183166
O O10 0.462657 0.317390 0.030386
O O11 0.026718 0.283206 0.356475
O O12 0.733892 0.089535 0.477287
O O13 0.084062 0.120182 0.300982
O O14 0.001508 0.973559 0.145979
#
# Coordination Sequence:
#
# PCOD8055888 Si02
#       7
#     4   4   4   4   4   4   4
#     4  10  24  45  66 102 144 195 230 293 365 434
#     4  11  23  42  73  99 143 189 245 279 361 428
#     4   9  21  45  66  99 134 192 231 287 344 429
#     4   9  24  40  72  96 142 185 254 275 357 426
#     4  12  24  43  71 108 145 184 236 301 375 412
#     4  11  22  40  71 105 143 185 234 303 350 431
#     4  12  24  43  69 109 137 188 242 302 346 432
#
# _framework density 22.241326000000001
#
# number of rings (size 3 to 8) (size 9 to 14) (size 15 to 20)
#    0.857    0.571    2.857    1.714    6.000    1.143 
#    0.000    7.143    0.000    0.000    0.000    0.000 
#    0.000    0.000    0.000    0.000    0.000    0.000 
#
# Total GULP energy -173467.361571 kJ/mol
# GULP energy per Si atom -12390.525827 kJ/mol
# Density = 2.219070 g / cm^3
# Si number density = 22.241326 Si / 1000 Ang^3
#
#
#
# Elastic Constant Matrix: (Units=GPa)
#
#
# Indices 1 2 3 4 5 6 
#
# 1 96.3621 49.1881 58.3263 0.0000 0.5506 0.0000
# 2 49.1881 96.9805 32.7125 0.0000 -4.7341 0.0000
# 3 58.3263 32.7125 133.9631 0.0000 -0.8122 0.0000
# 4 0.0000 0.0000 0.0000 26.8031 0.0000 5.6205
# 5 0.5506 -4.7341 -0.8122 0.0000 46.8990 0.0000
# 6 0.0000 0.0000 0.0000 5.6205 0.0000 34.3776
#
#
#
# Elastic Compliance Matrix: (Units=1/GPa)
#
#
# Indices 1 2 3 4 5 6 
#
# 1 0.017516 -0.006930 -0.005940 0.000000 -0.001008 0.000000
# 2 -0.006930 0.014034 -0.000401 0.000000 0.001491 0.000000
# 3 -0.005940 -0.000401 0.010150 0.000000 0.000205 0.000000
# 4 0.000000 0.000000 0.000000 0.038634 0.000000 -0.006316
# 5 -0.001008 0.001491 0.000205 0.000000 0.021488 0.000000
# 6 0.000000 0.000000 0.000000 -0.006316 0.000000 0.030121
#
#
# Mechanical properties :
#
#
# Convention : Reuss Voigt Hill
#
# Bulk Modulus (GPa) = 65.96817 67.52884 66.74850
# Shear Modulus (GPa) = 30.57394 34.08785 32.33089
#
# Velocity S-wave (km/s) = 3.71164 3.91914 3.81680
# Velocity P-wave (km/s) = 6.93491 7.13493 7.03563
#
# Compressibility (1/GPa) = 0.01515883
#
# Stress axis : x y z
#
# Youngs Moduli (GPa) = 57.09050 71.25559 98.51991
#
# Poissons Ratio (x) = 0.49377 0.58524
# Poissons Ratio (y) = 0.39561 0.03949
# Poissons Ratio (z) = 0.33914 0.02856
#
# Static dielectric constant tensor:
#      x y z
#    x 3.735670 0.000000 0.100440 
#    y 0.000000 3.780820 0.000000 
#    z 0.100440 0.000000 4.160710 
# 
# 
# High freq. dielectric constant tensor:
#      x y z
#    x 1.858850 0.000000 0.001770 
#    y 0.000000 1.855150 0.000000 
#    z 0.001770 0.000000 1.889520 
# 
# From -- ./inp_files/7637.got.cif
#   From: 2010.06.25/outbox.cif.g09.slc.cpg/sg9_4_cif.got.tgz:7637.got - 2010.06.27 21:40:51.
