data_PCOD8055803
_publ_section_title
;
Structure prediction by ZEFSAII (Michael W. Deem and Ramdas Pophale) SiO2 
 PCOD8055803
Probable space group: C C
;
_chemical_formula_sum "Si O2"
_cell_formula_units_Z 20
_cell_length_a 8.792612
_cell_length_b 22.363191
_cell_length_c 7.220502
_cell_angle_alpha 90.000000
_cell_angle_beta 34.794695
_cell_angle_gamma 90.000000
_cell_volume 810.176067
_symmetry_space_group_name_H-M "C C"
_symmetry_group_IT_number 9
_symmetry_cell_setting 'monoclinic'
loop_
_space_group_symop_operation_xyz
x,y,z
x,-y,1/2+z
1/2+x,1/2+y,z
1/2+x,1/2-y,1/2+z
loop_
_atom_site_type_symbol
_atom_site_label
_atom_site_fract_x
_atom_site_fract_y
_atom_site_fract_z
Si Si1 0.869950 0.880347 0.406570
Si Si2 0.728557 0.790898 0.253508
Si Si3 0.212167 0.486307 0.769898
Si Si4 0.369950 0.380347 0.817659
Si Si5 0.207482 0.934504 0.774582
O O1 0.693980 0.832211 0.470432
O O2 0.694391 0.942227 0.605638
O O3 0.946188 0.855866 0.535877
O O4 0.142037 0.893961 0.020925
O O5 0.517527 0.738540 0.464537
O O6 0.693980 0.832211 0.105737
O O7 0.194391 0.442227 0.969710
O O8 0.514596 0.508797 0.467468
O O9 0.006664 0.540993 0.975401
O O10 0.642037 0.393961 0.659130
#
# Coordination Sequence:
#
# PCOD8055803 Si02
#       5
#     4   4   4   4   4
#     4   9  24  46  66 108 138 185 239 289 343 435
#     4  11  26  49  74  96 136 186 242 312 364 400
#     4  10  24  41  66 100 144 186 223 276 345 426
#     4   9  24  46  66 108 138 185 239 289 343 435
#     4  11  22  44  64 100 146 186 221 274 349 420
#
# _framework density 24.685991999999999
#
# number of rings (size 3 to 8) (size 9 to 14) (size 15 to 20)
#    1.200    0.800    0.000    1.200    0.000   17.600 
#    7.200    0.000    0.000    0.000    0.000    0.000 
#    0.000    0.000    0.000    0.000    0.000    0.000 
#
# Total GULP energy -123911.011629 kJ/mol
# GULP energy per Si atom -12391.101163 kJ/mol
# Density = 2.462981 g / cm^3
# Si number density = 24.685992 Si / 1000 Ang^3
#
#
#
# Elastic Constant Matrix: (Units=GPa)
#
#
# Indices 1 2 3 4 5 6 
#
# 1 144.2613 25.1073 27.6433 0.0000 49.7761 0.0000
# 2 25.1073 95.5390 4.4709 0.0000 11.1446 0.0000
# 3 27.6433 4.4709 41.3970 0.0000 5.7753 0.0000
# 4 0.0000 0.0000 0.0000 46.5575 0.0000 -1.0815
# 5 49.7761 11.1446 5.7753 0.0000 35.9864 0.0000
# 6 0.0000 0.0000 0.0000 -1.0815 0.0000 44.5548
#
#
#
# Elastic Compliance Matrix: (Units=1/GPa)
#
#
# Indices 1 2 3 4 5 6 
#
# 1 0.015361 -0.001402 -0.007367 0.000000 -0.019631 0.000000
# 2 -0.001402 0.011008 -0.000049 0.000000 -0.001462 0.000000
# 3 -0.007367 -0.000049 0.028291 0.000000 0.005665 0.000000
# 4 0.000000 0.000000 0.000000 0.021491 0.000000 0.000522
# 5 -0.019631 -0.001462 0.005665 0.000000 0.054485 0.000000
# 6 0.000000 0.000000 0.000000 0.000522 0.000000 0.022457
#
#
# Mechanical properties :
#
#
# Convention : Reuss Voigt Hill
#
# Bulk Modulus (GPa) = 27.00966 43.96002 35.48484
# Shear Modulus (GPa) = 27.31198 40.35149 33.83173
#
# Velocity S-wave (km/s) = 3.32983 4.04739 3.70602
# Velocity P-wave (km/s) = 5.07432 6.29986 5.72001
#
# Compressibility (1/GPa) = 0.03702379
#
# Stress axis : x y z
#
# Youngs Moduli (GPa) = 65.10013 90.84125 35.34713
#
# Poissons Ratio (x) = 0.12737 0.26041
# Poissons Ratio (y) = 0.09128 0.00172
# Poissons Ratio (z) = 0.47961 0.00442
#
# Static dielectric constant tensor:
#      x y z
#    x 4.768930 0.000000 0.467230 
#    y 0.000000 4.350010 0.000000 
#    z 0.467230 0.000000 3.903750 
# 
# 
# High freq. dielectric constant tensor:
#      x y z
#    x 2.000300 0.000000 0.023450 
#    y 0.000000 1.972500 0.000000 
#    z 0.023450 0.000000 1.956880 
# 
# From -- ./inp_files/795.got.cif
#   From: 2010.06.25/outbox.cif.g09.slc.cpg/sg9_1_cif.got.tgz:795.got - 2010.06.27 21:40:51.
