data_PCOD8055855
_publ_section_title
;
Structure prediction by ZEFSAII (Michael W. Deem and Ramdas Pophale) SiO2 
 PCOD8055855
Probable space group: C C
;
_chemical_formula_sum "Si O2"
_cell_formula_units_Z 28
_cell_length_a 11.691618
_cell_length_b 13.185320
_cell_length_c 9.010150
_cell_angle_alpha 90.000000
_cell_angle_beta 112.440895
_cell_angle_gamma 90.000000
_cell_volume 1283.801737
_symmetry_space_group_name_H-M "C C"
_symmetry_group_IT_number 9
_symmetry_cell_setting 'monoclinic'
loop_
_space_group_symop_operation_xyz
x,y,z
x,-y,1/2+z
1/2+x,1/2+y,z
1/2+x,1/2-y,1/2+z
loop_
_atom_site_type_symbol
_atom_site_label
_atom_site_fract_x
_atom_site_fract_y
_atom_site_fract_z
Si Si1 0.734280 0.216020 0.171210
Si Si2 0.746741 0.094958 0.642007
Si Si3 0.835139 0.413473 0.284497
Si Si4 0.215358 0.206529 0.960137
Si Si5 0.117517 0.570208 0.886571
Si Si6 0.947027 0.056716 0.304183
Si Si7 0.607108 0.455307 0.604940
O O1 0.795837 0.323088 0.149413
O O2 0.655514 0.237863 0.284248
O O3 0.844969 0.142098 0.275882
O O4 0.649425 0.169345 0.001194
O O5 0.766332 0.210374 0.600300
O O6 0.655348 0.091255 0.737055
O O7 0.689296 0.027812 0.481197
O O8 0.881034 0.052168 0.749811
O O9 0.823884 0.367225 0.447204
O O10 0.742976 0.508414 0.221529
O O11 0.972202 0.452037 0.320639
O O12 0.114778 0.136919 0.992050
O O13 0.032733 0.085909 0.208513
O O14 0.031810 0.048296 0.492779
#
# Coordination Sequence:
#
# PCOD8055855 Si02
#       7
#     4   4   4   4   4   4   4
#     4   9  22  43  67  97 129 180 217 267 330 391
#     4  11  24  45  70 101 128 180 224 271 328 396
#     4  10  26  43  66  98 136 177 212 281 334 387
#     4  10  24  44  64 100 131 173 226 264 337 387
#     4  11  24  44  70  98 140 170 222 274 333 395
#     4  11  22  42  72  94 136 170 226 272 328 399
#     4  12  24  43  65 102 132 174 219 283 332 389
#
# _framework density 21.810222
#
# number of rings (size 3 to 8) (size 9 to 14) (size 15 to 20)
#    0.857    0.571    1.429    4.286    6.000    1.143 
#    2.571    0.000    0.000    0.000    0.000    0.000 
#    0.000    0.000    0.000    0.000    0.000    0.000 
#
# Total GULP energy -173525.690695 kJ/mol
# GULP energy per Si atom -12394.692192 kJ/mol
# Density = 2.176058 g / cm^3
# Si number density = 21.810222 Si / 1000 Ang^3
#
#
#
# Elastic Constant Matrix: (Units=GPa)
#
#
# Indices 1 2 3 4 5 6 
#
# 1 103.9541 19.9988 32.0156 0.0000 -0.7003 0.0000
# 2 19.9988 75.7905 16.4087 0.0000 -4.3953 0.0000
# 3 32.0156 16.4087 71.6048 0.0000 -13.3723 0.0000
# 4 0.0000 0.0000 0.0000 36.3391 0.0000 -13.2468
# 5 -0.7003 -4.3953 -13.3723 0.0000 39.2914 0.0000
# 6 0.0000 0.0000 0.0000 -13.2468 0.0000 27.3608
#
#
#
# Elastic Compliance Matrix: (Units=1/GPa)
#
#
# Indices 1 2 3 4 5 6 
#
# 1 0.011549 -0.002062 -0.005015 0.000000 -0.001731 0.000000
# 2 -0.002062 0.014261 -0.002194 0.000000 0.000812 0.000000
# 3 -0.005015 -0.002194 0.017778 0.000000 0.005716 0.000000
# 4 0.000000 0.000000 0.000000 0.033416 0.000000 0.016179
# 5 -0.001731 0.000812 0.005716 0.000000 0.027456 0.000000
# 6 0.000000 0.000000 0.000000 0.016179 0.000000 0.044382
#
#
# Mechanical properties :
#
#
# Convention : Reuss Voigt Hill
#
# Bulk Modulus (GPa) = 39.92741 43.13282 41.53012
# Shear Modulus (GPa) = 28.45244 32.79334 30.62289
#
# Velocity S-wave (km/s) = 3.61577 3.88180 3.75115
# Velocity P-wave (km/s) = 5.98149 6.31748 6.15178
#
# Compressibility (1/GPa) = 0.02504545
#
# Stress axis : x y z
#
# Youngs Moduli (GPa) = 86.58706 70.12350 56.24972
#
# Poissons Ratio (x) = 0.14461 0.28207
# Poissons Ratio (y) = 0.17856 0.12343
# Poissons Ratio (z) = 0.43420 0.15387
#
# Static dielectric constant tensor:
#      x y z
#    x 3.755120 0.000000 -0.156630 
#    y 0.000000 3.924140 0.000000 
#    z -0.156630 0.000000 3.845330 
# 
# 
# High freq. dielectric constant tensor:
#      x y z
#    x 1.850050 0.000000 -0.015740 
#    y 0.000000 1.856490 0.000000 
#    z -0.015740 0.000000 1.847760 
# 
# From -- ./inp_files/7268.got.cif
#   From: 2010.06.25/outbox.cif.g09.slc.cpg/sg9_4_cif.got.tgz:7268.got - 2010.06.27 21:40:51.
