data_PCOD8055601
_publ_section_title
;
Structure prediction by ZEFSAII (Michael W. Deem and Ramdas Pophale) SiO2 
 PCOD8055601
Probable space group: C C
;
_chemical_formula_sum "Si O2"
_cell_formula_units_Z 32
_cell_length_a 15.323956
_cell_length_b 11.804173
_cell_length_c 17.990729
_cell_angle_alpha 90.000000
_cell_angle_beta 28.566060
_cell_angle_gamma 90.000000
_cell_volume 1556.105659
_symmetry_space_group_name_H-M "C C"
_symmetry_group_IT_number 9
_symmetry_cell_setting 'monoclinic'
loop_
_space_group_symop_operation_xyz
x,y,z
x,-y,1/2+z
1/2+x,1/2+y,z
1/2+x,1/2-y,1/2+z
loop_
_atom_site_type_symbol
_atom_site_label
_atom_site_fract_x
_atom_site_fract_y
_atom_site_fract_z
Si Si1 0.405890 0.129352 0.669940
Si Si2 0.317426 0.352319 0.804952
Si Si3 0.972514 0.170416 0.612112
Si Si4 0.046774 0.961052 0.196914
Si Si5 0.807546 0.025154 0.158062
Si Si6 0.372813 0.116315 0.262473
Si Si7 0.950270 0.612385 0.367284
Si Si8 0.042329 0.854916 0.357086
O O1 0.374440 0.220937 0.758671
O O2 0.608221 0.135966 0.485877
O O3 0.258248 0.150880 0.714513
O O4 0.376022 0.010113 0.731088
O O5 0.460701 0.413482 0.753010
O O6 0.344994 0.402409 0.702922
O O7 0.938156 0.304513 0.645300
O O8 0.940380 0.119841 0.718771
O O9 0.173079 0.153129 0.433355
O O10 0.843784 0.107534 0.648500
O O11 0.006193 0.925161 0.310372
O O12 0.261425 0.954280 0.018967
O O13 0.600893 0.027729 0.285898
O O14 0.941478 0.079274 0.997686
O O15 0.493675 0.132002 0.247047
O O16 0.959025 0.729623 0.406988
#
# Coordination Sequence:
#
# PCOD8055601 Si02
#       8
#     4   4   4   4   4   4   4   4
#     4  12  26  44  73 101 138 185 235 289 349 419
#     4  11  26  44  68  99 139 183 229 285 355 417
#     4  10  23  43  64 100 136 181 221 281 342 414
#     4  10  24  42  66 100 137 177 229 287 347 405
#     4  11  23  40  67 100 138 171 226 288 345 403
#     4  11  25  43  70 100 136 180 231 280 345 413
#     4  11  23  39  71 104 136 175 234 289 340 407
#     4  12  22  41  69 110 134 178 235 291 343 408
#
# _framework density 20.564157000000002
#
# number of rings (size 3 to 8) (size 9 to 14) (size 15 to 20)
#    0.000    1.000    3.750    2.250   10.500    0.000 
#    0.000    1.250    0.000    0.000    0.000    0.000 
#    0.000    0.000    0.000    0.000    0.000    0.000 
#
# Total GULP energy -198403.238087 kJ/mol
# GULP energy per Si atom -12400.202380 kJ/mol
# Density = 2.051735 g / cm^3
# Si number density = 20.564157 Si / 1000 Ang^3
#
#
#
# Elastic Constant Matrix: (Units=GPa)
#
#
# Indices 1 2 3 4 5 6 
#
# 1 114.1632 56.5739 53.9645 -0.0228 -16.3635 -0.0172
# 2 56.5739 130.9125 41.5563 -0.1503 -18.0658 -0.1104
# 3 53.9645 41.5563 96.3914 -0.2680 -7.8992 -0.2265
# 4 -0.0228 -0.1503 -0.2680 -88.8703 0.0152 -114.8616
# 5 -16.3635 -18.0658 -7.8992 0.0152 27.8979 0.0455
# 6 -0.0172 -0.1104 -0.2265 -114.8616 0.0455 -69.4083
#
#
#
# Elastic Compliance Matrix: (Units=1/GPa)
#
#
# Indices 1 2 3 4 5 6 
#
# 1 0.013919 -0.003560 -0.005915 0.000009 0.004184 0.000009
# 2 -0.003560 0.010424 -0.002169 0.000002 0.004048 -0.000009
# 3 -0.005915 -0.002169 0.014559 -0.000015 -0.000752 -0.000019
# 4 0.000009 0.000002 -0.000015 0.009880 0.000023 -0.016351
# 5 0.004184 0.004048 -0.000752 0.000023 0.040708 -0.000017
# 6 0.000009 -0.000009 -0.000019 -0.016351 -0.000017 0.012651
#
#
# Mechanical properties :
#
#
# Convention : Reuss Voigt Hill
#
# Bulk Modulus (GPa) = 64.04370 71.73961 67.89165
# Shear Modulus (GPa) = 38.27432 -13.45131 12.41150
#
# Velocity S-wave (km/s) = 4.31886 -2.56034 2.45939
# Velocity P-wave (km/s) = 7.48873 5.12065 6.41491
#
# Compressibility (1/GPa) = 0.01561434
#
# Stress axis : x y z
#
# Youngs Moduli (GPa) = 71.84250 95.92803 68.68437
#
# Poissons Ratio (x) = 0.34153 0.40626
# Poissons Ratio (y) = 0.25578 0.14900
# Poissons Ratio (z) = 0.42494 0.20810
#
# Static dielectric constant tensor:
#      x y z
#    x 4.229140 -0.000210 0.106180 
#    y -0.000210 15.378380 0.001990 
#    z 0.106180 0.001990 3.840830 
# 
# 
# High freq. dielectric constant tensor:
#      x y z
#    x 1.801830 0.000000 -0.001360 
#    y 0.000000 1.799560 0.000000 
#    z -0.001360 0.000000 1.815060 
# 
# From -- ./inp_files/9132.got.cif
#   From: 2010.06.25/outbox.cif.g09.slc.cpg/sg9_5_cif.got.tgz:9132.got - 2010.06.27 21:40:51.
