data_PCOD8055331
_publ_section_title
;
Structure prediction by ZEFSAII (Michael W. Deem and Ramdas Pophale) SiO2 
 PCOD8055331
Probable space group: C C
;
_chemical_formula_sum "Si O2"
_cell_formula_units_Z 28
_cell_length_a 10.537109
_cell_length_b 11.517795
_cell_length_c 17.384226
_cell_angle_alpha 90.000000
_cell_angle_beta 139.524814
_cell_angle_gamma 90.000000
_cell_volume 1369.525977
_symmetry_space_group_name_H-M "C C"
_symmetry_group_IT_number 9
_symmetry_cell_setting 'monoclinic'
loop_
_space_group_symop_operation_xyz
x,y,z
x,-y,1/2+z
1/2+x,1/2+y,z
1/2+x,1/2-y,1/2+z
loop_
_atom_site_type_symbol
_atom_site_label
_atom_site_fract_x
_atom_site_fract_y
_atom_site_fract_z
Si Si1 0.122860 0.404383 0.426230
Si Si2 0.848910 0.815148 0.272944
Si Si3 0.851802 0.559951 0.217605
Si Si4 0.977962 0.549876 0.618116
Si Si5 0.293245 0.530784 0.160896
Si Si6 0.449951 0.553773 0.959215
Si Si7 0.554443 0.640528 0.396390
O O1 0.259897 0.455797 0.555679
O O2 0.246361 0.416649 0.405378
O O3 0.062606 0.275031 0.421622
O O4 0.923728 0.476955 0.320155
O O5 0.904932 0.689734 0.267872
O O6 0.620757 0.836783 0.193819
O O7 0.984296 0.846895 0.409586
O O8 0.894137 0.905788 0.224604
O O9 0.952863 0.521781 0.185001
O O10 0.619060 0.552665 0.100755
O O11 0.773170 0.591486 0.489238
O O12 0.081644 0.461789 0.605976
O O13 0.439638 0.628613 0.262478
O O14 0.438302 0.429376 0.909870
#
# Coordination Sequence:
#
# PCOD8055331 Si02
#       7
#     4   4   4   4   4   4   4
#     4  12  24  39  67  96 129 169 223 259 317 399
#     4   9  20  42  63  90 132 163 210 267 314 381
#     4  11  22  38  71  96 117 174 218 258 327 380
#     4   9  20  44  64  89 131 169 207 269 320 375
#     4   9  23  42  59  99 127 167 219 260 326 384
#     4  10  23  43  61  95 128 170 212 263 329 373
#     4  10  22  42  67  87 132 174 205 274 325 366
#
# _framework density 20.445029999999999
#
# number of rings (size 3 to 8) (size 9 to 14) (size 15 to 20)
#    0.857    1.143    1.429    0.857    6.000    2.286 
#    2.571    5.714    0.000    0.000    0.000    0.000 
#    0.000    0.000    0.000    0.000    0.000    0.000 
#
# Total GULP energy -173478.929828 kJ/mol
# GULP energy per Si atom -12391.352131 kJ/mol
# Density = 2.039850 g / cm^3
# Si number density = 20.445030 Si / 1000 Ang^3
#
#
#
# Elastic Constant Matrix: (Units=GPa)
#
#
# Indices 1 2 3 4 5 6 
#
# 1 43.8923 34.7703 11.3358 0.0000 -6.3974 0.0000
# 2 34.7703 127.3196 50.3476 0.0000 -9.4488 0.0000
# 3 11.3358 50.3476 154.3297 0.0000 -14.1483 0.0000
# 4 0.0000 0.0000 0.0000 24.7511 0.0000 0.9939
# 5 -6.3974 -9.4488 -14.1483 0.0000 23.0159 0.0000
# 6 0.0000 0.0000 0.0000 0.9939 0.0000 19.6229
#
#
#
# Elastic Compliance Matrix: (Units=1/GPa)
#
#
# Indices 1 2 3 4 5 6 
#
# 1 0.029755 -0.008096 0.000963 0.000000 0.005539 0.000000
# 2 -0.008096 0.011309 -0.003047 0.000000 0.000519 0.000000
# 3 0.000963 -0.003047 0.007750 0.000000 0.003781 0.000000
# 4 0.000000 0.000000 0.000000 0.040485 0.000000 -0.002051
# 5 0.005539 0.000519 0.003781 0.000000 0.047525 0.000000
# 6 0.000000 0.000000 0.000000 -0.002051 0.000000 0.051065
#
#
# Mechanical properties :
#
#
# Convention : Reuss Voigt Hill
#
# Bulk Modulus (GPa) = 35.14430 57.60546 46.37488
# Shear Modulus (GPa) = 22.96414 28.75050 25.85732
#
# Velocity S-wave (km/s) = 3.35507 3.75405 3.56015
# Velocity P-wave (km/s) = 5.67765 6.85766 6.29536
#
# Compressibility (1/GPa) = 0.02845411
#
# Stress axis : x y z
#
# Youngs Moduli (GPa) = 33.60803 88.42816 129.04053
#
# Poissons Ratio (x) = 0.71589 -0.12431
# Poissons Ratio (y) = 0.27208 0.39319
# Poissons Ratio (z) = -0.03238 0.26944
#
# Static dielectric constant tensor:
#      x y z
#    x 3.395490 0.000000 0.101510 
#    y 0.000000 3.523210 0.000000 
#    z 0.101510 0.000000 3.918800 
# 
# 
# High freq. dielectric constant tensor:
#      x y z
#    x 1.772760 0.000000 -0.000090 
#    y 0.000000 1.783210 0.000000 
#    z -0.000090 0.000000 1.820830 
# 
# From -- ./inp_files/16046.got.cif
#   From: 2010.06.25/outbox.cif.g09.slc.cpg/sg9_9_cif.got.tgz:16046.got - 2010.06.27 21:40:51.
