data_PCOD8055204
_publ_section_title
;
Structure prediction by ZEFSAII (Michael W. Deem and Ramdas Pophale) SiO2 
 PCOD8055204
Probable space group: C C
;
_chemical_formula_sum "Si O2"
_cell_formula_units_Z 28
_cell_length_a 8.423448
_cell_length_b 21.486942
_cell_length_c 9.383643
_cell_angle_alpha 90.000000
_cell_angle_beta 128.903943
_cell_angle_gamma 90.000000
_cell_volume 1321.682609
_symmetry_space_group_name_H-M "C C"
_symmetry_group_IT_number 9
_symmetry_cell_setting 'monoclinic'
loop_
_space_group_symop_operation_xyz
x,y,z
x,-y,1/2+z
1/2+x,1/2+y,z
1/2+x,1/2-y,1/2+z
loop_
_atom_site_type_symbol
_atom_site_label
_atom_site_fract_x
_atom_site_fract_y
_atom_site_fract_z
Si Si1 0.533260 0.326287 0.000000
Si Si2 0.923227 0.607236 0.233283
Si Si3 0.887748 0.314254 0.987628
Si Si4 0.115622 0.308649 0.613095
Si Si5 0.859659 0.059243 0.558856
Si Si6 0.495087 0.557591 0.954527
Si Si7 0.750938 0.824101 0.387030
O O1 0.729244 0.340548 0.014021
O O2 0.558548 0.263454 0.106308
O O3 0.493443 0.381321 0.088607
O O4 0.347775 0.319181 0.787159
O O5 0.850447 0.652294 0.317893
O O6 0.963984 0.648697 0.117014
O O7 0.120314 0.568231 0.392161
O O8 0.741235 0.560453 0.088982
O O9 0.115779 0.329349 0.168717
O O10 0.872951 0.240379 0.960246
O O11 0.098877 0.327085 0.437347
O O12 0.897560 0.046690 0.745516
O O13 0.932873 0.999700 0.515505
O O14 0.412822 0.620573 0.979860
#
# Coordination Sequence:
#
# PCOD8055204 Si02
#       7
#     4   4   4   4   4   4   4
#     4  10  22  41  67  98 140 169 224 277 347 400
#     4  11  26  45  72 102 134 173 231 288 341 410
#     4  11  22  41  70 106 137 175 221 285 345 410
#     4  10  22  39  68 101 134 173 216 281 343 407
#     4  11  29  47  66 101 132 185 232 282 333 412
#     4  12  28  47  71  94 139 185 230 284 336 400
#     4  11  23  42  68 102 140 178 224 277 349 405
#
# _framework density 21.185116000000001
#
# number of rings (size 3 to 8) (size 9 to 14) (size 15 to 20)
#    0.000    1.143    1.429    5.143   12.000    3.429 
#    0.000    0.000    0.000    0.000    0.000    0.000 
#    0.000    0.000    0.000    0.000    0.000    0.000 
#
# Total GULP energy -173685.575011 kJ/mol
# GULP energy per Si atom -12406.112501 kJ/mol
# Density = 2.113690 g / cm^3
# Si number density = 21.185116 Si / 1000 Ang^3
#
#
#
# Elastic Constant Matrix: (Units=GPa)
#
#
# Indices 1 2 3 4 5 6 
#
# 1 106.1900 60.3417 34.9689 0.0000 9.7008 0.0000
# 2 60.3417 107.1009 37.0600 0.0000 6.9048 0.0000
# 3 34.9689 37.0600 79.9348 0.0000 1.4551 0.0000
# 4 0.0000 0.0000 0.0000 24.1845 0.0000 -2.2520
# 5 9.7008 6.9048 1.4551 0.0000 32.4191 0.0000
# 6 0.0000 0.0000 0.0000 -2.2520 0.0000 34.9989
#
#
#
# Elastic Compliance Matrix: (Units=1/GPa)
#
#
# Indices 1 2 3 4 5 6 
#
# 1 0.014683 -0.007015 -0.003121 0.000000 -0.002759 0.000000
# 2 -0.007015 0.014623 -0.003695 0.000000 -0.000850 0.000000
# 3 -0.003121 -0.003695 0.015570 0.000000 0.001022 0.000000
# 4 0.000000 0.000000 0.000000 0.041598 0.000000 0.002677
# 5 -0.002759 -0.000850 0.001022 0.000000 0.031807 0.000000
# 6 0.000000 0.000000 0.000000 0.002677 0.000000 0.028745
#
#
# Mechanical properties :
#
#
# Convention : Reuss Voigt Hill
#
# Bulk Modulus (GPa) = 58.09243 61.99631 60.04437
# Shear Modulus (GPa) = 27.71239 29.04417 28.37828
#
# Velocity S-wave (km/s) = 3.62070 3.70668 3.66394
# Velocity P-wave (km/s) = 6.70523 6.90267 6.80467
#
# Compressibility (1/GPa) = 0.01721395
#
# Stress axis : x y z
#
# Youngs Moduli (GPa) = 68.10632 68.38745 64.22566
#
# Poissons Ratio (x) = 0.47972 0.20044
# Poissons Ratio (y) = 0.47774 0.23733
# Poissons Ratio (z) = 0.21255 0.25271
#
# Static dielectric constant tensor:
#      x y z
#    x 3.879540 0.000000 -0.002990 
#    y 0.000000 3.807680 0.000000 
#    z -0.002990 0.000000 3.890060 
# 
# 
# High freq. dielectric constant tensor:
#      x y z
#    x 1.837230 0.000000 0.001000 
#    y 0.000000 1.824980 0.000000 
#    z 0.001000 0.000000 1.845010 
# 
# From -- ./inp_files/5554.got.cif
#   From: 2010.06.25/outbox.cif.g09.slc.cpg/sg9_3_cif.got.tgz:5554.got - 2010.06.27 21:40:51.
