data_PCOD8055628
_publ_section_title
;
Structure prediction by ZEFSAII (Michael W. Deem and Ramdas Pophale) SiO2 
 PCOD8055628
Probable space group: C C
;
_chemical_formula_sum "Si O2"
_cell_formula_units_Z 32
_cell_length_a 11.136695
_cell_length_b 9.536330
_cell_length_c 26.953230
_cell_angle_alpha 90.000000
_cell_angle_beta 31.543873
_cell_angle_gamma 90.000000
_cell_volume 1497.530668
_symmetry_space_group_name_H-M "C C"
_symmetry_group_IT_number 9
_symmetry_cell_setting 'monoclinic'
loop_
_space_group_symop_operation_xyz
x,y,z
x,-y,1/2+z
1/2+x,1/2+y,z
1/2+x,1/2-y,1/2+z
loop_
_atom_site_type_symbol
_atom_site_label
_atom_site_fract_x
_atom_site_fract_y
_atom_site_fract_z
Si Si1 0.185070 0.239718 0.772030
Si Si2 0.205831 0.806134 0.613733
Si Si3 0.672024 0.953909 0.294758
Si Si4 0.954094 0.800359 0.540113
Si Si5 0.196614 0.548588 0.680098
Si Si6 0.647880 0.546284 0.874129
Si Si7 0.873588 0.239917 0.452975
Si Si8 0.631525 0.411673 0.184850
O O1 0.444685 0.285661 0.689700
O O2 0.060233 0.391452 0.822090
O O3 0.081470 0.140938 0.850693
O O4 0.156018 0.156634 0.730627
O O5 0.286133 0.664471 0.611107
O O6 0.353300 0.822846 0.511988
O O7 0.246614 0.934652 0.637456
O O8 0.778147 0.901168 0.205487
O O9 0.472301 0.849605 0.379278
O O10 0.863372 0.938849 0.269725
O O11 0.058388 0.871841 0.454443
O O12 0.131636 0.708769 0.511165
O O13 0.750306 0.688004 0.601187
O O14 0.833791 0.910107 0.618829
O O15 0.921211 0.522569 0.777743
O O16 0.520330 0.399339 0.910722
#
# Coordination Sequence:
#
# PCOD8055628 Si02
#       8
#     4   4   4   4   4   4   4   4
#     4  10  23  45  66  94 137 178 226 285 345 414
#     4  10  23  43  69  97 134 176 232 287 339 418
#     4  11  24  41  69  99 134 182 230 282 353 413
#     4  12  23  45  70  96 143 181 229 290 348 412
#     4  11  22  48  70  96 140 183 227 289 351 404
#     4  11  26  43  70 103 134 183 234 288 347 417
#     4  12  24  43  66 103 135 177 236 289 345 415
#     4  11  23  44  68  96 137 186 226 288 352 411
#
# _framework density 21.368511000000002
#
# number of rings (size 3 to 8) (size 9 to 14) (size 15 to 20)
#    0.000    1.000    5.000    1.500    3.500    1.000 
#    2.250    0.000    0.000    0.000    0.000    0.000 
#    0.000    0.000    0.000    0.000    0.000    0.000 
#
# Total GULP energy -198227.562625 kJ/mol
# GULP energy per Si atom -12389.222664 kJ/mol
# Density = 2.131988 g / cm^3
# Si number density = 21.368511 Si / 1000 Ang^3
#
#
#
# Elastic Constant Matrix: (Units=GPa)
#
#
# Indices 1 2 3 4 5 6 
#
# 1 102.3220 56.2732 30.7086 0.0001 23.7065 0.0003
# 2 56.2732 127.4489 41.0206 0.0009 7.7050 -0.0004
# 3 30.7086 41.0206 88.1605 0.0051 23.5990 -0.0002
# 4 0.0001 0.0009 0.0051 34.4307 0.0009 7.3802
# 5 23.7065 7.7050 23.5990 0.0009 29.5653 -0.0001
# 6 0.0003 -0.0004 -0.0002 7.3802 -0.0001 42.9478
#
#
#
# Elastic Compliance Matrix: (Units=1/GPa)
#
#
# Indices 1 2 3 4 5 6 
#
# 1 0.015815 -0.006473 0.000567 0.000000 -0.011447 0.000000
# 2 -0.006473 0.011918 -0.004894 0.000000 0.005991 0.000000
# 3 0.000567 -0.004894 0.016790 -0.000002 -0.012582 0.000000
# 4 0.000000 0.000000 -0.000002 0.030155 0.000000 -0.005182
# 5 -0.011447 0.005991 -0.012582 0.000000 0.051483 0.000000
# 6 0.000000 0.000000 0.000000 -0.005182 0.000000 0.024175
#
#
# Mechanical properties :
#
#
# Convention : Reuss Voigt Hill
#
# Bulk Modulus (GPa) = 43.62487 63.77069 53.69778
# Shear Modulus (GPa) = 27.84332 34.05068 30.94700
#
# Velocity S-wave (km/s) = 3.61363 3.99620 3.80972
# Velocity P-wave (km/s) = 6.15394 7.15548 6.67352
#
# Compressibility (1/GPa) = 0.02292271
#
# Stress axis : x y z
#
# Youngs Moduli (GPa) = 63.23100 83.90988 59.55811
#
# Poissons Ratio (x) = 0.54319 -0.03380
# Poissons Ratio (y) = 0.40933 0.29148
# Poissons Ratio (z) = -0.03588 0.41066
#
# Static dielectric constant tensor:
#      x y z
#    x 3.892080 0.000000 0.120360 
#    y 0.000000 4.199950 0.000000 
#    z 0.120360 0.000000 3.944020 
# 
# 
# High freq. dielectric constant tensor:
#      x y z
#    x 1.838490 0.000000 0.012710 
#    y 0.000000 1.850060 0.000000 
#    z 0.012710 0.000000 1.840370 
# 
# From -- ./inp_files/24250.got.cif
#   From: 2010.06.25/outbox.cif.g09.slc.cpg/sg9_13_cif.got.tgz:24250.got - 2010.06.27 21:40:51.
