data_PCOD8055047
_publ_section_title
;
Structure prediction by ZEFSAII (Michael W. Deem and Ramdas Pophale) SiO2 
 PCOD8055047
Probable space group: C C
;
_chemical_formula_sum "Si O2"
_cell_formula_units_Z 32
_cell_length_a 9.930187
_cell_length_b 13.662391
_cell_length_c 10.901276
_cell_angle_alpha 90.000000
_cell_angle_beta 71.434326
_cell_angle_gamma 90.000000
_cell_volume 1402.010213
_symmetry_space_group_name_H-M "C C"
_symmetry_group_IT_number 9
_symmetry_cell_setting 'monoclinic'
loop_
_space_group_symop_operation_xyz
x,y,z
x,-y,1/2+z
1/2+x,1/2+y,z
1/2+x,1/2-y,1/2+z
loop_
_atom_site_type_symbol
_atom_site_label
_atom_site_fract_x
_atom_site_fract_y
_atom_site_fract_z
Si Si1 0.457830 0.213339 0.251880
Si Si2 0.474942 0.419486 0.151816
Si Si3 0.622178 0.900433 0.511544
Si Si4 0.148172 0.787717 0.410450
Si Si5 0.548903 0.110731 0.569789
Si Si6 0.426722 0.445794 0.442787
Si Si7 0.430063 0.111056 0.855701
Si Si8 0.796839 0.589937 0.476924
O O1 0.411139 0.309754 0.188758
O O2 0.529058 0.126669 0.155104
O O3 0.585017 0.241116 0.306430
O O4 0.319891 0.165439 0.356858
O O5 0.458080 0.477314 0.289535
O O6 0.399101 0.468749 0.053672
O O7 0.638438 0.406765 0.070859
O O8 0.788941 0.873328 0.476865
O O9 0.540692 0.847438 0.423844
O O10 0.625135 0.017705 0.484620
O O11 0.315746 0.807381 0.349689
O O12 0.136645 0.710308 0.524927
O O13 0.059333 0.886991 0.461651
O O14 0.534202 0.084666 0.715506
O O15 0.392379 0.127186 0.560652
O O16 0.340219 0.019181 0.928395
#
# Coordination Sequence:
#
# PCOD8055047 Si02
#       8
#     4   4   4   4   4   4   4   4
#     4  10  23  43  71 104 139 192 234 298 363 429
#     4  11  25  43  74 103 144 187 245 299 362 430
#     4  11  26  43  68 100 146 178 231 293 366 430
#     4  10  23  44  72  98 133 182 242 291 352 420
#     4  10  22  41  71  96 134 183 232 288 353 423
#     4  11  26  46  70 106 145 186 231 306 369 425
#     4  11  22  44  69 102 131 183 241 292 348 432
#     4  10  21  42  73 103 136 187 244 299 349 433
#
# _framework density 22.824369999999998
#
# number of rings (size 3 to 8) (size 9 to 14) (size 15 to 20)
#    0.000    1.500    2.500    1.500    8.750    1.000 
#    4.500    0.000    0.000    0.000    0.000    0.000 
#    0.000    0.000    0.000    0.000    0.000    0.000 
#
# Total GULP energy -198267.122273 kJ/mol
# GULP energy per Si atom -12391.695142 kJ/mol
# Density = 2.277242 g / cm^3
# Si number density = 22.824370 Si / 1000 Ang^3
#
#
#
# Elastic Constant Matrix: (Units=GPa)
#
#
# Indices 1 2 3 4 5 6 
#
# 1 72.6045 10.2930 20.6604 0.0000 10.9687 0.0000
# 2 10.2930 59.0128 32.8780 0.0000 11.0665 0.0000
# 3 20.6604 32.8780 141.3684 0.0000 5.8059 0.0000
# 4 0.0000 0.0000 0.0000 44.1154 0.0000 -1.4774
# 5 10.9687 11.0665 5.8059 0.0000 19.0355 0.0000
# 6 0.0000 0.0000 0.0000 -1.4774 0.0000 24.4683
#
#
#
# Elastic Compliance Matrix: (Units=1/GPa)
#
#
# Indices 1 2 3 4 5 6 
#
# 1 0.015592 -0.000086 -0.001916 0.000000 -0.008350 0.000000
# 2 -0.000086 0.021578 -0.004550 0.000000 -0.011107 0.000000
# 3 -0.001916 -0.004550 0.008363 0.000000 0.001198 0.000000
# 4 0.000000 0.000000 0.000000 0.022714 0.000000 0.001371
# 5 -0.008350 -0.011107 0.001198 0.000000 0.063437 0.000000
# 6 0.000000 0.000000 0.000000 0.001371 0.000000 0.040952
#
#
# Mechanical properties :
#
#
# Convention : Reuss Voigt Hill
#
# Bulk Modulus (GPa) = 30.83620 44.51652 37.67636
# Shear Modulus (GPa) = 25.43898 31.46746 28.45322
#
# Velocity S-wave (km/s) = 3.34211 3.71708 3.53457
# Velocity P-wave (km/s) = 5.33221 6.16186 5.76199
#
# Compressibility (1/GPa) = 0.03242942
#
# Stress axis : x y z
#
# Youngs Moduli (GPa) = 64.13501 46.34296 119.58023
#
# Poissons Ratio (x) = 0.00400 0.22908
# Poissons Ratio (y) = 0.00554 0.54405
# Poissons Ratio (z) = 0.12286 0.21084
#
# Static dielectric constant tensor:
#      x y z
#    x 4.032160 0.000000 0.098090 
#    y 0.000000 4.298890 0.000000 
#    z 0.098090 0.000000 4.240310 
# 
# 
# High freq. dielectric constant tensor:
#      x y z
#    x 1.894220 0.000000 -0.002720 
#    y 0.000000 1.890150 0.000000 
#    z -0.002720 0.000000 1.907200 
# 
# From -- ./inp_files/14718.got.cif
#   From: 2010.06.25/outbox.cif.g09.slc.cpg/sg9_8_cif.got.tgz:14718.got - 2010.06.27 21:40:51.
