data_PCOD8055343
_publ_section_title
;
Structure prediction by ZEFSAII (Michael W. Deem and Ramdas Pophale) SiO2 
 PCOD8055343
Probable space group: C C
;
_chemical_formula_sum "Si O2"
_cell_formula_units_Z 32
_cell_length_a 21.030949
_cell_length_b 12.280914
_cell_length_c 14.887324
_cell_angle_alpha 90.000000
_cell_angle_beta 21.317708
_cell_angle_gamma 90.000000
_cell_volume 1397.839811
_symmetry_space_group_name_H-M "C C"
_symmetry_group_IT_number 9
_symmetry_cell_setting 'monoclinic'
loop_
_space_group_symop_operation_xyz
x,y,z
x,-y,1/2+z
1/2+x,1/2+y,z
1/2+x,1/2-y,1/2+z
loop_
_atom_site_type_symbol
_atom_site_label
_atom_site_fract_x
_atom_site_fract_y
_atom_site_fract_z
Si Si1 0.561980 0.728814 0.742000
Si Si2 0.221654 0.182975 0.722759
Si Si3 0.656664 0.818023 0.982005
Si Si4 0.754801 0.343950 0.505289
Si Si5 0.951283 0.999174 0.400265
Si Si6 0.880314 0.222147 0.694613
Si Si7 0.226446 0.689802 0.707047
Si Si8 0.442081 0.483011 0.614047
O O1 0.616930 0.717249 0.772451
O O2 0.458300 0.619272 0.844281
O O3 0.713350 0.745932 0.471726
O O4 0.423747 0.829516 0.924606
O O5 0.218816 0.275727 0.802841
O O6 0.133379 0.072421 0.877927
O O7 0.785740 0.907216 0.858268
O O8 0.661918 0.720884 0.046716
O O9 0.461553 0.864064 0.222638
O O10 0.652018 0.458075 0.638415
O O11 0.723259 0.289979 0.643151
O O12 0.804850 0.082658 0.551705
O O13 0.881623 0.986499 0.591679
O O14 0.851380 0.214954 0.626172
O O15 0.029429 0.315893 0.507720
O O16 0.945552 0.105174 0.649051
#
# Coordination Sequence:
#
# PCOD8055343 Si02
#       8
#     4   4   4   4   4   4   4   4
#     4  11  24  45  68  97 135 175 222 275 335 400
#     4  11  21  44  67  94 134 172 218 281 322 391
#     4  12  22  40  67  97 129 176 224 269 326 395
#     4  12  22  40  67  97 129 176 224 269 326 395
#     4  10  22  42  68  93 137 173 216 277 338 382
#     4  11  24  45  68  97 135 175 222 275 335 400
#     4  11  21  44  67  94 134 172 218 281 322 391
#     4  10  22  42  68  93 137 173 216 277 338 382
#
# _framework density 22.892465000000001
#
# number of rings (size 3 to 8) (size 9 to 14) (size 15 to 20)
#    0.000    1.000    7.500    0.750    0.000    4.000 
#    9.000    1.250    0.000    0.000    0.000    0.000 
#    0.000    0.000    0.000    0.000    0.000    0.000 
#
# Total GULP energy -198220.717360 kJ/mol
# GULP energy per Si atom -12388.794835 kJ/mol
# Density = 2.284036 g / cm^3
# Si number density = 22.892465 Si / 1000 Ang^3
#
#
#
# Elastic Constant Matrix: (Units=GPa)
#
#
# Indices 1 2 3 4 5 6 
#
# 1 65.6313 13.4686 3.6647 0.0001 1.8762 -0.0001
# 2 13.4686 96.3605 53.0133 0.0001 -3.7323 -0.0001
# 3 3.6647 53.0133 161.4284 -0.0001 -13.6690 -0.0001
# 4 0.0001 0.0001 -0.0001 41.9200 -0.0002 -5.5443
# 5 1.8762 -3.7323 -13.6690 -0.0002 31.6295 0.0001
# 6 -0.0001 -0.0001 -0.0001 -5.5443 0.0001 13.5986
#
#
#
# Elastic Compliance Matrix: (Units=1/GPa)
#
#
# Indices 1 2 3 4 5 6 
#
# 1 0.015747 -0.002436 0.000352 0.000000 -0.001069 0.000000
# 2 -0.002436 0.013046 -0.004242 0.000000 -0.000149 0.000000
# 3 0.000352 -0.004242 0.007822 0.000000 0.002859 0.000000
# 4 0.000000 0.000000 0.000000 0.025215 0.000000 0.010280
# 5 -0.001069 -0.000149 0.002859 0.000000 0.032897 0.000000
# 6 0.000000 0.000000 0.000000 0.010280 0.000000 0.077728
#
#
# Mechanical properties :
#
#
# Convention : Reuss Voigt Hill
#
# Bulk Modulus (GPa) = 41.72994 51.52372 46.62683
# Shear Modulus (GPa) = 25.89397 34.31452 30.10424
#
# Velocity S-wave (km/s) = 3.36685 3.87582 3.63027
# Velocity P-wave (km/s) = 5.77776 6.52572 6.16310
#
# Compressibility (1/GPa) = 0.02396361
#
# Stress axis : x y z
#
# Youngs Moduli (GPa) = 63.50216 76.65186 127.84869
#
# Poissons Ratio (x) = 0.18673 -0.04500
# Poissons Ratio (y) = 0.15470 0.54229
# Poissons Ratio (z) = -0.02235 0.32513
#
# Static dielectric constant tensor:
#      x y z
#    x 3.945120 0.000000 -0.044660 
#    y 0.000000 4.549510 0.000000 
#    z -0.044660 0.000000 4.401570 
# 
# 
# High freq. dielectric constant tensor:
#      x y z
#    x 1.891570 0.000000 0.004420 
#    y 0.000000 1.884320 0.000000 
#    z 0.004420 0.000000 1.923640 
# 
# From -- ./inp_files/12200.got.cif
#   From: 2010.06.25/outbox.cif.g09.slc.cpg/sg9_7_cif.got.tgz:12200.got - 2010.06.27 21:40:51.
