data_PCOD8055552
_publ_section_title
;
Structure prediction by ZEFSAII (Michael W. Deem and Ramdas Pophale) SiO2 
 PCOD8055552
Probable space group: C C
;
_chemical_formula_sum "Si O2"
_cell_formula_units_Z 32
_cell_length_a 14.887047
_cell_length_b 8.163254
_cell_length_c 28.842312
_cell_angle_alpha 90.000000
_cell_angle_beta 154.913791
_cell_angle_gamma 90.000000
_cell_volume 1486.102576
_symmetry_space_group_name_H-M "C C"
_symmetry_group_IT_number 9
_symmetry_cell_setting 'monoclinic'
loop_
_space_group_symop_operation_xyz
x,y,z
x,-y,1/2+z
1/2+x,1/2+y,z
1/2+x,1/2-y,1/2+z
loop_
_atom_site_type_symbol
_atom_site_label
_atom_site_fract_x
_atom_site_fract_y
_atom_site_fract_z
Si Si1 0.474130 0.036738 0.463730
Si Si2 0.826929 0.304558 0.319074
Si Si3 0.689841 0.017583 0.727654
Si Si4 0.982611 0.772310 0.300295
Si Si5 0.075381 0.255804 0.255963
Si Si6 0.336279 0.084431 0.724368
Si Si7 0.427575 0.583894 0.677168
Si Si8 0.450207 0.817568 0.541521
O O1 0.296402 0.171249 0.371971
O O2 0.688613 0.143286 0.557092
O O3 0.469964 0.889372 0.424588
O O4 0.464429 0.960047 0.509947
O O5 0.821594 0.107577 0.322481
O O6 0.919966 0.342434 0.311855
O O7 0.584376 0.374053 0.208303
O O8 0.511375 0.909315 0.617969
O O9 0.584657 0.153279 0.710985
O O10 0.850124 0.092299 0.765544
O O11 0.210695 0.745561 0.431678
O O12 0.834717 0.611521 0.229110
O O13 0.031703 0.836898 0.271660
O O14 0.007580 0.378686 0.264676
O O15 0.902515 0.112365 0.171174
O O16 0.107270 0.163568 0.605025
#
# Coordination Sequence:
#
# PCOD8055552 Si02
#       8
#     4   4   4   4   4   4   4   4
#     4  11  22  43  70  99 133 186 221 279 353 402
#     4  10  23  41  66  94 136 173 228 282 335 401
#     4  11  25  45  66 104 135 180 229 286 337 412
#     4  12  23  44  71  98 141 180 228 283 343 409
#     4  11  23  42  66  97 141 175 228 282 341 404
#     4  11  25  45  66 103 138 178 229 287 331 410
#     4  11  21  42  67  98 137 175 224 285 335 409
#     4  11  24  46  72  99 139 185 225 284 351 399
#
# _framework density 21.532834999999999
#
# number of rings (size 3 to 8) (size 9 to 14) (size 15 to 20)
#    0.000    1.000    5.000    3.000    0.000    6.000 
#    0.000    0.000    0.000    0.000    0.000    0.000 
#    0.000    0.000    0.000    0.000    0.000    0.000 
#
# Total GULP energy -198382.038850 kJ/mol
# GULP energy per Si atom -12398.877428 kJ/mol
# Density = 2.148382 g / cm^3
# Si number density = 21.532835 Si / 1000 Ang^3
#
#
#
# Elastic Constant Matrix: (Units=GPa)
#
#
# Indices 1 2 3 4 5 6 
#
# 1 84.2056 18.7839 32.6334 0.0000 -5.5590 -0.0001
# 2 18.7839 110.7277 39.3118 0.0005 -0.1097 -0.0003
# 3 32.6334 39.3118 117.5423 0.0013 9.9408 0.0000
# 4 0.0000 0.0005 0.0013 30.7021 -0.0001 -3.1203
# 5 -5.5590 -0.1097 9.9408 -0.0001 31.3658 0.0000
# 6 -0.0001 -0.0003 0.0000 -3.1203 0.0000 39.1467
#
#
#
# Elastic Compliance Matrix: (Units=1/GPa)
#
#
# Indices 1 2 3 4 5 6 
#
# 1 0.013815 -0.000986 -0.003815 0.000000 0.003654 0.000000
# 2 -0.000986 0.010359 -0.003267 0.000000 0.000897 0.000000
# 3 -0.003815 -0.003267 0.011013 0.000000 -0.004178 0.000000
# 4 0.000000 0.000000 0.000000 0.032837 0.000000 0.002617
# 5 0.003654 0.000897 -0.004178 0.000000 0.033857 0.000000
# 6 0.000000 0.000000 0.000000 0.002617 0.000000 0.025754
#
#
# Mechanical properties :
#
#
# Convention : Reuss Voigt Hill
#
# Bulk Modulus (GPa) = 52.48715 54.88153 53.68434
# Shear Modulus (GPa) = 33.30677 35.02603 34.16640
#
# Velocity S-wave (km/s) = 3.93719 4.03753 3.98768
# Velocity P-wave (km/s) = 6.71543 6.87592 6.79615
#
# Compressibility (1/GPa) = 0.01905228
#
# Stress axis : x y z
#
# Youngs Moduli (GPa) = 72.38379 96.53391 90.80494
#
# Poissons Ratio (x) = 0.09514 0.34642
# Poissons Ratio (y) = 0.07134 0.29664
# Poissons Ratio (z) = 0.27614 0.31536
#
# Static dielectric constant tensor:
#      x y z
#    x 3.901330 0.000000 0.006820 
#    y 0.000000 3.953570 0.000000 
#    z 0.006820 0.000000 3.943470 
# 
# 
# High freq. dielectric constant tensor:
#      x y z
#    x 1.855280 0.000000 -0.002300 
#    y 0.000000 1.847840 0.000000 
#    z -0.002300 0.000000 1.834900 
# 
# From -- ./inp_files/36718.got.cif
#   From: 2010.06.25/outbox.cif.g09.slc.cpg/sg9_19_cif.got.tgz:36718.got - 2010.06.27 21:40:51.
