data_PCOD8055374
_publ_section_title
;
Structure prediction by ZEFSAII (Michael W. Deem and Ramdas Pophale) SiO2 
 PCOD8055374
Probable space group: C C
;
_chemical_formula_sum "Si O2"
_cell_formula_units_Z 32
_cell_length_a 13.517513
_cell_length_b 12.590946
_cell_length_c 8.079232
_cell_angle_alpha 90.000000
_cell_angle_beta 95.697261
_cell_angle_gamma 90.000000
_cell_volume 1368.278943
_symmetry_space_group_name_H-M "C C"
_symmetry_group_IT_number 9
_symmetry_cell_setting 'monoclinic'
loop_
_space_group_symop_operation_xyz
x,y,z
x,-y,1/2+z
1/2+x,1/2+y,z
1/2+x,1/2-y,1/2+z
loop_
_atom_site_type_symbol
_atom_site_label
_atom_site_fract_x
_atom_site_fract_y
_atom_site_fract_z
Si Si1 0.032740 0.341865 0.389200
Si Si2 0.809623 0.341540 0.346734
Si Si3 0.724482 0.125743 0.398179
Si Si4 0.305259 0.052224 0.192443
Si Si5 0.490626 0.447721 0.488244
Si Si6 0.610071 0.375041 0.803114
Si Si7 0.530642 0.055196 0.238080
Si Si8 0.840197 0.053125 0.710267
O O1 0.104270 0.241666 0.380585
O O2 0.045415 0.427364 0.244182
O O3 0.059174 0.403918 0.561608
O O4 0.921193 0.296500 0.374270
O O5 0.739890 0.239886 0.314950
O O6 0.792657 0.423365 0.192512
O O7 0.784254 0.409880 0.504766
O O8 0.605969 0.108707 0.381692
O O9 0.766652 0.130590 0.594610
O O10 0.775164 0.032750 0.299084
O O11 0.226868 0.103368 0.305781
O O12 0.417067 0.082542 0.270825
O O13 0.560605 0.372505 0.610292
O O14 0.558190 0.536969 0.410071
O O15 0.408725 0.498527 0.588859
O O16 0.420328 0.385319 0.342464
#
# Coordination Sequence:
#
# PCOD8055374 Si02
#       8
#     4   4   4   4   4   4   4   4
#     4  10  22  43  66  92 130 174 217 266 326 388
#     4  10  22  43  65  89 126 170 214 267 323 382
#     4  11  21  39  67  95 129 175 216 264 329 391
#     4  10  23  42  64  94 130 167 219 269 315 387
#     4   9  19  36  60  97 136 164 207 271 326 382
#     4  11  21  39  67  97 132 177 217 264 329 394
#     4  10  23  42  65  95 132 172 219 272 320 385
#     4   9  19  36  60  97 135 163 209 271 324 385
#
# _framework density 23.387043999999999
#
# number of rings (size 3 to 8) (size 9 to 14) (size 15 to 20)
#    0.000    2.000    0.000    3.750    0.000    4.000 
#    0.000   15.000    0.000    6.000    0.000    0.000 
#    0.000    0.000    0.000    0.000    0.000    0.000 
#
# Total GULP energy -198280.339757 kJ/mol
# GULP energy per Si atom -12392.521235 kJ/mol
# Density = 2.333381 g / cm^3
# Si number density = 23.387044 Si / 1000 Ang^3
#
#
#
# Elastic Constant Matrix: (Units=GPa)
#
#
# Indices 1 2 3 4 5 6 
#
# 1 126.2062 46.9594 43.0017 0.0000 6.1642 0.0000
# 2 46.9594 112.7830 32.0481 0.0000 2.6174 0.0000
# 3 43.0017 32.0481 86.0959 0.0000 6.1053 0.0000
# 4 0.0000 0.0000 0.0000 33.4433 0.0000 -3.3137
# 5 6.1642 2.6174 6.1053 0.0000 19.8103 0.0000
# 6 0.0000 0.0000 0.0000 -3.3137 0.0000 33.0314
#
#
#
# Elastic Compliance Matrix: (Units=1/GPa)
#
#
# Indices 1 2 3 4 5 6 
#
# 1 0.010553 -0.003233 -0.003951 0.000000 -0.001639 0.000000
# 2 -0.003233 0.010907 -0.002468 0.000000 0.000326 0.000000
# 3 -0.003951 -0.002468 0.014718 0.000000 -0.002981 0.000000
# 4 0.000000 0.000000 0.000000 0.030202 0.000000 0.003030
# 5 -0.001639 0.000326 -0.002981 0.000000 0.051864 0.000000
# 6 0.000000 0.000000 0.000000 0.003030 0.000000 0.030578
#
#
# Mechanical properties :
#
#
# Convention : Reuss Voigt Hill
#
# Bulk Modulus (GPa) = 59.26536 63.23373 61.24954
# Shear Modulus (GPa) = 28.77689 30.79541 29.78615
#
# Velocity S-wave (km/s) = 3.51160 3.63267 3.57265
# Velocity P-wave (km/s) = 6.46822 6.68519 6.57760
#
# Compressibility (1/GPa) = 0.01687326
#
# Stress axis : x y z
#
# Youngs Moduli (GPa) = 94.76162 91.68832 67.94212
#
# Poissons Ratio (x) = 0.29644 0.26844
# Poissons Ratio (y) = 0.30637 0.16769
# Poissons Ratio (z) = 0.37441 0.22629
#
# Static dielectric constant tensor:
#      x y z
#    x 4.632880 0.000000 0.322060 
#    y 0.000000 3.844330 0.000000 
#    z 0.322060 0.000000 4.685480 
# 
# 
# High freq. dielectric constant tensor:
#      x y z
#    x 1.942560 0.000000 0.000300 
#    y 0.000000 1.895940 0.000000 
#    z 0.000300 0.000000 1.925600 
# 
# From -- ./inp_files/9275.got.cif
#   From: 2010.06.25/outbox.cif.g09.slc.cpg/sg9_5_cif.got.tgz:9275.got - 2010.06.27 21:40:51.
