data_PCOD8055407
_publ_section_title
;
Structure prediction by ZEFSAII (Michael W. Deem and Ramdas Pophale) SiO2 
 PCOD8055407
Probable space group: C C
;
_chemical_formula_sum "Si O2"
_cell_formula_units_Z 28
_cell_length_a 13.432887
_cell_length_b 11.233054
_cell_length_c 8.402281
_cell_angle_alpha 90.000000
_cell_angle_beta 64.049275
_cell_angle_gamma 90.000000
_cell_volume 1140.004498
_symmetry_space_group_name_H-M "C C"
_symmetry_group_IT_number 9
_symmetry_cell_setting 'monoclinic'
loop_
_space_group_symop_operation_xyz
x,y,z
x,-y,1/2+z
1/2+x,1/2+y,z
1/2+x,1/2-y,1/2+z
loop_
_atom_site_type_symbol
_atom_site_label
_atom_site_fract_x
_atom_site_fract_y
_atom_site_fract_z
Si Si1 0.739840 0.411991 0.914910
Si Si2 0.383511 0.777798 0.595088
Si Si3 0.324139 0.759148 0.126448
Si Si4 0.420387 0.415156 0.322359
Si Si5 0.118133 0.911171 0.685099
Si Si6 0.742404 0.876713 0.967653
Si Si7 0.011198 0.328743 0.207077
O O1 0.854441 0.384831 0.739365
O O2 0.648158 0.379653 0.846507
O O3 0.739504 0.325810 0.068277
O O4 0.722820 0.545196 0.999674
O O5 0.420969 0.657342 0.656819
O O6 0.278750 0.729423 0.564258
O O7 0.476836 0.834547 0.416580
O O8 0.244674 0.680901 0.292124
O O9 0.404408 0.850354 0.168795
O O10 0.409346 0.674680 0.975159
O O11 0.538553 0.475505 0.248648
O O12 0.319897 0.508610 0.409931
O O13 0.054699 0.805144 0.643098
O O14 0.615553 0.915781 0.098641
#
# Coordination Sequence:
#
# PCOD8055407 Si02
#       7
#     4   4   4   4   4   4   4
#     4  11  26  40  69 100 144 171 231 292 345 389
#     4  10  22  44  66 101 140 177 224 288 338 407
#     4  10  24  43  66 101 140 180 229 285 338 408
#     4  11  22  41  73 104 133 172 236 282 334 411
#     4  12  23  40  74 109 123 182 233 285 333 407
#     4  11  22  39  69 102 143 174 224 289 338 404
#     4  11  23  43  73  99 139 184 229 277 350 402
#
# _framework density 24.561306999999999
#
# number of rings (size 3 to 8) (size 9 to 14) (size 15 to 20)
#    0.000    1.143    4.286    2.571    4.000    0.000 
#    0.000    0.000   18.857    0.000    0.000    0.000 
#    0.000    0.000    0.000    0.000    0.000    0.000 
#
# Total GULP energy -173483.126203 kJ/mol
# GULP energy per Si atom -12391.651872 kJ/mol
# Density = 2.450540 g / cm^3
# Si number density = 24.561307 Si / 1000 Ang^3
#
#
#
# Elastic Constant Matrix: (Units=GPa)
#
#
# Indices 1 2 3 4 5 6 
#
# 1 106.7097 15.2721 46.4970 0.0000 7.5476 0.0000
# 2 15.2721 51.5123 23.4887 0.0000 4.7686 0.0000
# 3 46.4970 23.4887 138.8650 0.0000 2.6154 0.0000
# 4 0.0000 0.0000 0.0000 34.5168 0.0000 -11.8687
# 5 7.5476 4.7686 2.6154 0.0000 48.4604 0.0000
# 6 0.0000 0.0000 0.0000 -11.8687 0.0000 32.5077
#
#
#
# Elastic Compliance Matrix: (Units=1/GPa)
#
#
# Indices 1 2 3 4 5 6 
#
# 1 0.011206 -0.001619 -0.003452 0.000000 -0.001400 0.000000
# 2 -0.001619 0.021442 -0.003053 0.000000 -0.001693 0.000000
# 3 -0.003452 -0.003053 0.008867 0.000000 0.000360 0.000000
# 4 0.000000 0.000000 0.000000 0.033131 0.000000 0.012096
# 5 -0.001400 -0.001693 0.000360 0.000000 0.021001 0.000000
# 6 0.000000 0.000000 0.000000 0.012096 0.000000 0.035178
#
#
# Mechanical properties :
#
#
# Convention : Reuss Voigt Hill
#
# Bulk Modulus (GPa) = 39.57721 51.95587 45.76654
# Shear Modulus (GPa) = 32.15570 37.21893 34.68732
#
# Velocity S-wave (km/s) = 3.62221 3.89697 3.76210
# Velocity P-wave (km/s) = 5.80022 6.43801 6.12742
#
# Compressibility (1/GPa) = 0.02526707
#
# Stress axis : x y z
#
# Youngs Moduli (GPa) = 89.23754 46.63847 112.78122
#
# Poissons Ratio (x) = 0.07549 0.38932
# Poissons Ratio (y) = 0.14445 0.34431
# Poissons Ratio (z) = 0.30805 0.14238
#
# Static dielectric constant tensor:
#      x y z
#    x 4.318560 0.000000 0.033990 
#    y 0.000000 4.218960 0.000000 
#    z 0.033990 0.000000 4.811030 
# 
# 
# High freq. dielectric constant tensor:
#      x y z
#    x 1.965930 0.000000 0.004180 
#    y 0.000000 1.955650 0.000000 
#    z 0.004180 0.000000 2.000800 
# 
# From -- ./inp_files/8892.got.cif
#   From: 2010.06.25/outbox.cif.g09.slc.cpg/sg9_5_cif.got.tgz:8892.got - 2010.06.27 21:40:51.
