data_PCOD8055796
_publ_section_title
;
Structure prediction by ZEFSAII (Michael W. Deem and Ramdas Pophale) SiO2 
 PCOD8055796
Probable space group: C C
;
_chemical_formula_sum "Si O2"
_cell_formula_units_Z 28
_cell_length_a 5.057569
_cell_length_b 26.065913
_cell_length_c 8.685678
_cell_angle_alpha 90.000000
_cell_angle_beta 87.327575
_cell_angle_gamma 90.000000
_cell_volume 1143.788960
_symmetry_space_group_name_H-M "C C"
_symmetry_group_IT_number 9
_symmetry_cell_setting 'monoclinic'
loop_
_space_group_symop_operation_xyz
x,y,z
x,-y,1/2+z
1/2+x,1/2+y,z
1/2+x,1/2-y,1/2+z
loop_
_atom_site_type_symbol
_atom_site_label
_atom_site_fract_x
_atom_site_fract_y
_atom_site_fract_z
Si Si1 0.990790 0.148064 0.282470
Si Si2 0.171344 0.466931 0.485736
Si Si3 0.165717 0.046755 0.163866
Si Si4 0.952746 0.549277 0.677818
Si Si5 0.995099 0.680236 0.092743
Si Si6 0.411341 0.703374 0.601877
Si Si7 0.893722 0.338146 0.253614
O O1 0.766570 0.161937 0.163665
O O2 0.922269 0.166619 0.453905
O O3 0.049501 0.086586 0.291930
O O4 0.260576 0.173904 0.220073
O O5 0.464670 0.453307 0.527372
O O6 0.093520 0.527169 0.519479
O O7 0.169291 0.456010 0.306132
O O8 0.950288 0.433447 0.588008
O O9 0.203950 0.988738 0.229565
O O10 0.877895 0.608245 0.659901
O O11 0.994766 0.740154 0.047027
O O12 0.945780 0.650751 0.932389
O O13 0.609097 0.687203 0.733832
O O14 0.116412 0.699254 0.677447
#
# Coordination Sequence:
#
# PCOD8055796 Si02
#       7
#     4   4   4   4   4   4   4
#     4  12  25  45  76 100 141 191 239 284 369 426
#     4  10  24  40  67  91 142 172 227 276 344 397
#     4  10  24  41  66  98 134 178 228 278 335 425
#     4  10  26  42  69 100 140 179 230 284 344 422
#     4  12  25  48  72 103 143 188 240 297 359 431
#     4  12  27  45  71 107 142 183 242 305 355 418
#     4  12  27  45  75 107 144 185 238 296 368 415
#
# _framework density 24.480041
#
# number of rings (size 3 to 8) (size 9 to 14) (size 15 to 20)
#    0.857    0.000    0.000    6.857    6.000    1.143 
#    0.000    0.000    0.000    0.000    0.000    0.000 
#    0.000    0.000    0.000    0.000    0.000    0.000 
#
# Total GULP energy -173544.745207 kJ/mol
# GULP energy per Si atom -12396.053229 kJ/mol
# Density = 2.442432 g / cm^3
# Si number density = 24.480041 Si / 1000 Ang^3
#
#
#
# Elastic Constant Matrix: (Units=GPa)
#
#
# Indices 1 2 3 4 5 6 
#
# 1 95.4359 23.2828 7.4626 0.0000 25.2198 0.0000
# 2 23.2828 101.9795 -14.2069 0.0000 6.6354 0.0000
# 3 7.4626 -14.2069 61.3774 0.0000 7.2286 0.0000
# 4 0.0000 0.0000 0.0000 31.6952 0.0000 3.2877
# 5 25.2198 6.6354 7.2286 0.0000 38.4835 0.0000
# 6 0.0000 0.0000 0.0000 3.2877 0.0000 26.2568
#
#
#
# Elastic Compliance Matrix: (Units=1/GPa)
#
#
# Indices 1 2 3 4 5 6 
#
# 1 0.013368 -0.002710 -0.001305 0.000000 -0.008048 0.000000
# 2 -0.002710 0.010874 0.002923 0.000000 -0.000648 0.000000
# 3 -0.001305 0.002923 0.017473 0.000000 -0.002931 0.000000
# 4 0.000000 0.000000 0.000000 0.031966 0.000000 -0.004003
# 5 -0.008048 -0.000648 -0.002931 0.000000 0.031922 0.000000
# 6 0.000000 0.000000 0.000000 -0.004003 0.000000 0.038587
#
#
# Mechanical properties :
#
#
# Convention : Reuss Voigt Hill
#
# Bulk Modulus (GPa) = 25.29673 32.43001 28.86337
# Shear Modulus (GPa) = 31.33797 35.43738 33.38767
#
# Velocity S-wave (km/s) = 3.58179 3.80887 3.69707
# Velocity P-wave (km/s) = 5.24039 5.71135 5.48093
#
# Compressibility (1/GPa) = 0.03953080
#
# Stress axis : x y z
#
# Youngs Moduli (GPa) = 74.80373 91.96262 57.23117
#
# Poissons Ratio (x) = 0.24924 0.07468
# Poissons Ratio (y) = 0.20273 -0.16728
# Poissons Ratio (z) = 0.09761 -0.26879
#
# Static dielectric constant tensor:
#      x y z
#    x 4.367470 0.000000 0.178890 
#    y 0.000000 4.700870 0.000000 
#    z 0.178890 0.000000 4.016750 
# 
# 
# High freq. dielectric constant tensor:
#      x y z
#    x 1.979460 0.000000 0.012220 
#    y 0.000000 1.980750 0.000000 
#    z 0.012220 0.000000 1.962230 
# 
# From -- ./inp_files/4176.got.cif
#   From: 2010.06.25/outbox.cif.g09.slc.cpg/sg9_3_cif.got.tgz:4176.got - 2010.06.27 21:40:51.
