data_PCOD8055810
_publ_section_title
;
Structure prediction by ZEFSAII (Michael W. Deem and Ramdas Pophale) SiO2 
 PCOD8055810
Probable space group: C C
;
_chemical_formula_sum "Si O2"
_cell_formula_units_Z 20
_cell_length_a 20.521920
_cell_length_b 4.978352
_cell_length_c 9.208630
_cell_angle_alpha 90.000000
_cell_angle_beta 119.105917
_cell_angle_gamma 90.000000
_cell_volume 822.000123
_symmetry_space_group_name_H-M "C C"
_symmetry_group_IT_number 9
_symmetry_cell_setting 'monoclinic'
loop_
_space_group_symop_operation_xyz
x,y,z
x,-y,1/2+z
1/2+x,1/2+y,z
1/2+x,1/2-y,1/2+z
loop_
_atom_site_type_symbol
_atom_site_label
_atom_site_fract_x
_atom_site_fract_y
_atom_site_fract_z
Si Si1 0.135730 0.760950 0.267580
Si Si2 0.199133 0.593164 0.602315
Si Si3 0.974141 0.791928 0.012009
Si Si4 0.259773 0.925343 0.027654
Si Si5 0.422118 0.206472 0.626471
O O1 0.125533 0.658924 0.422847
O O2 0.170189 0.498351 0.226066
O O3 0.197591 0.001078 0.336222
O O4 0.061481 0.877141 0.113491
O O5 0.254157 0.852399 0.652273
O O6 0.248078 0.361360 0.583955
O O7 0.971673 0.511547 0.095784
O O8 0.924217 0.017309 0.036981
O O9 0.951093 0.760103 0.820376
O O10 0.340031 0.919688 0.039340
#
# Coordination Sequence:
#
# PCOD8055810 Si02
#       5
#     4   4   4   4   4
#     4  10  26  44  75 106 145 186 248 300 367 438
#     4  10  24  41  74 102 142 185 248 300 358 433
#     4  12  28  47  80 105 159 191 256 302 389 438
#     4  10  26  43  74 100 149 190 246 298 366 445
#     4  12  28  51  73 113 149 204 242 316 374 456
#
# _framework density 24.330898999999999
#
# number of rings (size 3 to 8) (size 9 to 14) (size 15 to 20)
#    1.200    0.000    0.000    3.600   11.200    0.000 
#    0.000    0.000    0.000    0.000    0.000    0.000 
#    0.000    0.000    0.000    0.000    0.000    0.000 
#
# Total GULP energy -123900.902491 kJ/mol
# GULP energy per Si atom -12390.090249 kJ/mol
# Density = 2.427552 g / cm^3
# Si number density = 24.330899 Si / 1000 Ang^3
#
#
#
# Elastic Constant Matrix: (Units=GPa)
#
#
# Indices 1 2 3 4 5 6 
#
# 1 86.4250 11.1921 37.7010 0.0000 17.0476 0.0000
# 2 11.1921 100.4388 33.6560 0.0000 -2.1837 0.0000
# 3 37.7010 33.6560 134.5614 0.0000 -6.0684 0.0000
# 4 0.0000 0.0000 0.0000 24.1369 0.0000 -17.2448
# 5 17.0476 -2.1837 -6.0684 0.0000 41.5671 0.0000
# 6 0.0000 0.0000 0.0000 -17.2448 0.0000 48.4486
#
#
#
# Elastic Compliance Matrix: (Units=1/GPa)
#
#
# Indices 1 2 3 4 5 6 
#
# 1 0.014858 -0.000333 -0.004384 0.000000 -0.006751 0.000000
# 2 -0.000333 0.010876 -0.002612 0.000000 0.000327 0.000000
# 3 -0.004384 -0.002612 0.009450 0.000000 0.003040 0.000000
# 4 0.000000 0.000000 0.000000 0.055559 0.000000 0.019776
# 5 -0.006751 0.000327 0.003040 0.000000 0.027287 0.000000
# 6 0.000000 0.000000 0.000000 0.019776 0.000000 0.027679
#
#
# Mechanical properties :
#
#
# Convention : Reuss Voigt Hill
#
# Bulk Modulus (GPa) = 48.72051 54.05814 51.38933
# Shear Modulus (GPa) = 29.90242 38.75560 34.32901
#
# Velocity S-wave (km/s) = 3.50950 3.99539 3.76030
# Velocity P-wave (km/s) = 6.04067 6.59927 6.32614
#
# Compressibility (1/GPa) = 0.02052523
#
# Stress axis : x y z
#
# Youngs Moduli (GPa) = 67.30395 91.94689 105.81720
#
# Poissons Ratio (x) = 0.03066 0.46389
# Poissons Ratio (y) = 0.02244 0.27640
# Poissons Ratio (z) = 0.29506 0.24017
#
# Static dielectric constant tensor:
#      x y z
#    x 4.140860 0.000000 -0.040150 
#    y 0.000000 4.470900 0.000000 
#    z -0.040150 0.000000 4.412560 
# 
# 
# High freq. dielectric constant tensor:
#      x y z
#    x 1.952920 0.000000 -0.009910 
#    y 0.000000 1.984640 0.000000 
#    z -0.009910 0.000000 1.972910 
# 
# From -- ./inp_files/11086.got.cif
#   From: 2010.06.25/outbox.cif.g09.slc.cpg/sg9_6_cif.got.tgz:11086.got - 2010.06.27 21:40:51.
