data_PCOD8055118
_publ_section_title
;
Structure prediction by ZEFSAII (Michael W. Deem and Ramdas Pophale) SiO2 
 PCOD8055118
Probable space group: C C
;
_chemical_formula_sum "Si O2"
_cell_formula_units_Z 32
_cell_length_a 12.035954
_cell_length_b 12.575561
_cell_length_c 9.717736
_cell_angle_alpha 90.000000
_cell_angle_beta 108.685824
_cell_angle_gamma 90.000000
_cell_volume 1393.335625
_symmetry_space_group_name_H-M "C C"
_symmetry_group_IT_number 9
_symmetry_cell_setting 'monoclinic'
loop_
_space_group_symop_operation_xyz
x,y,z
x,-y,1/2+z
1/2+x,1/2+y,z
1/2+x,1/2-y,1/2+z
loop_
_atom_site_type_symbol
_atom_site_label
_atom_site_fract_x
_atom_site_fract_y
_atom_site_fract_z
Si Si1 0.398880 0.884846 0.576970
Si Si2 0.211259 0.337335 0.400118
Si Si3 0.448572 0.670443 0.474200
Si Si4 0.607521 0.641432 0.283078
Si Si5 0.964959 0.442553 0.308173
Si Si6 0.276021 0.767553 0.208638
Si Si7 0.158011 0.912400 0.363077
Si Si8 0.954025 0.068342 0.988607
O O1 0.453053 0.765313 0.589350
O O2 0.439709 0.952488 0.460100
O O3 0.256507 0.883327 0.516112
O O4 0.443742 0.942437 0.731426
O O5 0.199129 0.236685 0.290687
O O6 0.228861 0.299200 0.563591
O O7 0.323833 0.401070 0.393574
O O8 0.099856 0.413176 0.338994
O O9 0.557192 0.677678 0.411758
O O10 0.327981 0.685060 0.340495
O O11 0.453248 0.553530 0.543258
O O12 0.678617 0.531485 0.313222
O O13 0.501502 0.640303 0.131936
O O14 0.877920 0.353121 0.208964
O O15 0.166828 0.832297 0.236095
O O16 0.031185 0.912008 0.383421
#
# Coordination Sequence:
#
# PCOD8055118 Si02
#       8
#     4   4   4   4   4   4   4   4
#     4  10  21  44  73 100 141 180 240 281 347 418
#     4  12  22  41  72  95 144 180 220 284 352 418
#     4   9  20  44  68  96 135 178 228 278 346 410
#     4  11  21  40  68  96 131 184 226 267 353 403
#     4  10  22  40  72 105 131 189 234 283 347 414
#     4  10  21  44  73  98 132 188 231 275 353 415
#     4   9  23  38  72 103 130 175 234 291 323 415
#     4  11  24  41  68 109 134 172 237 287 341 409
#
# _framework density 22.966469
#
# number of rings (size 3 to 8) (size 9 to 14) (size 15 to 20)
#    0.000    2.000    3.750    0.750    7.000    1.000 
#    0.000    7.500   24.750    0.000    0.000    0.000 
#    0.000    0.000    0.000    0.000    0.000    0.000 
#
# Total GULP energy -198359.502919 kJ/mol
# GULP energy per Si atom -12397.468932 kJ/mol
# Density = 2.291420 g / cm^3
# Si number density = 22.966469 Si / 1000 Ang^3
#
#
#
# Elastic Constant Matrix: (Units=GPa)
#
#
# Indices 1 2 3 4 5 6 
#
# 1 126.5711 57.3720 22.5564 0.0000 4.9849 0.0000
# 2 57.3720 111.5085 37.8077 0.0000 -1.1609 0.0000
# 3 22.5564 37.8077 54.6991 0.0000 2.7243 0.0000
# 4 0.0000 0.0000 0.0000 46.5097 0.0000 6.4663
# 5 4.9849 -1.1609 2.7243 0.0000 22.8001 0.0000
# 6 0.0000 0.0000 0.0000 6.4663 0.0000 38.7900
#
#
#
# Elastic Compliance Matrix: (Units=1/GPa)
#
#
# Indices 1 2 3 4 5 6 
#
# 1 0.010465 -0.005210 -0.000591 0.000000 -0.002483 0.000000
# 2 -0.005210 0.014363 -0.007919 0.000000 0.002817 0.000000
# 3 -0.000591 -0.007919 0.024157 0.000000 -0.003160 0.000000
# 4 0.000000 0.000000 0.000000 0.022011 0.000000 -0.003669
# 5 -0.002483 0.002817 -0.003160 0.000000 0.044923 0.000000
# 6 0.000000 0.000000 0.000000 -0.003669 0.000000 0.026392
#
#
# Mechanical properties :
#
#
# Convention : Reuss Voigt Hill
#
# Bulk Modulus (GPa) = 46.41553 58.69454 52.55504
# Shear Modulus (GPa) = 28.25929 33.28946 30.77438
#
# Velocity S-wave (km/s) = 3.51159 3.81134 3.66453
# Velocity P-wave (km/s) = 6.05770 6.70675 6.39047
#
# Compressibility (1/GPa) = 0.02154451
#
# Stress axis : x y z
#
# Youngs Moduli (GPa) = 95.55321 69.62343 41.39637
#
# Poissons Ratio (x) = 0.36274 0.02446
# Poissons Ratio (y) = 0.49784 0.32783
# Poissons Ratio (z) = 0.05646 0.55138
#
# Static dielectric constant tensor:
#      x y z
#    x 4.131880 0.000000 0.205640 
#    y 0.000000 4.208910 0.000000 
#    z 0.205640 0.000000 3.856430 
# 
# 
# High freq. dielectric constant tensor:
#      x y z
#    x 1.905640 0.000000 0.018510 
#    y 0.000000 1.903380 0.000000 
#    z 0.018510 0.000000 1.893900 
# 
# From -- ./inp_files/16488.got.cif
#   From: 2010.06.25/outbox.cif.g09.slc.cpg/sg9_9_cif.got.tgz:16488.got - 2010.06.27 21:40:51.
