data_PCOD8055125
_publ_section_title
;
Structure prediction by ZEFSAII (Michael W. Deem and Ramdas Pophale) SiO2 
 PCOD8055125
Probable space group: C C
;
_chemical_formula_sum "Si O2"
_cell_formula_units_Z 28
_cell_length_a 7.538518
_cell_length_b 12.127345
_cell_length_c 14.510343
_cell_angle_alpha 90.000000
_cell_angle_beta 106.642964
_cell_angle_gamma 90.000000
_cell_volume 1270.995137
_symmetry_space_group_name_H-M "C C"
_symmetry_group_IT_number 9
_symmetry_cell_setting 'monoclinic'
loop_
_space_group_symop_operation_xyz
x,y,z
x,-y,1/2+z
1/2+x,1/2+y,z
1/2+x,1/2-y,1/2+z
loop_
_atom_site_type_symbol
_atom_site_label
_atom_site_fract_x
_atom_site_fract_y
_atom_site_fract_z
Si Si1 0.897410 0.713370 0.987860
Si Si2 0.999948 0.863546 0.365171
Si Si3 0.951624 0.967516 0.705070
Si Si4 0.025718 0.584142 0.164891
Si Si5 0.303597 0.143008 0.305722
Si Si6 0.993619 0.484277 0.979625
Si Si7 0.396656 0.454868 0.996017
O O1 0.681820 0.696077 0.930818
O O2 0.973400 0.835156 0.973669
O O3 0.944994 0.695883 0.104432
O O4 0.006001 0.614564 0.950671
O O5 0.845341 0.770902 0.325779
O O6 0.023046 0.926234 0.272037
O O7 0.927033 0.953835 0.424973
O O8 0.091630 0.866007 0.742742
O O9 0.749389 0.922401 0.703118
O O10 0.978015 0.000767 0.603137
O O11 0.961197 0.483069 0.086791
O O12 0.942128 0.580628 0.254468
O O13 0.324252 0.077916 0.405941
O O14 0.181577 0.425456 0.979102
#
# Coordination Sequence:
#
# PCOD8055125 Si02
#       7
#     4   4   4   4   4   4   4
#     4  10  21  45  66  91 140 175 218 281 334 391
#     4  12  25  41  72 100 134 183 223 282 341 400
#     4  11  24  43  66 107 133 174 236 274 339 411
#     4   9  22  43  67  99 133 179 223 279 333 399
#     4  12  22  44  71  98 138 177 225 279 343 400
#     4   9  21  42  65  98 129 178 222 270 340 398
#     4  11  23  44  69  95 137 174 227 281 334 405
#
# _framework density 22.029980999999999
#
# number of rings (size 3 to 8) (size 9 to 14) (size 15 to 20)
#    0.857    0.571    2.857    2.571    0.000    1.143 
#    0.000    2.857    0.000    0.000    0.000    0.000 
#    0.000    0.000    0.000    0.000    0.000    0.000 
#
# Total GULP energy -173440.627510 kJ/mol
# GULP energy per Si atom -12388.616251 kJ/mol
# Density = 2.197984 g / cm^3
# Si number density = 22.029981 Si / 1000 Ang^3
#
#
#
# Elastic Constant Matrix: (Units=GPa)
#
#
# Indices 1 2 3 4 5 6 
#
# 1 54.7448 18.6348 28.4542 0.0000 23.3491 0.0000
# 2 18.6348 113.7754 38.4832 0.0000 7.3880 0.0000
# 3 28.4542 38.4832 90.5769 0.0000 15.3829 0.0000
# 4 0.0000 0.0000 0.0000 25.5224 0.0000 -1.8363
# 5 23.3491 7.3880 15.3829 0.0000 41.9612 0.0000
# 6 0.0000 0.0000 0.0000 -1.8363 0.0000 28.9384
#
#
#
# Elastic Compliance Matrix: (Units=1/GPa)
#
#
# Indices 1 2 3 4 5 6 
#
# 1 0.027244 -0.001719 -0.005657 0.000000 -0.012783 0.000000
# 2 -0.001719 0.010375 -0.003967 0.000000 0.000584 0.000000
# 3 -0.005657 -0.003967 0.014769 0.000000 -0.001568 0.000000
# 4 0.000000 0.000000 0.000000 0.039361 0.000000 0.002498
# 5 -0.012783 0.000584 -0.001568 0.000000 0.031417 0.000000
# 6 0.000000 0.000000 0.000000 0.002498 0.000000 0.034715
#
#
# Mechanical properties :
#
#
# Convention : Reuss Voigt Hill
#
# Bulk Modulus (GPa) = 33.66777 47.80462 40.73619
# Shear Modulus (GPa) = 26.25116 30.85272 28.55194
#
# Velocity S-wave (km/s) = 3.45572 3.74637 3.60397
# Velocity P-wave (km/s) = 5.58914 6.36087 5.98745
#
# Compressibility (1/GPa) = 0.02970200
#
# Stress axis : x y z
#
# Youngs Moduli (GPa) = 36.70489 96.38884 67.70767
#
# Poissons Ratio (x) = 0.16565 0.38305
# Poissons Ratio (y) = 0.06308 0.26861
# Poissons Ratio (z) = 0.20766 0.38239
#
# Static dielectric constant tensor:
#      x y z
#    x 3.693680 0.000000 0.240960 
#    y 0.000000 3.802490 0.000000 
#    z 0.240960 0.000000 4.239380 
# 
# 
# High freq. dielectric constant tensor:
#      x y z
#    x 1.847730 0.000000 0.020180 
#    y 0.000000 1.858240 0.000000 
#    z 0.020180 0.000000 1.882470 
# 
# From -- ./inp_files/22678.got.cif
#   From: 2010.06.25/outbox.cif.g09.slc.cpg/sg9_12_cif.got.tgz:22678.got - 2010.06.27 21:40:51.
