data_PCOD8055174
_publ_section_title
;
Structure prediction by ZEFSAII (Michael W. Deem and Ramdas Pophale) SiO2 
 PCOD8055174
Probable space group: C C
;
_chemical_formula_sum "Si O2"
_cell_formula_units_Z 32
_cell_length_a 14.554128
_cell_length_b 9.633495
_cell_length_c 22.577420
_cell_angle_alpha 90.000000
_cell_angle_beta 27.820199
_cell_angle_gamma 90.000000
_cell_volume 1477.340987
_symmetry_space_group_name_H-M "C C"
_symmetry_group_IT_number 9
_symmetry_cell_setting 'monoclinic'
loop_
_space_group_symop_operation_xyz
x,y,z
x,-y,1/2+z
1/2+x,1/2+y,z
1/2+x,1/2-y,1/2+z
loop_
_atom_site_type_symbol
_atom_site_label
_atom_site_fract_x
_atom_site_fract_y
_atom_site_fract_z
Si Si1 0.385580 0.266345 0.590810
Si Si2 0.456666 0.034229 0.025330
Si Si3 0.804573 0.372134 0.737820
Si Si4 0.001017 0.208857 0.148913
Si Si5 0.860208 0.210418 0.505477
Si Si6 0.320724 0.572602 0.745389
Si Si7 0.640173 0.983779 0.222280
Si Si8 0.295939 0.905284 0.344387
O O1 0.386228 0.220570 0.659285
O O2 0.190056 0.351916 0.685384
O O3 0.566581 0.377294 0.484823
O O4 0.397917 0.126675 0.544575
O O5 0.405450 0.069335 0.121853
O O6 0.344890 0.140420 0.046414
O O7 0.688502 0.051350 0.879724
O O8 0.836457 0.478577 0.772299
O O9 0.913197 0.226883 0.692648
O O10 0.573246 0.336977 0.861251
O O11 0.993474 0.041234 0.147889
O O12 0.888222 0.258331 0.272086
O O13 0.223588 0.268695 0.025186
O O14 0.778940 0.096870 0.597143
O O15 0.182102 0.558716 0.765967
O O16 0.409700 0.956587 0.338914
#
# Coordination Sequence:
#
# PCOD8055174 Si02
#       8
#     4   4   4   4   4   4   4   4
#     4  11  22  39  64  92 128 162 208 264 315 376
#     4  11  22  38  62  90 126 167 206 263 314 371
#     4  11  22  40  63  90 130 168 208 259 321 378
#     4  10  22  38  64  94 122 161 211 260 311 379
#     4  10  22  39  63  93 122 169 210 256 317 380
#     4  10  22  40  63  92 126 161 214 260 314 371
#     4  10  22  41  64  92 124 165 209 261 319 378
#     4  11  22  39  63  91 126 165 210 255 321 377
#
# _framework density 21.660536
#
# number of rings (size 3 to 8) (size 9 to 14) (size 15 to 20)
#    0.000    1.500    5.000    0.000    3.500    1.000 
#    0.000    0.000    5.500    0.000    0.000    0.000 
#    0.000    0.000    0.000    0.000    0.000    0.000 
#
# Total GULP energy -198285.483636 kJ/mol
# GULP energy per Si atom -12392.842727 kJ/mol
# Density = 2.161124 g / cm^3
# Si number density = 21.660536 Si / 1000 Ang^3
#
#
#
# Elastic Constant Matrix: (Units=GPa)
#
#
# Indices 1 2 3 4 5 6 
#
# 1 81.7688 29.3559 24.5549 -0.0008 -0.5106 0.0003
# 2 29.3559 132.7620 15.5896 0.0002 5.9594 -0.0006
# 3 24.5549 15.5896 67.4865 -0.0045 14.2317 0.0051
# 4 -0.0008 0.0002 -0.0045 31.8778 0.0027 3.6025
# 5 -0.5106 5.9594 14.2317 0.0027 27.0301 0.0002
# 6 0.0003 -0.0006 0.0051 3.6025 0.0002 22.8573
#
#
#
# Elastic Compliance Matrix: (Units=1/GPa)
#
#
# Indices 1 2 3 4 5 6 
#
# 1 0.014948 -0.002821 -0.005600 -0.000001 0.003853 0.000001
# 2 -0.002821 0.008292 -0.000554 0.000000 -0.001590 0.000000
# 3 -0.005600 -0.000554 0.019100 0.000004 -0.010040 -0.000005
# 4 -0.000001 0.000000 0.000004 0.031939 -0.000005 -0.005034
# 5 0.003853 -0.001590 -0.010040 -0.000005 0.042705 0.000003
# 6 0.000001 0.000000 -0.000005 -0.005034 0.000003 0.044543
#
#
# Mechanical properties :
#
#
# Convention : Reuss Voigt Hill
#
# Bulk Modulus (GPa) = 40.99671 46.77979 43.88825
# Shear Modulus (GPa) = 26.65145 30.52085 28.58615
#
# Velocity S-wave (km/s) = 3.51153 3.75781 3.63676
# Velocity P-wave (km/s) = 5.95056 6.36175 6.15959
#
# Compressibility (1/GPa) = 0.02439220
#
# Stress axis : x y z
#
# Youngs Moduli (GPa) = 66.89934 120.59267 52.35471
#
# Poissons Ratio (x) = 0.34014 0.29317
# Poissons Ratio (y) = 0.18870 0.02901
# Poissons Ratio (z) = 0.37461 0.06681
#
# Static dielectric constant tensor:
#      x y z
#    x 3.781050 0.000000 0.123060 
#    y 0.000000 4.170820 0.000000 
#    z 0.123060 0.000000 3.801970 
# 
# 
# High freq. dielectric constant tensor:
#      x y z
#    x 1.829020 0.000000 0.016760 
#    y 0.000000 1.868320 0.000000 
#    z 0.016760 0.000000 1.842610 
# 
# From -- ./inp_files/17848.got.cif
#   From: 2010.06.25/outbox.cif.g09.slc.cpg/sg9_9_cif.got.tgz:17848.got - 2010.06.27 21:40:51.
