data_PCOD8055801
_publ_section_title
;
Structure prediction by ZEFSAII (Michael W. Deem and Ramdas Pophale) SiO2 
 PCOD8055801
Probable space group: C C
;
_chemical_formula_sum "Si O2"
_cell_formula_units_Z 20
_cell_length_a 18.344530
_cell_length_b 4.987211
_cell_length_c 18.950095
_cell_angle_alpha 90.000000
_cell_angle_beta 151.568906
_cell_angle_gamma 90.000000
_cell_volume 825.420574
_symmetry_space_group_name_H-M "C C"
_symmetry_group_IT_number 9
_symmetry_cell_setting 'monoclinic'
loop_
_space_group_symop_operation_xyz
x,y,z
x,-y,1/2+z
1/2+x,1/2+y,z
1/2+x,1/2-y,1/2+z
loop_
_atom_site_type_symbol
_atom_site_label
_atom_site_fract_x
_atom_site_fract_y
_atom_site_fract_z
Si Si1 0.815820 0.344116 0.975380
Si Si2 0.587737 0.483178 0.186023
Si Si3 0.600453 0.444348 0.037898
Si Si4 0.138389 0.674546 0.359982
Si Si5 0.459876 0.065306 0.345607
O O1 0.761524 0.414251 0.848301
O O2 0.774204 0.603955 0.988190
O O3 0.712093 0.113741 0.920291
O O4 0.988955 0.248921 0.119837
O O5 0.563197 0.366886 0.087433
O O6 0.549968 0.247923 0.210778
O O7 0.780038 0.508361 0.184496
O O8 0.496020 0.701314 0.932312
O O9 0.552525 0.199409 0.947415
O O10 0.016859 0.676620 0.319297
#
# Coordination Sequence:
#
# PCOD8055801 Si02
#       5
#     4   4   4   4   4
#     4  10  24  40  74 101 143 188 248 305 355 438
#     4  10  26  44  75 106 148 186 255 298 374 435
#     4  12  28  47  80 107 160 197 253 311 389 452
#     4  10  26  43  73 103 147 193 246 307 361 452
#     4  12  28  50  74 113 154 202 248 313 389 451
#
# _framework density 24.230070999999999
#
# number of rings (size 3 to 8) (size 9 to 14) (size 15 to 20)
#    1.200    0.000    0.000    3.600   11.200    1.600 
#    0.000    0.000    0.000    0.000    0.000    0.000 
#    0.000    0.000    0.000    0.000    0.000    0.000 
#
# Total GULP energy -123889.477574 kJ/mol
# GULP energy per Si atom -12388.947757 kJ/mol
# Density = 2.417492 g / cm^3
# Si number density = 24.230071 Si / 1000 Ang^3
#
#
#
# Elastic Constant Matrix: (Units=GPa)
#
#
# Indices 1 2 3 4 5 6 
#
# 1 114.9530 16.4508 34.5229 -0.0001 -12.6304 0.0007
# 2 16.4508 105.2165 31.9390 -0.0019 -8.4591 -0.0003
# 3 34.5229 31.9390 106.2023 -0.0005 4.3344 -0.0012
# 4 -0.0001 -0.0019 -0.0005 41.6414 -0.0005 -0.7603
# 5 -12.6304 -8.4591 4.3344 -0.0005 27.2078 -0.0016
# 6 0.0007 -0.0003 -0.0012 -0.7603 -0.0016 36.7198
#
#
#
# Elastic Compliance Matrix: (Units=1/GPa)
#
#
# Indices 1 2 3 4 5 6 
#
# 1 0.010370 -0.000112 -0.003555 0.000000 0.005346 0.000000
# 2 -0.000112 0.010861 -0.003387 0.000001 0.003864 0.000000
# 3 -0.003555 -0.003387 0.011777 0.000000 -0.004580 0.000000
# 4 0.000000 0.000001 0.000000 0.024024 0.000001 0.000497
# 5 0.005346 0.003864 -0.004580 0.000001 0.041167 0.000002
# 6 0.000000 0.000000 0.000000 0.000497 0.000002 0.027244
#
#
# Mechanical properties :
#
#
# Convention : Reuss Voigt Hill
#
# Bulk Modulus (GPa) = 52.91552 54.68858 53.80205
# Shear Modulus (GPa) = 34.28126 37.34440 35.81283
#
# Velocity S-wave (km/s) = 3.76549 3.93012 3.84869
# Velocity P-wave (km/s) = 6.38682 6.57374 6.48095
#
# Compressibility (1/GPa) = 0.01889805
#
# Stress axis : x y z
#
# Youngs Moduli (GPa) = 96.42815 92.07499 84.90847
#
# Poissons Ratio (x) = 0.01035 0.30189
# Poissons Ratio (y) = 0.01084 0.28762
# Poissons Ratio (z) = 0.34285 0.31189
#
# Static dielectric constant tensor:
#      x y z
#    x 4.154280 0.000000 -0.124730 
#    y 0.000000 4.394530 0.000000 
#    z -0.124730 0.000000 4.498950 
# 
# 
# High freq. dielectric constant tensor:
#      x y z
#    x 1.949340 0.000000 0.000750 
#    y 0.000000 1.977920 0.000000 
#    z 0.000750 0.000000 1.973150 
# 
# From -- ./inp_files/10219.got.cif
#   From: 2010.06.25/outbox.cif.g09.slc.cpg/sg9_6_cif.got.tgz:10219.got - 2010.06.27 21:40:51.
