data_PCOD8055989
_publ_section_title
;
Structure prediction by ZEFSAII (Michael W. Deem and Ramdas Pophale) SiO2 
 PCOD8055989
Probable space group: C C
;
_chemical_formula_sum "Si O2"
_cell_formula_units_Z 32
_cell_length_a 14.178969
_cell_length_b 11.115089
_cell_length_c 16.752988
_cell_angle_alpha 90.000000
_cell_angle_beta 30.949639
_cell_angle_gamma 90.000000
_cell_volume 1357.854616
_symmetry_space_group_name_H-M "C C"
_symmetry_group_IT_number 9
_symmetry_cell_setting 'monoclinic'
loop_
_space_group_symop_operation_xyz
x,y,z
x,-y,1/2+z
1/2+x,1/2+y,z
1/2+x,1/2-y,1/2+z
loop_
_atom_site_type_symbol
_atom_site_label
_atom_site_fract_x
_atom_site_fract_y
_atom_site_fract_z
Si Si1 0.751370 0.825692 0.138030
Si Si2 0.586612 0.710245 0.960309
Si Si3 0.168400 0.921651 0.635271
Si Si4 0.595561 0.858590 0.588221
Si Si5 0.392217 0.938043 0.324639
Si Si6 0.816736 0.155741 0.770614
Si Si7 0.852942 0.889667 0.757172
Si Si8 0.953088 0.048933 0.919350
O O1 0.790878 0.693334 0.072831
O O2 0.563050 0.872957 0.239821
O O3 0.741534 0.799181 0.240200
O O4 0.903584 0.925397 0.002736
O O5 0.770406 0.654305 0.864235
O O6 0.638151 0.853190 0.920146
O O7 0.538108 0.651455 0.912146
O O8 0.417322 0.701191 0.141787
O O9 0.271319 0.988682 0.487140
O O10 0.966622 0.871993 0.755987
O O11 0.120564 0.018225 0.738098
O O12 0.650461 0.856726 0.454861
O O13 0.486277 0.733803 0.682987
O O14 0.779991 0.884340 0.504194
O O15 0.448838 0.959156 0.720673
O O16 0.889683 0.023063 0.699488
#
# Coordination Sequence:
#
# PCOD8055989 Si02
#       8
#     4   4   4   4   4   4   4   4
#     4  11  24  44  73 113 149 193 251 309 368 450
#     4  11  25  45  73 104 145 191 247 303 366 442
#     4  11  23  43  75 107 146 193 249 307 372 440
#     4  11  29  47  72 105 156 192 246 306 381 446
#     4  10  25  46  72 109 143 191 246 311 371 441
#     4  12  28  48  74 108 151 197 246 313 380 442
#     4  11  25  48  72 103 145 193 248 302 369 440
#     4  11  25  47  71 107 151 194 245 305 377 447
#
# _framework density 23.566586999999998
#
# number of rings (size 3 to 8) (size 9 to 14) (size 15 to 20)
#    0.000    1.000    3.750    0.750   12.250    1.000 
#    0.000    0.000    0.000    0.000    0.000    0.000 
#    0.000    0.000    0.000    0.000    0.000    0.000 
#
# Total GULP energy -198253.949980 kJ/mol
# GULP energy per Si atom -12390.871874 kJ/mol
# Density = 2.351295 g / cm^3
# Si number density = 23.566587 Si / 1000 Ang^3
#
#
#
# Elastic Constant Matrix: (Units=GPa)
#
#
# Indices 1 2 3 4 5 6 
#
# 1 87.7626 19.2197 15.3980 0.0023 21.1558 0.0001
# 2 19.2197 76.8975 14.2255 -0.0085 -4.4157 0.0026
# 3 15.3980 14.2255 97.1396 -0.0128 19.3625 0.0030
# 4 0.0023 -0.0085 -0.0128 39.1915 0.0023 -6.8935
# 5 21.1558 -4.4157 19.3625 0.0023 35.8373 -0.0007
# 6 0.0001 0.0026 0.0030 -6.8935 -0.0007 28.5251
#
#
#
# Elastic Compliance Matrix: (Units=1/GPa)
#
#
# Indices 1 2 3 4 5 6 
#
# 1 0.014487 -0.004171 0.000136 -0.000001 -0.009140 0.000000
# 2 -0.004171 0.014868 -0.002658 0.000002 0.005730 0.000000
# 3 0.000136 -0.002658 0.012040 0.000004 -0.006913 0.000000
# 4 -0.000001 0.000002 0.000004 0.026649 -0.000003 0.006440
# 5 -0.009140 0.005730 -0.006913 -0.000003 0.037740 0.000001
# 6 0.000000 0.000000 0.000000 0.006440 0.000001 0.036613
#
#
# Mechanical properties :
#
#
# Convention : Reuss Voigt Hill
#
# Bulk Modulus (GPa) = 35.70321 39.94289 37.82305
# Shear Modulus (GPa) = 30.28114 34.90787 32.59450
#
# Velocity S-wave (km/s) = 3.58846 3.85287 3.72301
# Velocity P-wave (km/s) = 5.68790 6.06453 5.87923
#
# Compressibility (1/GPa) = 0.02800868
#
# Stress axis : x y z
#
# Youngs Moduli (GPa) = 69.02711 67.26026 83.05559
#
# Poissons Ratio (x) = 0.28054 -0.01131
# Poissons Ratio (y) = 0.28790 0.22079
# Poissons Ratio (z) = -0.00940 0.17880
#
# Static dielectric constant tensor:
#      x y z
#    x 4.289100 0.000000 0.146650 
#    y 0.000000 4.246850 0.000010 
#    z 0.146650 0.000010 4.480050 
# 
# 
# High freq. dielectric constant tensor:
#      x y z
#    x 1.933070 0.000000 0.009540 
#    y 0.000000 1.927130 0.000000 
#    z 0.009540 0.000000 1.941590 
# 
# From -- ./inp_files/30704.got.cif
#   From: 2010.06.25/outbox.cif.g09.slc.cpg/sg9_16_cif.got.tgz:30704.got - 2010.06.27 21:40:51.
