data_PCOD8055411
_publ_section_title
;
Structure prediction by ZEFSAII (Michael W. Deem and Ramdas Pophale) SiO2 
 PCOD8055411
Probable space group: C C
;
_chemical_formula_sum "Si O2"
_cell_formula_units_Z 32
_cell_length_a 13.277190
_cell_length_b 8.179335
_cell_length_c 13.170202
_cell_angle_alpha 90.000000
_cell_angle_beta 72.644667
_cell_angle_gamma 90.000000
_cell_volume 1365.149850
_symmetry_space_group_name_H-M "C C"
_symmetry_group_IT_number 9
_symmetry_cell_setting 'monoclinic'
loop_
_space_group_symop_operation_xyz
x,y,z
x,-y,1/2+z
1/2+x,1/2+y,z
1/2+x,1/2-y,1/2+z
loop_
_atom_site_type_symbol
_atom_site_label
_atom_site_fract_x
_atom_site_fract_y
_atom_site_fract_z
Si Si1 0.823850 0.766403 0.230610
Si Si2 0.406276 0.475450 0.839097
Si Si3 0.489960 0.339107 0.010762
Si Si4 0.169077 0.948400 0.531257
Si Si5 0.095908 0.578578 0.838771
Si Si6 0.317073 0.075904 0.655049
Si Si7 0.516006 0.779118 0.171380
Si Si8 0.711155 0.226446 0.346455
O O1 0.708244 0.844825 0.272906
O O2 0.814104 0.571687 0.237693
O O3 0.884141 0.807084 0.106623
O O4 0.888616 0.837225 0.308068
O O5 0.473852 0.389570 0.731275
O O6 0.297094 0.377810 0.882341
O O7 0.464136 0.471557 0.930280
O O8 0.579967 0.412513 0.056154
O O9 0.535755 0.172817 0.947507
O O10 0.196793 0.898328 0.408478
O O11 0.127557 0.775948 0.590640
O O12 0.270594 0.018261 0.560838
O O13 0.108092 0.388833 0.867047
O O14 0.026595 0.586830 0.757227
O O15 0.437022 0.144623 0.610316
O O16 0.247580 0.223460 0.722147
#
# Coordination Sequence:
#
# PCOD8055411 Si02
#       8
#     4   4   4   4   4   4   4   4
#     4  11  21  42  71  99 139 186 228 300 360 423
#     4   9  21  43  63  98 136 173 231 291 348 432
#     4  11  24  41  73 102 138 188 235 290 373 426
#     4  12  24  43  69 101 141 182 236 300 357 433
#     4  10  23  46  70  99 145 183 238 300 360 438
#     4  11  25  44  68  97 140 181 241 292 360 427
#     4  10  22  44  66  96 136 181 227 300 352 428
#     4  10  24  45  66 100 139 184 230 297 354 427
#
# _framework density 23.440652
#
# number of rings (size 3 to 8) (size 9 to 14) (size 15 to 20)
#    0.000    1.500    2.500    1.500    3.500    2.000 
#    6.750    0.000    0.000    0.000    0.000    0.000 
#    0.000    0.000    0.000    0.000    0.000    0.000 
#
# Total GULP energy -198304.782756 kJ/mol
# GULP energy per Si atom -12394.048922 kJ/mol
# Density = 2.338730 g / cm^3
# Si number density = 23.440652 Si / 1000 Ang^3
#
#
#
# Elastic Constant Matrix: (Units=GPa)
#
#
# Indices 1 2 3 4 5 6 
#
# 1 91.7492 16.2871 32.5178 0.0000 15.0753 0.0000
# 2 16.2871 62.4890 18.7742 0.0000 14.9292 0.0000
# 3 32.5178 18.7742 80.5071 0.0000 -3.9589 0.0000
# 4 0.0000 0.0000 0.0000 31.1138 0.0000 1.9741
# 5 15.0753 14.9292 -3.9589 0.0000 38.8340 0.0000
# 6 0.0000 0.0000 0.0000 1.9741 0.0000 45.1623
#
#
#
# Elastic Compliance Matrix: (Units=1/GPa)
#
#
# Indices 1 2 3 4 5 6 
#
# 1 0.014015 -0.000506 -0.005830 0.000000 -0.005840 0.000000
# 2 -0.000506 0.019395 -0.004699 0.000000 -0.007739 0.000000
# 3 -0.005830 -0.004699 0.016153 0.000000 0.005716 0.000000
# 4 0.000000 0.000000 0.000000 0.032229 0.000000 -0.001409
# 5 -0.005840 -0.007739 0.005716 0.000000 0.031576 0.000000
# 6 0.000000 0.000000 0.000000 -0.001409 0.000000 0.022204
#
#
# Mechanical properties :
#
#
# Convention : Reuss Voigt Hill
#
# Bulk Modulus (GPa) = 36.37276 41.10037 38.73657
# Shear Modulus (GPa) = 29.97467 34.16642 32.07055
#
# Velocity S-wave (km/s) = 3.57984 3.82196 3.70288
# Velocity P-wave (km/s) = 5.71293 6.08673 5.90279
#
# Compressibility (1/GPa) = 0.02749310
#
# Stress axis : x y z
#
# Youngs Moduli (GPa) = 71.35195 51.55854 61.90777
#
# Poissons Ratio (x) = 0.02609 0.36093
# Poissons Ratio (y) = 0.03610 0.29092
# Poissons Ratio (z) = 0.41599 0.24228
#
# Static dielectric constant tensor:
#      x y z
#    x 4.333150 0.000000 -0.075380 
#    y 0.000000 4.160400 0.000000 
#    z -0.075380 0.000000 3.958930 
# 
# 
# High freq. dielectric constant tensor:
#      x y z
#    x 1.930360 0.000000 -0.006010 
#    y 0.000000 1.919790 0.000000 
#    z -0.006010 0.000000 1.916640 
# 
# From -- ./inp_files/17912.got.cif
#   From: 2010.06.25/outbox.cif.g09.slc.cpg/sg9_9_cif.got.tgz:17912.got - 2010.06.27 21:40:51.
