data_PCOD8055108
_publ_section_title
;
Structure prediction by ZEFSAII (Michael W. Deem and Ramdas Pophale) SiO2 
 PCOD8055108
Probable space group: C C
;
_chemical_formula_sum "Si O2"
_cell_formula_units_Z 28
_cell_length_a 12.194847
_cell_length_b 9.056786
_cell_length_c 13.076942
_cell_angle_alpha 90.000000
_cell_angle_beta 115.367301
_cell_angle_gamma 90.000000
_cell_volume 1305.038250
_symmetry_space_group_name_H-M "C C"
_symmetry_group_IT_number 9
_symmetry_cell_setting 'monoclinic'
loop_
_space_group_symop_operation_xyz
x,y,z
x,-y,1/2+z
1/2+x,1/2+y,z
1/2+x,1/2-y,1/2+z
loop_
_atom_site_type_symbol
_atom_site_label
_atom_site_fract_x
_atom_site_fract_y
_atom_site_fract_z
Si Si1 0.079300 0.552463 0.282440
Si Si2 0.117268 0.085226 0.123606
Si Si3 0.856679 0.248611 0.706575
Si Si4 0.479895 0.504280 0.889629
Si Si5 0.726066 0.279612 0.230373
Si Si6 0.304157 0.338445 0.958518
Si Si7 0.975354 0.766370 0.730070
O O1 0.137594 0.634291 0.204441
O O2 0.175140 0.574012 0.414150
O O3 0.052950 0.382246 0.252554
O O4 0.953724 0.624888 0.266431
O O5 0.228472 0.192396 0.195621
O O6 0.998304 0.144918 0.134538
O O7 0.144706 0.919882 0.172703
O O8 0.092749 0.087520 0.990288
O O9 0.849687 0.220379 0.583618
O O10 0.895931 0.103200 0.783104
O O11 0.528356 0.365199 0.844299
O O12 0.402929 0.452261 0.955853
O O13 0.789133 0.295406 0.368440
O O14 0.830574 0.257811 0.186440
#
# Coordination Sequence:
#
# PCOD8055108 Si02
#       7
#     4   4   4   4   4   4   4
#     4  10  21  44  69 104 136 181 238 286 353 417
#     4  12  25  44  71 104 142 192 233 296 359 422
#     4  12  23  44  73 101 145 186 242 294 355 431
#     4  11  24  45  68 102 143 190 234 298 358 421
#     4   9  22  46  69 101 138 180 236 285 352 420
#     4   9  22  43  70  97 142 183 233 294 352 410
#     4  11  23  46  70 101 140 178 242 285 355 429
#
# _framework density 21.455307999999999
#
# number of rings (size 3 to 8) (size 9 to 14) (size 15 to 20)
#    0.857    0.571    1.429    4.286    2.000    0.000 
#   12.857    2.857    0.000    0.000    0.000    0.000 
#    0.000    0.000    0.000    0.000    0.000    0.000 
#
# Total GULP energy -173490.750290 kJ/mol
# GULP energy per Si atom -12392.196449 kJ/mol
# Density = 2.140648 g / cm^3
# Si number density = 21.455308 Si / 1000 Ang^3
#
#
#
# Elastic Constant Matrix: (Units=GPa)
#
#
# Indices 1 2 3 4 5 6 
#
# 1 99.0638 45.3400 17.9692 0.0000 -3.5720 0.0000
# 2 45.3400 130.8963 38.7781 0.0000 -4.5387 0.0000
# 3 17.9692 38.7781 73.8649 0.0000 -5.7472 0.0000
# 4 0.0000 0.0000 0.0000 26.5843 0.0000 3.5876
# 5 -3.5720 -4.5387 -5.7472 0.0000 26.9935 0.0000
# 6 0.0000 0.0000 0.0000 3.5876 0.0000 34.4261
#
#
#
# Elastic Compliance Matrix: (Units=1/GPa)
#
#
# Indices 1 2 3 4 5 6 
#
# 1 0.012059 -0.003907 -0.000823 0.000000 0.000764 0.000000
# 2 -0.003907 0.010319 -0.004446 0.000000 0.000272 0.000000
# 3 -0.000823 -0.004446 0.016276 0.000000 0.002609 0.000000
# 4 0.000000 0.000000 0.000000 0.038153 0.000000 -0.003976
# 5 0.000764 0.000272 0.002609 0.000000 0.037748 0.000000
# 6 0.000000 0.000000 0.000000 -0.003976 0.000000 0.029462
#
#
# Mechanical properties :
#
#
# Convention : Reuss Voigt Hill
#
# Bulk Modulus (GPa) = 49.25558 56.44439 52.84998
# Shear Modulus (GPa) = 29.56181 31.04994 30.30587
#
# Velocity S-wave (km/s) = 3.71594 3.80832 3.76242
# Velocity P-wave (km/s) = 6.43569 6.76038 6.60003
#
# Compressibility (1/GPa) = 0.02030227
#
# Stress axis : x y z
#
# Youngs Moduli (GPa) = 82.92251 96.90466 61.44162
#
# Poissons Ratio (x) = 0.37859 0.05058
# Poissons Ratio (y) = 0.32396 0.27317
# Poissons Ratio (z) = 0.06827 0.43084
#
# Static dielectric constant tensor:
#      x y z
#    x 3.942390 0.000000 0.171100 
#    y 0.000000 3.841870 0.000000 
#    z 0.171100 0.000000 3.805280 
# 
# 
# High freq. dielectric constant tensor:
#      x y z
#    x 1.850320 0.000000 0.010320 
#    y 0.000000 1.840680 0.000000 
#    z 0.010320 0.000000 1.826130 
# 
# From -- ./inp_files/24305.got.cif
#   From: 2010.06.25/outbox.cif.g09.slc.cpg/sg9_13_cif.got.tgz:24305.got - 2010.06.27 21:40:51.
