data_PCOD8055570
_publ_section_title
;
Structure prediction by ZEFSAII (Michael W. Deem and Ramdas Pophale) SiO2 
 PCOD8055570
Probable space group: C C
;
_chemical_formula_sum "Si O2"
_cell_formula_units_Z 32
_cell_length_a 9.616418
_cell_length_b 10.037854
_cell_length_c 16.263528
_cell_angle_alpha 90.000000
_cell_angle_beta 94.230826
_cell_angle_gamma 90.000000
_cell_volume 1565.611023
_symmetry_space_group_name_H-M "C C"
_symmetry_group_IT_number 9
_symmetry_cell_setting 'monoclinic'
loop_
_space_group_symop_operation_xyz
x,y,z
x,-y,1/2+z
1/2+x,1/2+y,z
1/2+x,1/2-y,1/2+z
loop_
_atom_site_type_symbol
_atom_site_label
_atom_site_fract_x
_atom_site_fract_y
_atom_site_fract_z
Si Si1 0.576980 0.717646 0.049030
Si Si2 0.990399 0.986790 0.782209
Si Si3 0.697909 0.032761 0.205812
Si Si4 0.523427 0.209281 0.730380
Si Si5 0.884509 0.991164 0.455755
Si Si6 0.347624 0.791457 0.467137
Si Si7 0.730141 0.689466 0.779869
Si Si8 0.093884 0.487806 0.516025
O O1 0.562838 0.728497 0.145194
O O2 0.472486 0.603370 0.017826
O O3 0.735452 0.678387 0.033497
O O4 0.542476 0.859595 0.004917
O O5 0.116449 0.076999 0.756473
O O6 0.864719 0.992036 0.710101
O O7 0.929079 0.039547 0.864905
O O8 0.041194 0.832574 0.795249
O O9 0.664198 0.168166 0.253214
O O10 0.638819 0.041658 0.111502
O O11 0.624498 0.914065 0.254115
O O12 0.363559 0.157874 0.728128
O O13 0.721588 0.959113 0.460315
O O14 0.912395 0.144656 0.480909
O O15 0.271813 0.808815 0.376749
O O16 0.469691 0.896430 0.480948
#
# Coordination Sequence:
#
# PCOD8055570 Si02
#       8
#     4   4   4   4   4   4   4   4
#     4  10  23  43  64  93 130 166 214 264 319 388
#     4  11  23  40  65  94 128 166 213 267 317 376
#     4  10  23  45  64  93 127 171 215 263 323 383
#     4  10  23  42  64  92 132 165 216 262 316 388
#     4  11  21  41  65  94 128 165 208 269 321 377
#     4  11  23  42  65  97 128 162 215 271 317 379
#     4  11  23  41  64  97 129 162 217 268 315 380
#     4  10  25  42  67  92 130 171 214 266 324 383
#
# _framework density 20.439302999999999
#
# number of rings (size 3 to 8) (size 9 to 14) (size 15 to 20)
#    0.000    1.500    3.750    1.500    1.750    8.000 
#    2.250    0.000    0.000    0.000    0.000    0.000 
#    0.000    0.000    0.000    0.000    0.000    0.000 
#
# Total GULP energy -198411.876495 kJ/mol
# GULP energy per Si atom -12400.742281 kJ/mol
# Density = 2.039278 g / cm^3
# Si number density = 20.439303 Si / 1000 Ang^3
#
#
#
# Elastic Constant Matrix: (Units=GPa)
#
#
# Indices 1 2 3 4 5 6 
#
# 1 108.1177 76.8516 14.8366 0.0000 -16.7349 0.0000
# 2 76.8516 127.6934 1.8805 0.0000 8.3943 0.0000
# 3 14.8366 1.8805 58.0120 0.0000 -12.7159 0.0000
# 4 0.0000 0.0000 0.0000 29.2744 0.0000 -0.1535
# 5 -16.7349 8.3943 -12.7159 0.0000 36.7893 0.0000
# 6 0.0000 0.0000 0.0000 -0.1535 0.0000 44.0794
#
#
#
# Elastic Compliance Matrix: (Units=1/GPa)
#
#
# Indices 1 2 3 4 5 6 
#
# 1 0.020792 -0.013247 -0.002329 0.000000 0.011676 0.000000
# 2 -0.013247 0.016417 0.000772 0.000000 -0.009505 0.000000
# 3 -0.002329 0.000772 0.018975 0.000000 0.005323 0.000000
# 4 0.000000 0.000000 0.000000 0.034160 0.000000 0.000119
# 5 0.011676 -0.009505 0.005323 0.000000 0.036501 0.000000
# 6 0.000000 0.000000 0.000000 0.000119 0.000000 0.022687
#
#
# Mechanical properties :
#
#
# Convention : Reuss Voigt Hill
#
# Bulk Modulus (GPa) = 37.62577 53.44006 45.53291
# Shear Modulus (GPa) = 26.59594 35.37890 30.98742
#
# Velocity S-wave (km/s) = 3.61115 4.16495 3.89790
# Velocity P-wave (km/s) = 5.98629 7.02365 6.52562
#
# Compressibility (1/GPa) = 0.02657753
#
# Stress axis : x y z
#
# Youngs Moduli (GPa) = 48.09555 60.91172 52.70043
#
# Poissons Ratio (x) = 0.80688 0.12274
# Poissons Ratio (y) = 0.63711 -0.04070
# Poissons Ratio (z) = 0.11201 -0.04704
#
# Static dielectric constant tensor:
#      x y z
#    x 3.873880 0.000000 -0.236910 
#    y 0.000000 3.903490 0.000000 
#    z -0.236910 0.000000 3.635290 
# 
# 
# High freq. dielectric constant tensor:
#      x y z
#    x 1.800010 0.000000 -0.021050 
#    y 0.000000 1.807400 0.000000 
#    z -0.021050 0.000000 1.796880 
# 
# From -- ./inp_files/22762.got.cif
#   From: 2010.06.25/outbox.cif.g09.slc.cpg/sg9_12_cif.got.tgz:22762.got - 2010.06.27 21:40:51.
