data_PCOD8055791
_publ_section_title
;
Structure prediction by ZEFSAII (Michael W. Deem and Ramdas Pophale) SiO2 
 PCOD8055791
Probable space group: C C
;
_chemical_formula_sum "Si O2"
_cell_formula_units_Z 20
_cell_length_a 6.358164
_cell_length_b 19.469102
_cell_length_c 7.663416
_cell_angle_alpha 90.000000
_cell_angle_beta 66.023450
_cell_angle_gamma 90.000000
_cell_volume 866.780844
_symmetry_space_group_name_H-M "C C"
_symmetry_group_IT_number 9
_symmetry_cell_setting 'monoclinic'
loop_
_space_group_symop_operation_xyz
x,y,z
x,-y,1/2+z
1/2+x,1/2+y,z
1/2+x,1/2-y,1/2+z
loop_
_atom_site_type_symbol
_atom_site_label
_atom_site_fract_x
_atom_site_fract_y
_atom_site_fract_z
Si Si1 0.449010 0.455280 0.817580
Si Si2 0.374684 0.404029 0.475921
Si Si3 0.361849 0.128785 0.240554
Si Si4 0.583719 0.158027 0.513537
Si Si5 0.750212 0.696133 0.923885
O O1 0.487581 0.438600 0.605010
O O2 0.410606 0.537246 0.819659
O O3 0.688039 0.434759 0.830990
O O4 0.231071 0.412273 0.968241
O O5 0.519137 0.333441 0.405123
O O6 0.106213 0.393239 0.583683
O O7 0.393438 0.160399 0.423044
O O8 0.258439 0.179364 0.128022
O O9 0.753242 0.221424 0.412113
O O10 0.467517 0.167100 0.742167
#
# Coordination Sequence:
#
# PCOD8055791 Si02
#       5
#     4   4   4   4   4
#     4  10  24  40  64  97 129 170 218 261 325 387
#     4  10  24  40  64  97 129 170 218 261 325 387
#     4  10  24  44  64  92 138 164 208 278 314 378
#     4  11  25  43  67  97 128 172 220 262 325 390
#     4  11  25  43  67  97 128 172 220 262 325 390
#
# _framework density 23.073885000000001
#
# number of rings (size 3 to 8) (size 9 to 14) (size 15 to 20)
#    0.000    1.600    0.000    3.600    8.400    9.600 
#    0.000    0.000    0.000    0.000    0.000    0.000 
#    0.000    0.000    0.000    0.000    0.000    0.000 
#
# Total GULP energy -123922.571714 kJ/mol
# GULP energy per Si atom -12392.257171 kJ/mol
# Density = 2.302137 g / cm^3
# Si number density = 23.073885 Si / 1000 Ang^3
#
#
#
# Elastic Constant Matrix: (Units=GPa)
#
#
# Indices 1 2 3 4 5 6 
#
# 1 97.5217 13.3334 5.3508 0.0000 -7.4023 0.0000
# 2 13.3334 72.9382 -11.4117 0.0000 0.1756 0.0000
# 3 5.3508 -11.4117 65.3167 0.0000 -5.8303 0.0000
# 4 0.0000 0.0000 0.0000 28.8387 0.0000 -6.9935
# 5 -7.4023 0.1756 -5.8303 0.0000 36.4403 0.0000
# 6 0.0000 0.0000 0.0000 -6.9935 0.0000 22.8977
#
#
#
# Elastic Compliance Matrix: (Units=1/GPa)
#
#
# Indices 1 2 3 4 5 6 
#
# 1 0.010759 -0.002140 -0.001075 0.000000 0.002024 0.000000
# 2 -0.002140 0.014525 0.002707 0.000000 -0.000072 0.000000
# 3 -0.001075 0.002707 0.016080 0.000000 0.002341 0.000000
# 4 0.000000 0.000000 0.000000 0.037449 0.000000 0.011438
# 5 0.002024 -0.000072 0.002341 0.000000 0.028228 0.000000
# 6 0.000000 0.000000 0.000000 0.011438 0.000000 0.047166
#
#
# Mechanical properties :
#
#
# Convention : Reuss Voigt Hill
#
# Bulk Modulus (GPa) = 24.78399 27.81352 26.29875
# Shear Modulus (GPa) = 29.64317 32.86895 31.25606
#
# Velocity S-wave (km/s) = 3.58817 3.77836 3.68449
# Velocity P-wave (km/s) = 5.28498 5.57808 5.43351
#
# Compressibility (1/GPa) = 0.04034863
#
# Stress axis : x y z
#
# Youngs Moduli (GPa) = 92.94304 68.84652 62.18930
#
# Poissons Ratio (x) = 0.14732 0.06683
# Poissons Ratio (y) = 0.19888 -0.16832
# Poissons Ratio (z) = 0.09988 -0.18634
#
# Static dielectric constant tensor:
#      x y z
#    x 4.343920 0.000000 0.224710 
#    y 0.000000 4.380710 0.000000 
#    z 0.224710 0.000000 4.069400 
# 
# 
# High freq. dielectric constant tensor:
#      x y z
#    x 1.916260 0.000000 -0.001450 
#    y 0.000000 1.904860 0.000000 
#    z -0.001450 0.000000 1.911960 
# 
# From -- ./inp_files/3577.got.cif
#   From: 2010.06.25/outbox.cif.g09.slc.cpg/sg9_2_cif.got.tgz:3577.got - 2010.06.27 21:40:51.
