data_PCOD8055358
_publ_section_title
;
Structure prediction by ZEFSAII (Michael W. Deem and Ramdas Pophale) SiO2 
 PCOD8055358
Probable space group: C C
;
_chemical_formula_sum "Si O2"
_cell_formula_units_Z 32
_cell_length_a 10.856523
_cell_length_b 8.579516
_cell_length_c 15.190132
_cell_angle_alpha 90.000000
_cell_angle_beta 81.479908
_cell_angle_gamma 90.000000
_cell_volume 1399.250796
_symmetry_space_group_name_H-M "C C"
_symmetry_group_IT_number 9
_symmetry_cell_setting 'monoclinic'
loop_
_space_group_symop_operation_xyz
x,y,z
x,-y,1/2+z
1/2+x,1/2+y,z
1/2+x,1/2-y,1/2+z
loop_
_atom_site_type_symbol
_atom_site_label
_atom_site_fract_x
_atom_site_fract_y
_atom_site_fract_z
Si Si1 0.175000 0.638423 0.350850
Si Si2 0.443183 0.656348 0.922455
Si Si3 0.290373 0.119368 0.723339
Si Si4 0.756292 0.621618 0.529221
Si Si5 0.509604 0.871121 0.314734
Si Si6 0.328407 0.779675 0.479377
Si Si7 0.981862 0.074431 0.574006
Si Si8 0.024496 0.966048 0.759159
O O1 0.269507 0.708813 0.268109
O O2 0.135106 0.467755 0.321656
O O3 0.242838 0.651400 0.438351
O O4 0.046779 0.730482 0.373544
O O5 0.429654 0.524547 0.846980
O O6 0.321117 0.763592 0.951913
O O7 0.480141 0.572368 0.008685
O O8 0.323173 0.136389 0.617127
O O9 0.406102 0.039801 0.764159
O O10 0.164612 0.026748 0.756043
O O11 0.755188 0.439800 0.502354
O O12 0.612051 0.668139 0.551443
O O13 0.453224 0.822768 0.414092
O O14 0.545476 0.718037 0.256635
O O15 0.371133 0.696636 0.565027
O O16 0.962273 0.016381 0.674637
#
# Coordination Sequence:
#
# PCOD8055358 Si02
#       8
#     4   4   4   4   4   4   4   4
#     4  10  22  42  70  97 135 178 227 280 332 405
#     4  11  21  42  70  95 135 180 221 282 340 396
#     4   9  23  42  66  99 136 173 228 278 334 405
#     4  11  23  43  67  98 138 181 219 284 343 397
#     4  11  21  44  69  95 132 177 223 280 333 403
#     4  11  23  42  66  98 134 177 228 272 335 412
#     4  11  24  45  66  98 141 171 232 280 333 410
#     4  10  23  44  68 102 135 177 228 282 336 406
#
# _framework density 22.869382999999999
#
# number of rings (size 3 to 8) (size 9 to 14) (size 15 to 20)
#    0.000    1.500    3.750    0.750    0.000    4.000 
#    2.250    7.500    0.000    0.000    0.000    0.000 
#    0.000    0.000    0.000    0.000    0.000    0.000 
#
# Total GULP energy -198353.696507 kJ/mol
# GULP energy per Si atom -12397.106032 kJ/mol
# Density = 2.281733 g / cm^3
# Si number density = 22.869383 Si / 1000 Ang^3
#
#
#
# Elastic Constant Matrix: (Units=GPa)
#
#
# Indices 1 2 3 4 5 6 
#
# 1 70.0814 36.8945 46.7740 0.0000 17.0943 0.0000
# 2 36.8945 93.5392 46.4422 0.0000 18.1698 0.0000
# 3 46.7740 46.4422 129.9926 0.0000 21.9659 0.0000
# 4 0.0000 0.0000 0.0000 36.4354 0.0000 5.0473
# 5 17.0943 18.1698 21.9659 0.0000 40.0401 0.0000
# 6 0.0000 0.0000 0.0000 5.0473 0.0000 32.4870
#
#
#
# Elastic Compliance Matrix: (Units=1/GPa)
#
#
# Indices 1 2 3 4 5 6 
#
# 1 0.021388 -0.005078 -0.005211 0.000000 -0.003968 0.000000
# 2 -0.005078 0.014717 -0.002941 0.000000 -0.002897 0.000000
# 3 -0.005211 -0.002941 0.011041 0.000000 -0.002497 0.000000
# 4 0.000000 0.000000 0.000000 0.028050 0.000000 -0.004358
# 5 -0.003968 -0.002897 -0.002497 0.000000 0.029354 0.000000
# 6 0.000000 0.000000 0.000000 -0.004358 0.000000 0.031459
#
#
# Mechanical properties :
#
#
# Convention : Reuss Voigt Hill
#
# Bulk Modulus (GPa) = 48.34442 61.53715 54.94079
# Shear Modulus (GPa) = 29.52236 32.69268 31.10752
#
# Velocity S-wave (km/s) = 3.59682 3.78503 3.69212
# Velocity P-wave (km/s) = 6.19958 6.78737 6.50012
#
# Compressibility (1/GPa) = 0.02068491
#
# Stress axis : x y z
#
# Youngs Moduli (GPa) = 46.75410 67.95068 90.57455
#
# Poissons Ratio (x) = 0.34506 0.47201
# Poissons Ratio (y) = 0.23742 0.26639
# Poissons Ratio (z) = 0.24365 0.19985
#
# Static dielectric constant tensor:
#      x y z
#    x 4.071060 0.000000 0.064030 
#    y 0.000000 4.118330 0.000000 
#    z 0.064030 0.000000 4.130390 
# 
# 
# High freq. dielectric constant tensor:
#      x y z
#    x 1.905130 0.000000 0.008640 
#    y 0.000000 1.894520 0.000000 
#    z 0.008640 0.000000 1.900720 
# 
# From -- ./inp_files/24224.got.cif
#   From: 2010.06.25/outbox.cif.g09.slc.cpg/sg9_13_cif.got.tgz:24224.got - 2010.06.27 21:40:51.
