data_PCOD8055128
_publ_section_title
;
Structure prediction by ZEFSAII (Michael W. Deem and Ramdas Pophale) SiO2 
 PCOD8055128
Probable space group: C C
;
_chemical_formula_sum "Si O2"
_cell_formula_units_Z 28
_cell_length_a 7.420817
_cell_length_b 12.219796
_cell_length_c 13.955335
_cell_angle_alpha 90.000000
_cell_angle_beta 79.063381
_cell_angle_gamma 90.000000
_cell_volume 1242.497801
_symmetry_space_group_name_H-M "C C"
_symmetry_group_IT_number 9
_symmetry_cell_setting 'monoclinic'
loop_
_space_group_symop_operation_xyz
x,y,z
x,-y,1/2+z
1/2+x,1/2+y,z
1/2+x,1/2-y,1/2+z
loop_
_atom_site_type_symbol
_atom_site_label
_atom_site_fract_x
_atom_site_fract_y
_atom_site_fract_z
Si Si1 0.389240 0.703800 0.265520
Si Si2 0.670569 0.510493 0.277164
Si Si3 0.017077 0.597176 0.050227
Si Si4 0.218319 0.853706 0.432918
Si Si5 0.363068 0.121169 0.610370
Si Si6 0.846581 0.770474 0.449260
Si Si7 0.491524 0.844149 0.758098
O O1 0.547317 0.616003 0.269168
O O2 0.365853 0.780188 0.360808
O O3 0.436269 0.778319 0.168763
O O4 0.199443 0.637668 0.270770
O O5 0.612200 0.442188 0.375766
O O6 0.686153 0.433133 0.181975
O O7 0.878796 0.544843 0.283893
O O8 0.995485 0.679965 0.143181
O O9 0.027250 0.469052 0.080498
O O10 0.196830 0.632360 0.972154
O O11 0.827071 0.598684 0.011056
O O12 0.038315 0.790451 0.487290
O O13 0.283398 0.162891 0.515489
O O14 0.889043 0.749459 0.332104
#
# Coordination Sequence:
#
# PCOD8055128 Si02
#       7
#     4   4   4   4   4   4   4
#     4  10  21  45  68  97 139 178 227 289 338 400
#     4  10  22  42  68  98 137 176 225 287 338 409
#     4  11  23  42  67 100 139 181 227 284 343 400
#     4  10  24  40  66 102 133 181 230 277 344 409
#     4  10  23  40  67 102 136 174 235 277 333 423
#     4  11  23  43  67  96 142 180 224 288 334 404
#     4  10  22  40  67  97 132 176 226 278 334 401
#
# _framework density 22.535252
#
# number of rings (size 3 to 8) (size 9 to 14) (size 15 to 20)
#    0.000    1.714    1.429    1.714    4.000    3.429 
#    0.000   12.857    0.000    0.000    0.000    0.000 
#    0.000    0.000    0.000    0.000    0.000    0.000 
#
# Total GULP energy -173447.619940 kJ/mol
# GULP energy per Si atom -12389.115710 kJ/mol
# Density = 2.248396 g / cm^3
# Si number density = 22.535252 Si / 1000 Ang^3
#
#
#
# Elastic Constant Matrix: (Units=GPa)
#
#
# Indices 1 2 3 4 5 6 
#
# 1 83.6333 40.6245 36.5517 0.0000 2.8212 0.0000
# 2 40.6245 98.7064 37.3343 0.0000 2.3047 0.0000
# 3 36.5517 37.3343 99.2937 0.0000 -0.7424 0.0000
# 4 0.0000 0.0000 0.0000 25.8706 0.0000 6.3726
# 5 2.8212 2.3047 -0.7424 0.0000 28.2780 0.0000
# 6 0.0000 0.0000 0.0000 6.3726 0.0000 35.8883
#
#
#
# Elastic Compliance Matrix: (Units=1/GPa)
#
#
# Indices 1 2 3 4 5 6 
#
# 1 0.016271 -0.005126 -0.004072 0.000000 -0.001312 0.000000
# 2 -0.005126 0.013458 -0.003179 0.000000 -0.000669 0.000000
# 3 -0.004072 -0.003179 0.012773 0.000000 0.001001 0.000000
# 4 0.000000 0.000000 0.000000 0.040422 0.000000 -0.007178
# 5 -0.001312 -0.000669 0.001001 0.000000 0.035575 0.000000
# 6 0.000000 0.000000 0.000000 -0.007178 0.000000 0.029139
#
#
# Mechanical properties :
#
#
# Convention : Reuss Voigt Hill
#
# Bulk Modulus (GPa) = 56.34008 56.73938 56.53973
# Shear Modulus (GPa) = 28.04161 29.14891 28.59526
#
# Velocity S-wave (km/s) = 3.53135 3.60040 3.56604
# Velocity P-wave (km/s) = 6.45619 6.52047 6.48841
#
# Compressibility (1/GPa) = 0.01774935
#
# Stress axis : x y z
#
# Youngs Moduli (GPa) = 61.46024 74.30262 78.29179
#
# Poissons Ratio (x) = 0.38085 0.31881
# Poissons Ratio (y) = 0.31502 0.24885
# Poissons Ratio (z) = 0.25027 0.23617
#
# Static dielectric constant tensor:
#      x y z
#    x 3.818980 0.000000 -0.136440 
#    y 0.000000 4.046040 0.000000 
#    z -0.136440 0.000000 4.290470 
# 
# 
# High freq. dielectric constant tensor:
#      x y z
#    x 1.864390 0.000000 -0.010600 
#    y 0.000000 1.880710 0.000000 
#    z -0.010600 0.000000 1.907570 
# 
# From -- ./inp_files/22574.got.cif
#   From: 2010.06.25/outbox.cif.g09.slc.cpg/sg9_12_cif.got.tgz:22574.got - 2010.06.27 21:40:51.
