data_PCOD8055988
_publ_section_title
;
Structure prediction by ZEFSAII (Michael W. Deem and Ramdas Pophale) SiO2 
 PCOD8055988
Probable space group: C C
;
_chemical_formula_sum "Si O2"
_cell_formula_units_Z 32
_cell_length_a 12.123753
_cell_length_b 13.590438
_cell_length_c 12.726214
_cell_angle_alpha 90.000000
_cell_angle_beta 45.492776
_cell_angle_gamma 90.000000
_cell_volume 1495.402123
_symmetry_space_group_name_H-M "C C"
_symmetry_group_IT_number 9
_symmetry_cell_setting 'monoclinic'
loop_
_space_group_symop_operation_xyz
x,y,z
x,-y,1/2+z
1/2+x,1/2+y,z
1/2+x,1/2-y,1/2+z
loop_
_atom_site_type_symbol
_atom_site_label
_atom_site_fract_x
_atom_site_fract_y
_atom_site_fract_z
Si Si1 0.859390 0.800520 0.032170
Si Si2 0.661936 0.033499 0.767007
Si Si3 0.428887 0.597594 0.092679
Si Si4 0.429500 0.897747 0.818393
Si Si5 0.907242 0.814126 0.379279
Si Si6 0.067374 0.333592 0.523452
Si Si7 0.595909 0.451718 0.105293
Si Si8 0.574767 0.657751 0.194069
O O1 0.772138 0.900815 0.119578
O O2 0.731986 0.717045 0.099699
O O3 0.980864 0.765310 0.040921
O O4 0.952193 0.812915 0.863406
O O5 0.603305 0.094174 0.904339
O O6 0.513972 0.995737 0.801691
O O7 0.752642 0.933646 0.738222
O O8 0.524354 0.495199 0.044586
O O9 0.491415 0.677641 0.135810
O O10 0.445276 0.635252 0.964017
O O11 0.486425 0.793557 0.829193
O O12 0.451503 0.891612 0.678126
O O13 0.252972 0.901291 0.968878
O O14 0.981207 0.873264 0.233675
O O15 0.723766 0.806113 0.480877
O O16 0.617463 0.541925 0.173680
#
# Coordination Sequence:
#
# PCOD8055988 Si02
#       8
#     4   4   4   4   4   4   4   4
#     4  12  25  46  77 105 148 185 251 299 360 440
#     4  12  25  46  72 107 145 192 238 299 362 435
#     4  10  25  46  72 101 143 194 230 292 367 420
#     4  12  28  44  73 111 146 185 250 297 364 434
#     4  12  24  50  73 105 151 188 241 299 369 437
#     4  12  25  45  73 110 141 192 241 298 365 433
#     4  10  25  48  70 107 142 189 241 298 361 429
#     4  10  25  47  74 104 142 191 244 294 368 426
#
# _framework density 21.398925999999999
#
# number of rings (size 3 to 8) (size 9 to 14) (size 15 to 20)
#    0.750    0.000    3.750    3.000    3.500    3.000 
#    0.000    0.000    0.000    0.000    0.000    0.000 
#    0.000    0.000    0.000    0.000    0.000    0.000 
#
# Total GULP energy -198326.597409 kJ/mol
# GULP energy per Si atom -12395.412338 kJ/mol
# Density = 2.135022 g / cm^3
# Si number density = 21.398926 Si / 1000 Ang^3
#
#
#
# Elastic Constant Matrix: (Units=GPa)
#
#
# Indices 1 2 3 4 5 6 
#
# 1 110.9107 33.3201 51.5465 0.0000 7.6138 0.0000
# 2 33.3201 83.5929 52.0698 0.0000 -0.5260 0.0000
# 3 51.5465 52.0698 153.3247 0.0000 -0.1731 0.0000
# 4 0.0000 0.0000 0.0000 41.6738 0.0000 -0.0964
# 5 7.6138 -0.5260 -0.1731 0.0000 35.7139 0.0000
# 6 0.0000 0.0000 0.0000 -0.0964 0.0000 30.5089
#
#
#
# Elastic Compliance Matrix: (Units=1/GPa)
#
#
# Indices 1 2 3 4 5 6 
#
# 1 0.011352 -0.002741 -0.002888 0.000000 -0.002474 0.000000
# 2 -0.002741 0.015836 -0.004455 0.000000 0.000796 0.000000
# 3 -0.002888 -0.004455 0.009007 0.000000 0.000594 0.000000
# 4 0.000000 0.000000 0.000000 0.023996 0.000000 0.000076
# 5 -0.002474 0.000796 0.000594 0.000000 0.028542 0.000000
# 6 0.000000 0.000000 0.000000 0.000076 0.000000 0.032778
#
#
# Mechanical properties :
#
#
# Convention : Reuss Voigt Hill
#
# Bulk Modulus (GPa) = 62.40414 69.07788 65.74101
# Shear Modulus (GPa) = 34.00847 35.63878 34.82362
#
# Velocity S-wave (km/s) = 3.99088 4.08542 4.03842
# Velocity P-wave (km/s) = 7.10364 7.38954 7.24800
#
# Compressibility (1/GPa) = 0.01602458
#
# Stress axis : x y z
#
# Youngs Moduli (GPa) = 88.08983 63.14847 111.02671
#
# Poissons Ratio (x) = 0.17311 0.32067
# Poissons Ratio (y) = 0.24149 0.49466
# Poissons Ratio (z) = 0.25443 0.28135
#
# Static dielectric constant tensor:
#      x y z
#    x 3.946280 0.000000 -0.068350 
#    y 0.000000 4.048640 0.000000 
#    z -0.068350 0.000000 3.880470 
# 
# 
# High freq. dielectric constant tensor:
#      x y z
#    x 1.837720 0.000000 -0.007330 
#    y 0.000000 1.845100 0.000000 
#    z -0.007330 0.000000 1.849100 
# 
# From -- ./inp_files/16874.got.cif
#   From: 2010.06.25/outbox.cif.g09.slc.cpg/sg9_9_cif.got.tgz:16874.got - 2010.06.27 21:40:51.
