data_PCOD8055371
_publ_section_title
;
Structure prediction by ZEFSAII (Michael W. Deem and Ramdas Pophale) SiO2 
 PCOD8055371
Probable space group: C C
;
_chemical_formula_sum "Si O2"
_cell_formula_units_Z 32
_cell_length_a 21.791227
_cell_length_b 9.435155
_cell_length_c 13.768602
_cell_angle_alpha 90.000000
_cell_angle_beta 147.595326
_cell_angle_gamma 90.000000
_cell_volume 1517.053227
_symmetry_space_group_name_H-M "C C"
_symmetry_group_IT_number 9
_symmetry_cell_setting 'monoclinic'
loop_
_space_group_symop_operation_xyz
x,y,z
x,-y,1/2+z
1/2+x,1/2+y,z
1/2+x,1/2-y,1/2+z
loop_
_atom_site_type_symbol
_atom_site_label
_atom_site_fract_x
_atom_site_fract_y
_atom_site_fract_z
Si Si1 0.914880 0.127561 0.506860
Si Si2 0.198355 0.761592 0.125174
Si Si3 0.892648 0.634432 0.113863
Si Si4 0.297952 0.338956 0.369525
Si Si5 0.153227 0.929901 0.252209
Si Si6 0.455373 0.092623 0.542295
Si Si7 0.666862 0.275474 0.863330
Si Si8 0.569650 0.982459 0.001469
O O1 0.821119 0.191884 0.309104
O O2 0.913960 0.204595 0.609840
O O3 0.038957 0.153776 0.627106
O O4 0.891342 0.963137 0.495641
O O5 0.177261 0.892703 0.170752
O O6 0.201711 0.820925 0.019237
O O7 0.101237 0.640589 0.009647
O O8 0.904472 0.528707 0.040089
O O9 0.981644 0.595395 0.314164
O O10 0.757937 0.621830 0.961959
O O11 0.353407 0.205792 0.386677
O O12 0.271103 0.303332 0.446990
O O13 0.182524 0.385081 0.159938
O O14 0.133511 0.095758 0.246768
O O15 0.559779 0.171924 0.734142
O O16 0.501163 0.010798 0.509952
#
# Coordination Sequence:
#
# PCOD8055371 Si02
#       8
#     4   4   4   4   4   4   4   4
#     4  10  23  44  63  97 138 169 216 277 326 391
#     4  10  23  44  68  94 130 183 217 262 342 402
#     4  11  23  42  66  96 128 173 220 268 333 388
#     4  10  22  43  63  94 136 172 215 267 331 387
#     4  11  23  40  65  97 129 164 231 273 316 386
#     4  11  21  41  66  92 136 166 217 277 316 397
#     4  11  22  42  68  97 130 178 217 269 329 396
#     4  10  23  42  67  93 129 179 217 263 343 393
#
# _framework density 21.093525
#
# number of rings (size 3 to 8) (size 9 to 14) (size 15 to 20)
#    0.000    1.500    3.750    0.750    0.000    6.000 
#    9.000    0.000    0.000    0.000    0.000    0.000 
#    0.000    0.000    0.000    0.000    0.000    0.000 
#
# Total GULP energy -198346.237955 kJ/mol
# GULP energy per Si atom -12396.639872 kJ/mol
# Density = 2.104552 g / cm^3
# Si number density = 21.093525 Si / 1000 Ang^3
#
#
#
# Elastic Constant Matrix: (Units=GPa)
#
#
# Indices 1 2 3 4 5 6 
#
# 1 98.0437 36.3325 56.6914 0.0000 9.0967 0.0000
# 2 36.3325 73.7172 25.0431 0.0000 -2.1954 0.0000
# 3 56.6914 25.0431 109.5396 0.0000 1.2468 0.0000
# 4 0.0000 0.0000 0.0000 22.1068 0.0000 -0.7527
# 5 9.0967 -2.1954 1.2468 0.0000 41.8573 0.0000
# 6 0.0000 0.0000 0.0000 -0.7527 0.0000 30.0075
#
#
#
# Elastic Compliance Matrix: (Units=1/GPa)
#
#
# Indices 1 2 3 4 5 6 
#
# 1 0.017066 -0.006005 -0.007416 0.000000 -0.003803 0.000000
# 2 -0.006005 0.016853 -0.000770 0.000000 0.002212 0.000000
# 3 -0.007416 -0.000770 0.013130 0.000000 0.001180 0.000000
# 4 0.000000 0.000000 0.000000 0.045274 0.000000 0.001136
# 5 -0.003803 0.002212 0.001180 0.000000 0.024798 0.000000
# 6 0.000000 0.000000 0.000000 0.001136 0.000000 0.033354
#
#
# Mechanical properties :
#
#
# Convention : Reuss Voigt Hill
#
# Bulk Modulus (GPa) = 53.57432 57.49272 55.53352
# Shear Modulus (GPa) = 27.01562 29.67655 28.34608
#
# Velocity S-wave (km/s) = 3.58265 3.75494 3.66980
# Velocity P-wave (km/s) = 6.52437 6.79078 6.65891
#
# Compressibility (1/GPa) = 0.01866566
#
# Stress axis : x y z
#
# Youngs Moduli (GPa) = 58.59643 59.33837 76.16175
#
# Poissons Ratio (x) = 0.35633 0.56483
# Poissons Ratio (y) = 0.35187 0.05866
# Poissons Ratio (z) = 0.43456 0.04570
#
# Static dielectric constant tensor:
#      x y z
#    x 3.877120 0.000000 0.236060 
#    y 0.000000 3.877460 0.000000 
#    z 0.236060 0.000000 3.867290 
# 
# 
# High freq. dielectric constant tensor:
#      x y z
#    x 1.824650 0.000000 0.025100 
#    y 0.000000 1.830950 0.000000 
#    z 0.025100 0.000000 1.825510 
# 
# From -- ./inp_files/17887.got.cif
#   From: 2010.06.25/outbox.cif.g09.slc.cpg/sg9_9_cif.got.tgz:17887.got - 2010.06.27 21:40:51.
