data_PCOD8055054
_publ_section_title
;
Structure prediction by ZEFSAII (Michael W. Deem and Ramdas Pophale) SiO2 
 PCOD8055054
Probable space group: C C
;
_chemical_formula_sum "Si O2"
_cell_formula_units_Z 32
_cell_length_a 8.182180
_cell_length_b 13.256384
_cell_length_c 23.223612
_cell_angle_alpha 90.000000
_cell_angle_beta 36.084506
_cell_angle_gamma 90.000000
_cell_volume 1483.620501
_symmetry_space_group_name_H-M "C C"
_symmetry_group_IT_number 9
_symmetry_cell_setting 'monoclinic'
loop_
_space_group_symop_operation_xyz
x,y,z
x,-y,1/2+z
1/2+x,1/2+y,z
1/2+x,1/2-y,1/2+z
loop_
_atom_site_type_symbol
_atom_site_label
_atom_site_fract_x
_atom_site_fract_y
_atom_site_fract_z
Si Si1 0.088760 0.535555 0.268890
Si Si2 0.842272 0.609816 0.615514
Si Si3 0.709157 0.579196 0.090222
Si Si4 0.810235 0.259626 0.477227
Si Si5 0.662660 0.983634 0.619144
Si Si6 0.249270 0.324240 0.265529
Si Si7 0.042959 0.295320 0.586295
Si Si8 0.629292 0.633685 0.476958
O O1 0.384542 0.585994 0.195070
O O2 0.008958 0.538268 0.223643
O O3 0.079688 0.421495 0.293395
O O4 0.883674 0.602246 0.365144
O O5 0.822084 0.535010 0.565662
O O6 0.531390 0.647360 0.720115
O O7 0.020301 0.705543 0.541941
O O8 0.962476 0.553204 0.637169
O O9 0.856471 0.648008 0.094177
O O10 0.766441 0.624151 0.010126
O O11 0.041590 0.256877 0.362331
O O12 0.908734 0.192985 0.502089
O O13 0.729197 0.877624 0.567540
O O14 0.958573 0.036410 0.549385
O O15 0.324132 0.257977 0.189699
O O16 0.224925 0.208034 0.502199
#
# Coordination Sequence:
#
# PCOD8055054 Si02
#       8
#     4   4   4   4   4   4   4   4
#     4  11  23  40  65  92 131 165 214 273 328 387
#     4   9  22  43  63  89 132 170 210 271 320 387
#     4   9  22  43  61  89 129 168 208 274 320 383
#     4  10  22  40  66  90 127 169 218 262 326 393
#     4  10  21  43  65  88 130 175 207 272 330 376
#     4  11  23  40  64  98 123 169 217 265 329 395
#     4  10  21  43  63  89 129 165 219 263 323 399
#     4  10  22  42  61  97 125 167 221 266 322 398
#
# _framework density 21.568859
#
# number of rings (size 3 to 8) (size 9 to 14) (size 15 to 20)
#    0.000    2.000    1.250    0.750    5.250    0.000 
#   20.250    0.000    0.000    0.000    0.000    0.000 
#    0.000    0.000    0.000    0.000    0.000    0.000 
#
# Total GULP energy -198326.759400 kJ/mol
# GULP energy per Si atom -12395.422463 kJ/mol
# Density = 2.151977 g / cm^3
# Si number density = 21.568859 Si / 1000 Ang^3
#
#
#
# Elastic Constant Matrix: (Units=GPa)
#
#
# Indices 1 2 3 4 5 6 
#
# 1 62.9791 50.7004 36.9976 -0.0005 1.1699 -0.0099
# 2 50.7004 110.6583 56.2721 -0.0118 5.8003 0.0132
# 3 36.9976 56.2721 133.4914 -0.0287 13.9408 0.0426
# 4 -0.0005 -0.0118 -0.0287 40.8525 0.0189 1.9065
# 5 1.1699 5.8003 13.9408 0.0189 28.5470 -0.0088
# 6 -0.0099 0.0132 0.0426 1.9065 -0.0088 12.1695
#
#
#
# Elastic Compliance Matrix: (Units=1/GPa)
#
#
# Indices 1 2 3 4 5 6 
#
# 1 0.026117 -0.010544 -0.003062 -0.000008 0.002567 0.000047
# 2 -0.010544 0.015759 -0.003616 0.000003 -0.001004 -0.000014
# 3 -0.003062 -0.003616 0.010300 0.000010 -0.004170 -0.000039
# 4 -0.000008 0.000003 0.000010 0.024659 -0.000023 -0.003863
# 5 0.002567 -0.001004 -0.004170 -0.000023 0.037165 0.000048
# 6 0.000047 -0.000014 -0.000039 -0.003863 0.000048 0.082778
#
#
# Mechanical properties :
#
#
# Convention : Reuss Voigt Hill
#
# Bulk Modulus (GPa) = 56.39359 66.11876 61.25617
# Shear Modulus (GPa) = 21.08528 27.19106 24.13817
#
# Velocity S-wave (km/s) = 3.13002 3.55443 3.34896
# Velocity P-wave (km/s) = 6.26620 6.89685 6.58908
#
# Compressibility (1/GPa) = 0.01773251
#
# Stress axis : x y z
#
# Youngs Moduli (GPa) = 38.28855 63.45547 97.09181
#
# Poissons Ratio (x) = 0.66906 0.29730
# Poissons Ratio (y) = 0.40370 0.35109
# Poissons Ratio (z) = 0.11724 0.22946
#
# Static dielectric constant tensor:
#      x y z
#    x 4.006650 0.000000 0.112160 
#    y 0.000000 4.493740 -0.000040 
#    z 0.112160 -0.000040 3.600930 
# 
# 
# High freq. dielectric constant tensor:
#      x y z
#    x 1.851480 0.000000 0.005930 
#    y 0.000000 1.870530 0.000000 
#    z 0.005930 0.000000 1.823240 
# 
# From -- ./inp_files/14622.got.cif
#   From: 2010.06.25/outbox.cif.g09.slc.cpg/sg9_8_cif.got.tgz:14622.got - 2010.06.27 21:40:51.
