data_PCOD8055733
_publ_section_title
;
Structure prediction by ZEFSAII (Michael W. Deem and Ramdas Pophale) SiO2 
 PCOD8055733
Probable space group: C C
;
_chemical_formula_sum "Si O2"
_cell_formula_units_Z 32
_cell_length_a 11.615102
_cell_length_b 8.645370
_cell_length_c 28.642488
_cell_angle_alpha 90.000000
_cell_angle_beta 147.736637
_cell_angle_gamma 90.000000
_cell_volume 1535.343239
_symmetry_space_group_name_H-M "C C"
_symmetry_group_IT_number 9
_symmetry_cell_setting 'monoclinic'
loop_
_space_group_symop_operation_xyz
x,y,z
x,-y,1/2+z
1/2+x,1/2+y,z
1/2+x,1/2-y,1/2+z
loop_
_atom_site_type_symbol
_atom_site_label
_atom_site_fract_x
_atom_site_fract_y
_atom_site_fract_z
Si Si1 0.681230 0.842933 0.650560
Si Si2 0.801653 0.797150 0.274044
Si Si3 0.798016 0.645093 0.602864
Si Si4 0.684169 0.196256 0.635287
Si Si5 0.957187 0.601138 0.411116
Si Si6 0.571481 0.586671 0.347195
Si Si7 0.224316 0.699424 0.981783
Si Si8 0.285272 0.200428 0.076877
O O1 0.688772 0.736980 0.607613
O O2 0.499902 0.773603 0.621440
O O3 0.909352 0.837361 0.754591
O O4 0.607697 0.018776 0.615341
O O5 0.556255 0.852706 0.195560
O O6 0.823094 0.742081 0.227167
O O7 0.845196 0.660547 0.325207
O O8 0.971352 0.936814 0.338541
O O9 0.699287 0.717084 0.522485
O O10 0.729312 0.467826 0.577697
O O11 0.478370 0.308053 0.557258
O O12 0.825794 0.196271 0.637031
O O13 0.784214 0.541455 0.390172
O O14 0.121901 0.469069 0.451849
O O15 0.083047 0.743259 0.477341
O O16 0.608856 0.709803 0.400571
#
# Coordination Sequence:
#
# PCOD8055733 Si02
#       8
#     4   4   4   4   4   4   4   4
#     4  11  24  45  70  96 137 182 219 279 342 399
#     4  10  23  46  67  96 138 174 221 283 336 395
#     4  11  23  44  71  98 133 180 224 276 341 407
#     4  10  23  46  65  97 138 172 226 277 335 411
#     4  12  26  42  68 102 137 178 226 283 339 401
#     4  11  23  46  65  96 142 175 219 287 338 395
#     4  11  24  44  66  98 134 178 222 280 337 399
#     4  12  24  43  70  99 133 181 227 279 336 407
#
# _framework density 20.842245999999999
#
# number of rings (size 3 to 8) (size 9 to 14) (size 15 to 20)
#    0.000    1.000    6.250    1.500    1.750    3.000 
#    2.250    0.000    0.000    0.000    0.000    0.000 
#    0.000    0.000    0.000    0.000    0.000    0.000 
#
# Total GULP energy -198367.947370 kJ/mol
# GULP energy per Si atom -12397.996711 kJ/mol
# Density = 2.079481 g / cm^3
# Si number density = 20.842246 Si / 1000 Ang^3
#
#
#
# Elastic Constant Matrix: (Units=GPa)
#
#
# Indices 1 2 3 4 5 6 
#
# 1 156.4834 46.9285 44.9079 0.0000 -5.3006 0.0000
# 2 46.9285 90.6569 59.9167 0.0000 -0.5798 0.0000
# 3 44.9079 59.9167 95.6968 0.0000 -7.0462 0.0000
# 4 0.0000 0.0000 0.0000 22.4128 0.0000 1.5792
# 5 -5.3006 -0.5798 -7.0462 0.0000 31.8585 0.0000
# 6 0.0000 0.0000 0.0000 1.5792 0.0000 40.2611
#
#
#
# Elastic Compliance Matrix: (Units=1/GPa)
#
#
# Indices 1 2 3 4 5 6 
#
# 1 0.007789 -0.002818 -0.001829 0.000000 0.000840 0.000000
# 2 -0.002818 0.020004 -0.011396 0.000000 -0.002625 0.000000
# 3 -0.001829 -0.011396 0.018710 0.000000 0.003626 0.000000
# 4 0.000000 0.000000 0.000000 0.044741 0.000000 -0.001755
# 5 0.000840 -0.002625 0.003626 0.000000 0.032283 0.000000
# 6 0.000000 0.000000 0.000000 -0.001755 0.000000 0.024907
#
#
# Mechanical properties :
#
#
# Convention : Reuss Voigt Hill
#
# Bulk Modulus (GPa) = 69.35820 71.81592 70.58706
# Shear Modulus (GPa) = 26.97970 31.64539 29.31255
#
# Velocity S-wave (km/s) = 3.60178 3.90080 3.75427
# Velocity P-wave (km/s) = 7.11667 7.40406 7.26179
#
# Compressibility (1/GPa) = 0.01441791
#
# Stress axis : x y z
#
# Youngs Moduli (GPa) = 128.38923 49.98994 53.44729
#
# Poissons Ratio (x) = 0.14085 0.09776
# Poissons Ratio (y) = 0.36175 0.60907
# Poissons Ratio (z) = 0.23483 0.56967
#
# Static dielectric constant tensor:
#      x y z
#    x 4.052540 0.000000 -0.173360 
#    y 0.000000 3.637910 0.000000 
#    z -0.173360 0.000000 3.913270 
# 
# 
# High freq. dielectric constant tensor:
#      x y z
#    x 1.837050 0.000000 -0.011480 
#    y 0.000000 1.804650 0.000000 
#    z -0.011480 0.000000 1.819970 
# 
# From -- ./inp_files/24228.got.cif
#   From: 2010.06.25/outbox.cif.g09.slc.cpg/sg9_13_cif.got.tgz:24228.got - 2010.06.27 21:40:51.
