data_PCOD8055109
_publ_section_title
;
Structure prediction by ZEFSAII (Michael W. Deem and Ramdas Pophale) SiO2 
 PCOD8055109
Probable space group: C C
;
_chemical_formula_sum "Si O2"
_cell_formula_units_Z 32
_cell_length_a 24.590582
_cell_length_b 13.997439
_cell_length_c 9.405506
_cell_angle_alpha 90.000000
_cell_angle_beta 152.826038
_cell_angle_gamma 90.000000
_cell_volume 1478.511010
_symmetry_space_group_name_H-M "C C"
_symmetry_group_IT_number 9
_symmetry_cell_setting 'monoclinic'
loop_
_space_group_symop_operation_xyz
x,y,z
x,-y,1/2+z
1/2+x,1/2+y,z
1/2+x,1/2-y,1/2+z
loop_
_atom_site_type_symbol
_atom_site_label
_atom_site_fract_x
_atom_site_fract_y
_atom_site_fract_z
Si Si1 0.291170 0.732784 0.220980
Si Si2 0.574246 0.036167 0.041366
Si Si3 0.042187 0.708094 0.777090
Si Si4 0.946893 0.349388 0.774567
Si Si5 0.220970 0.566198 0.655169
Si Si6 0.512197 0.401230 0.155424
Si Si7 0.170212 0.244229 0.161842
Si Si8 0.984242 0.081848 0.254127
O O1 0.328811 0.814820 0.419639
O O2 0.390616 0.650408 0.428318
O O3 0.172048 0.686096 0.010430
O O4 0.259004 0.785627 0.997125
O O5 0.618035 0.048466 0.302902
O O6 0.685451 0.994416 0.211292
O O7 0.527733 0.138213 0.878021
O O8 0.463864 0.962453 0.788596
O O9 0.941108 0.678134 0.427835
O O10 0.022251 0.816788 0.777386
O O11 0.054893 0.292462 0.958952
O O12 0.237965 0.678357 0.725559
O O13 0.352289 0.543170 0.907364
O O14 0.629504 0.339395 0.462850
O O15 0.552235 0.497981 0.329759
O O16 0.505150 0.419775 0.971139
#
# Coordination Sequence:
#
# PCOD8055109 Si02
#       8
#     4   4   4   4   4   4   4   4
#     4  10  21  44  69  93 130 179 212 273 335 388
#     4  11  21  40  66  95 130 163 215 275 323 392
#     4  11  24  41  63 100 135 169 226 269 329 396
#     4   9  21  39  66  95 126 170 213 270 331 384
#     4  11  21  38  65  98 124 166 215 270 327 381
#     4  11  24  43  67  98 133 176 221 272 331 397
#     4   9  20  40  66  90 129 170 218 265 325 387
#     4  12  26  39  66 101 133 175 222 274 327 393
#
# _framework density 21.643395999999999
#
# number of rings (size 3 to 8) (size 9 to 14) (size 15 to 20)
#    0.000    1.500    2.500    2.250    8.750    0.000 
#    0.000    2.500    0.000    0.000    0.000    0.000 
#    0.000    0.000    0.000    0.000    0.000    0.000 
#
# Total GULP energy -198322.308709 kJ/mol
# GULP energy per Si atom -12395.144294 kJ/mol
# Density = 2.159414 g / cm^3
# Si number density = 21.643396 Si / 1000 Ang^3
#
#
#
# Elastic Constant Matrix: (Units=GPa)
#
#
# Indices 1 2 3 4 5 6 
#
# 1 60.4287 16.2424 18.2532 0.0000 -23.3365 0.0000
# 2 16.2424 108.4318 40.3218 0.0000 -17.8165 0.0000
# 3 18.2532 40.3218 108.1978 0.0000 -34.8900 0.0000
# 4 0.0000 0.0000 0.0000 22.9448 0.0000 1.7172
# 5 -23.3365 -17.8165 -34.8900 0.0000 31.6794 0.0000
# 6 0.0000 0.0000 0.0000 1.7172 0.0000 18.1848
#
#
#
# Elastic Compliance Matrix: (Units=1/GPa)
#
#
# Indices 1 2 3 4 5 6 
#
# 1 0.023733 -0.001370 0.002940 0.000000 0.019950 0.000000
# 2 -0.001370 0.010917 -0.003385 0.000000 0.001402 0.000000
# 3 0.002940 -0.003385 0.015651 0.000000 0.017499 0.000000
# 4 0.000000 0.000000 0.000000 0.043893 0.000000 -0.004145
# 5 0.019950 0.001402 0.017499 0.000000 0.066323 0.000000
# 6 0.000000 0.000000 0.000000 -0.004145 0.000000 0.055382
#
#
# Mechanical properties :
#
#
# Convention : Reuss Voigt Hill
#
# Bulk Modulus (GPa) = 21.42702 47.41034 34.41868
# Shear Modulus (GPa) = 21.26877 28.04453 24.65665
#
# Velocity S-wave (km/s) = 3.13819 3.60356 3.37890
# Velocity P-wave (km/s) = 4.80130 6.26634 5.58209
#
# Compressibility (1/GPa) = 0.04667005
#
# Stress axis : x y z
#
# Youngs Moduli (GPa) = 42.13510 91.60196 63.89548
#
# Poissons Ratio (x) = 0.12553 -0.18786
# Poissons Ratio (y) = 0.05774 0.21629
# Poissons Ratio (z) = -0.12388 0.31008
#
# Static dielectric constant tensor:
#      x y z
#    x 3.764300 0.000000 -0.231460 
#    y 0.000000 4.043830 0.000000 
#    z -0.231460 0.000000 4.059390 
# 
# 
# High freq. dielectric constant tensor:
#      x y z
#    x 1.837750 0.000000 -0.024390 
#    y 0.000000 1.852840 0.000000 
#    z -0.024390 0.000000 1.846860 
# 
# From -- ./inp_files/7582.got.cif
#   From: 2010.06.25/outbox.cif.g09.slc.cpg/sg9_4_cif.got.tgz:7582.got - 2010.06.27 21:40:51.
