data_PCOD8055484
_publ_section_title
;
Structure prediction by ZEFSAII (Michael W. Deem and Ramdas Pophale) SiO2 
 PCOD8055484
Probable space group: C C
;
_chemical_formula_sum "Si O2"
_cell_formula_units_Z 28
_cell_length_a 16.345853
_cell_length_b 7.212013
_cell_length_c 10.949847
_cell_angle_alpha 90.000000
_cell_angle_beta 71.617119
_cell_angle_gamma 90.000000
_cell_volume 1224.968023
_symmetry_space_group_name_H-M "C C"
_symmetry_group_IT_number 9
_symmetry_cell_setting 'monoclinic'
loop_
_space_group_symop_operation_xyz
x,y,z
x,-y,1/2+z
1/2+x,1/2+y,z
1/2+x,1/2-y,1/2+z
loop_
_atom_site_type_symbol
_atom_site_label
_atom_site_fract_x
_atom_site_fract_y
_atom_site_fract_z
Si Si1 0.198180 0.218224 0.972090
Si Si2 0.126868 0.256036 0.741918
Si Si3 0.328836 0.487363 0.352298
Si Si4 0.563615 0.167222 0.730598
Si Si5 0.923738 0.213373 0.120536
Si Si6 0.286266 0.145519 0.504148
Si Si7 0.003631 0.993764 0.888597
O O1 0.154840 0.178795 0.861972
O O2 0.243216 0.415309 0.939808
O O3 0.133505 0.230189 0.114860
O O4 0.269825 0.061470 0.966163
O O5 0.094964 0.467525 0.759459
O O6 0.200484 0.226637 0.608194
O O7 0.043358 0.124361 0.760760
O O8 0.355615 0.562139 0.206206
O O9 0.307849 0.267869 0.372805
O O10 0.403613 0.539621 0.410443
O O11 0.471793 0.161493 0.700570
O O12 0.551546 0.293515 0.859176
O O13 0.868904 0.346909 0.056538
O O14 0.002348 0.099591 0.019126
#
# Coordination Sequence:
#
# PCOD8055484 Si02
#       7
#     4   4   4   4   4   4   4
#     4  12  24  45  69 103 136 177 235 283 341 408
#     4  12  24  45  69 103 136 177 235 283 341 408
#     4  10  23  44  68 101 140 174 227 281 342 404
#     4  11  24  45  70 100 139 182 226 288 341 401
#     4  10  22  46  68 100 144 182 230 278 340 418
#     4  11  24  45  70 100 139 182 226 288 341 401
#     4  10  23  44  68 101 140 174 227 281 342 404
#
# _framework density 22.85774
#
# number of rings (size 3 to 8) (size 9 to 14) (size 15 to 20)
#    0.000    1.143    5.714    0.000    0.000    5.714 
#   10.286    2.857    0.000    0.000    0.000    0.000 
#    0.000    0.000    0.000    0.000    0.000    0.000 
#
# Total GULP energy -173474.522761 kJ/mol
# GULP energy per Si atom -12391.037340 kJ/mol
# Density = 2.280571 g / cm^3
# Si number density = 22.857740 Si / 1000 Ang^3
#
#
#
# Elastic Constant Matrix: (Units=GPa)
#
#
# Indices 1 2 3 4 5 6 
#
# 1 69.3008 21.4616 21.7030 0.0000 -0.6108 0.0000
# 2 21.4616 95.8424 13.2885 0.0000 8.6670 0.0000
# 3 21.7030 13.2885 71.9913 0.0000 -4.5031 0.0000
# 4 0.0000 0.0000 0.0000 13.7962 0.0000 3.5335
# 5 -0.6108 8.6670 -4.5031 0.0000 35.3199 0.0000
# 6 0.0000 0.0000 0.0000 3.5335 0.0000 40.1867
#
#
#
# Elastic Compliance Matrix: (Units=1/GPa)
#
#
# Indices 1 2 3 4 5 6 
#
# 1 0.016817 -0.003195 -0.004448 0.000000 0.000508 0.000000
# 2 -0.003195 0.011618 -0.001374 0.000000 -0.003081 0.000000
# 3 -0.004448 -0.001374 0.015626 0.000000 0.002253 0.000000
# 4 0.000000 0.000000 0.000000 0.074154 0.000000 -0.006520
# 5 0.000508 -0.003081 0.002253 0.000000 0.029365 0.000000
# 6 0.000000 0.000000 0.000000 -0.006520 0.000000 0.025457
#
#
# Mechanical properties :
#
#
# Convention : Reuss Voigt Hill
#
# Bulk Modulus (GPa) = 38.42201 38.89339 38.65770
# Shear Modulus (GPa) = 25.03168 29.90598 27.46883
#
# Velocity S-wave (km/s) = 3.31283 3.62104 3.47036
# Velocity P-wave (km/s) = 5.61060 5.87664 5.74516
#
# Compressibility (1/GPa) = 0.02602675
#
# Stress axis : x y z
#
# Youngs Moduli (GPa) = 59.46433 86.07044 63.99547
#
# Poissons Ratio (x) = 0.27498 0.28467
# Poissons Ratio (y) = 0.18998 0.08794
# Poissons Ratio (z) = 0.26451 0.11827
#
# Static dielectric constant tensor:
#      x y z
#    x 4.191650 0.000000 -0.221910 
#    y 0.000000 3.996250 0.000000 
#    z -0.221910 0.000000 4.288210 
# 
# 
# High freq. dielectric constant tensor:
#      x y z
#    x 1.908980 0.000000 -0.025770 
#    y 0.000000 1.893270 0.000000 
#    z -0.025770 0.000000 1.900580 
# 
# From -- ./inp_files/19730.got.cif
#   From: 2010.06.25/outbox.cif.g09.slc.cpg/sg9_10_cif.got.tgz:19730.got - 2010.06.27 21:40:51.
