data_PCOD8055752
_publ_section_title
;
Structure prediction by ZEFSAII (Michael W. Deem and Ramdas Pophale) SiO2 
 PCOD8055752
Probable space group: C C
;
_chemical_formula_sum "Si O2"
_cell_formula_units_Z 24
_cell_length_a 5.399142
_cell_length_b 17.176575
_cell_length_c 10.588597
_cell_angle_alpha 90.000000
_cell_angle_beta 102.166979
_cell_angle_gamma 90.000000
_cell_volume 959.915880
_symmetry_space_group_name_H-M "C C"
_symmetry_group_IT_number 9
_symmetry_cell_setting 'monoclinic'
loop_
_space_group_symop_operation_xyz
x,y,z
x,-y,1/2+z
1/2+x,1/2+y,z
1/2+x,1/2-y,1/2+z
loop_
_atom_site_type_symbol
_atom_site_label
_atom_site_fract_x
_atom_site_fract_y
_atom_site_fract_z
Si Si1 0.042690 0.614884 0.854870
Si Si2 0.968859 0.368139 0.766919
Si Si3 0.206711 0.279956 0.172050
Si Si4 0.122046 0.989699 0.226850
Si Si5 0.823432 0.032389 0.444463
Si Si6 0.148987 0.727955 0.073087
O O1 0.198814 0.637972 0.745084
O O2 0.179699 0.548614 0.948644
O O3 0.760948 0.587940 0.791344
O O4 0.033513 0.694572 0.931550
O O5 0.126265 0.394919 0.908871
O O6 0.164062 0.342444 0.677010
O O7 0.780165 0.294656 0.770816
O O8 0.817988 0.444245 0.700619
O O9 0.429008 0.289354 0.091346
O O10 0.925967 0.265052 0.083576
O O11 0.969221 0.027283 0.326562
O O12 0.978367 0.957906 0.088426
#
# Coordination Sequence:
#
# PCOD8055752 Si02
#       6
#     4   4   4   4   4   4
#     4  11  25  44  72 109 145 201 250 316 373 459
#     4   9  21  42  68 103 146 195 242 304 377 439
#     4  10  24  44  70 107 143 198 241 301 381 444
#     4  11  24  43  75 106 148 198 251 313 376 443
#     4  11  23  43  72 108 151 190 260 309 376 443
#     4  10  23  46  73  99 149 194 244 305 381 436
#
# _framework density 25.002189999999999
#
# number of rings (size 3 to 8) (size 9 to 14) (size 15 to 20)
#    1.000    0.667    0.000    4.000    4.667    4.000 
#    9.000    0.000    0.000    0.000    0.000    0.000 
#    0.000    0.000    0.000    0.000    0.000    0.000 
#
# Total GULP energy -148675.998560 kJ/mol
# GULP energy per Si atom -12389.666547 kJ/mol
# Density = 2.494528 g / cm^3
# Si number density = 25.002190 Si / 1000 Ang^3
#
#
#
# Elastic Constant Matrix: (Units=GPa)
#
#
# Indices 1 2 3 4 5 6 
#
# 1 121.8439 9.5316 26.8761 0.0000 18.7195 0.0000
# 2 9.5316 49.9110 4.9247 0.0000 17.1615 0.0000
# 3 26.8761 4.9247 96.5286 0.0000 25.6816 0.0000
# 4 0.0000 0.0000 0.0000 16.3353 0.0000 -9.7083
# 5 18.7195 17.1615 25.6816 0.0000 42.6302 0.0000
# 6 0.0000 0.0000 0.0000 -9.7083 0.0000 35.0159
#
#
#
# Elastic Compliance Matrix: (Units=1/GPa)
#
#
# Indices 1 2 3 4 5 6 
#
# 1 0.009058 -0.000645 -0.001786 0.000000 -0.002642 0.000000
# 2 -0.000645 0.023498 0.001694 0.000000 -0.010196 0.000000
# 3 -0.001786 0.001694 0.012794 0.000000 -0.007605 0.000000
# 4 0.000000 0.000000 0.000000 0.073294 0.000000 0.020321
# 5 -0.002642 -0.010196 -0.007605 0.000000 0.033303 0.000000
# 6 0.000000 0.000000 0.000000 0.020321 0.000000 0.034193
#
#
# Mechanical properties :
#
#
# Convention : Reuss Voigt Hill
#
# Bulk Modulus (GPa) = 22.79286 38.99425 30.89355
# Shear Modulus (GPa) = 24.72318 33.92636 29.32477
#
# Velocity S-wave (km/s) = 3.14800 3.68766 3.42846
# Velocity P-wave (km/s) = 4.72750 5.81050 5.29676
#
# Compressibility (1/GPa) = 0.04387339
#
# Stress axis : x y z
#
# Youngs Moduli (GPa) = 110.40556 42.55740 78.16290
#
# Poissons Ratio (x) = 0.02746 0.13961
# Poissons Ratio (y) = 0.07124 -0.13238
# Poissons Ratio (z) = 0.19720 -0.07208
#
# Static dielectric constant tensor:
#      x y z
#    x 4.420030 0.000000 0.112610 
#    y 0.000000 4.363770 0.000000 
#    z 0.112610 0.000000 4.114110 
# 
# 
# High freq. dielectric constant tensor:
#      x y z
#    x 1.992840 0.000000 0.009430 
#    y 0.000000 2.002890 0.000000 
#    z 0.009430 0.000000 1.984310 
# 
# From -- ./inp_files/13128.got.cif
#   From: 2010.06.25/outbox.cif.g09.slc.cpg/sg9_7_cif.got.tgz:13128.got - 2010.06.27 21:40:51.
