data_PCOD8055696
_publ_section_title
;
Structure prediction by ZEFSAII (Michael W. Deem and Ramdas Pophale) SiO2 
 PCOD8055696
Probable space group: C C
;
_chemical_formula_sum "Si O2"
_cell_formula_units_Z 32
_cell_length_a 10.495765
_cell_length_b 12.008459
_cell_length_c 16.237245
_cell_angle_alpha 90.000000
_cell_angle_beta 138.498801
_cell_angle_gamma 90.000000
_cell_volume 1356.090163
_symmetry_space_group_name_H-M "C C"
_symmetry_group_IT_number 9
_symmetry_cell_setting 'monoclinic'
loop_
_space_group_symop_operation_xyz
x,y,z
x,-y,1/2+z
1/2+x,1/2+y,z
1/2+x,1/2-y,1/2+z
loop_
_atom_site_type_symbol
_atom_site_label
_atom_site_fract_x
_atom_site_fract_y
_atom_site_fract_z
Si Si1 0.516240 0.606792 0.012290
Si Si2 0.425553 0.553590 0.801148
Si Si3 0.197802 0.229550 0.372066
Si Si4 0.883638 0.746790 0.170720
Si Si5 0.772077 0.502442 0.876994
Si Si6 0.512227 0.035368 0.145905
Si Si7 0.317621 0.182116 0.614146
Si Si8 0.079727 0.102161 0.643318
O O1 0.671782 0.704949 0.091533
O O2 0.513381 0.521989 0.086637
O O3 0.550206 0.538756 0.944785
O O4 0.304110 0.657282 0.898270
O O5 0.436675 0.684335 0.778718
O O6 0.546964 0.483469 0.794446
O O7 0.217818 0.500731 0.711258
O O8 0.324684 0.128137 0.392402
O O9 0.217732 0.223662 0.481563
O O10 0.982796 0.235586 0.230168
O O11 0.020409 0.642005 0.211859
O O12 0.903740 0.834532 0.104130
O O13 0.766627 0.580229 0.793405
O O14 0.894946 0.565669 0.005971
O O15 0.411555 0.938853 0.148853
O O16 0.149657 0.176011 0.600880
#
# Coordination Sequence:
#
# PCOD8055696 Si02
#       8
#     4   4   4   4   4   4   4   4
#     4  12  23  46  71  97 141 177 242 291 341 430
#     4  11  24  44  69 103 138 181 233 291 346 422
#     4  11  24  42  74 100 138 190 229 291 366 409
#     4  11  25  45  73 102 139 188 230 287 368 407
#     4  10  23  45  65  99 144 174 238 293 344 427
#     4  11  22  46  70 101 140 184 231 295 353 418
#     4  11  23  45  66 105 141 185 234 291 353 426
#     4  11  26  45  68 103 141 183 233 293 351 425
#
# _framework density 23.597252999999998
#
# number of rings (size 3 to 8) (size 9 to 14) (size 15 to 20)
#    0.000    1.000    3.750    3.000    3.500    2.000 
#    6.750    0.000    0.000    0.000    0.000    0.000 
#    0.000    0.000    0.000    0.000    0.000    0.000 
#
# Total GULP energy -198221.010982 kJ/mol
# GULP energy per Si atom -12388.813186 kJ/mol
# Density = 2.354354 g / cm^3
# Si number density = 23.597253 Si / 1000 Ang^3
#
#
#
# Elastic Constant Matrix: (Units=GPa)
#
#
# Indices 1 2 3 4 5 6 
#
# 1 47.6046 20.2137 -3.7045 0.0001 -8.5569 0.0000
# 2 20.2137 96.0283 20.5395 0.0001 -4.1483 0.0000
# 3 -3.7045 20.5395 83.5787 0.0003 -18.5690 0.0002
# 4 0.0001 0.0001 0.0003 25.7498 0.0001 -8.5592
# 5 -8.5569 -4.1483 -18.5690 0.0001 33.4309 0.0001
# 6 0.0000 0.0000 0.0002 -8.5592 0.0001 45.0201
#
#
#
# Elastic Compliance Matrix: (Units=1/GPa)
#
#
# Indices 1 2 3 4 5 6 
#
# 1 0.025335 -0.005920 0.004398 0.000000 0.008193 0.000000
# 2 -0.005920 0.012375 -0.003763 0.000000 -0.002070 0.000000
# 3 0.004398 -0.003763 0.015094 0.000000 0.009042 0.000000
# 4 0.000000 0.000000 0.000000 0.041455 0.000000 0.007881
# 5 0.008193 -0.002070 0.009042 0.000000 0.036775 0.000000
# 6 0.000000 0.000000 0.000000 0.007881 0.000000 0.023711
#
#
# Mechanical properties :
#
#
# Convention : Reuss Voigt Hill
#
# Bulk Modulus (GPa) = 23.67804 33.47876 28.57840
# Shear Modulus (GPa) = 27.87179 33.51769 30.69474
#
# Velocity S-wave (km/s) = 3.44051 3.77292 3.61054
# Velocity P-wave (km/s) = 5.08319 5.76179 5.43310
#
# Compressibility (1/GPa) = 0.04223323
#
# Stress axis : x y z
#
# Youngs Moduli (GPa) = 39.47127 80.80660 66.25343
#
# Poissons Ratio (x) = 0.47835 -0.29138
# Poissons Ratio (y) = 0.23366 0.24934
# Poissons Ratio (z) = -0.17359 0.30412
#
# Static dielectric constant tensor:
#      x y z
#    x 4.237780 0.000000 -0.158350 
#    y 0.000000 4.339110 0.000000 
#    z -0.158350 0.000000 4.391490 
# 
# 
# High freq. dielectric constant tensor:
#      x y z
#    x 1.933170 0.000000 -0.015020 
#    y 0.000000 1.940430 0.000000 
#    z -0.015020 0.000000 1.925490 
# 
# From -- ./inp_files/16228.got.cif
#   From: 2010.06.25/outbox.cif.g09.slc.cpg/sg9_9_cif.got.tgz:16228.got - 2010.06.27 21:40:51.
