data_PCOD8055226
_publ_section_title
;
Structure prediction by ZEFSAII (Michael W. Deem and Ramdas Pophale) SiO2 
 PCOD8055226
Probable space group: C C
;
_chemical_formula_sum "Si O2"
_cell_formula_units_Z 28
_cell_length_a 10.789973
_cell_length_b 11.120590
_cell_length_c 15.714245
_cell_angle_alpha 90.000000
_cell_angle_beta 136.811107
_cell_angle_gamma 90.000000
_cell_volume 1290.492175
_symmetry_space_group_name_H-M "C C"
_symmetry_group_IT_number 9
_symmetry_cell_setting 'monoclinic'
loop_
_space_group_symop_operation_xyz
x,y,z
x,-y,1/2+z
1/2+x,1/2+y,z
1/2+x,1/2-y,1/2+z
loop_
_atom_site_type_symbol
_atom_site_label
_atom_site_fract_x
_atom_site_fract_y
_atom_site_fract_z
Si Si1 0.551490 0.673030 0.199850
Si Si2 0.404914 0.105689 0.294416
Si Si3 0.387786 0.119943 0.885550
Si Si4 0.223753 0.773008 0.466528
Si Si5 0.182300 0.219608 0.450307
Si Si6 0.164356 0.010057 0.043706
Si Si7 0.515685 0.583626 0.632081
O O1 0.606107 0.734662 0.316594
O O2 0.502563 0.531171 0.189111
O O3 0.726020 0.683698 0.226019
O O4 0.386757 0.736263 0.068012
O O5 0.566105 0.192335 0.346180
O O6 0.356705 0.018941 0.190479
O O7 0.451111 0.018463 0.398693
O O8 0.551724 0.208093 0.947662
O O9 0.209933 0.149088 0.740063
O O10 0.332231 0.142428 0.955416
O O11 0.127286 0.856500 0.488357
O O12 0.361549 0.678372 0.578002
O O13 0.177950 0.080053 0.472107
O O14 0.005381 0.967786 0.029534
#
# Coordination Sequence:
#
# PCOD8055226 Si02
#       7
#     4   4   4   4   4   4   4
#     4  10  24  40  71  96 140 176 229 282 339 404
#     4  10  24  43  63  97 136 177 229 282 332 409
#     4  10  22  41  66  93 135 174 223 281 336 399
#     4  12  22  42  71  95 133 182 223 283 341 400
#     4  12  22  43  69 100 134 183 223 284 345 402
#     4  10  22  40  63  94 134 170 229 274 334 405
#     4  10  22  43  61  97 136 176 228 282 329 411
#
# _framework density 21.697147000000001
#
# number of rings (size 3 to 8) (size 9 to 14) (size 15 to 20)
#    0.000    1.714    1.429    5.143    4.000    0.000 
#    0.000    0.000    0.000    0.000    0.000    0.000 
#    0.000    0.000    0.000    0.000    0.000    0.000 
#
# Total GULP energy -173494.327498 kJ/mol
# GULP energy per Si atom -12392.451964 kJ/mol
# Density = 2.164776 g / cm^3
# Si number density = 21.697147 Si / 1000 Ang^3
#
#
#
# Elastic Constant Matrix: (Units=GPa)
#
#
# Indices 1 2 3 4 5 6 
#
# 1 65.7869 27.8825 26.8206 0.0000 2.9371 0.0000
# 2 27.8825 91.3426 33.8995 0.0000 9.4958 0.0000
# 3 26.8206 33.8995 98.3763 0.0000 4.5531 0.0000
# 4 0.0000 0.0000 0.0000 39.7843 0.0000 -2.4655
# 5 2.9371 9.4958 4.5531 0.0000 35.4194 0.0000
# 6 0.0000 0.0000 0.0000 -2.4655 0.0000 25.6265
#
#
#
# Elastic Compliance Matrix: (Units=1/GPa)
#
#
# Indices 1 2 3 4 5 6 
#
# 1 0.018480 -0.004333 -0.003549 0.000000 0.000085 0.000000
# 2 -0.004333 0.013857 -0.003459 0.000000 -0.002911 0.000000
# 3 -0.003549 -0.003459 0.012341 0.000000 -0.000365 0.000000
# 4 0.000000 0.000000 0.000000 0.025286 0.000000 0.002433
# 5 0.000085 -0.002911 -0.000365 0.000000 0.029053 0.000000
# 6 0.000000 0.000000 0.000000 0.002433 0.000000 0.039256
#
#
# Mechanical properties :
#
#
# Convention : Reuss Voigt Hill
#
# Bulk Modulus (GPa) = 45.46173 48.07899 46.77036
# Shear Modulus (GPa) = 29.71096 31.29291 30.50194
#
# Velocity S-wave (km/s) = 3.70449 3.80183 3.75347
# Velocity P-wave (km/s) = 6.26865 6.44043 6.35512
#
# Compressibility (1/GPa) = 0.02199653
#
# Stress axis : x y z
#
# Youngs Moduli (GPa) = 54.11223 72.16734 81.02762
#
# Poissons Ratio (x) = 0.31268 0.28758
# Poissons Ratio (y) = 0.23446 0.28027
# Poissons Ratio (z) = 0.19206 0.24962
#
# Static dielectric constant tensor:
#      x y z
#    x 3.761990 0.000000 -0.025200 
#    y 0.000000 3.990370 0.000000 
#    z -0.025200 0.000000 3.863550 
# 
# 
# High freq. dielectric constant tensor:
#      x y z
#    x 1.840010 0.000000 -0.001490 
#    y 0.000000 1.853570 0.000000 
#    z -0.001490 0.000000 1.842970 
# 
# From -- ./inp_files/24474.got.cif
#   From: 2010.06.25/outbox.cif.g09.slc.cpg/sg9_13_cif.got.tgz:24474.got - 2010.06.27 21:40:51.
