data_PCOD8055401
_publ_section_title
;
Structure prediction by ZEFSAII (Michael W. Deem and Ramdas Pophale) SiO2 
 PCOD8055401
Probable space group: C C
;
_chemical_formula_sum "Si O2"
_cell_formula_units_Z 32
_cell_length_a 14.910232
_cell_length_b 6.509639
_cell_length_c 14.309509
_cell_angle_alpha 90.000000
_cell_angle_beta 81.846523
_cell_angle_gamma 90.000000
_cell_volume 1374.844967
_symmetry_space_group_name_H-M "C C"
_symmetry_group_IT_number 9
_symmetry_cell_setting 'monoclinic'
loop_
_space_group_symop_operation_xyz
x,y,z
x,-y,1/2+z
1/2+x,1/2+y,z
1/2+x,1/2-y,1/2+z
loop_
_atom_site_type_symbol
_atom_site_label
_atom_site_fract_x
_atom_site_fract_y
_atom_site_fract_z
Si Si1 0.976720 0.508940 0.308350
Si Si2 0.781925 0.603404 0.422945
Si Si3 0.242808 0.636093 0.104928
Si Si4 0.604199 0.655217 0.344372
Si Si5 0.818295 0.740115 0.044464
Si Si6 0.982408 0.012788 0.016811
Si Si7 0.902767 0.363082 0.132743
Si Si8 0.066503 0.859497 0.192610
O O1 0.884040 0.562175 0.374311
O O2 0.960789 0.376420 0.217464
O O3 0.050691 0.374239 0.356160
O O4 0.013907 0.732317 0.278721
O O5 0.777430 0.784950 0.498858
O O6 0.711431 0.666778 0.352341
O O7 0.759103 0.386082 0.477385
O O8 0.245451 0.387538 0.107465
O O9 0.315030 0.722014 0.169744
O O10 0.144017 0.712551 0.141844
O O11 0.562410 0.506029 0.430178
O O12 0.601540 0.561183 0.240885
O O13 0.868956 0.586918 0.107512
O O14 0.895378 0.889375 0.989228
O O15 0.960427 0.253540 0.040384
O O16 0.005257 0.916953 0.114346
#
# Coordination Sequence:
#
# PCOD8055401 Si02
#       8
#     4   4   4   4   4   4   4   4
#     4  12  26  43  70 108 149 192 250 311 383 453
#     4  11  25  45  71 105 149 196 250 313 381 457
#     4  10  24  44  72 104 143 196 249 303 382 450
#     4  12  27  46  71 110 155 189 256 315 376 462
#     4  10  22  43  73 101 139 199 243 300 381 448
#     4  11  22  45  73 102 149 192 244 310 373 455
#     4  10  22  43  70  99 140 193 239 298 378 445
#     4  12  26  45  72 111 144 197 251 308 376 458
#
# _framework density 23.275352999999999
#
# number of rings (size 3 to 8) (size 9 to 14) (size 15 to 20)
#    0.000    1.000    5.000    0.750    5.250    5.000 
#    0.000    0.000    0.000    0.000    0.000    0.000 
#    0.000    0.000    0.000    0.000    0.000    0.000 
#
# Total GULP energy -198300.141233 kJ/mol
# GULP energy per Si atom -12393.758827 kJ/mol
# Density = 2.322238 g / cm^3
# Si number density = 23.275353 Si / 1000 Ang^3
#
#
#
# Elastic Constant Matrix: (Units=GPa)
#
#
# Indices 1 2 3 4 5 6 
#
# 1 116.5809 39.6026 19.7153 0.0000 7.6205 0.0000
# 2 39.6026 124.7734 29.0809 0.0000 -4.5441 0.0000
# 3 19.7153 29.0809 63.4708 0.0000 2.4000 0.0000
# 4 0.0000 0.0000 0.0000 25.6290 0.0000 -0.8752
# 5 7.6205 -4.5441 2.4000 0.0000 34.5123 0.0000
# 6 0.0000 0.0000 0.0000 -0.8752 0.0000 37.0375
#
#
#
# Elastic Compliance Matrix: (Units=1/GPa)
#
#
# Indices 1 2 3 4 5 6 
#
# 1 0.010001 -0.002868 -0.001699 0.000000 -0.002468 0.000000
# 2 -0.002868 0.009870 -0.003714 0.000000 0.002191 0.000000
# 3 -0.001699 -0.003714 0.018037 0.000000 -0.001368 0.000000
# 4 0.000000 0.000000 0.000000 0.039050 0.000000 0.000923
# 5 -0.002468 0.002191 -0.001368 0.000000 0.029904 0.000000
# 6 0.000000 0.000000 0.000000 0.000923 0.000000 0.027021
#
#
# Mechanical properties :
#
#
# Convention : Reuss Voigt Hill
#
# Bulk Modulus (GPa) = 46.84993 53.51363 50.18178
# Shear Modulus (GPa) = 31.73389 33.86418 32.79904
#
# Velocity S-wave (km/s) = 3.69645 3.81850 3.75797
# Velocity P-wave (km/s) = 6.19601 6.51788 6.35898
#
# Compressibility (1/GPa) = 0.02134475
#
# Stress axis : x y z
#
# Youngs Moduli (GPa) = 99.99356 101.31365 55.44283
#
# Poissons Ratio (x) = 0.29057 0.09420
# Poissons Ratio (y) = 0.28679 0.20593
# Poissons Ratio (z) = 0.16989 0.37631
#
# Static dielectric constant tensor:
#      x y z
#    x 4.312550 0.000000 0.066160 
#    y 0.000000 4.442520 0.000000 
#    z 0.066160 0.000000 4.016990 
# 
# 
# High freq. dielectric constant tensor:
#      x y z
#    x 1.926230 0.000000 0.003200 
#    y 0.000000 1.928530 0.000000 
#    z 0.003200 0.000000 1.902220 
# 
# From -- ./inp_files/26462.got.cif
#   From: 2010.06.25/outbox.cif.g09.slc.cpg/sg9_14_cif.got.tgz:26462.got - 2010.06.27 21:40:51.
