data_PCOD8055199
_publ_section_title
;
Structure prediction by ZEFSAII (Michael W. Deem and Ramdas Pophale) SiO2 
 PCOD8055199
Probable space group: C C
;
_chemical_formula_sum "Si O2"
_cell_formula_units_Z 32
_cell_length_a 24.946220
_cell_length_b 13.726754
_cell_length_c 9.372971
_cell_angle_alpha 90.000000
_cell_angle_beta 29.064088
_cell_angle_gamma 90.000000
_cell_volume 1559.180213
_symmetry_space_group_name_H-M "C C"
_symmetry_group_IT_number 9
_symmetry_cell_setting 'monoclinic'
loop_
_space_group_symop_operation_xyz
x,y,z
x,-y,1/2+z
1/2+x,1/2+y,z
1/2+x,1/2-y,1/2+z
loop_
_atom_site_type_symbol
_atom_site_label
_atom_site_fract_x
_atom_site_fract_y
_atom_site_fract_z
Si Si1 0.579890 0.558655 0.799330
Si Si2 0.939365 0.959640 0.356178
Si Si3 0.203989 0.237343 0.590181
Si Si4 0.817092 0.550324 0.311497
Si Si5 0.781256 0.781756 0.715844
Si Si6 0.647615 0.903934 0.240434
Si Si7 0.726839 0.930206 0.369441
Si Si8 0.404307 0.087403 0.400132
O O1 0.540108 0.558570 0.729251
O O2 0.594330 0.670148 0.823815
O O3 0.698723 0.504593 0.538141
O O4 0.487700 0.500932 0.098640
O O5 0.877651 0.859415 0.465664
O O6 0.850952 0.037779 0.621952
O O7 0.311506 0.168749 0.304996
O O8 0.207610 0.276971 0.743439
O O9 0.200459 0.322827 0.484602
O O10 0.838186 0.532908 0.428733
O O11 0.913744 0.496572 0.998783
O O12 0.836948 0.678418 0.620526
O O13 0.704869 0.812127 0.027933
O O14 0.714038 0.933276 0.228341
O O15 0.523403 0.875801 0.571676
O O16 0.643853 0.994850 0.140161
#
# Coordination Sequence:
#
# PCOD8055199 Si02
#       8
#     4   4   4   4   4   4   4   4
#     4  10  22  39  65  94 126 170 213 267 331 378
#     4  11  21  40  67  93 126 174 216 263 334 385
#     4   9  22  41  58  89 134 164 208 276 320 375
#     4   9  22  39  58  90 132 164 213 271 317 385
#     4  10  23  42  63  94 130 165 224 270 319 393
#     4  11  24  40  69  92 125 180 213 273 326 386
#     4  11  22  43  62  94 133 163 223 270 317 394
#     4  11  22  42  62  92 128 174 214 264 338 384
#
# _framework density 20.523606000000001
#
# number of rings (size 3 to 8) (size 9 to 14) (size 15 to 20)
#    0.750    1.000    0.000    5.250    1.750    2.000 
#    6.750    0.000    0.000    0.000    0.000    0.000 
#    0.000    0.000    0.000    0.000    0.000    0.000 
#
# Total GULP energy -198328.906695 kJ/mol
# GULP energy per Si atom -12395.556668 kJ/mol
# Density = 2.047689 g / cm^3
# Si number density = 20.523606 Si / 1000 Ang^3
#
#
#
# Elastic Constant Matrix: (Units=GPa)
#
#
# Indices 1 2 3 4 5 6 
#
# 1 105.4374 43.5761 30.0568 0.0000 10.1104 0.0000
# 2 43.5761 100.7985 57.1629 0.0000 18.5619 0.0000
# 3 30.0568 57.1629 104.7766 0.0000 9.5797 0.0000
# 4 0.0000 0.0000 0.0000 37.4102 0.0000 7.9108
# 5 10.1104 18.5619 9.5797 0.0000 34.5450 0.0000
# 6 0.0000 0.0000 0.0000 7.9108 0.0000 31.5688
#
#
#
# Elastic Compliance Matrix: (Units=1/GPa)
#
#
# Indices 1 2 3 4 5 6 
#
# 1 0.011620 -0.004383 -0.000869 0.000000 -0.000805 0.000000
# 2 -0.004383 0.017198 -0.007590 0.000000 -0.005853 0.000000
# 3 -0.000869 -0.007590 0.013890 0.000000 0.000481 0.000000
# 4 0.000000 0.000000 0.000000 0.028226 0.000000 -0.007073
# 5 -0.000805 -0.005853 0.000481 0.000000 0.032195 0.000000
# 6 0.000000 0.000000 0.000000 -0.007073 0.000000 0.033449
#
#
# Mechanical properties :
#
#
# Convention : Reuss Voigt Hill
#
# Bulk Modulus (GPa) = 58.73633 63.62266 61.17950
# Shear Modulus (GPa) = 29.77296 32.71926 31.24611
#
# Velocity S-wave (km/s) = 3.81290 3.99711 3.90609
# Velocity P-wave (km/s) = 6.93291 7.23668 7.08642
#
# Compressibility (1/GPa) = 0.01702524
#
# Stress axis : x y z
#
# Youngs Moduli (GPa) = 86.05489 58.14747 71.99242
#
# Poissons Ratio (x) = 0.25484 0.06255
# Poissons Ratio (y) = 0.37715 0.54643
# Poissons Ratio (z) = 0.07477 0.44135
#
# Static dielectric constant tensor:
#      x y z
#    x 3.722730 0.000000 -0.002330 
#    y 0.000000 3.631810 0.000000 
#    z -0.002330 0.000000 3.511590 
# 
# 
# High freq. dielectric constant tensor:
#      x y z
#    x 1.812920 0.000000 0.004320 
#    y 0.000000 1.797150 0.000000 
#    z 0.004320 0.000000 1.788650 
# 
# From -- ./inp_files/12529.got.cif
#   From: 2010.06.25/outbox.cif.g09.slc.cpg/sg9_7_cif.got.tgz:12529.got - 2010.06.27 21:40:51.
