data_PCOD8055005
_publ_section_title
;
Structure prediction by ZEFSAII (Michael W. Deem and Ramdas Pophale) SiO2 
 PCOD8055005
Probable space group: C C
;
_chemical_formula_sum "Si O2"
_cell_formula_units_Z 24
_cell_length_a 19.310288
_cell_length_b 5.113975
_cell_length_c 11.969862
_cell_angle_alpha 90.000000
_cell_angle_beta 46.305495
_cell_angle_gamma 90.000000
_cell_volume 854.662908
_symmetry_space_group_name_H-M "C C"
_symmetry_group_IT_number 9
_symmetry_cell_setting 'monoclinic'
loop_
_space_group_symop_operation_xyz
x,y,z
x,-y,1/2+z
1/2+x,1/2+y,z
1/2+x,1/2-y,1/2+z
loop_
_atom_site_type_symbol
_atom_site_label
_atom_site_fract_x
_atom_site_fract_y
_atom_site_fract_z
Si Si1 0.969680 0.995130 0.539540
Si Si2 0.716894 0.155589 0.654555
Si Si3 0.507143 0.119620 0.826488
Si Si4 0.272763 0.533587 0.868678
Si Si5 0.068119 0.502802 0.514880
Si Si6 0.816158 0.661746 0.526419
O O1 0.962403 0.103605 0.417975
O O2 0.007465 0.238030 0.571790
O O3 0.865950 0.921056 0.704077
O O4 0.036364 0.737274 0.465941
O O5 0.602636 0.090582 0.801936
O O6 0.734847 0.178475 0.500256
O O7 0.751581 0.437444 0.657605
O O8 0.783920 0.923156 0.628241
O O9 0.543398 0.133954 0.661395
O O10 0.427755 0.892058 0.930668
O O11 0.296273 0.798988 0.915002
O O12 0.183159 0.578530 0.881124
#
# Coordination Sequence:
#
# PCOD8055005 Si02
#       6
#     4   4   4   4   4   4
#     4  12  27  45  75 115 144 200 256 300 386 451
#     4   9  22  39  71 103 142 187 244 288 390 424
#     4  11  25  46  77 110 150 199 249 317 368 458
#     4   9  23  43  74 101 146 191 245 300 383 427
#     4  11  26  46  74 107 162 189 245 320 376 449
#     4  10  21  41  71 102 136 198 235 303 369 441
#
# _framework density 28.081247000000001
#
# number of rings (size 3 to 8) (size 9 to 14) (size 15 to 20)
#    1.000    0.667    1.667    1.000    4.667    6.667 
#    0.000    0.000    0.000    0.000    0.000    0.000 
#    0.000    0.000    0.000    0.000    0.000    0.000 
#
# Total GULP energy -148702.169381 kJ/mol
# GULP energy per Si atom -12391.847448 kJ/mol
# Density = 2.801733 g / cm^3
# Si number density = 28.081247 Si / 1000 Ang^3
#
#
#
# Elastic Constant Matrix: (Units=GPa)
#
#
# Indices 1 2 3 4 5 6 
#
# 1 174.1908 51.6315 45.8616 0.0015 -23.2224 0.0007
# 2 51.6315 138.5605 35.1340 -0.0108 -31.9787 0.0014
# 3 45.8616 35.1340 182.6499 0.0146 -30.7660 -0.0028
# 4 0.0015 -0.0108 0.0146 42.2210 -0.0029 -8.7130
# 5 -23.2224 -31.9787 -30.7660 -0.0029 40.5463 -0.0004
# 6 0.0007 0.0014 -0.0028 -8.7130 -0.0004 44.3928
#
#
#
# Elastic Compliance Matrix: (Units=1/GPa)
#
#
# Indices 1 2 3 4 5 6 
#
# 1 0.006797 -0.001895 -0.001076 0.000000 0.001582 0.000000
# 2 -0.001895 0.009409 -0.000306 0.000003 0.006104 0.000000
# 3 -0.001076 -0.000306 0.006489 -0.000002 0.004066 0.000000
# 4 0.000000 0.000003 -0.000002 0.024685 0.000003 0.004845
# 5 0.001582 0.006104 0.004066 0.000003 0.033469 0.000001
# 6 0.000000 0.000000 0.000000 0.004845 0.000001 0.023477
#
#
# Mechanical properties :
#
#
# Convention : Reuss Voigt Hill
#
# Bulk Modulus (GPa) = 61.95022 84.51725 73.23373
# Shear Modulus (GPa) = 43.00755 49.61695 46.31225
#
# Velocity S-wave (km/s) = 3.91773 4.20802 4.06547
# Velocity P-wave (km/s) = 6.52486 7.33298 6.94069
#
# Compressibility (1/GPa) = 0.01614199
#
# Stress axis : x y z
#
# Youngs Moduli (GPa) = 147.13359 106.27681 154.11110
#
# Poissons Ratio (x) = 0.20136 0.16576
# Poissons Ratio (y) = 0.27877 0.04717
# Poissons Ratio (z) = 0.15826 0.03253
#
# Static dielectric constant tensor:
#      x y z
#    x 5.542280 -0.000020 0.054650 
#    y -0.000020 4.603080 -0.000030 
#    z 0.054650 -0.000030 5.399650 
# 
# 
# High freq. dielectric constant tensor:
#      x y z
#    x 2.168760 0.000000 0.008420 
#    y 0.000000 2.118370 0.000000 
#    z 0.008420 0.000000 2.167760 
# 
# From -- ./inp_files/27101.got.cif
#   From: 2010.06.25/outbox.cif.g09.slc.cpg/sg9_14_cif.got.tgz:27101.got - 2010.06.27 21:40:51.
