data_PCOD8055477
_publ_section_title
;
Structure prediction by ZEFSAII (Michael W. Deem and Ramdas Pophale) SiO2 
 PCOD8055477
Probable space group: C C
;
_chemical_formula_sum "Si O2"
_cell_formula_units_Z 32
_cell_length_a 16.253409
_cell_length_b 9.813101
_cell_length_c 10.692102
_cell_angle_alpha 90.000000
_cell_angle_beta 57.732985
_cell_angle_gamma 90.000000
_cell_volume 1441.992634
_symmetry_space_group_name_H-M "C C"
_symmetry_group_IT_number 9
_symmetry_cell_setting 'monoclinic'
loop_
_space_group_symop_operation_xyz
x,y,z
x,-y,1/2+z
1/2+x,1/2+y,z
1/2+x,1/2-y,1/2+z
loop_
_atom_site_type_symbol
_atom_site_label
_atom_site_fract_x
_atom_site_fract_y
_atom_site_fract_z
Si Si1 0.004280 0.835719 0.483600
Si Si2 0.337970 0.798056 0.244604
Si Si3 0.738987 0.518705 0.167235
Si Si4 0.933593 0.637039 0.907020
Si Si5 0.614363 0.302690 0.155397
Si Si6 0.663769 0.132115 0.466586
Si Si7 0.053864 0.865246 0.941887
Si Si8 0.120312 0.485077 0.754628
O O1 0.025833 0.845212 0.318230
O O2 0.083112 0.743682 0.492726
O O3 0.894972 0.778757 0.586760
O O4 0.009582 0.991803 0.526287
O O5 0.422973 0.848860 0.267244
O O6 0.270457 0.695454 0.375793
O O7 0.273197 0.924007 0.253081
O O8 0.698987 0.417815 0.090873
O O9 0.652536 0.617338 0.282044
O O10 0.827852 0.610205 0.050444
O O11 0.977114 0.777021 0.926124
O O12 0.004293 0.507069 0.870493
O O13 0.654338 0.160248 0.174993
O O14 0.577471 0.278712 0.046153
O O15 0.652842 0.092765 0.622166
O O16 0.662238 0.007708 0.363877
#
# Coordination Sequence:
#
# PCOD8055477 Si02
#       8
#     4   4   4   4   4   4   4   4
#     4  10  23  44  70  98 140 186 227 286 360 421
#     4  12  24  45  72 103 135 189 228 286 360 422
#     4  11  24  47  71 102 142 184 236 280 365 424
#     4  12  28  40  76 106 135 186 238 294 346 431
#     4  10  22  45  72  95 138 187 223 289 356 416
#     4  11  23  45  72 100 146 189 229 295 358 420
#     4  11  25  46  69 104 141 180 232 296 352 420
#     4  11  23  46  68 104 143 183 235 290 357 424
#
# _framework density 22.191514999999999
#
# number of rings (size 3 to 8) (size 9 to 14) (size 15 to 20)
#    0.000    1.000    5.000    3.000    7.000    1.000 
#    4.500    0.000    0.000    0.000    0.000    0.000 
#    0.000    0.000    0.000    0.000    0.000    0.000 
#
# Total GULP energy -198307.721211 kJ/mol
# GULP energy per Si atom -12394.232576 kJ/mol
# Density = 2.214101 g / cm^3
# Si number density = 22.191515 Si / 1000 Ang^3
#
#
#
# Elastic Constant Matrix: (Units=GPa)
#
#
# Indices 1 2 3 4 5 6 
#
# 1 70.4485 24.7794 21.7329 0.0000 -1.2881 0.0000
# 2 24.7794 88.7650 41.0914 0.0000 -10.2806 0.0000
# 3 21.7329 41.0914 86.3065 0.0000 -19.4938 0.0000
# 4 0.0000 0.0000 0.0000 38.1878 0.0000 -8.6376
# 5 -1.2881 -10.2806 -19.4938 0.0000 47.8216 0.0000
# 6 0.0000 0.0000 0.0000 -8.6376 0.0000 49.2916
#
#
#
# Elastic Compliance Matrix: (Units=1/GPa)
#
#
# Indices 1 2 3 4 5 6 
#
# 1 0.016226 -0.003405 -0.002788 0.000000 -0.001431 0.000000
# 2 -0.003405 0.015170 -0.006222 0.000000 0.000633 0.000000
# 3 -0.002788 -0.006222 0.016446 0.000000 0.005291 0.000000
# 4 0.000000 0.000000 0.000000 0.027267 0.000000 0.004778
# 5 -0.001431 0.000633 0.005291 0.000000 0.023166 0.000000
# 6 0.000000 0.000000 0.000000 0.004778 0.000000 0.021125
#
#
# Mechanical properties :
#
#
# Convention : Reuss Voigt Hill
#
# Bulk Modulus (GPa) = 43.45525 46.74747 45.10136
# Shear Modulus (GPa) = 32.91618 37.58796 35.25207
#
# Velocity S-wave (km/s) = 3.85551 4.12004 3.98997
# Velocity P-wave (km/s) = 6.28048 6.61394 6.44936
#
# Compressibility (1/GPa) = 0.02301218
#
# Stress axis : x y z
#
# Youngs Moduli (GPa) = 61.62823 65.92013 60.80390
#
# Poissons Ratio (x) = 0.22444 0.16954
# Poissons Ratio (y) = 0.20983 0.37833
# Poissons Ratio (z) = 0.17183 0.41017
#
# Static dielectric constant tensor:
#      x y z
#    x 4.007810 0.000000 0.055320 
#    y 0.000000 4.089900 0.000000 
#    z 0.055320 0.000000 4.192140 
# 
# 
# High freq. dielectric constant tensor:
#      x y z
#    x 1.864010 0.000000 0.002830 
#    y 0.000000 1.872520 0.000000 
#    z 0.002830 0.000000 1.881720 
# 
# From -- ./inp_files/17892.got.cif
#   From: 2010.06.25/outbox.cif.g09.slc.cpg/sg9_9_cif.got.tgz:17892.got - 2010.06.27 21:40:51.
