data_PCOD8055120
_publ_section_title
;
Structure prediction by ZEFSAII (Michael W. Deem and Ramdas Pophale) SiO2 
 PCOD8055120
Probable space group: C C
;
_chemical_formula_sum "Si O2"
_cell_formula_units_Z 32
_cell_length_a 29.012779
_cell_length_b 7.634223
_cell_length_c 17.631875
_cell_angle_alpha 90.000000
_cell_angle_beta 20.039928
_cell_angle_gamma 90.000000
_cell_volume 1338.242985
_symmetry_space_group_name_H-M "C C"
_symmetry_group_IT_number 9
_symmetry_cell_setting 'monoclinic'
loop_
_space_group_symop_operation_xyz
x,y,z
x,-y,1/2+z
1/2+x,1/2+y,z
1/2+x,1/2-y,1/2+z
loop_
_atom_site_type_symbol
_atom_site_label
_atom_site_fract_x
_atom_site_fract_y
_atom_site_fract_z
Si Si1 0.216500 0.593540 0.104320
Si Si2 0.796667 0.730830 0.339783
Si Si3 0.906627 0.226513 0.303857
Si Si4 0.309355 0.560428 0.676265
Si Si5 0.909824 0.233930 0.924706
Si Si6 0.621151 0.468165 0.010437
Si Si7 0.035591 0.512290 0.007899
Si Si8 0.821966 0.601229 0.078655
O O1 0.275570 0.707702 0.082463
O O2 0.081558 0.512772 0.348977
O O3 0.191517 0.716935 0.069751
O O4 0.319520 0.442767 0.915996
O O5 0.805960 0.902803 0.271220
O O6 0.749717 0.552551 0.368082
O O7 0.939713 0.683603 0.156732
O O8 0.817373 0.349593 0.496810
O O9 0.951805 0.340523 0.162562
O O10 0.042022 0.151825 0.137142
O O11 0.398489 0.391747 0.516403
O O12 0.384124 0.729584 0.524326
O O13 0.158893 0.548461 0.874216
O O14 0.918350 0.433207 0.940536
O O15 0.032854 0.194377 0.678359
O O16 0.673330 0.438647 0.843381
#
# Coordination Sequence:
#
# PCOD8055120 Si02
#       8
#     4   4   4   4   4   4   4   4
#     4  10  23  46  63 102 140 178 237 292 348 425
#     4  11  26  43  69 106 142 189 239 294 358 416
#     4  11  23  43  76 100 133 190 236 288 359 425
#     4  10  23  48  68 104 141 188 238 294 349 423
#     4  10  21  44  74  94 139 185 235 282 365 418
#     4  10  23  43  65 105 139 179 238 292 345 422
#     4  11  24  49  69  99 148 184 234 298 357 420
#     4  11  21  38  72 104 124 187 231 278 359 415
#
# _framework density 23.911949
#
# number of rings (size 3 to 8) (size 9 to 14) (size 15 to 20)
#    0.000    1.500    3.750    2.250   10.500    2.000 
#   11.250    0.000    0.000    0.000    0.000    0.000 
#    0.000    0.000    0.000    0.000    0.000    0.000 
#
# Total GULP energy -198254.970799 kJ/mol
# GULP energy per Si atom -12390.935675 kJ/mol
# Density = 2.385752 g / cm^3
# Si number density = 23.911949 Si / 1000 Ang^3
#
#
#
# Elastic Constant Matrix: (Units=GPa)
#
#
# Indices 1 2 3 4 5 6 
#
# 1 78.6069 33.8880 37.8727 0.0000 26.6899 0.0000
# 2 33.8880 120.6742 33.9854 -0.0002 15.3934 -0.0001
# 3 37.8727 33.9854 121.6141 0.0000 30.8626 0.0000
# 4 0.0000 -0.0002 0.0000 38.5685 0.0000 10.2880
# 5 26.6899 15.3934 30.8626 0.0000 34.9368 0.0000
# 6 0.0000 -0.0001 0.0000 10.2880 0.0000 33.8135
#
#
#
# Elastic Compliance Matrix: (Units=1/GPa)
#
#
# Indices 1 2 3 4 5 6 
#
# 1 0.018961 -0.003297 -0.002160 0.000000 -0.011124 0.000000
# 2 -0.003297 0.009707 -0.001598 0.000000 -0.000346 0.000000
# 3 -0.002160 -0.001598 0.011271 0.000000 -0.007603 0.000000
# 4 0.000000 0.000000 0.000000 0.028218 0.000000 -0.008586
# 5 -0.011124 -0.000346 -0.007603 0.000000 0.043990 0.000000
# 6 0.000000 0.000000 0.000000 -0.008586 0.000000 0.032186
#
#
# Mechanical properties :
#
#
# Convention : Reuss Voigt Hill
#
# Bulk Modulus (GPa) = 38.71738 59.15417 48.93578
# Shear Modulus (GPa) = 29.93055 35.80703 32.86879
#
# Velocity S-wave (km/s) = 3.54177 3.87389 3.71155
# Velocity P-wave (km/s) = 5.74041 6.69339 6.23513
#
# Compressibility (1/GPa) = 0.02582819
#
# Stress axis : x y z
#
# Youngs Moduli (GPa) = 52.74040 103.01929 88.72049
#
# Poissons Ratio (x) = 0.33968 0.19167
# Poissons Ratio (y) = 0.17390 0.14177
# Poissons Ratio (z) = 0.11394 0.16461
#
# Static dielectric constant tensor:
#      x y z
#    x 4.026830 0.000000 0.296700 
#    y 0.000000 4.329890 0.000000 
#    z 0.296700 0.000000 4.505440 
# 
# 
# High freq. dielectric constant tensor:
#      x y z
#    x 1.916860 0.000000 0.030130 
#    y 0.000000 1.943900 0.000000 
#    z 0.030130 0.000000 1.955170 
# 
# From -- ./inp_files/31859.got.cif
#   From: 2010.06.25/outbox.cif.g09.slc.cpg/sg9_16_cif.got.tgz:31859.got - 2010.06.27 21:40:51.
