data_PCOD8055873
_publ_section_title
;
Structure prediction by ZEFSAII (Michael W. Deem and Ramdas Pophale) SiO2 
 PCOD8055873
Probable space group: C C
;
_chemical_formula_sum "Si O2"
_cell_formula_units_Z 32
_cell_length_a 15.121864
_cell_length_b 7.183884
_cell_length_c 16.905740
_cell_angle_alpha 90.000000
_cell_angle_beta 129.766326
_cell_angle_gamma 90.000000
_cell_volume 1411.669003
_symmetry_space_group_name_H-M "C C"
_symmetry_group_IT_number 9
_symmetry_cell_setting 'monoclinic'
loop_
_space_group_symop_operation_xyz
x,y,z
x,-y,1/2+z
1/2+x,1/2+y,z
1/2+x,1/2-y,1/2+z
loop_
_atom_site_type_symbol
_atom_site_label
_atom_site_fract_x
_atom_site_fract_y
_atom_site_fract_z
Si Si1 0.736020 0.445201 0.588070
Si Si2 0.377587 0.188321 0.899769
Si Si3 0.013005 0.000089 0.056003
Si Si4 0.350759 0.753837 0.889142
Si Si5 0.171709 0.167732 0.885122
Si Si6 0.602009 0.671335 0.261077
Si Si7 0.418662 0.682596 0.762509
Si Si8 0.884547 0.766234 0.717066
O O1 0.610189 0.427558 0.551849
O O2 0.738492 0.334279 0.506892
O O3 0.829130 0.345775 0.696191
O O4 0.777046 0.662785 0.613468
O O5 0.253152 0.254791 0.863354
O O6 0.387994 0.230042 0.813002
O O7 0.387024 0.968320 0.919512
O O8 0.475681 0.291574 0.008232
O O9 0.062632 0.017864 0.172840
O O10 0.902864 0.139619 0.992676
O O11 0.214341 0.713638 0.797842
O O12 0.416278 0.651556 0.854950
O O13 0.045412 0.261574 0.812036
O O14 0.148767 0.947969 0.861317
O O15 0.500736 0.803092 0.237495
O O16 0.381923 0.489130 0.699240
#
# Coordination Sequence:
#
# PCOD8055873 Si02
#       8
#     4   4   4   4   4   4   4   4
#     4  12  24  44  69  99 141 180 225 283 337 402
#     4  11  24  44  67 100 138 179 224 282 337 396
#     4  12  24  44  69  99 141 180 225 283 337 402
#     4  11  22  46  70  98 138 180 225 277 342 402
#     4  10  24  44  68  99 139 178 228 280 333 409
#     4  10  24  44  68  99 139 178 228 280 333 409
#     4  11  22  46  70  98 138 180 225 277 342 402
#     4  11  24  44  67 100 138 179 224 282 337 396
#
# _framework density 22.668203999999999
#
# number of rings (size 3 to 8) (size 9 to 14) (size 15 to 20)
#    0.000    1.000    5.000    1.500    7.000    2.000 
#    0.000    0.000    0.000    0.000    0.000    0.000 
#    0.000    0.000    0.000    0.000    0.000    0.000 
#
# Total GULP energy -198261.815558 kJ/mol
# GULP energy per Si atom -12391.363472 kJ/mol
# Density = 2.261661 g / cm^3
# Si number density = 22.668204 Si / 1000 Ang^3
#
#
#
# Elastic Constant Matrix: (Units=GPa)
#
#
# Indices 1 2 3 4 5 6 
#
# 1 150.4736 20.0530 37.7338 0.0000 12.3694 0.0000
# 2 20.0530 78.6917 27.8738 0.0000 11.6740 0.0000
# 3 37.7338 27.8738 89.9567 0.0000 16.4697 0.0000
# 4 0.0000 0.0000 0.0000 45.8891 0.0000 4.4124
# 5 12.3694 11.6740 16.4697 0.0000 32.8967 0.0000
# 6 0.0000 0.0000 0.0000 4.4124 0.0000 28.7596
#
#
#
# Elastic Compliance Matrix: (Units=1/GPa)
#
#
# Indices 1 2 3 4 5 6 
#
# 1 0.007524 -0.000785 -0.002693 0.000000 -0.001202 0.000000
# 2 -0.000785 0.014657 -0.003648 0.000000 -0.003079 0.000000
# 3 -0.002693 -0.003648 0.014261 0.000000 -0.004833 0.000000
# 4 0.000000 0.000000 0.000000 0.022118 0.000000 -0.003393
# 5 -0.001202 -0.003079 -0.004833 0.000000 0.034363 0.000000
# 6 0.000000 0.000000 0.000000 -0.003393 0.000000 0.035292
#
#
# Mechanical properties :
#
#
# Convention : Reuss Voigt Hill
#
# Bulk Modulus (GPa) = 45.06555 54.49370 49.77963
# Shear Modulus (GPa) = 33.36346 37.07317 35.21832
#
# Velocity S-wave (km/s) = 3.84059 4.04848 3.94591
# Velocity P-wave (km/s) = 6.29210 6.77831 6.53973
#
# Compressibility (1/GPa) = 0.02218990
#
# Stress axis : x y z
#
# Youngs Moduli (GPa) = 132.90031 68.22626 70.11995
#
# Poissons Ratio (x) = 0.05357 0.18882
# Poissons Ratio (y) = 0.10436 0.25583
# Poissons Ratio (z) = 0.35787 0.24892
#
# Static dielectric constant tensor:
#      x y z
#    x 4.496070 0.000000 0.142280 
#    y 0.000000 3.772930 0.000000 
#    z 0.142280 0.000000 3.932970 
# 
# 
# High freq. dielectric constant tensor:
#      x y z
#    x 1.914040 0.000000 0.002160 
#    y 0.000000 1.870170 0.000000 
#    z 0.002160 0.000000 1.889750 
# 
# From -- ./inp_files/30595.got.cif
#   From: 2010.06.25/outbox.cif.g09.slc.cpg/sg9_16_cif.got.tgz:30595.got - 2010.06.27 21:40:51.
