data_PCOD8055205
_publ_section_title
;
Structure prediction by ZEFSAII (Michael W. Deem and Ramdas Pophale) SiO2 
 PCOD8055205
Probable space group: C C
;
_chemical_formula_sum "Si O2"
_cell_formula_units_Z 28
_cell_length_a 21.308480
_cell_length_b 7.678600
_cell_length_c 9.178438
_cell_angle_alpha 90.000000
_cell_angle_beta 50.589036
_cell_angle_gamma 90.000000
_cell_volume 1160.285324
_symmetry_space_group_name_H-M "C C"
_symmetry_group_IT_number 9
_symmetry_cell_setting 'monoclinic'
loop_
_space_group_symop_operation_xyz
x,y,z
x,-y,1/2+z
1/2+x,1/2+y,z
1/2+x,1/2-y,1/2+z
loop_
_atom_site_type_symbol
_atom_site_label
_atom_site_fract_x
_atom_site_fract_y
_atom_site_fract_z
Si Si1 0.639760 0.726509 0.781180
Si Si2 0.204165 0.767095 0.691340
Si Si3 0.300382 0.574627 0.011657
Si Si4 0.014565 0.705365 0.920104
Si Si5 0.409989 0.545432 0.107843
Si Si6 0.676779 0.499644 0.981863
Si Si7 0.994143 0.617678 0.616249
O O1 0.734424 0.771311 0.616616
O O2 0.615525 0.611906 0.675423
O O3 0.623444 0.619680 0.954302
O O4 0.578417 0.884319 0.895548
O O5 0.254786 0.595662 0.632958
O O6 0.231557 0.878521 0.507684
O O7 0.108489 0.728427 0.824938
O O8 0.229102 0.874921 0.799720
O O9 0.376538 0.614485 0.003138
O O10 0.333838 0.543807 0.801396
O O11 0.005659 0.622881 0.772016
O O12 0.965562 0.575192 0.104727
O O13 0.977876 0.898975 0.983726
O O14 0.440735 0.716223 0.148129
#
# Coordination Sequence:
#
# PCOD8055205 Si02
#       7
#     4   4   4   4   4   4   4
#     4  11  23  45  74 108 143 190 254 305 369 435
#     4  11  23  45  74 110 145 190 260 300 371 436
#     4  12  26  49  72 107 152 196 237 318 375 441
#     4  12  28  49  77 110 149 204 253 305 371 460
#     4  12  28  52  72 108 162 196 242 308 399 433
#     4  10  22  39  68 111 140 184 236 322 351 432
#     4  12  28  49  77 110 149 204 252 308 368 461
#
# _framework density 24.131996000000001
#
# number of rings (size 3 to 8) (size 9 to 14) (size 15 to 20)
#    0.000    0.571    4.286    3.429    4.000    0.000 
#   15.429    0.000    0.000    0.000    0.000    0.000 
#    0.000    0.000    0.000    0.000    0.000    0.000 
#
# Total GULP energy -173495.489216 kJ/mol
# GULP energy per Si atom -12392.534944 kJ/mol
# Density = 2.407707 g / cm^3
# Si number density = 24.131996 Si / 1000 Ang^3
#
#
#
# Elastic Constant Matrix: (Units=GPa)
#
#
# Indices 1 2 3 4 5 6 
#
# 1 80.1879 30.6432 32.1904 0.0000 10.9135 0.0000
# 2 30.6432 99.5809 24.5355 0.0000 7.3275 0.0000
# 3 32.1904 24.5355 84.1257 0.0000 14.7105 0.0000
# 4 0.0000 0.0000 0.0000 37.7721 0.0000 -2.3132
# 5 10.9135 7.3275 14.7105 0.0000 45.1742 0.0000
# 6 0.0000 0.0000 0.0000 -2.3132 0.0000 25.8444
#
#
#
# Elastic Compliance Matrix: (Units=1/GPa)
#
#
# Indices 1 2 3 4 5 6 
#
# 1 0.016003 -0.003623 -0.004765 0.000000 -0.001727 0.000000
# 2 -0.003623 0.011665 -0.001949 0.000000 -0.000382 0.000000
# 3 -0.004765 -0.001949 0.014869 0.000000 -0.003375 0.000000
# 4 0.000000 0.000000 0.000000 0.026620 0.000000 0.002383
# 5 -0.001727 -0.000382 -0.003375 0.000000 0.023715 0.000000
# 6 0.000000 0.000000 0.000000 0.002383 0.000000 0.038906
#
#
# Mechanical properties :
#
#
# Convention : Reuss Voigt Hill
#
# Bulk Modulus (GPa) = 45.73956 48.73695 47.23826
# Shear Modulus (GPa) = 31.30073 33.52651 32.41362
#
# Velocity S-wave (km/s) = 3.60538 3.73137 3.66892
# Velocity P-wave (km/s) = 6.02717 6.22929 6.12906
#
# Compressibility (1/GPa) = 0.02186291
#
# Stress axis : x y z
#
# Youngs Moduli (GPa) = 62.48759 85.72347 67.25540
#
# Poissons Ratio (x) = 0.31062 0.32046
# Poissons Ratio (y) = 0.22642 0.13108
# Poissons Ratio (z) = 0.29774 0.16707
#
# Static dielectric constant tensor:
#      x y z
#    x 4.215730 0.000000 0.202550 
#    y 0.000000 4.586010 0.000000 
#    z 0.202550 0.000000 4.415990 
# 
# 
# High freq. dielectric constant tensor:
#      x y z
#    x 1.943180 0.000000 0.026150 
#    y 0.000000 1.979270 0.000000 
#    z 0.026150 0.000000 1.956870 
# 
# From -- ./inp_files/10430.got.cif
#   From: 2010.06.25/outbox.cif.g09.slc.cpg/sg9_6_cif.got.tgz:10430.got - 2010.06.27 21:40:51.
