data_PCOD8055194
_publ_section_title
;
Structure prediction by ZEFSAII (Michael W. Deem and Ramdas Pophale) SiO2 
 PCOD8055194
Probable space group: C C
;
_chemical_formula_sum "Si O2"
_cell_formula_units_Z 24
_cell_length_a 15.035944
_cell_length_b 8.225905
_cell_length_c 15.229356
_cell_angle_alpha 90.000000
_cell_angle_beta 142.826482
_cell_angle_gamma 90.000000
_cell_volume 1138.148305
_symmetry_space_group_name_H-M "C C"
_symmetry_group_IT_number 9
_symmetry_cell_setting 'monoclinic'
loop_
_space_group_symop_operation_xyz
x,y,z
x,-y,1/2+z
1/2+x,1/2+y,z
1/2+x,1/2-y,1/2+z
loop_
_atom_site_type_symbol
_atom_site_label
_atom_site_fract_x
_atom_site_fract_y
_atom_site_fract_z
Si Si1 0.693950 0.076284 0.159400
Si Si2 0.680707 0.420119 0.361955
Si Si3 0.699737 0.547052 0.686176
Si Si4 0.500671 0.943866 0.861415
Si Si5 0.014939 0.595131 0.181722
Si Si6 0.505743 0.431476 0.386737
O O1 0.738971 0.261580 0.213405
O O2 0.606094 0.006796 0.175564
O O3 0.832606 0.964804 0.244190
O O4 0.585600 0.068079 0.991026
O O5 0.686493 0.522143 0.275501
O O6 0.583959 0.268118 0.256301
O O7 0.593557 0.511604 0.372564
O O8 0.845863 0.376165 0.521161
O O9 0.827435 0.447701 0.740121
O O10 0.552353 0.510207 0.515874
O O11 0.528447 0.004719 0.783231
O O12 0.548785 0.758451 0.917348
#
# Coordination Sequence:
#
# PCOD8055194 Si02
#       6
#     4   4   4   4   4   4
#     4  11  24  40  64  94 123 166 209 255 314 366
#     4  10  22  39  64  90 124 169 211 247 308 387
#     4  11  22  42  65  90 128 160 211 259 307 374
#     4  11  22  42  65  90 128 160 211 259 307 374
#     4  10  22  39  64  90 124 169 211 247 308 387
#     4  11  24  40  64  94 123 166 209 255 314 366
#
# _framework density 21.086881999999999
#
# number of rings (size 3 to 8) (size 9 to 14) (size 15 to 20)
#    0.000    1.333    3.333    2.000   14.000    0.000 
#    0.000   10.000    0.000    0.000    0.000    0.000 
#    0.000    0.000    0.000    0.000    0.000    0.000 
#
# Total GULP energy -148746.336203 kJ/mol
# GULP energy per Si atom -12395.528017 kJ/mol
# Density = 2.103889 g / cm^3
# Si number density = 21.086882 Si / 1000 Ang^3
#
#
#
# Elastic Constant Matrix: (Units=GPa)
#
#
# Indices 1 2 3 4 5 6 
#
# 1 188.0540 19.1214 73.0896 0.0000 -17.8785 0.0000
# 2 19.1214 33.3655 12.6636 0.0000 -5.9315 0.0000
# 3 73.0896 12.6636 130.6838 0.0000 -14.7789 0.0000
# 4 0.0000 0.0000 0.0000 35.5622 0.0000 1.9405
# 5 -17.8785 -5.9315 -14.7789 0.0000 49.2304 0.0000
# 6 0.0000 0.0000 0.0000 1.9405 0.0000 22.2716
#
#
#
# Elastic Compliance Matrix: (Units=1/GPa)
#
#
# Indices 1 2 3 4 5 6 
#
# 1 0.007076 -0.002483 -0.003582 0.000000 0.001195 0.000000
# 2 -0.002483 0.032405 -0.001461 0.000000 0.002564 0.000000
# 3 -0.003582 -0.001461 0.009968 0.000000 0.001516 0.000000
# 4 0.000000 0.000000 0.000000 0.028254 0.000000 -0.002462
# 5 0.001195 0.002564 0.001516 0.000000 0.021511 0.000000
# 6 0.000000 0.000000 0.000000 -0.002462 0.000000 0.045115
#
#
# Mechanical properties :
#
#
# Convention : Reuss Voigt Hill
#
# Bulk Modulus (GPa) = 29.07288 62.42806 45.75047
# Shear Modulus (GPa) = 29.26620 37.89476 33.58048
#
# Velocity S-wave (km/s) = 3.72948 4.24379 3.99492
# Velocity P-wave (km/s) = 5.68880 7.32683 6.55915
#
# Compressibility (1/GPa) = 0.03439632
#
# Stress axis : x y z
#
# Youngs Moduli (GPa) = 141.32718 30.85983 100.31896
#
# Poissons Ratio (x) = 0.07663 0.35930
# Poissons Ratio (y) = 0.35094 0.14660
# Poissons Ratio (z) = 0.50618 0.04510
#
# Static dielectric constant tensor:
#      x y z
#    x 4.758360 0.000000 -0.412560 
#    y 0.000000 3.231440 0.000000 
#    z -0.412560 0.000000 3.905220 
# 
# 
# High freq. dielectric constant tensor:
#      x y z
#    x 1.851590 0.000000 -0.008150 
#    y 0.000000 1.776230 0.000000 
#    z -0.008150 0.000000 1.845480 
# 
# From -- ./inp_files/8705.got.cif
#   From: 2010.06.25/outbox.cif.g09.slc.cpg/sg9_5_cif.got.tgz:8705.got - 2010.06.27 21:40:51.
