data_PCOD8055066
_publ_section_title
;
Structure prediction by ZEFSAII (Michael W. Deem and Ramdas Pophale) SiO2 
 PCOD8055066
Probable space group: C C
;
_chemical_formula_sum "Si O2"
_cell_formula_units_Z 28
_cell_length_a 6.254991
_cell_length_b 16.097951
_cell_length_c 15.015188
_cell_angle_alpha 90.000000
_cell_angle_beta 46.568973
_cell_angle_gamma 90.000000
_cell_volume 1097.958180
_symmetry_space_group_name_H-M "C C"
_symmetry_group_IT_number 9
_symmetry_cell_setting 'monoclinic'
loop_
_space_group_symop_operation_xyz
x,y,z
x,-y,1/2+z
1/2+x,1/2+y,z
1/2+x,1/2-y,1/2+z
loop_
_atom_site_type_symbol
_atom_site_label
_atom_site_fract_x
_atom_site_fract_y
_atom_site_fract_z
Si Si1 0.665630 0.962647 0.224870
Si Si2 0.057123 0.823117 0.692003
Si Si3 0.406216 0.347498 0.548868
Si Si4 0.645381 0.729604 0.488218
Si Si5 0.037969 0.301101 0.340198
Si Si6 0.949570 0.475256 0.618199
Si Si7 0.793624 0.455963 0.985791
O O1 0.740497 0.866243 0.226824
O O2 0.424773 0.969160 0.214579
O O3 0.526713 0.006784 0.350042
O O4 0.978344 0.002737 0.098722
O O5 0.821296 0.836621 0.678755
O O6 0.306239 0.757224 0.591533
O O7 0.910938 0.776324 0.818232
O O8 0.177146 0.911931 0.690122
O O9 0.328427 0.264119 0.518602
O O10 0.247535 0.421332 0.541343
O O11 0.760736 0.359135 0.448949
O O12 0.735820 0.766753 0.365058
O O13 0.702190 0.632182 0.472752
O O14 0.967939 0.538556 0.529806
#
# Coordination Sequence:
#
# PCOD8055066 Si02
#       7
#     4   4   4   4   4   4   4
#     4  12  26  46  73 111 152 198 252 308 383 448
#     4  10  21  43  66  99 142 191 245 305 359 444
#     4  10  23  43  67 102 140 196 242 304 368 438
#     4  10  23  43  69 105 145 190 254 303 373 445
#     4  11  23  42  73 103 145 191 254 306 369 450
#     4  11  25  44  72 104 156 193 249 307 382 446
#     4  12  27  47  74 112 154 199 250 313 378 455
#
# _framework density 25.501882999999999
#
# number of rings (size 3 to 8) (size 9 to 14) (size 15 to 20)
#    0.000    1.143    1.429    5.143    2.000    8.000 
#    0.000    0.000    0.000    0.000    0.000    0.000 
#    0.000    0.000    0.000    0.000    0.000    0.000 
#
# Total GULP energy -173445.969995 kJ/mol
# GULP energy per Si atom -12388.997857 kJ/mol
# Density = 2.544384 g / cm^3
# Si number density = 25.501883 Si / 1000 Ang^3
#
#
#
# Elastic Constant Matrix: (Units=GPa)
#
#
# Indices 1 2 3 4 5 6 
#
# 1 145.4034 38.9570 54.8118 0.0000 37.8953 0.0000
# 2 38.9570 95.1196 34.3655 0.0000 13.3002 0.0000
# 3 54.8118 34.3655 119.6568 0.0000 21.1708 0.0000
# 4 0.0000 0.0000 0.0000 39.2262 0.0000 18.3657
# 5 37.8953 13.3002 21.1708 0.0000 57.7143 0.0000
# 6 0.0000 0.0000 0.0000 18.3657 0.0000 43.3792
#
#
#
# Elastic Compliance Matrix: (Units=1/GPa)
#
#
# Indices 1 2 3 4 5 6 
#
# 1 0.009893 -0.002282 -0.003016 0.000000 -0.004864 0.000000
# 2 -0.002282 0.012391 -0.002431 0.000000 -0.000465 0.000000
# 3 -0.003016 -0.002431 0.010681 0.000000 -0.001377 0.000000
# 4 0.000000 0.000000 0.000000 0.031796 0.000000 -0.013462
# 5 -0.004864 -0.000465 -0.001377 0.000000 0.021133 0.000000
# 6 0.000000 0.000000 0.000000 -0.013462 0.000000 0.028752
#
#
# Mechanical properties :
#
#
# Convention : Reuss Voigt Hill
#
# Bulk Modulus (GPa) = 57.12036 68.49428 62.80732
# Shear Modulus (GPa) = 36.78105 43.53362 40.15733
#
# Velocity S-wave (km/s) = 3.80187 4.13616 3.97253
# Velocity P-wave (km/s) = 6.45905 7.05175 6.76190
#
# Compressibility (1/GPa) = 0.01750689
#
# Stress axis : x y z
#
# Youngs Moduli (GPa) = 101.07773 80.70296 93.62746
#
# Poissons Ratio (x) = 0.18418 0.28237
# Poissons Ratio (y) = 0.23068 0.22761
# Poissons Ratio (z) = 0.30484 0.19619
#
# Static dielectric constant tensor:
#      x y z
#    x 4.851430 0.000000 0.383680 
#    y 0.000000 4.690100 0.000000 
#    z 0.383680 0.000000 4.855490 
# 
# 
# High freq. dielectric constant tensor:
#      x y z
#    x 2.017940 0.000000 0.021750 
#    y 0.000000 2.028120 0.000000 
#    z 0.021750 0.000000 2.015030 
# 
# From -- ./inp_files/13090.got.cif
#   From: 2010.06.25/outbox.cif.g09.slc.cpg/sg9_7_cif.got.tgz:13090.got - 2010.06.27 21:40:51.
