data_PCOD8055391
_publ_section_title
;
Structure prediction by ZEFSAII (Michael W. Deem and Ramdas Pophale) SiO2 
 PCOD8055391
Probable space group: C C
;
_chemical_formula_sum "Si O2"
_cell_formula_units_Z 32
_cell_length_a 8.761082
_cell_length_b 11.149817
_cell_length_c 16.527579
_cell_angle_alpha 90.000000
_cell_angle_beta 122.664632
_cell_angle_gamma 90.000000
_cell_volume 1359.146909
_symmetry_space_group_name_H-M "C C"
_symmetry_group_IT_number 9
_symmetry_cell_setting 'monoclinic'
loop_
_space_group_symop_operation_xyz
x,y,z
x,-y,1/2+z
1/2+x,1/2+y,z
1/2+x,1/2-y,1/2+z
loop_
_atom_site_type_symbol
_atom_site_label
_atom_site_fract_x
_atom_site_fract_y
_atom_site_fract_z
Si Si1 0.630470 0.416735 0.292100
Si Si2 0.416104 0.877238 0.234794
Si Si3 0.220102 0.822507 0.842683
Si Si4 0.543468 0.906446 0.843396
Si Si5 0.139317 0.424880 0.511891
Si Si6 0.317674 0.771945 0.467568
Si Si7 0.384182 0.776343 0.059226
Si Si8 0.259457 0.339182 0.123702
O O1 0.764111 0.367158 0.260666
O O2 0.605640 0.559816 0.283982
O O3 0.699438 0.383968 0.402041
O O4 0.443232 0.345687 0.226210
O O5 0.586296 0.790162 0.303050
O O6 0.320504 0.845674 0.122291
O O7 0.489910 0.016513 0.248477
O O8 0.389837 0.810878 0.828279
O O9 0.306800 0.840902 0.957037
O O10 0.740777 0.843048 0.893028
O O11 0.538228 0.014972 0.907749
O O12 0.328075 0.363300 0.540926
O O13 0.183966 0.526364 0.589603
O O14 0.025024 0.309906 0.512363
O O15 0.287536 0.737994 0.551094
O O16 0.603253 0.771591 0.128318
#
# Coordination Sequence:
#
# PCOD8055391 Si02
#       8
#     4   4   4   4   4   4   4   4
#     4  11  24  47  68 102 142 181 229 286 342 407
#     4  11  24  44  70 102 138 180 232 281 344 417
#     4  11  21  46  72  95 140 182 219 292 343 392
#     4  10  22  43  69  96 140 174 226 288 336 398
#     4  11  21  47  69  95 137 180 227 284 336 400
#     4  11  21  45  73  96 137 184 224 282 342 403
#     4  12  23  42  71 101 134 179 232 276 345 411
#     4  11  26  44  68 103 140 178 231 285 340 410
#
# _framework density 23.544181999999999
#
# number of rings (size 3 to 8) (size 9 to 14) (size 15 to 20)
#    0.000    1.000    6.250    1.500    1.750    0.000 
#   11.250    6.250    0.000    0.000    0.000    0.000 
#    0.000    0.000    0.000    0.000    0.000    0.000 
#
# Total GULP energy -198268.751970 kJ/mol
# GULP energy per Si atom -12391.796998 kJ/mol
# Density = 2.349059 g / cm^3
# Si number density = 23.544182 Si / 1000 Ang^3
#
#
#
# Elastic Constant Matrix: (Units=GPa)
#
#
# Indices 1 2 3 4 5 6 
#
# 1 106.7477 58.3138 24.6151 0.0000 25.1637 0.0000
# 2 58.3138 89.4755 3.0335 0.0000 3.1854 0.0000
# 3 24.6151 3.0335 77.6821 0.0000 8.9240 0.0000
# 4 0.0000 0.0000 0.0000 32.3812 0.0000 10.9290
# 5 25.1637 3.1854 8.9240 0.0000 30.3584 0.0000
# 6 0.0000 0.0000 0.0000 10.9290 0.0000 49.6052
#
#
#
# Elastic Compliance Matrix: (Units=1/GPa)
#
#
# Indices 1 2 3 4 5 6 
#
# 1 0.020945 -0.012977 -0.004442 0.000000 -0.014693 0.000000
# 2 -0.012977 0.019265 0.002438 0.000000 0.008018 0.000000
# 3 -0.004442 0.002438 0.014274 0.000000 -0.000770 0.000000
# 4 0.000000 0.000000 0.000000 0.033363 0.000000 -0.007350
# 5 -0.014693 0.008018 -0.000770 0.000000 0.044504 0.000000
# 6 0.000000 0.000000 0.000000 -0.007350 0.000000 0.021779
#
#
# Mechanical properties :
#
#
# Convention : Reuss Voigt Hill
#
# Bulk Modulus (GPa) = 40.77720 49.53668 45.15694
# Shear Modulus (GPa) = 26.00592 34.99849 30.50220
#
# Velocity S-wave (km/s) = 3.32709 3.85970 3.60325
# Velocity P-wave (km/s) = 5.66714 6.39911 6.04421
#
# Compressibility (1/GPa) = 0.02452351
#
# Stress axis : x y z
#
# Youngs Moduli (GPa) = 47.74494 51.90675 70.05879
#
# Poissons Ratio (x) = 0.67357 0.31120
# Poissons Ratio (y) = 0.61956 -0.17084
# Poissons Ratio (z) = 0.21208 -0.12657
#
# Static dielectric constant tensor:
#      x y z
#    x 4.155890 0.000000 0.116480 
#    y 0.000000 4.290660 0.000000 
#    z 0.116480 0.000000 4.324230 
# 
# 
# High freq. dielectric constant tensor:
#      x y z
#    x 1.917120 0.000000 0.015390 
#    y 0.000000 1.933930 0.000000 
#    z 0.015390 0.000000 1.941920 
# 
# From -- ./inp_files/29273.got.cif
#   From: 2010.06.25/outbox.cif.g09.slc.cpg/sg9_15_cif.got.tgz:29273.got - 2010.06.27 21:40:51.
