data_PCOD8055083
_publ_section_title
;
Structure prediction by ZEFSAII (Michael W. Deem and Ramdas Pophale) SiO2 
 PCOD8055083
Probable space group: C C
;
_chemical_formula_sum "Si O2"
_cell_formula_units_Z 32
_cell_length_a 15.069576
_cell_length_b 15.340975
_cell_length_c 10.233937
_cell_angle_alpha 90.000000
_cell_angle_beta 38.162228
_cell_angle_gamma 90.000000
_cell_volume 1461.867575
_symmetry_space_group_name_H-M "C C"
_symmetry_group_IT_number 9
_symmetry_cell_setting 'monoclinic'
loop_
_space_group_symop_operation_xyz
x,y,z
x,-y,1/2+z
1/2+x,1/2+y,z
1/2+x,1/2-y,1/2+z
loop_
_atom_site_type_symbol
_atom_site_label
_atom_site_fract_x
_atom_site_fract_y
_atom_site_fract_z
Si Si1 0.730720 0.956423 0.691490
Si Si2 0.262870 0.734019 0.238215
Si Si3 0.042668 0.980401 0.411920
Si Si4 0.552780 0.326997 0.888728
Si Si5 0.495353 0.672182 0.151316
Si Si6 0.751696 0.230694 0.829445
Si Si7 0.291127 0.128738 0.497720
Si Si8 0.093319 0.555719 0.084730
O O1 0.747146 0.852275 0.669430
O O2 0.659852 0.987391 0.638120
O O3 0.890253 0.996484 0.515580
O O4 0.627212 0.989632 0.927621
O O5 0.344394 0.711494 0.278307
O O6 0.106160 0.764305 0.455000
O O7 0.340003 0.810118 0.063512
O O8 0.016466 0.926616 0.575644
O O9 0.099411 0.076381 0.380850
O O10 0.157562 0.932972 0.187334
O O11 0.511399 0.325137 0.786066
O O12 0.686061 0.263515 0.766857
O O13 0.417145 0.294237 0.127927
O O14 0.732726 0.309492 0.951762
O O15 0.661465 0.149000 0.980862
O O16 0.422248 0.067584 0.299947
#
# Coordination Sequence:
#
# PCOD8055083 Si02
#       8
#     4   4   4   4   4   4   4   4
#     4  11  25  42  74 101 143 184 234 295 351 426
#     4  10  21  43  70  96 128 184 228 280 349 420
#     4  10  26  43  73 103 133 187 237 290 352 427
#     4  12  26  45  69 103 142 183 234 296 357 427
#     4  10  23  42  67  99 134 174 231 287 353 416
#     4  12  26  44  72 100 140 187 236 287 360 423
#     4  11  25  47  73 101 139 182 240 288 352 426
#     4  12  26  46  68 109 143 185 238 295 360 421
#
# _framework density 21.889806
#
# number of rings (size 3 to 8) (size 9 to 14) (size 15 to 20)
#    0.000    1.000    3.750    1.500   10.500    2.000 
#    6.750    0.000    0.000    0.000    0.000    0.000 
#    0.000    0.000    0.000    0.000    0.000    0.000 
#
# Total GULP energy -198442.036723 kJ/mol
# GULP energy per Si atom -12402.627295 kJ/mol
# Density = 2.183998 g / cm^3
# Si number density = 21.889806 Si / 1000 Ang^3
#
#
#
# Elastic Constant Matrix: (Units=GPa)
#
#
# Indices 1 2 3 4 5 6 
#
# 1 100.2717 28.3505 8.0566 0.0000 16.0526 0.0001
# 2 28.3505 83.5515 34.9855 0.0000 2.0696 0.0000
# 3 8.0566 34.9855 86.8275 0.0000 -2.3547 0.0000
# 4 0.0000 0.0000 0.0000 36.7800 0.0000 0.4212
# 5 16.0526 2.0696 -2.3547 0.0000 29.3800 0.0000
# 6 0.0001 0.0000 0.0000 0.4212 0.0000 23.2194
#
#
#
# Elastic Compliance Matrix: (Units=1/GPa)
#
#
# Indices 1 2 3 4 5 6 
#
# 1 0.012113 -0.004104 0.000359 0.000000 -0.006300 0.000000
# 2 -0.004104 0.015853 -0.005989 0.000000 0.000646 0.000000
# 3 0.000359 -0.005989 0.013934 0.000000 0.001342 0.000000
# 4 0.000000 0.000000 0.000000 0.027194 0.000000 -0.000493
# 5 -0.006300 0.000646 0.001342 0.000000 0.037541 0.000000
# 6 0.000000 0.000000 0.000000 -0.000493 0.000000 0.043076
#
#
# Mechanical properties :
#
#
# Convention : Reuss Voigt Hill
#
# Bulk Modulus (GPa) = 44.58273 45.93731 45.26002
# Shear Modulus (GPa) = 28.30316 31.15976 29.73146
#
# Velocity S-wave (km/s) = 3.59971 3.77700 3.68942
# Velocity P-wave (km/s) = 6.13908 6.32868 6.23460
#
# Compressibility (1/GPa) = 0.02243021
#
# Stress axis : x y z
#
# Youngs Moduli (GPa) = 82.55464 63.07813 71.76932
#
# Poissons Ratio (x) = 0.25890 -0.02577
# Poissons Ratio (y) = 0.33884 0.42986
# Poissons Ratio (z) = -0.02964 0.37780
#
# Static dielectric constant tensor:
#      x y z
#    x 3.976560 0.000000 -0.046580 
#    y 0.000000 4.043560 0.000000 
#    z -0.046580 0.000000 3.996090 
# 
# 
# High freq. dielectric constant tensor:
#      x y z
#    x 1.862950 0.000000 -0.000980 
#    y 0.000000 1.866560 0.000000 
#    z -0.000980 0.000000 1.862340 
# 
# From -- ./inp_files/7550.got.cif
#   From: 2010.06.25/outbox.cif.g09.slc.cpg/sg9_4_cif.got.tgz:7550.got - 2010.06.27 21:40:51.
