data_PCOD8055755
_publ_section_title
;
Structure prediction by ZEFSAII (Michael W. Deem and Ramdas Pophale) SiO2 
 PCOD8055755
Probable space group: C C
;
_chemical_formula_sum "Si O2"
_cell_formula_units_Z 28
_cell_length_a 13.459616
_cell_length_b 9.356999
_cell_length_c 13.654211
_cell_angle_alpha 90.000000
_cell_angle_beta 38.773934
_cell_angle_gamma 90.000000
_cell_volume 1076.919012
_symmetry_space_group_name_H-M "C C"
_symmetry_group_IT_number 9
_symmetry_cell_setting 'monoclinic'
loop_
_space_group_symop_operation_xyz
x,y,z
x,-y,1/2+z
1/2+x,1/2+y,z
1/2+x,1/2-y,1/2+z
loop_
_atom_site_type_symbol
_atom_site_label
_atom_site_fract_x
_atom_site_fract_y
_atom_site_fract_z
Si Si1 0.284530 0.691652 0.326230
Si Si2 0.229256 0.163745 0.060658
Si Si3 0.961244 0.411832 0.072293
Si Si4 0.815646 0.625000 0.481588
Si Si5 0.050449 0.664958 0.145645
Si Si6 0.882456 0.898092 0.172844
Si Si7 0.552915 0.247493 0.875787
O O1 0.247420 0.703007 0.471791
O O2 0.375690 0.835095 0.228606
O O3 0.391391 0.559249 0.207230
O O4 0.109913 0.675926 0.413865
O O5 0.080081 0.186953 0.246751
O O6 0.394281 0.150747 0.996386
O O7 0.205657 0.007974 0.028102
O O8 0.030500 0.562029 0.064775
O O9 0.832733 0.405316 0.084432
O O10 0.729760 0.776546 0.523354
O O11 0.985887 0.602415 0.297352
O O12 0.930929 0.795865 0.223359
O O13 0.702629 0.854509 0.282258
O O14 0.013916 0.874242 0.984259
#
# Coordination Sequence:
#
# PCOD8055755 Si02
#       7
#     4   4   4   4   4   4   4
#     4  12  26  46  76 112 159 200 259 336 410 465
#     4  11  24  45  74 113 154 204 259 326 401 488
#     4  12  27  51  77 114 160 208 264 341 401 491
#     4  12  27  48  79 109 154 210 265 324 408 484
#     4  12  27  50  76 112 160 205 270 333 397 488
#     4  11  24  46  77 111 154 208 259 332 401 482
#     4  10  23  46  75 113 157 207 266 320 408 490
#
# _framework density 26.0001
#
# number of rings (size 3 to 8) (size 9 to 14) (size 15 to 20)
#    0.000    0.571    1.429    6.857    4.000    3.429 
#    5.143    0.000    0.000    0.000    0.000    0.000 
#    0.000    0.000    0.000    0.000    0.000    0.000 
#
# Total GULP energy -173451.257004 kJ/mol
# GULP energy per Si atom -12389.375500 kJ/mol
# Density = 2.594092 g / cm^3
# Si number density = 26.000100 Si / 1000 Ang^3
#
#
#
# Elastic Constant Matrix: (Units=GPa)
#
#
# Indices 1 2 3 4 5 6 
#
# 1 85.2122 32.5653 23.9373 0.0000 7.0027 0.0000
# 2 32.5653 119.0902 47.6944 0.0000 10.9841 0.0000
# 3 23.9373 47.6944 161.7236 0.0000 21.4437 0.0000
# 4 0.0000 0.0000 0.0000 42.2839 0.0000 -3.4727
# 5 7.0027 10.9841 21.4437 0.0000 50.2106 0.0000
# 6 0.0000 0.0000 0.0000 -3.4727 0.0000 25.2977
#
#
#
# Elastic Compliance Matrix: (Units=1/GPa)
#
#
# Indices 1 2 3 4 5 6 
#
# 1 0.013277 -0.003191 -0.000923 0.000000 -0.000759 0.000000
# 2 -0.003191 0.010330 -0.002474 0.000000 -0.000758 0.000000
# 3 -0.000923 -0.002474 0.007379 0.000000 -0.002481 0.000000
# 4 0.000000 0.000000 0.000000 0.023919 0.000000 0.003283
# 5 -0.000759 -0.000758 -0.002481 0.000000 0.021248 0.000000
# 6 0.000000 0.000000 0.000000 0.003283 0.000000 0.039980
#
#
# Mechanical properties :
#
#
# Convention : Reuss Voigt Hill
#
# Bulk Modulus (GPa) = 56.14906 63.82444 59.98675
# Shear Modulus (GPa) = 36.97013 41.01371 38.99192
#
# Velocity S-wave (km/s) = 3.77493 3.97601 3.87678
# Velocity P-wave (km/s) = 6.37516 6.75865 6.56970
#
# Compressibility (1/GPa) = 0.01780974
#
# Stress axis : x y z
#
# Youngs Moduli (GPa) = 75.32065 96.80454 135.52702
#
# Poissons Ratio (x) = 0.30887 0.12516
# Poissons Ratio (y) = 0.24032 0.33525
# Poissons Ratio (z) = 0.06956 0.23946
#
# Static dielectric constant tensor:
#      x y z
#    x 4.528200 0.000000 0.004430 
#    y 0.000000 4.615870 0.000000 
#    z 0.004430 0.000000 4.761850 
# 
# 
# High freq. dielectric constant tensor:
#      x y z
#    x 2.034790 0.000000 0.000060 
#    y 0.000000 2.032160 0.000000 
#    z 0.000060 0.000000 2.062130 
# 
# From -- ./inp_files/25644.got.cif
#   From: 2010.06.25/outbox.cif.g09.slc.cpg/sg9_13_cif.got.tgz:25644.got - 2010.06.27 21:40:51.
