data_PCOD8055202
_publ_section_title
;
Structure prediction by ZEFSAII (Michael W. Deem and Ramdas Pophale) SiO2 
 PCOD8055202
Probable space group: C C
;
_chemical_formula_sum "Si O2"
_cell_formula_units_Z 28
_cell_length_a 8.022659
_cell_length_b 18.735472
_cell_length_c 13.688475
_cell_angle_alpha 90.000000
_cell_angle_beta 35.726308
_cell_angle_gamma 90.000000
_cell_volume 1201.398118
_symmetry_space_group_name_H-M "C C"
_symmetry_group_IT_number 9
_symmetry_cell_setting 'monoclinic'
loop_
_space_group_symop_operation_xyz
x,y,z
x,-y,1/2+z
1/2+x,1/2+y,z
1/2+x,1/2-y,1/2+z
loop_
_atom_site_type_symbol
_atom_site_label
_atom_site_fract_x
_atom_site_fract_y
_atom_site_fract_z
Si Si1 0.985240 0.681073 0.381200
Si Si2 0.311862 0.822287 0.497528
Si Si3 0.572469 0.125331 0.144896
Si Si4 0.673427 0.669130 0.844439
Si Si5 0.865448 0.767973 0.152987
Si Si6 0.674890 0.547528 0.201430
Si Si7 0.532146 0.916193 0.037285
O O1 0.656463 0.689238 0.509186
O O2 0.106694 0.624081 0.245710
O O3 0.160833 0.755408 0.293124
O O4 0.040207 0.650134 0.461047
O O5 0.150301 0.816375 0.471625
O O6 0.647466 0.819878 0.312689
O O7 0.242323 0.755543 0.603974
O O8 0.231078 0.896205 0.588291
O O9 0.403743 0.197281 0.198183
O O10 0.382517 0.060522 0.195944
O O11 0.888694 0.125184 0.948218
O O12 0.941652 0.619895 0.684260
O O13 0.345564 0.547553 0.393396
O O14 0.786378 0.470017 0.114499
#
# Coordination Sequence:
#
# PCOD8055202 Si02
#       7
#     4   4   4   4   4   4   4
#     4  11  24  41  72 106 145 184 239 299 364 417
#     4  11  25  41  73 106 148 186 242 289 370 421
#     4  10  22  44  65 101 143 182 241 284 360 418
#     4  11  25  42  73 109 145 186 235 304 359 426
#     4  10  22  39  67 106 143 190 224 300 346 430
#     4  11  28  49  70 102 142 200 243 291 363 437
#     4  12  28  48  74 102 148 192 244 299 356 437
#
# _framework density 23.306179
#
# number of rings (size 3 to 8) (size 9 to 14) (size 15 to 20)
#    0.000    1.143    1.429    3.429   16.000    1.143 
#    0.000    2.857    0.000    0.000    0.000    0.000 
#    0.000    0.000    0.000    0.000    0.000    0.000 
#
# Total GULP energy -173543.158343 kJ/mol
# GULP energy per Si atom -12395.939882 kJ/mol
# Density = 2.325313 g / cm^3
# Si number density = 23.306179 Si / 1000 Ang^3
#
#
#
# Elastic Constant Matrix: (Units=GPa)
#
#
# Indices 1 2 3 4 5 6 
#
# 1 85.6437 4.5658 38.5945 -0.0353 2.9126 0.0245
# 2 4.5658 64.6548 44.3562 -0.0170 -7.4040 0.0056
# 3 38.5945 44.3562 137.8458 -0.1008 -11.9098 0.0585
# 4 -0.0353 -0.0170 -0.1008 33.0829 0.0303 -3.9410
# 5 2.9126 -7.4040 -11.9098 0.0303 46.3983 -0.0174
# 6 0.0245 0.0056 0.0585 -3.9410 -0.0174 26.5323
#
#
#
# Elastic Compliance Matrix: (Units=1/GPa)
#
#
# Indices 1 2 3 4 5 6 
#
# 1 0.013718 0.002016 -0.004639 0.000003 -0.001730 -0.000004
# 2 0.002016 0.020256 -0.006969 -0.000009 0.001317 0.000009
# 3 -0.004639 -0.006969 0.010968 0.000021 0.001995 -0.000014
# 4 0.000003 -0.000009 0.000021 0.030772 -0.000014 0.004571
# 5 -0.001730 0.001317 0.001995 -0.000014 0.022383 0.000009
# 6 -0.000004 0.000009 -0.000014 0.004571 0.000009 0.038369
#
#
# Mechanical properties :
#
#
# Convention : Reuss Voigt Hill
#
# Bulk Modulus (GPa) = 38.82221 51.46414 45.14318
# Shear Modulus (GPa) = 30.44403 34.57789 32.51096
#
# Velocity S-wave (km/s) = 3.61815 3.85598 3.73896
# Velocity P-wave (km/s) = 5.84366 6.47723 6.16858
#
# Compressibility (1/GPa) = 0.02575845
#
# Stress axis : x y z
#
# Youngs Moduli (GPa) = 72.89606 49.36806 91.17421
#
# Poissons Ratio (x) = -0.09951 0.42295
# Poissons Ratio (y) = -0.14693 0.63535
# Poissons Ratio (z) = 0.33816 0.34402
#
# Static dielectric constant tensor:
#      x y z
#    x 4.286350 0.000040 -0.056850 
#    y 0.000040 3.911400 0.000070 
#    z -0.056850 0.000070 4.334910 
# 
# 
# High freq. dielectric constant tensor:
#      x y z
#    x 1.921570 0.000000 -0.006980 
#    y 0.000000 1.893740 0.000000 
#    z -0.006980 0.000000 1.941160 
# 
# From -- ./inp_files/5652.got.cif
#   From: 2010.06.25/outbox.cif.g09.slc.cpg/sg9_3_cif.got.tgz:5652.got - 2010.06.27 21:40:51.
