data_PCOD8055321
_publ_section_title
;
Structure prediction by ZEFSAII (Michael W. Deem and Ramdas Pophale) SiO2 
 PCOD8055321
Probable space group: C C
;
_chemical_formula_sum "Si O2"
_cell_formula_units_Z 28
_cell_length_a 6.825577
_cell_length_b 17.832682
_cell_length_c 14.239459
_cell_angle_alpha 90.000000
_cell_angle_beta 45.043633
_cell_angle_gamma 90.000000
_cell_volume 1226.492813
_symmetry_space_group_name_H-M "C C"
_symmetry_group_IT_number 9
_symmetry_cell_setting 'monoclinic'
loop_
_space_group_symop_operation_xyz
x,y,z
x,-y,1/2+z
1/2+x,1/2+y,z
1/2+x,1/2-y,1/2+z
loop_
_atom_site_type_symbol
_atom_site_label
_atom_site_fract_x
_atom_site_fract_y
_atom_site_fract_z
Si Si1 0.898700 0.742719 0.842010
Si Si2 0.365606 0.498890 0.564347
Si Si3 0.282944 0.675937 0.067676
Si Si4 0.672665 0.154706 0.908147
Si Si5 0.266881 0.806107 0.194365
Si Si6 0.515395 0.009497 0.864261
Si Si7 0.206069 0.601981 0.444109
O O1 0.972434 0.715349 0.711418
O O2 0.926691 0.832420 0.847224
O O3 0.110709 0.710913 0.845359
O O4 0.590658 0.711021 0.961591
O O5 0.286229 0.411805 0.588753
O O6 0.182956 0.532491 0.712650
O O7 0.289252 0.543324 0.496150
O O8 0.693941 0.509608 0.460304
O O9 0.143081 0.727356 0.195124
O O10 0.091781 0.686706 0.038596
O O11 0.003335 0.143359 0.811419
O O12 0.527141 0.076396 0.935662
O O13 0.422689 0.857120 0.067037
O O14 0.666572 0.938602 0.858290
#
# Coordination Sequence:
#
# PCOD8055321 Si02
#       7
#     4   4   4   4   4   4   4
#     4  10  22  42  67  95 139 182 236 293 356 416
#     4  12  26  44  72 102 145 189 238 293 362 422
#     4  10  22  42  64  98 135 181 234 291 349 418
#     4  11  22  42  68  95 136 185 231 292 359 412
#     4  10  23  42  69  99 139 185 239 296 350 430
#     4  12  26  45  70 103 144 191 237 293 361 426
#     4  11  25  43  68 106 140 181 243 298 351 432
#
# _framework density 22.829324
#
# number of rings (size 3 to 8) (size 9 to 14) (size 15 to 20)
#    0.000    1.143    2.857    2.571    2.000    9.143 
#    2.571    0.000    0.000    0.000    0.000    0.000 
#    0.000    0.000    0.000    0.000    0.000    0.000 
#
# Total GULP energy -173494.034399 kJ/mol
# GULP energy per Si atom -12392.431028 kJ/mol
# Density = 2.277736 g / cm^3
# Si number density = 22.829324 Si / 1000 Ang^3
#
#
#
# Elastic Constant Matrix: (Units=GPa)
#
#
# Indices 1 2 3 4 5 6 
#
# 1 117.4428 28.3787 27.2535 0.0000 20.8083 0.0000
# 2 28.3787 105.8737 -6.5281 0.0000 9.0581 0.0000
# 3 27.2535 -6.5281 64.1002 0.0000 11.6015 0.0000
# 4 0.0000 0.0000 0.0000 32.9398 0.0000 10.8120
# 5 20.8083 9.0581 11.6015 0.0000 39.5938 0.0000
# 6 0.0000 0.0000 0.0000 10.8120 0.0000 37.4775
#
#
#
# Elastic Compliance Matrix: (Units=1/GPa)
#
#
# Indices 1 2 3 4 5 6 
#
# 1 0.010857 -0.002843 -0.004214 0.000000 -0.003820 0.000000
# 2 -0.002843 0.010509 0.002581 0.000000 -0.001666 0.000000
# 3 -0.004214 0.002581 0.018333 0.000000 -0.003748 0.000000
# 4 0.000000 0.000000 0.000000 0.033534 0.000000 -0.009674
# 5 -0.003820 -0.001666 -0.003748 0.000000 0.028744 0.000000
# 6 0.000000 0.000000 0.000000 -0.009674 0.000000 0.029474
#
#
# Mechanical properties :
#
#
# Convention : Reuss Voigt Hill
#
# Bulk Modulus (GPa) = 32.52449 42.84722 37.68585
# Shear Modulus (GPa) = 33.18925 37.88974 35.53949
#
# Velocity S-wave (km/s) = 3.81701 4.07836 3.94984
# Velocity P-wave (km/s) = 5.80550 6.40208 6.11107
#
# Compressibility (1/GPa) = 0.03074606
#
# Stress axis : x y z
#
# Youngs Moduli (GPa) = 92.11033 95.15716 54.54550
#
# Poissons Ratio (x) = 0.27053 0.22985
# Poissons Ratio (y) = 0.26187 -0.14076
# Poissons Ratio (z) = 0.38815 -0.24556
#
# Static dielectric constant tensor:
#      x y z
#    x 4.099440 0.000000 0.340810 
#    y 0.000000 4.396570 0.000000 
#    z 0.340810 0.000000 4.236730 
# 
# 
# High freq. dielectric constant tensor:
#      x y z
#    x 1.904240 0.000000 0.019490 
#    y 0.000000 1.912010 0.000000 
#    z 0.019490 0.000000 1.894640 
# 
# From -- ./inp_files/13067.got.cif
#   From: 2010.06.25/outbox.cif.g09.slc.cpg/sg9_7_cif.got.tgz:13067.got - 2010.06.27 21:40:51.
