data_PCOD8055574
_publ_section_title
;
Structure prediction by ZEFSAII (Michael W. Deem and Ramdas Pophale) SiO2 
 PCOD8055574
Probable space group: C C
;
_chemical_formula_sum "Si O2"
_cell_formula_units_Z 28
_cell_length_a 9.670379
_cell_length_b 28.208566
_cell_length_c 8.894130
_cell_angle_alpha 90.000000
_cell_angle_beta 149.399320
_cell_angle_gamma 90.000000
_cell_volume 1235.064989
_symmetry_space_group_name_H-M "C C"
_symmetry_group_IT_number 9
_symmetry_cell_setting 'monoclinic'
loop_
_space_group_symop_operation_xyz
x,y,z
x,-y,1/2+z
1/2+x,1/2+y,z
1/2+x,1/2-y,1/2+z
loop_
_atom_site_type_symbol
_atom_site_label
_atom_site_fract_x
_atom_site_fract_y
_atom_site_fract_z
Si Si1 0.262870 0.933623 0.750000
Si Si2 0.605315 0.779568 0.659035
Si Si3 0.915671 0.066377 0.388243
Si Si4 0.073240 0.279568 0.979228
Si Si5 0.458084 0.125231 0.860162
Si Si6 0.720449 0.125232 0.778078
Si Si7 0.589281 0.506117 0.819130
O O1 0.253520 0.960030 0.583190
O O2 0.028508 0.894073 0.561246
O O3 0.282643 0.972174 0.901882
O O4 0.550547 0.908138 0.008595
O O5 0.419365 0.734947 0.432113
O O6 0.494094 0.821731 0.452695
O O7 0.589281 0.793274 0.819135
O O8 0.150004 0.105934 0.576976
O O9 0.925030 0.039969 0.555060
O O10 0.895928 0.027827 0.236385
O O11 0.627964 0.091853 0.129611
O O12 0.259185 0.234945 0.206141
O O13 0.184479 0.321728 0.185591
O O14 0.589260 0.121874 0.819112
#
# Coordination Sequence:
#
# PCOD8055574 Si02
#       7
#     4   4   4   4   4   4   4
#     4  11  25  41  64  94 127 170 209 263 304 372
#     4  10  23  42  65  93 124 161 206 255 311 378
#     4  11  25  41  64  94 127 170 209 263 304 372
#     4  10  23  42  65  93 124 161 206 255 311 378
#     4  12  24  42  64  96 130 163 210 257 312 373
#     4  12  24  42  64  96 130 163 210 257 312 373
#     4  10  24  44  64  90 130 168 216 256 316 358
#
# _framework density 22.670871999999999
#
# number of rings (size 3 to 8) (size 9 to 14) (size 15 to 20)
#    0.000    1.143    2.857    1.714    4.000    8.000 
#    0.000    0.000    0.000    0.000    0.000    0.000 
#    0.000    0.000    0.000    0.000    0.000    0.000 
#
# Total GULP energy -173527.975760 kJ/mol
# GULP energy per Si atom -12394.855411 kJ/mol
# Density = 2.261927 g / cm^3
# Si number density = 22.670872 Si / 1000 Ang^3
#
#
#
# Elastic Constant Matrix: (Units=GPa)
#
#
# Indices 1 2 3 4 5 6 
#
# 1 51.4826 20.2651 23.8805 0.0000 -21.3556 0.0000
# 2 20.2651 101.9974 26.4142 0.0000 -22.9842 0.0000
# 3 23.8805 26.4142 80.3821 0.0000 -5.9210 0.0000
# 4 0.0000 0.0000 0.0000 1427.6375 0.0000 -248.9938
# 5 -21.3556 -22.9842 -5.9210 0.0000 31.7673 0.0000
# 6 0.0000 0.0000 0.0000 -248.9938 0.0000 72.6510
#
#
#
# Elastic Compliance Matrix: (Units=1/GPa)
#
#
# Indices 1 2 3 4 5 6 
#
# 1 0.031129 0.000291 -0.007895 0.000000 0.019666 0.000000
# 2 0.000291 0.012631 -0.003599 0.000000 0.008663 0.000000
# 3 -0.007895 -0.003599 0.015600 0.000000 -0.005004 0.000000
# 4 0.000000 0.000000 0.000000 0.001741 0.000000 0.005968
# 5 0.019666 0.008663 -0.005004 0.000000 0.050035 0.000000
# 6 0.000000 0.000000 0.000000 0.005968 0.000000 0.034218
#
#
# Mechanical properties :
#
#
# Convention : Reuss Voigt Hill
#
# Bulk Modulus (GPa) = 27.06039 41.66461 34.36250
# Shear Modulus (GPa) = 27.76572 317.29798 172.53185
#
# Velocity S-wave (km/s) = 3.50341 11.84324 8.73316
# Velocity P-wave (km/s) = 5.32234 14.33298 10.81114
#
# Compressibility (1/GPa) = 0.03695438
#
# Stress axis : x y z
#
# Youngs Moduli (GPa) = 32.12415 79.17332 64.10183
#
# Poissons Ratio (x) = -0.02306 0.50610
# Poissons Ratio (y) = -0.00936 0.23069
# Poissons Ratio (z) = 0.25363 0.28493
#
# Static dielectric constant tensor:
#      x y z
#    x 3.899730 0.000000 -0.203510 
#    y 0.000000 4.146190 0.000000 
#    z -0.203510 0.000000 4.304450 
# 
# 
# High freq. dielectric constant tensor:
#      x y z
#    x 1.882070 0.000000 -0.011500 
#    y 0.000000 1.904090 0.000000 
#    z -0.011500 0.000000 1.907160 
# 
# From -- ./inp_files/2006.got.cif
#   From: 2010.06.25/outbox.cif.g09.slc.cpg/sg9_2_cif.got.tgz:2006.got - 2010.06.27 21:40:51.
