data_PCOD8055277
_publ_section_title
;
Structure prediction by ZEFSAII (Michael W. Deem and Ramdas Pophale) SiO2 
 PCOD8055277
Probable space group: C C
;
_chemical_formula_sum "Si O2"
_cell_formula_units_Z 20
_cell_length_a 19.212109
_cell_length_b 9.676509
_cell_length_c 7.781147
_cell_angle_alpha 90.000000
_cell_angle_beta 33.592659
_cell_angle_gamma 90.000000
_cell_volume 800.361385
_symmetry_space_group_name_H-M "C C"
_symmetry_group_IT_number 9
_symmetry_cell_setting 'monoclinic'
loop_
_space_group_symop_operation_xyz
x,y,z
x,-y,1/2+z
1/2+x,1/2+y,z
1/2+x,1/2-y,1/2+z
loop_
_atom_site_type_symbol
_atom_site_label
_atom_site_fract_x
_atom_site_fract_y
_atom_site_fract_z
Si Si1 0.026890 0.331754 0.344020
Si Si2 0.342590 0.609097 0.655119
Si Si3 0.919537 0.585640 0.388931
Si Si4 0.421552 0.667201 0.134872
Si Si5 0.684407 0.730186 0.733729
O O1 0.961684 0.183664 0.496663
O O2 0.932100 0.429456 0.427704
O O3 0.039353 0.388344 0.513438
O O4 0.157458 0.312329 0.970634
O O5 0.324958 0.655377 0.493647
O O6 0.377937 0.446962 0.586925
O O7 0.220230 0.653465 0.017509
O O8 0.919544 0.682576 0.555200
O O9 0.792292 0.615012 0.541702
O O10 0.562492 0.645962 0.920310
#
# Coordination Sequence:
#
# PCOD8055277 Si02
#       5
#     4   4   4   4   4
#     4  10  22  41  64  96 130 167 218 263 318 392
#     4  10  22  41  64  96 130 167 218 263 318 392
#     4  11  24  42  66  98 131 169 222 268 319 396
#     4  11  24  42  66  98 131 169 222 268 319 396
#     4  10  24  44  70  96 134 176 208 274 336 370
#
# _framework density 24.988714000000002
#
# number of rings (size 3 to 8) (size 9 to 14) (size 15 to 20)
#    0.000    1.600    0.000    4.800    0.000   14.400 
#    0.000    0.000    0.000    0.000    0.000    0.000 
#    0.000    0.000    0.000    0.000    0.000    0.000 
#
# Total GULP energy -123952.871920 kJ/mol
# GULP energy per Si atom -12395.287192 kJ/mol
# Density = 2.493184 g / cm^3
# Si number density = 24.988714 Si / 1000 Ang^3
#
#
#
# Elastic Constant Matrix: (Units=GPa)
#
#
# Indices 1 2 3 4 5 6 
#
# 1 40.6805 -7.3353 27.2783 0.0000 19.1492 0.0000
# 2 -7.3353 65.0094 18.6351 0.0000 -9.4366 0.0000
# 3 27.2783 18.6351 163.0784 0.0000 28.5420 0.0000
# 4 0.0000 0.0000 0.0000 31.5762 0.0000 3.9274
# 5 19.1492 -9.4366 28.5420 0.0000 45.2003 0.0000
# 6 0.0000 0.0000 0.0000 3.9274 0.0000 43.6073
#
#
#
# Elastic Compliance Matrix: (Units=1/GPa)
#
#
# Indices 1 2 3 4 5 6 
#
# 1 0.032912 0.003305 -0.004006 0.000000 -0.010723 0.000000
# 2 0.003305 0.017319 -0.003282 0.000000 0.004288 0.000000
# 3 -0.004006 -0.003282 0.007870 0.000000 -0.003958 0.000000
# 4 0.000000 0.000000 0.000000 0.032028 0.000000 -0.002885
# 5 -0.010723 0.004288 -0.003958 0.000000 0.030061 0.000000
# 6 0.000000 0.000000 0.000000 -0.002885 0.000000 0.023192
#
#
# Mechanical properties :
#
#
# Convention : Reuss Voigt Hill
#
# Bulk Modulus (GPa) = 19.94649 38.43604 29.19127
# Shear Modulus (GPa) = 29.75147 39.42278 34.58713
#
# Velocity S-wave (km/s) = 3.45425 3.97624 3.72440
# Velocity P-wave (km/s) = 4.88964 6.04114 5.49563
#
# Compressibility (1/GPa) = 0.05013412
#
# Stress axis : x y z
#
# Youngs Moduli (GPa) = 30.38422 57.74103 127.06709
#
# Poissons Ratio (x) = -0.19086 0.50904
# Poissons Ratio (y) = -0.10043 0.41709
# Poissons Ratio (z) = 0.12172 0.18953
#
# Static dielectric constant tensor:
#      x y z
#    x 4.208140 0.000000 0.385100 
#    y 0.000000 4.232080 0.000000 
#    z 0.385100 0.000000 4.949850 
# 
# 
# High freq. dielectric constant tensor:
#      x y z
#    x 1.980860 0.000000 0.025410 
#    y 0.000000 1.986920 0.000000 
#    z 0.025410 0.000000 2.010450 
# 
# From -- ./inp_files/4667.got.cif
#   From: 2010.06.25/outbox.cif.g09.slc.cpg/sg9_3_cif.got.tgz:4667.got - 2010.06.27 21:40:51.
