data_PCOD8055565
_publ_section_title
;
Structure prediction by ZEFSAII (Michael W. Deem and Ramdas Pophale) SiO2 
 PCOD8055565
Probable space group: C C
;
_chemical_formula_sum "Si O2"
_cell_formula_units_Z 16
_cell_length_a 7.062135
_cell_length_b 20.596823
_cell_length_c 5.245678
_cell_angle_alpha 90.000000
_cell_angle_beta 77.657301
_cell_angle_gamma 90.000000
_cell_volume 745.387333
_symmetry_space_group_name_H-M "C C"
_symmetry_group_IT_number 9
_symmetry_cell_setting 'monoclinic'
loop_
_space_group_symop_operation_xyz
x,y,z
x,-y,1/2+z
1/2+x,1/2+y,z
1/2+x,1/2-y,1/2+z
loop_
_atom_site_type_symbol
_atom_site_label
_atom_site_fract_x
_atom_site_fract_y
_atom_site_fract_z
Si Si1 0.045550 0.358867 0.910090
Si Si2 0.866180 0.958553 0.825779
Si Si3 0.655864 0.344116 0.789463
Si Si4 0.502020 0.790359 0.432002
O O1 0.150854 0.428399 0.877425
O O2 0.120858 0.317291 0.644147
O O3 0.812278 0.369162 0.954824
O O4 0.097367 0.320536 0.152392
O O5 0.025434 0.903152 0.734679
O O6 0.894491 0.010315 0.594594
O O7 0.516872 0.287579 0.937557
O O8 0.777339 0.312938 0.518571
#
# Coordination Sequence:
#
# PCOD8055565 Si02
#       4
#     4   4   4   4
#     4  10  25  44  65 100 134 171 219 277 330 392
#     4  12  28  45  68  96 137 186 228 262 322 403
#     4  10  26  42  72  99 138 168 221 279 340 392
#     4  10  23  41  73  99 133 163 218 282 352 379
#
# _framework density 21.465350999999998
#
# number of rings (size 3 to 8) (size 9 to 14) (size 15 to 20)
#    1.500    0.000    0.000    3.000   10.500    2.000 
#    0.000    0.000    0.000    0.000    0.000    0.000 
#    0.000    0.000    0.000    0.000    0.000    0.000 
#
# Total GULP energy -99153.227745 kJ/mol
# GULP energy per Si atom -12394.153468 kJ/mol
# Density = 2.141649 g / cm^3
# Si number density = 21.465351 Si / 1000 Ang^3
#
#
#
# Elastic Constant Matrix: (Units=GPa)
#
#
# Indices 1 2 3 4 5 6 
#
# 1 106.0892 61.4149 27.5955 0.0000 -5.1903 0.0000
# 2 61.4149 126.8238 35.8248 0.0000 -2.9563 0.0000
# 3 27.5955 35.8248 135.0165 0.0000 9.2252 0.0000
# 4 0.0000 0.0000 0.0000 28.3779 0.0000 -0.1806
# 5 -5.1903 -2.9563 9.2252 0.0000 19.6867 0.0000
# 6 0.0000 0.0000 0.0000 -0.1806 0.0000 57.5417
#
#
#
# Elastic Compliance Matrix: (Units=1/GPa)
#
#
# Indices 1 2 3 4 5 6 
#
# 1 0.013443 -0.006047 -0.001367 0.000000 0.003276 0.000000
# 2 -0.006047 0.011357 -0.001844 0.000000 0.000975 0.000000
# 3 -0.001367 -0.001844 0.008491 0.000000 -0.004616 0.000000
# 4 0.000000 0.000000 0.000000 0.035239 0.000000 0.000111
# 5 0.003276 0.000975 -0.004616 0.000000 0.053969 0.000000
# 6 0.000000 0.000000 0.000000 0.000111 0.000000 0.017379
#
#
# Mechanical properties :
#
#
# Convention : Reuss Voigt Hill
#
# Bulk Modulus (GPa) = 67.68666 68.62219 68.15442
# Shear Modulus (GPa) = 30.61510 37.32756 33.97133
#
# Velocity S-wave (km/s) = 3.78068 4.17462 3.98252
# Velocity P-wave (km/s) = 7.11755 7.43470 7.27785
#
# Compressibility (1/GPa) = 0.01477396
#
# Stress axis : x y z
#
# Youngs Moduli (GPa) = 74.39079 88.05182 117.77791
#
# Poissons Ratio (x) = 0.53246 0.16098
# Poissons Ratio (y) = 0.44985 0.21719
# Poissons Ratio (z) = 0.10168 0.16238
#
# Static dielectric constant tensor:
#      x y z
#    x 3.697390 0.000000 0.012920 
#    y 0.000000 3.673660 0.000000 
#    z 0.012920 0.000000 3.714440 
# 
# 
# High freq. dielectric constant tensor:
#      x y z
#    x 1.838110 0.000000 0.000880 
#    y 0.000000 1.836670 0.000000 
#    z 0.000880 0.000000 1.841560 
# 
# From -- ./inp_files/144.got.cif
#   From: 2010.06.25/outbox.cif.g09.slc.cpg/sg9_1_cif.got.tgz:144.got - 2010.06.27 21:40:51.
