data_PCOD8055616
_publ_section_title
;
Structure prediction by ZEFSAII (Michael W. Deem and Ramdas Pophale) SiO2 
 PCOD8055616
Probable space group: C C
;
_chemical_formula_sum "Si O2"
_cell_formula_units_Z 24
_cell_length_a 14.384743
_cell_length_b 13.470990
_cell_length_c 5.280416
_cell_angle_alpha 90.000000
_cell_angle_beta 64.264611
_cell_angle_gamma 90.000000
_cell_volume 921.727351
_symmetry_space_group_name_H-M "C C"
_symmetry_group_IT_number 9
_symmetry_cell_setting 'monoclinic'
loop_
_space_group_symop_operation_xyz
x,y,z
x,-y,1/2+z
1/2+x,1/2+y,z
1/2+x,1/2-y,1/2+z
loop_
_atom_site_type_symbol
_atom_site_label
_atom_site_fract_x
_atom_site_fract_y
_atom_site_fract_z
Si Si1 0.381590 0.957334 0.125000
Si Si2 0.472278 0.238979 0.369231
Si Si3 0.602272 0.759039 0.213066
Si Si4 0.649506 0.457509 0.521771
Si Si5 0.924770 0.958874 0.493036
Si Si6 0.197449 0.543605 0.738950
O O1 0.264720 0.992653 0.314018
O O2 0.435361 0.975705 0.337288
O O3 0.386129 0.844219 0.022966
O O4 0.558101 0.223832 0.484210
O O5 0.412381 0.342951 0.459417
O O6 0.516773 0.231212 0.033640
O O7 0.690494 0.840439 0.171167
O O8 0.651993 0.649956 0.151566
O O9 0.600236 0.536411 0.790979
O O10 0.980801 0.021501 0.199941
O O11 0.814370 0.011371 0.664688
O O12 0.143397 0.479527 0.575393
#
# Coordination Sequence:
#
# PCOD8055616 Si02
#       6
#     4   4   4   4   4   4
#     4  10  23  44  68  94 129 180 228 275 332 415
#     4  12  26  42  68 104 139 179 225 294 352 404
#     4  12  26  42  68 104 139 179 225 294 352 404
#     4  10  23  44  68  94 129 180 228 275 332 415
#     4  10  23  43  66  99 132 183 230 280 341 420
#     4  10  23  43  66  99 132 183 230 280 341 420
#
# _framework density 26.038067999999999
#
# number of rings (size 3 to 8) (size 9 to 14) (size 15 to 20)
#    0.000    1.333    0.000    4.000    4.667    8.000 
#   12.000    0.000    0.000    0.000    0.000    0.000 
#    0.000    0.000    0.000    0.000    0.000    0.000 
#
# Total GULP energy -148762.586291 kJ/mol
# GULP energy per Si atom -12396.882191 kJ/mol
# Density = 2.597880 g / cm^3
# Si number density = 26.038068 Si / 1000 Ang^3
#
#
#
# Elastic Constant Matrix: (Units=GPa)
#
#
# Indices 1 2 3 4 5 6 
#
# 1 51.1816 14.8176 27.1501 0.0000 5.7237 0.0000
# 2 14.8176 176.0149 61.4676 0.0000 4.9484 0.0000
# 3 27.1501 61.4676 193.3641 0.0000 42.0090 0.0000
# 4 0.0000 0.0000 0.0000 52.0316 0.0000 1.6556
# 5 5.7237 4.9484 42.0090 0.0000 42.7320 0.0000
# 6 0.0000 0.0000 0.0000 1.6556 0.0000 44.6315
#
#
#
# Elastic Compliance Matrix: (Units=1/GPa)
#
#
# Indices 1 2 3 4 5 6 
#
# 1 0.021221 -0.000844 -0.002689 0.000000 -0.000101 0.000000
# 2 -0.000844 0.006511 -0.002304 0.000000 0.001624 0.000000
# 3 -0.002689 -0.002304 0.007814 0.000000 -0.007055 0.000000
# 4 0.000000 0.000000 0.000000 0.019242 0.000000 -0.000714
# 5 -0.000101 0.001624 -0.007055 0.000000 0.030163 0.000000
# 6 0.000000 0.000000 0.000000 -0.000714 0.000000 0.022432
#
#
# Mechanical properties :
#
#
# Convention : Reuss Voigt Hill
#
# Bulk Modulus (GPa) = 41.89244 69.71457 55.80351
# Shear Modulus (GPa) = 39.36514 49.02071 44.19292
#
# Velocity S-wave (km/s) = 3.89244 4.34366 4.12423
# Velocity P-wave (km/s) = 6.02705 7.21032 6.64508
#
# Compressibility (1/GPa) = 0.02387065
#
# Stress axis : x y z
#
# Youngs Moduli (GPa) = 47.12407 153.57609 127.96873
#
# Poissons Ratio (x) = 0.12969 0.34413
# Poissons Ratio (y) = 0.03980 0.29487
# Poissons Ratio (z) = 0.12673 0.35387
#
# Static dielectric constant tensor:
#      x y z
#    x 4.800950 0.000000 0.560000 
#    y 0.000000 4.607360 0.000000 
#    z 0.560000 0.000000 5.924520 
# 
# 
# High freq. dielectric constant tensor:
#      x y z
#    x 2.054750 0.000000 0.012780 
#    y 0.000000 2.028750 0.000000 
#    z 0.012780 0.000000 2.100790 
# 
# From -- ./inp_files/2311.got.cif
#   From: 2010.06.25/outbox.cif.g09.slc.cpg/sg9_2_cif.got.tgz:2311.got - 2010.06.27 21:40:51.
