data_PCOD8055699
_publ_section_title
;
Structure prediction by ZEFSAII (Michael W. Deem and Ramdas Pophale) SiO2 
 PCOD8055699
Probable space group: C C
;
_chemical_formula_sum "Si O2"
_cell_formula_units_Z 28
_cell_length_a 10.261267
_cell_length_b 10.410535
_cell_length_c 10.859577
_cell_angle_alpha 90.000000
_cell_angle_beta 91.434985
_cell_angle_gamma 90.000000
_cell_volume 1159.713528
_symmetry_space_group_name_H-M "C C"
_symmetry_group_IT_number 9
_symmetry_cell_setting 'monoclinic'
loop_
_space_group_symop_operation_xyz
x,y,z
x,-y,1/2+z
1/2+x,1/2+y,z
1/2+x,1/2-y,1/2+z
loop_
_atom_site_type_symbol
_atom_site_label
_atom_site_fract_x
_atom_site_fract_y
_atom_site_fract_z
Si Si1 0.197560 0.627608 0.109320
Si Si2 0.171488 0.140505 0.221965
Si Si3 0.898810 0.559846 0.747530
Si Si4 0.095282 0.650307 0.351757
Si Si5 0.455097 0.262298 0.554662
Si Si6 0.507586 0.245710 0.932303
Si Si7 0.292536 0.364895 0.074129
O O1 0.170263 0.707398 0.234828
O O2 0.307362 0.699717 0.035973
O O3 0.262811 0.492226 0.152006
O O4 0.071779 0.633717 0.017855
O O5 0.265732 0.245714 0.162654
O O6 0.044863 0.132834 0.129001
O O7 0.117716 0.180594 0.354968
O O8 0.256708 0.008949 0.232501
O O9 0.953944 0.622009 0.621978
O O10 0.895311 0.676077 0.847728
O O11 0.012507 0.465672 0.792546
O O12 0.195475 0.609845 0.458599
O O13 0.000465 0.753107 0.413760
O O14 0.437004 0.349036 0.020411
#
# Coordination Sequence:
#
# PCOD8055699 Si02
#       7
#     4   4   4   4   4   4   4
#     4  12  24  45  67 100 148 181 233 297 352 420
#     4  10  23  45  68 101 137 177 239 291 347 421
#     4  11  22  43  73  97 138 187 234 291 355 420
#     4  11  21  42  68  95 135 186 226 287 349 412
#     4  10  25  43  67 105 137 184 242 288 353 422
#     4  11  24  45  70 104 140 184 233 290 357 423
#     4  11  25  43  71 102 137 185 237 288 353 422
#
# _framework density 24.143896999999999
#
# number of rings (size 3 to 8) (size 9 to 14) (size 15 to 20)
#    0.000    1.143    1.429    6.000    2.000    1.143 
#    7.714    1.429    0.000    0.000    0.000    0.000 
#    0.000    0.000    0.000    0.000    0.000    0.000 
#
# Total GULP energy -173442.346511 kJ/mol
# GULP energy per Si atom -12388.739037 kJ/mol
# Density = 2.408894 g / cm^3
# Si number density = 24.143897 Si / 1000 Ang^3
#
#
#
# Elastic Constant Matrix: (Units=GPa)
#
#
# Indices 1 2 3 4 5 6 
#
# 1 127.9629 49.5058 54.9436 0.0000 -22.8743 0.0000
# 2 49.5058 68.1063 27.4285 0.0000 5.1640 0.0000
# 3 54.9436 27.4285 107.1728 0.0000 -26.7159 0.0000
# 4 0.0000 0.0000 0.0000 23.7445 0.0000 -1.2691
# 5 -22.8743 5.1640 -26.7159 0.0000 36.4948 0.0000
# 6 0.0000 0.0000 0.0000 -1.2691 0.0000 41.9658
#
#
#
# Elastic Compliance Matrix: (Units=1/GPa)
#
#
# Indices 1 2 3 4 5 6 
#
# 1 0.014338 -0.009974 -0.002698 0.000000 0.008423 0.000000
# 2 -0.009974 0.024713 -0.004455 0.000000 -0.013009 0.000000
# 3 -0.002698 -0.004455 0.014177 0.000000 0.009317 0.000000
# 4 0.000000 0.000000 0.000000 0.042183 0.000000 0.001276
# 5 0.008423 -0.013009 0.009317 0.000000 0.041342 0.000000
# 6 0.000000 0.000000 0.000000 0.001276 0.000000 0.023868
#
#
# Mechanical properties :
#
#
# Convention : Reuss Voigt Hill
#
# Bulk Modulus (GPa) = 52.70297 62.99977 57.85137
# Shear Modulus (GPa) = 24.85124 31.86529 28.35827
#
# Velocity S-wave (km/s) = 3.21175 3.63686 3.43089
# Velocity P-wave (km/s) = 5.96907 6.61708 6.30141
#
# Compressibility (1/GPa) = 0.01897426
#
# Stress axis : x y z
#
# Youngs Moduli (GPa) = 69.74713 40.46431 70.53908
#
# Poissons Ratio (x) = 0.40358 0.19033
# Poissons Ratio (y) = 0.69564 0.31422
# Poissons Ratio (z) = 0.18819 0.18025
#
# Static dielectric constant tensor:
#      x y z
#    x 4.455180 0.000000 -0.225660 
#    y 0.000000 4.044640 0.000000 
#    z -0.225660 0.000000 4.543940 
# 
# 
# High freq. dielectric constant tensor:
#      x y z
#    x 1.971430 0.000000 -0.011360 
#    y 0.000000 1.927790 0.000000 
#    z -0.011360 0.000000 1.965950 
# 
# From -- ./inp_files/14228.got.cif
#   From: 2010.06.25/outbox.cif.g09.slc.cpg/sg9_8_cif.got.tgz:14228.got - 2010.06.27 21:40:51.
