data_PCOD8055818
_publ_section_title
;
Structure prediction by ZEFSAII (Michael W. Deem and Ramdas Pophale) SiO2 
 PCOD8055818
Probable space group: C C
;
_chemical_formula_sum "Si O2"
_cell_formula_units_Z 28
_cell_length_a 26.444295
_cell_length_b 6.694860
_cell_length_c 21.611735
_cell_angle_alpha 90.000000
_cell_angle_beta 160.857940
_cell_angle_gamma 90.000000
_cell_volume 1254.641802
_symmetry_space_group_name_H-M "C C"
_symmetry_group_IT_number 9
_symmetry_cell_setting 'monoclinic'
loop_
_space_group_symop_operation_xyz
x,y,z
x,-y,1/2+z
1/2+x,1/2+y,z
1/2+x,1/2-y,1/2+z
loop_
_atom_site_type_symbol
_atom_site_label
_atom_site_fract_x
_atom_site_fract_y
_atom_site_fract_z
Si Si1 0.317510 0.512119 0.332830
Si Si2 0.027477 0.691577 0.035529
Si Si3 0.792186 0.365841 0.732153
Si Si4 0.276715 0.355016 0.915459
Si Si5 0.743631 0.130429 0.993293
Si Si6 0.916499 0.515861 0.156371
Si Si7 0.454236 0.338753 0.305652
O O1 0.454795 0.585972 0.445586
O O2 0.278832 0.284132 0.274937
O O3 0.370347 0.550377 0.465133
O O4 0.158120 0.639521 0.135924
O O5 0.100653 0.674654 0.189054
O O6 0.877459 0.554770 0.858277
O O7 0.624503 0.426270 0.513647
O O8 0.890735 0.267019 0.792477
O O9 0.279757 0.518076 0.971947
O O10 0.346288 0.142459 0.018020
O O11 0.789072 0.363273 0.037201
O O12 0.564503 0.111429 0.805160
O O13 0.847463 0.028205 0.166293
O O14 0.965005 0.674199 0.264268
#
# Coordination Sequence:
#
# PCOD8055818 Si02
#       7
#     4   4   4   4   4   4   4
#     4  10  24  42  68  97 135 181 228 283 347 408
#     4  10  24  42  67  98 134 181 227 285 345 413
#     4  12  24  46  68 102 137 184 232 288 346 414
#     4   9  23  45  67  98 139 177 229 289 340 408
#     4  11  25  43  71 102 134 189 231 283 349 412
#     4  11  25  43  70 102 137 185 230 291 344 409
#     4  11  25  45  67  95 146 175 237 287 341 406
#
# _framework density 22.317128
#
# number of rings (size 3 to 8) (size 9 to 14) (size 15 to 20)
#    0.857    0.571    2.857    0.857    4.000    8.000 
#    0.000    0.000    0.000    0.000    0.000    0.000 
#    0.000    0.000    0.000    0.000    0.000    0.000 
#
# Total GULP energy -173491.384682 kJ/mol
# GULP energy per Si atom -12392.241763 kJ/mol
# Density = 2.226633 g / cm^3
# Si number density = 22.317128 Si / 1000 Ang^3
#
#
#
# Elastic Constant Matrix: (Units=GPa)
#
#
# Indices 1 2 3 4 5 6 
#
# 1 61.9916 17.0396 27.0899 0.0000 3.9635 0.0000
# 2 17.0396 57.5238 25.4921 0.0000 -22.2533 -0.0001
# 3 27.0899 25.4921 132.7803 0.0000 -15.5799 0.0000
# 4 0.0000 0.0000 0.0000 30.1407 0.0000 17.4762
# 5 3.9635 -22.2533 -15.5799 0.0000 23.9125 0.0000
# 6 0.0000 -0.0001 0.0000 17.4762 0.0000 13.6468
#
#
#
# Elastic Compliance Matrix: (Units=1/GPa)
#
#
# Indices 1 2 3 4 5 6 
#
# 1 0.022201 -0.011196 -0.004368 0.000000 -0.016945 0.000000
# 2 -0.011196 0.033556 -0.000299 -0.000001 0.032888 0.000001
# 3 -0.004368 -0.000299 0.009238 0.000000 0.006465 0.000000
# 4 0.000000 -0.000001 0.000000 0.128857 -0.000001 -0.165015
# 5 -0.016945 0.032888 0.006465 -0.000001 0.079446 0.000001
# 6 0.000000 0.000001 0.000000 -0.165015 0.000001 0.284597
#
#
# Mechanical properties :
#
#
# Convention : Reuss Voigt Hill
#
# Bulk Modulus (GPa) = 30.05773 43.50430 36.78102
# Shear Modulus (GPa) = 8.32347 25.71828 17.02087
#
# Velocity S-wave (km/s) = 1.93332 3.39839 2.76467
# Velocity P-wave (km/s) = 4.29899 5.91056 5.16798
#
# Compressibility (1/GPa) = 0.03326931
#
# Stress axis : x y z
#
# Youngs Moduli (GPa) = 45.04343 29.80088 108.24343
#
# Poissons Ratio (x) = 0.33364 0.47283
# Poissons Ratio (y) = 0.50429 0.03239
# Poissons Ratio (z) = 0.19676 0.00892
#
# Static dielectric constant tensor:
#      x y z
#    x 3.872940 0.000000 -0.017700 
#    y 0.000000 3.908150 0.000000 
#    z -0.017700 0.000000 4.204000 
# 
# 
# High freq. dielectric constant tensor:
#      x y z
#    x 1.874970 0.000000 0.003140 
#    y 0.000000 1.873570 0.000000 
#    z 0.003140 0.000000 1.889380 
# 
# From -- ./inp_files/36193.got.cif
#   From: 2010.06.25/outbox.cif.g09.slc.cpg/sg9_19_cif.got.tgz:36193.got - 2010.06.27 21:40:51.
