data_PCOD8055147
_publ_section_title
;
Structure prediction by ZEFSAII (Michael W. Deem and Ramdas Pophale) SiO2 
 PCOD8055147
Probable space group: C C
;
_chemical_formula_sum "Si O2"
_cell_formula_units_Z 24
_cell_length_a 13.902157
_cell_length_b 6.024661
_cell_length_c 14.444989
_cell_angle_alpha 90.000000
_cell_angle_beta 129.650388
_cell_angle_gamma 90.000000
_cell_volume 931.527927
_symmetry_space_group_name_H-M "C C"
_symmetry_group_IT_number 9
_symmetry_cell_setting 'monoclinic'
loop_
_space_group_symop_operation_xyz
x,y,z
x,-y,1/2+z
1/2+x,1/2+y,z
1/2+x,1/2-y,1/2+z
loop_
_atom_site_type_symbol
_atom_site_label
_atom_site_fract_x
_atom_site_fract_y
_atom_site_fract_z
Si Si1 0.386230 0.579883 0.036640
Si Si2 0.180561 0.948153 0.925695
Si Si3 0.048758 0.460539 0.095516
Si Si4 0.980318 0.609395 0.858266
Si Si5 0.757595 0.778137 0.821025
Si Si6 0.884965 0.676737 0.140049
O O1 0.389283 0.446316 0.137665
O O2 0.519054 0.701845 0.100903
O O3 0.268919 0.740460 0.959870
O O4 0.365430 0.403755 0.943078
O O5 0.045914 0.839683 0.866394
O O6 0.171422 0.114449 0.831103
O O7 0.241012 0.085256 0.050512
O O8 0.176953 0.535059 0.220162
O O9 0.934695 0.597387 0.069661
O O10 0.054799 0.500317 0.989204
O O11 0.834349 0.642289 0.791367
O O12 0.975601 0.424039 0.774002
#
# Coordination Sequence:
#
# PCOD8055147 Si02
#       6
#     4   4   4   4   4   4
#     4  10  21  50  71 107 160 206 260 332 394 466
#     4  10  23  47  75 109 154 207 264 325 395 482
#     4  11  24  48  75 113 157 209 261 333 405 475
#     4  12  23  49  77 120 156 210 268 331 415 472
#     4  11  24  48  78 112 159 206 268 329 394 487
#     4  10  23  46  74 111 156 206 267 332 395 484
#
# _framework density 25.764123999999999
#
# number of rings (size 3 to 8) (size 9 to 14) (size 15 to 20)
#    0.000    1.333    5.000    2.000    0.000    4.000 
#   18.000    0.000    3.667    0.000    0.000    0.000 
#    0.000    0.000    0.000    0.000    0.000    0.000 
#
# Total GULP energy -148707.121877 kJ/mol
# GULP energy per Si atom -12392.260156 kJ/mol
# Density = 2.570548 g / cm^3
# Si number density = 25.764124 Si / 1000 Ang^3
#
#
#
# Elastic Constant Matrix: (Units=GPa)
#
#
# Indices 1 2 3 4 5 6 
#
# 1 90.8123 42.3797 42.6049 0.0000 -1.0847 0.0000
# 2 42.3797 152.4780 84.5917 0.0000 -5.0410 0.0000
# 3 42.6049 84.5917 162.5998 0.0000 -7.8066 0.0000
# 4 0.0000 0.0000 0.0000 35.1537 0.0000 13.6443
# 5 -1.0847 -5.0410 -7.8066 0.0000 29.9382 0.0000
# 6 0.0000 0.0000 0.0000 13.6443 0.0000 43.5745
#
#
#
# Elastic Compliance Matrix: (Units=1/GPa)
#
#
# Indices 1 2 3 4 5 6 
#
# 1 0.013186 -0.002462 -0.002199 0.000000 -0.000510 0.000000
# 2 -0.002462 0.009682 -0.004372 0.000000 0.000401 0.000000
# 3 -0.002199 -0.004372 0.009075 0.000000 0.001551 0.000000
# 4 0.000000 0.000000 0.000000 0.032382 0.000000 -0.010140
# 5 -0.000510 0.000401 0.001551 0.000000 0.033855 0.000000
# 6 0.000000 0.000000 0.000000 -0.010140 0.000000 0.026124
#
#
# Mechanical properties :
#
#
# Convention : Reuss Voigt Hill
#
# Bulk Modulus (GPa) = 72.06302 82.78251 77.42277
# Shear Modulus (GPa) = 34.01434 37.48753 35.75093
#
# Velocity S-wave (km/s) = 3.63743 3.81862 3.72912
# Velocity P-wave (km/s) = 6.75812 7.18632 6.97551
#
# Compressibility (1/GPa) = 0.01387674
#
# Stress axis : x y z
#
# Youngs Moduli (GPa) = 75.83736 103.28847 110.18821
#
# Poissons Ratio (x) = 0.25430 0.24227
# Poissons Ratio (y) = 0.18671 0.48179
# Poissons Ratio (z) = 0.16674 0.45163
#
# Static dielectric constant tensor:
#      x y z
#    x 4.468170 0.000000 0.002610 
#    y 0.000000 5.148320 0.000000 
#    z 0.002610 0.000000 4.523210 
# 
# 
# High freq. dielectric constant tensor:
#      x y z
#    x 2.004380 0.000000 0.009250 
#    y 0.000000 2.043510 0.000000 
#    z 0.009250 0.000000 2.033140 
# 
# From -- ./inp_files/25302.got.cif
#   From: 2010.06.25/outbox.cif.g09.slc.cpg/sg9_13_cif.got.tgz:25302.got - 2010.06.27 21:40:51.
