data_PCOD8055044
_publ_section_title
;
Structure prediction by ZEFSAII (Michael W. Deem and Ramdas Pophale) SiO2 
 PCOD8055044
Probable space group: C C
;
_chemical_formula_sum "Si O2"
_cell_formula_units_Z 32
_cell_length_a 9.622981
_cell_length_b 16.501962
_cell_length_c 15.820291
_cell_angle_alpha 90.000000
_cell_angle_beta 145.193835
_cell_angle_gamma 90.000000
_cell_volume 1433.986635
_symmetry_space_group_name_H-M "C C"
_symmetry_group_IT_number 9
_symmetry_cell_setting 'monoclinic'
loop_
_space_group_symop_operation_xyz
x,y,z
x,-y,1/2+z
1/2+x,1/2+y,z
1/2+x,1/2-y,1/2+z
loop_
_atom_site_type_symbol
_atom_site_label
_atom_site_fract_x
_atom_site_fract_y
_atom_site_fract_z
Si Si1 0.459570 0.129272 0.367990
Si Si2 0.913687 0.892397 0.194114
Si Si3 0.399153 0.444381 0.453965
Si Si4 0.995260 0.067635 0.200978
Si Si5 0.767751 0.801468 0.283163
Si Si6 0.882812 0.491051 0.209934
Si Si7 0.265911 0.269858 0.599390
Si Si8 0.312842 0.831311 0.280201
O O1 0.735108 0.107689 0.525361
O O2 0.274183 0.097012 0.347102
O O3 0.431253 0.224706 0.342745
O O4 0.394270 0.082658 0.250028
O O5 0.770213 0.856535 0.201335
O O6 0.147967 0.840530 0.281709
O O7 0.976041 0.985826 0.245666
O O8 0.411119 0.446721 0.561621
O O9 0.405569 0.350748 0.426643
O O10 0.623219 0.501283 0.529213
O O11 0.135672 0.476439 0.286017
O O12 0.833031 0.138666 0.160925
O O13 0.491139 0.777750 0.168204
O O14 0.870330 0.422260 0.276462
O O15 0.182123 0.218809 0.639501
O O16 0.049078 0.278393 0.423233
#
# Coordination Sequence:
#
# PCOD8055044 Si02
#       8
#     4   4   4   4   4   4   4   4
#     4  10  22  40  68  95 129 185 227 276 352 420
#     4  12  25  44  66 101 141 179 230 289 356 427
#     4  11  21  45  68 101 128 194 233 293 344 440
#     4  10  21  42  71  92 133 186 232 279 349 423
#     4  11  27  42  70 102 138 176 239 293 345 420
#     4  11  20  43  74  92 138 185 239 272 363 426
#     4  11  24  45  73 103 137 188 242 295 348 428
#     4  12  24  45  72 104 144 185 234 293 363 418
#
# _framework density 22.315411000000001
#
# number of rings (size 3 to 8) (size 9 to 14) (size 15 to 20)
#    0.000    1.000    6.250    0.000   10.500    0.000 
#    4.500    0.000    0.000    0.000    0.000    0.000 
#    0.000    0.000    0.000    0.000    0.000    0.000 
#
# Total GULP energy -198262.469500 kJ/mol
# GULP energy per Si atom -12391.404344 kJ/mol
# Density = 2.226462 g / cm^3
# Si number density = 22.315411 Si / 1000 Ang^3
#
#
#
# Elastic Constant Matrix: (Units=GPa)
#
#
# Indices 1 2 3 4 5 6 
#
# 1 72.2175 46.7279 27.3159 -0.0018 9.5281 -0.0002
# 2 46.7279 150.4536 38.8113 -0.0014 -1.0834 0.0000
# 3 27.3159 38.8113 96.6842 0.0042 27.1310 -0.0032
# 4 -0.0018 -0.0014 0.0042 37.1352 0.0004 1.6611
# 5 9.5281 -1.0834 27.1310 0.0004 30.0910 -0.0008
# 6 -0.0002 0.0000 -0.0032 1.6611 -0.0008 25.7817
#
#
#
# Elastic Compliance Matrix: (Units=1/GPa)
#
#
# Indices 1 2 3 4 5 6 
#
# 1 0.018576 -0.005314 -0.001889 0.000001 -0.004370 0.000000
# 2 -0.005314 0.009302 -0.003747 0.000000 0.005396 0.000000
# 3 -0.001889 -0.003747 0.016400 -0.000002 -0.014324 0.000002
# 4 0.000001 0.000000 -0.000002 0.027006 0.000001 -0.001740
# 5 -0.004370 0.005396 -0.014324 0.000001 0.047725 0.000000
# 6 0.000000 0.000000 0.000002 -0.001740 0.000000 0.038899
#
#
# Mechanical properties :
#
#
# Convention : Reuss Voigt Hill
#
# Bulk Modulus (GPa) = 44.68372 60.56283 52.62327
# Shear Modulus (GPa) = 26.69953 32.36826 29.53390
#
# Velocity S-wave (km/s) = 3.46274 3.81266 3.64191
# Velocity P-wave (km/s) = 6.00455 6.82497 6.42786
#
# Compressibility (1/GPa) = 0.02237952
#
# Stress axis : x y z
#
# Youngs Moduli (GPa) = 53.83211 107.49986 60.97457
#
# Poissons Ratio (x) = 0.57121 0.11518
# Poissons Ratio (y) = 0.28604 0.22848
# Poissons Ratio (z) = 0.10169 0.40282
#
# Static dielectric constant tensor:
#      x y z
#    x 3.806410 0.000000 0.501430 
#    y 0.000000 4.283380 0.000000 
#    z 0.501430 0.000000 4.088790 
# 
# 
# High freq. dielectric constant tensor:
#      x y z
#    x 1.849230 0.000000 0.032070 
#    y 0.000000 1.893030 0.000000 
#    z 0.032070 0.000000 1.868140 
# 
# From -- ./inp_files/30168.got.cif
#   From: 2010.06.25/outbox.cif.g09.slc.cpg/sg9_16_cif.got.tgz:30168.got - 2010.06.27 21:40:51.
