data_PCOD8055707
_publ_section_title
;
Structure prediction by ZEFSAII (Michael W. Deem and Ramdas Pophale) SiO2 
 PCOD8055707
Probable space group: C C
;
_chemical_formula_sum "Si O2"
_cell_formula_units_Z 28
_cell_length_a 9.869613
_cell_length_b 10.225294
_cell_length_c 13.559760
_cell_angle_alpha 90.000000
_cell_angle_beta 114.086226
_cell_angle_gamma 90.000000
_cell_volume 1249.299339
_symmetry_space_group_name_H-M "C C"
_symmetry_group_IT_number 9
_symmetry_cell_setting 'monoclinic'
loop_
_space_group_symop_operation_xyz
x,y,z
x,-y,1/2+z
1/2+x,1/2+y,z
1/2+x,1/2-y,1/2+z
loop_
_atom_site_type_symbol
_atom_site_label
_atom_site_fract_x
_atom_site_fract_y
_atom_site_fract_z
Si Si1 0.301980 0.434315 0.977070
Si Si2 0.613494 0.549747 0.098216
Si Si3 0.857631 0.654184 0.645242
Si Si4 0.243221 0.090582 0.345917
Si Si5 0.047005 0.327732 0.021287
Si Si6 0.846028 0.317091 0.372062
Si Si7 0.164557 0.310937 0.461297
O O1 0.282590 0.322414 0.887735
O O2 0.229999 0.569534 0.914905
O O3 0.471592 0.452289 0.063143
O O4 0.201923 0.397310 0.042140
O O5 0.748743 0.468168 0.092208
O O6 0.667809 0.610096 0.217974
O O7 0.572100 0.671947 0.017400
O O8 0.888159 0.675434 0.768658
O O9 0.783085 0.787860 0.583544
O O10 0.003028 0.630864 0.620602
O O11 0.416114 0.135345 0.404337
O O12 0.147431 0.177423 0.392626
O O13 0.235134 0.934419 0.368794
O O14 0.008080 0.341931 0.467840
#
# Coordination Sequence:
#
# PCOD8055707 Si02
#       7
#     4   4   4   4   4   4   4
#     4  12  25  42  71 103 139 182 240 284 347 417
#     4  11  23  46  69 104 136 187 235 286 355 418
#     4  10  23  46  70  93 144 185 229 285 357 407
#     4  10  23  45  70  95 143 181 230 285 350 415
#     4  11  24  45  68 103 141 180 234 296 344 418
#     4  11  24  45  68 100 136 187 232 286 348 418
#     4  11  22  43  66 100 137 186 224 292 347 409
#
# _framework density 22.412564
#
# number of rings (size 3 to 8) (size 9 to 14) (size 15 to 20)
#    0.000    1.143    5.714    0.857    4.000    0.000 
#   10.286    0.000    0.000    0.000    0.000    0.000 
#    0.000    0.000    0.000    0.000    0.000    0.000 
#
# Total GULP energy -173490.362326 kJ/mol
# GULP energy per Si atom -12392.168738 kJ/mol
# Density = 2.236155 g / cm^3
# Si number density = 22.412564 Si / 1000 Ang^3
#
#
#
# Elastic Constant Matrix: (Units=GPa)
#
#
# Indices 1 2 3 4 5 6 
#
# 1 104.3895 35.0250 15.0693 0.0000 -11.4881 0.0000
# 2 35.0250 135.3993 40.5121 0.0000 -3.2281 0.0000
# 3 15.0693 40.5121 75.0243 0.0000 -7.3666 0.0000
# 4 0.0000 0.0000 0.0000 27.5498 0.0000 3.3545
# 5 -11.4881 -3.2281 -7.3666 0.0000 27.1541 0.0000
# 6 0.0000 0.0000 0.0000 3.3545 0.0000 43.5925
#
#
#
# Elastic Compliance Matrix: (Units=1/GPa)
#
#
# Indices 1 2 3 4 5 6 
#
# 1 0.010981 -0.002629 -0.000371 0.000000 0.004233 0.000000
# 2 -0.002629 0.009440 -0.004693 0.000000 -0.001263 0.000000
# 3 -0.000371 -0.004693 0.016302 0.000000 0.003708 0.000000
# 4 0.000000 0.000000 0.000000 0.036641 0.000000 -0.002820
# 5 0.004233 -0.001263 0.003708 0.000000 0.039473 0.000000
# 6 0.000000 0.000000 0.000000 -0.002820 0.000000 0.023157
#
#
# Mechanical properties :
#
#
# Convention : Reuss Voigt Hill
#
# Bulk Modulus (GPa) = 46.86661 55.11401 50.99031
# Shear Modulus (GPa) = 31.54753 34.60640 33.07696
#
# Velocity S-wave (km/s) = 3.75585 3.93372 3.84581
# Velocity P-wave (km/s) = 6.30593 6.72876 6.52078
#
# Compressibility (1/GPa) = 0.02133715
#
# Stress axis : x y z
#
# Youngs Moduli (GPa) = 91.06813 105.93544 61.34280
#
# Poissons Ratio (x) = 0.27848 0.02273
# Poissons Ratio (y) = 0.23939 0.28790
# Poissons Ratio (z) = 0.03374 0.49719
#
# Static dielectric constant tensor:
#      x y z
#    x 4.012160 0.000000 0.136350 
#    y 0.000000 4.324430 0.000000 
#    z 0.136350 0.000000 3.898130 
# 
# 
# High freq. dielectric constant tensor:
#      x y z
#    x 1.882410 0.000000 0.014020 
#    y 0.000000 1.901630 0.000000 
#    z 0.014020 0.000000 1.855090 
# 
# From -- ./inp_files/24035.got.cif
#   From: 2010.06.25/outbox.cif.g09.slc.cpg/sg9_13_cif.got.tgz:24035.got - 2010.06.27 21:40:51.
