data_PCOD8055788
_publ_section_title
;
Structure prediction by ZEFSAII (Michael W. Deem and Ramdas Pophale) SiO2 
 PCOD8055788
Probable space group: C C
;
_chemical_formula_sum "Si O2"
_cell_formula_units_Z 28
_cell_length_a 12.890732
_cell_length_b 5.175409
_cell_length_c 21.077864
_cell_angle_alpha 90.000000
_cell_angle_beta 108.166130
_cell_angle_gamma 90.000000
_cell_volume 1336.115515
_symmetry_space_group_name_H-M "C C"
_symmetry_group_IT_number 9
_symmetry_cell_setting 'monoclinic'
loop_
_space_group_symop_operation_xyz
x,y,z
x,-y,1/2+z
1/2+x,1/2+y,z
1/2+x,1/2-y,1/2+z
loop_
_atom_site_type_symbol
_atom_site_label
_atom_site_fract_x
_atom_site_fract_y
_atom_site_fract_z
Si Si1 0.966500 0.412339 0.428890
Si Si2 0.574166 0.070577 0.140086
Si Si3 0.701477 0.179654 0.765176
Si Si4 0.197912 0.423732 0.534529
Si Si5 0.933391 0.909906 0.340037
Si Si6 0.842200 0.571591 0.035431
Si Si7 0.108364 0.183173 0.772066
O O1 0.930593 0.647086 0.378461
O O2 0.884227 0.390122 0.472194
O O3 0.092382 0.464384 0.470468
O O4 0.955069 0.143326 0.391050
O O5 0.631867 0.825404 0.186124
O O6 0.651774 0.137625 0.095720
O O7 0.448816 0.014562 0.098528
O O8 0.571737 0.303868 0.190948
O O9 0.822345 0.072625 0.778884
O O10 0.703172 0.466167 0.794361
O O11 0.647953 0.965642 0.803256
O O12 0.275009 0.676932 0.545993
O O13 0.264904 0.176726 0.523753
O O14 0.017536 0.924622 0.299832
#
# Coordination Sequence:
#
# PCOD8055788 Si02
#       7
#     4   4   4   4   4   4   4
#     4  11  26  44  62  98 124 162 229 254 299 394
#     4   9  26  40  66  98 129 154 226 250 314 392
#     4  10  24  40  62  96 130 162 206 254 311 382
#     4  11  25  43  69  90 125 171 207 272 316 357
#     4  12  24  42  68  90 133 170 203 260 321 366
#     4  11  25  43  69  90 125 171 207 272 316 357
#     4  10  24  40  62  96 130 162 206 254 311 382
#
# _framework density 20.95627
#
# number of rings (size 3 to 8) (size 9 to 14) (size 15 to 20)
#    0.857    0.571    0.000    3.429    6.000    9.143 
#    0.000    0.000    0.000    0.000    0.000    0.000 
#    0.000    0.000    0.000    0.000    0.000    0.000 
#
# Total GULP energy -173447.811024 kJ/mol
# GULP energy per Si atom -12389.129359 kJ/mol
# Density = 2.090857 g / cm^3
# Si number density = 20.956270 Si / 1000 Ang^3
#
#
#
# Elastic Constant Matrix: (Units=GPa)
#
#
# Indices 1 2 3 4 5 6 
#
# 1 166.7748 60.1115 63.1653 0.0000 24.1597 0.0000
# 2 60.1115 175.4821 52.9404 0.0000 21.1301 0.0000
# 3 63.1653 52.9404 94.5240 0.0000 10.0395 0.0000
# 4 0.0000 0.0000 0.0000 62.0645 0.0000 -25.0801
# 5 24.1597 21.1301 10.0395 0.0000 45.8528 0.0000
# 6 0.0000 0.0000 0.0000 -25.0801 0.0000 56.6022
#
#
#
# Elastic Compliance Matrix: (Units=1/GPa)
#
#
# Indices 1 2 3 4 5 6 
#
# 1 0.008675 -0.001154 -0.004834 0.000000 -0.002980 0.000000
# 2 -0.001154 0.007273 -0.003082 0.000000 -0.002068 0.000000
# 3 -0.004834 -0.003082 0.015474 0.000000 0.000579 0.000000
# 4 0.000000 0.000000 0.000000 0.019626 0.000000 0.008696
# 5 -0.002980 -0.002068 0.000579 0.000000 0.024206 0.000000
# 6 0.000000 0.000000 0.000000 0.008696 0.000000 0.021520
#
#
# Mechanical properties :
#
#
# Convention : Reuss Voigt Hill
#
# Bulk Modulus (GPa) = 75.29513 87.69059 81.49286
# Shear Modulus (GPa) = 41.89626 50.27481 46.08553
#
# Velocity S-wave (km/s) = 4.47612 4.90331 4.69457
# Velocity P-wave (km/s) = 7.91971 8.60186 8.26782
#
# Compressibility (1/GPa) = 0.01328107
#
# Stress axis : x y z
#
# Youngs Moduli (GPa) = 115.27768 137.49539 64.62343
#
# Poissons Ratio (x) = 0.15872 0.31237
# Poissons Ratio (y) = 0.13307 0.19919
# Poissons Ratio (z) = 0.55722 0.42380
#
# Static dielectric constant tensor:
#      x y z
#    x 3.842430 0.000000 -0.057520 
#    y 0.000000 3.637640 0.000000 
#    z -0.057520 0.000000 3.529060 
# 
# 
# High freq. dielectric constant tensor:
#      x y z
#    x 1.835850 0.000000 0.003720 
#    y 0.000000 1.829560 0.000000 
#    z 0.003720 0.000000 1.818990 
# 
# From -- ./inp_files/31938.got.cif
#   From: 2010.06.25/outbox.cif.g09.slc.cpg/sg9_16_cif.got.tgz:31938.got - 2010.06.27 21:40:51.
