data_PCOD8055029
_publ_section_title
;
Structure prediction by ZEFSAII (Michael W. Deem and Ramdas Pophale) SiO2 
 PCOD8055029
Probable space group: C C
;
_chemical_formula_sum "Si O2"
_cell_formula_units_Z 32
_cell_length_a 8.842326
_cell_length_b 17.164070
_cell_length_c 19.658261
_cell_angle_alpha 90.000000
_cell_angle_beta 150.329573
_cell_angle_gamma 90.000000
_cell_volume 1476.883023
_symmetry_space_group_name_H-M "C C"
_symmetry_group_IT_number 9
_symmetry_cell_setting 'monoclinic'
loop_
_space_group_symop_operation_xyz
x,y,z
x,-y,1/2+z
1/2+x,1/2+y,z
1/2+x,1/2-y,1/2+z
loop_
_atom_site_type_symbol
_atom_site_label
_atom_site_fract_x
_atom_site_fract_y
_atom_site_fract_z
Si Si1 0.276460 0.924244 0.569780
Si Si2 0.775307 0.255532 0.519179
Si Si3 0.734759 0.053640 0.130702
Si Si4 0.101475 0.552588 0.763679
Si Si5 0.878573 0.686951 0.773705
Si Si6 0.837916 0.666452 0.905707
Si Si7 0.730671 0.328194 0.858150
Si Si8 0.176349 0.387826 0.143124
O O1 0.232942 0.829894 0.555046
O O2 0.568754 0.937041 0.637421
O O3 0.962205 0.963119 0.418996
O O4 0.395847 0.971940 0.683784
O O5 0.907744 0.278074 0.496924
O O6 0.457632 0.209044 0.391091
O O7 0.012838 0.191856 0.639792
O O8 0.060733 0.097718 0.259014
O O9 0.788822 0.962154 0.142770
O O10 0.499829 0.083165 0.981661
O O11 0.060621 0.593840 0.674343
O O12 0.977133 0.607689 0.775186
O O13 0.997145 0.692644 0.897877
O O14 0.978830 0.763337 0.773475
O O15 0.471924 0.665935 0.762543
O O16 0.901811 0.346884 0.995646
#
# Coordination Sequence:
#
# PCOD8055029 Si02
#       8
#     4   4   4   4   4   4   4   4
#     4  10  21  42  68  96 133 175 220 279 327 407
#     4  11  23  45  66 100 133 173 233 276 335 412
#     4  10  22  40  67  97 128 176 227 271 330 411
#     4  11  24  43  69  98 138 177 230 273 341 412
#     4  12  25  43  67 101 136 173 225 286 340 396
#     4  11  22  43  65  89 138 171 215 282 332 396
#     4  12  23  40  72  98 130 177 229 281 331 405
#     4  11  22  40  68  97 132 180 221 274 340 403
#
# _framework density 21.667255000000001
#
# number of rings (size 3 to 8) (size 9 to 14) (size 15 to 20)
#    0.000    1.000    7.500    0.750    7.000    1.000 
#    2.250    0.000    0.000    0.000    0.000    0.000 
#    0.000    0.000    0.000    0.000    0.000    0.000 
#
# Total GULP energy -198228.629074 kJ/mol
# GULP energy per Si atom -12389.289317 kJ/mol
# Density = 2.161794 g / cm^3
# Si number density = 21.667255 Si / 1000 Ang^3
#
#
#
# Elastic Constant Matrix: (Units=GPa)
#
#
# Indices 1 2 3 4 5 6 
#
# 1 83.6268 33.0815 21.3828 0.0046 -12.0722 0.0014
# 2 33.0815 82.3950 29.0243 0.0058 4.5883 0.0029
# 3 21.3828 29.0243 101.8510 0.0174 13.7857 0.0133
# 4 0.0046 0.0058 0.0174 40.0177 0.0044 -3.6217
# 5 -12.0722 4.5883 13.7857 0.0044 25.9527 0.0003
# 6 0.0014 0.0029 0.0133 -3.6217 0.0003 23.5524
#
#
#
# Elastic Compliance Matrix: (Units=1/GPa)
#
#
# Indices 1 2 3 4 5 6 
#
# 1 0.016748 -0.006192 -0.003183 -0.000001 0.010576 0.000001
# 2 -0.006192 0.015783 -0.002619 0.000000 -0.004280 0.000000
# 3 -0.003183 -0.002619 0.012251 -0.000004 -0.007525 -0.000007
# 4 -0.000001 0.000000 -0.000004 0.025342 -0.000002 0.003897
# 5 0.010576 -0.004280 -0.007525 -0.000002 0.048205 0.000003
# 6 0.000001 0.000000 -0.000007 0.003897 0.000003 0.043058
#
#
# Mechanical properties :
#
#
# Convention : Reuss Voigt Hill
#
# Bulk Modulus (GPa) = 48.08722 48.31665 48.20193
# Shear Modulus (GPa) = 26.00018 30.19684 28.09851
#
# Velocity S-wave (km/s) = 3.46782 3.73723 3.60504
# Velocity P-wave (km/s) = 6.18677 6.40080 6.29470
#
# Compressibility (1/GPa) = 0.02079555
#
# Stress axis : x y z
#
# Youngs Moduli (GPa) = 59.70875 63.35749 81.62397
#
# Poissons Ratio (x) = 0.39231 0.25982
# Poissons Ratio (y) = 0.36971 0.21374
# Poissons Ratio (z) = 0.19006 0.16590
#
# Static dielectric constant tensor:
#      x y z
#    x 3.674910 0.000000 -0.006210 
#    y 0.000000 4.368960 -0.000030 
#    z -0.006210 -0.000030 4.040210 
# 
# 
# High freq. dielectric constant tensor:
#      x y z
#    x 1.822700 0.000000 0.010860 
#    y 0.000000 1.845330 0.000000 
#    z 0.010860 0.000000 1.863930 
# 
# From -- ./inp_files/32846.got.cif
#   From: 2010.06.25/outbox.cif.g09.slc.cpg/sg9_17_cif.got.tgz:32846.got - 2010.06.27 21:40:51.
