data_PCOD8055825
_publ_section_title
;
Structure prediction by ZEFSAII (Michael W. Deem and Ramdas Pophale) SiO2 
 PCOD8055825
Probable space group: C C
;
_chemical_formula_sum "Si O2"
_cell_formula_units_Z 32
_cell_length_a 22.143372
_cell_length_b 9.814094
_cell_length_c 9.397113
_cell_angle_alpha 90.000000
_cell_angle_beta 42.263752
_cell_angle_gamma 90.000000
_cell_volume 1373.439122
_symmetry_space_group_name_H-M "C C"
_symmetry_group_IT_number 9
_symmetry_cell_setting 'monoclinic'
loop_
_space_group_symop_operation_xyz
x,y,z
x,-y,1/2+z
1/2+x,1/2+y,z
1/2+x,1/2-y,1/2+z
loop_
_atom_site_type_symbol
_atom_site_label
_atom_site_fract_x
_atom_site_fract_y
_atom_site_fract_z
Si Si1 0.767330 0.083144 0.464020
Si Si2 0.210445 0.903035 0.881472
Si Si3 0.041548 0.916029 0.652579
Si Si4 0.957529 0.111641 0.008983
Si Si5 0.700677 0.105207 0.870642
Si Si6 0.585645 0.881531 0.159404
Si Si7 0.828116 0.493656 0.926864
Si Si8 0.445104 0.904647 0.976695
O O1 0.750563 0.930478 0.432565
O O2 0.854870 0.141286 0.233793
O O3 0.777203 0.086151 0.616320
O O4 0.673945 0.167224 0.594389
O O5 0.161582 0.757117 0.952214
O O6 0.268400 0.899757 0.926038
O O7 0.269014 0.914640 0.636148
O O8 0.139284 0.024420 0.016769
O O9 0.038698 0.752852 0.679726
O O10 0.018619 0.944290 0.529682
O O11 0.965962 0.994351 0.875689
O O12 0.995106 0.258144 0.890188
O O13 0.620801 0.993598 0.980457
O O14 0.511775 0.966350 0.377267
O O15 0.891100 0.405366 0.921384
O O16 0.883443 0.592169 0.725685
#
# Coordination Sequence:
#
# PCOD8055825 Si02
#       8
#     4   4   4   4   4   4   4   4
#     4  10  25  44  74  96 140 181 233 281 351 414
#     4  11  24  46  69 107 140 191 228 293 355 424
#     4  12  28  45  71 104 147 183 237 295 353 417
#     4  12  27  46  72 106 145 183 236 294 354 413
#     4  10  24  42  74  97 134 187 235 276 339 429
#     4  10  27  45  73  98 144 183 233 282 352 416
#     4  10  25  40  74 106 146 174 240 291 357 411
#     4  11  24  46  73 106 138 188 232 296 345 422
#
# _framework density 23.299175000000002
#
# number of rings (size 3 to 8) (size 9 to 14) (size 15 to 20)
#    0.750    0.500    0.000    3.750   10.500    7.000 
#    0.000    0.000    0.000    0.000    0.000    0.000 
#    0.000    0.000    0.000    0.000    0.000    0.000 
#
# Total GULP energy -198231.109939 kJ/mol
# GULP energy per Si atom -12389.444371 kJ/mol
# Density = 2.324614 g / cm^3
# Si number density = 23.299175 Si / 1000 Ang^3
#
#
#
# Elastic Constant Matrix: (Units=GPa)
#
#
# Indices 1 2 3 4 5 6 
#
# 1 102.4761 29.1796 44.4560 0.0000 11.7353 0.0000
# 2 29.1796 165.4276 47.7099 0.0000 8.0045 0.0000
# 3 44.4560 47.7099 111.0427 0.0000 5.3358 0.0000
# 4 0.0000 0.0000 0.0000 17.3587 0.0000 1.6641
# 5 11.7353 8.0045 5.3358 0.0000 44.2597 0.0000
# 6 0.0000 0.0000 0.0000 1.6641 0.0000 26.1808
#
#
#
# Elastic Compliance Matrix: (Units=1/GPa)
#
#
# Indices 1 2 3 4 5 6 
#
# 1 0.012189 -0.000747 -0.004436 0.000000 -0.002562 0.000000
# 2 -0.000747 0.006981 -0.002665 0.000000 -0.000743 0.000000
# 3 -0.004436 -0.002665 0.011916 0.000000 0.000222 0.000000
# 4 0.000000 0.000000 0.000000 0.057961 0.000000 -0.003684
# 5 -0.002562 -0.000743 0.000222 0.000000 0.023381 0.000000
# 6 0.000000 0.000000 0.000000 -0.003684 0.000000 0.038430
#
#
# Mechanical properties :
#
#
# Convention : Reuss Voigt Hill
#
# Bulk Modulus (GPa) = 64.97332 69.07081 67.02207
# Shear Modulus (GPa) = 29.12349 34.73324 31.92836
#
# Velocity S-wave (km/s) = 3.53934 3.86521 3.70586
# Velocity P-wave (km/s) = 6.68204 7.04481 6.86582
#
# Compressibility (1/GPa) = 0.01539093
#
# Stress axis : x y z
#
# Youngs Moduli (GPa) = 82.04301 143.24267 83.92253
#
# Poissons Ratio (x) = 0.10696 0.37227
# Poissons Ratio (y) = 0.06126 0.22364
# Poissons Ratio (z) = 0.36393 0.38172
#
# Static dielectric constant tensor:
#      x y z
#    x 4.065680 0.000000 0.025340 
#    y 0.000000 3.858790 0.000000 
#    z 0.025340 0.000000 4.224260 
# 
# 
# High freq. dielectric constant tensor:
#      x y z
#    x 1.913230 0.000000 0.000960 
#    y 0.000000 1.914650 0.000000 
#    z 0.000960 0.000000 1.928990 
# 
# From -- ./inp_files/12409.got.cif
#   From: 2010.06.25/outbox.cif.g09.slc.cpg/sg9_7_cif.got.tgz:12409.got - 2010.06.27 21:40:51.
