data_PCOD8055229
_publ_section_title
;
Structure prediction by ZEFSAII (Michael W. Deem and Ramdas Pophale) SiO2 
 PCOD8055229
Probable space group: C C
;
_chemical_formula_sum "Si O2"
_cell_formula_units_Z 20
_cell_length_a 6.322694
_cell_length_b 13.625406
_cell_length_c 12.572621
_cell_angle_alpha 90.000000
_cell_angle_beta 129.347172
_cell_angle_gamma 90.000000
_cell_volume 837.598380
_symmetry_space_group_name_H-M "C C"
_symmetry_group_IT_number 9
_symmetry_cell_setting 'monoclinic'
loop_
_space_group_symop_operation_xyz
x,y,z
x,-y,1/2+z
1/2+x,1/2+y,z
1/2+x,1/2-y,1/2+z
loop_
_atom_site_type_symbol
_atom_site_label
_atom_site_fract_x
_atom_site_fract_y
_atom_site_fract_z
Si Si1 0.476620 0.471387 0.210170
Si Si2 0.498319 0.768911 0.901458
Si Si3 0.587372 0.314748 0.076701
Si Si4 0.361491 0.949451 0.994976
Si Si5 0.514468 0.677664 0.126132
O O1 0.662420 0.468972 0.376895
O O2 0.552022 0.562353 0.157208
O O3 0.551575 0.367811 0.179121
O O4 0.152775 0.485931 0.135280
O O5 0.437540 0.877203 0.924337
O O6 0.287169 0.756117 0.736122
O O7 0.442321 0.691110 0.978812
O O8 0.801747 0.765359 0.951082
O O9 0.795183 0.223170 0.139364
O O10 0.679778 0.398109 0.025226
#
# Coordination Sequence:
#
# PCOD8055229 Si02
#       5
#     4   4   4   4   4
#     4  10  22  40  64  94 124 165 214 260 323 380
#     4   9  21  40  60  92 124 163 210 255 318 386
#     4  10  22  42  62  86 136 160 202 276 304 384
#     4   9  21  40  60  92 124 163 210 255 318 386
#     4  10  22  40  64  94 124 165 214 260 323 380
#
# _framework density 23.877790999999998
#
# number of rings (size 3 to 8) (size 9 to 14) (size 15 to 20)
#    0.000    2.400    0.000    0.000    2.800   11.200 
#   14.400    0.000    0.000    0.000    0.000    0.000 
#    0.000    0.000    0.000    0.000    0.000    0.000 
#
# Total GULP energy -123919.401113 kJ/mol
# GULP energy per Si atom -12391.940111 kJ/mol
# Density = 2.382344 g / cm^3
# Si number density = 23.877791 Si / 1000 Ang^3
#
#
#
# Elastic Constant Matrix: (Units=GPa)
#
#
# Indices 1 2 3 4 5 6 
#
# 1 67.9050 17.0644 16.2312 0.0000 29.4633 0.0000
# 2 17.0644 55.9782 9.0903 0.0000 2.2823 0.0000
# 3 16.2312 9.0903 97.6794 0.0000 29.7690 0.0000
# 4 0.0000 0.0000 0.0000 30.6232 0.0000 1.5335
# 5 29.4633 2.2823 29.7690 0.0000 38.7519 0.0000
# 6 0.0000 0.0000 0.0000 1.5335 0.0000 27.6597
#
#
#
# Elastic Compliance Matrix: (Units=1/GPa)
#
#
# Indices 1 2 3 4 5 6 
#
# 1 0.024791 -0.007176 0.002825 0.000000 -0.020597 0.000000
# 2 -0.007176 0.020218 -0.002597 0.000000 0.006261 0.000000
# 3 0.002825 -0.002597 0.013864 0.000000 -0.012645 0.000000
# 4 0.000000 0.000000 0.000000 0.032746 0.000000 -0.001815
# 5 -0.020597 0.006261 -0.012645 0.000000 0.050810 0.000000
# 6 0.000000 0.000000 0.000000 -0.001815 0.000000 0.036254
#
#
# Mechanical properties :
#
#
# Convention : Reuss Voigt Hill
#
# Bulk Modulus (GPa) = 22.23361 34.03714 28.13537
# Shear Modulus (GPa) = 24.08807 31.35209 27.72008
#
# Velocity S-wave (km/s) = 3.17962 3.62750 3.41092
# Velocity P-wave (km/s) = 4.77615 5.64187 5.22696
#
# Compressibility (1/GPa) = 0.04497696
#
# Stress axis : x y z
#
# Youngs Moduli (GPa) = 40.33687 49.46028 72.13176
#
# Poissons Ratio (x) = 0.35495 -0.20380
# Poissons Ratio (y) = 0.28947 0.18733
# Poissons Ratio (z) = -0.11397 0.12845
#
# Static dielectric constant tensor:
#      x y z
#    x 4.036720 0.000000 0.391910 
#    y 0.000000 4.086810 0.000000 
#    z 0.391910 0.000000 4.862860 
# 
# 
# High freq. dielectric constant tensor:
#      x y z
#    x 1.935170 0.000000 0.015690 
#    y 0.000000 1.939160 0.000000 
#    z 0.015690 0.000000 1.956200 
# 
# From -- ./inp_files/3606.got.cif
#   From: 2010.06.25/outbox.cif.g09.slc.cpg/sg9_2_cif.got.tgz:3606.got - 2010.06.27 21:40:51.
