data_PCOD8055669
_publ_section_title
;
Structure prediction by ZEFSAII (Michael W. Deem and Ramdas Pophale) SiO2 
 PCOD8055669
Probable space group: C C
;
_chemical_formula_sum "Si O2"
_cell_formula_units_Z 24
_cell_length_a 4.786631
_cell_length_b 19.371354
_cell_length_c 11.875037
_cell_angle_alpha 90.000000
_cell_angle_beta 67.748680
_cell_angle_gamma 90.000000
_cell_volume 1019.098668
_symmetry_space_group_name_H-M "C C"
_symmetry_group_IT_number 9
_symmetry_cell_setting 'monoclinic'
loop_
_space_group_symop_operation_xyz
x,y,z
x,-y,1/2+z
1/2+x,1/2+y,z
1/2+x,1/2-y,1/2+z
loop_
_atom_site_type_symbol
_atom_site_label
_atom_site_fract_x
_atom_site_fract_y
_atom_site_fract_z
Si Si1 0.199950 0.535708 0.985870
Si Si2 0.905712 0.872726 0.267267
Si Si3 0.595921 0.395384 0.591413
Si Si4 0.296826 0.903851 0.994172
Si Si5 0.895735 0.150385 0.362374
Si Si6 0.798234 0.697002 0.869492
O O1 0.407512 0.562172 0.851605
O O2 0.032441 0.466884 0.972691
O O3 0.432116 0.536717 0.057851
O O4 0.943571 0.589106 0.064974
O O5 0.070904 0.806093 0.297740
O O6 0.558483 0.856975 0.294898
O O7 0.069513 0.896322 0.130302
O O8 0.423192 0.376280 0.731094
O O9 0.604536 0.328863 0.507214
O O10 0.091869 0.901182 0.912172
O O11 0.540995 0.842949 0.949060
O O12 0.976359 0.231106 0.360924
#
# Coordination Sequence:
#
# PCOD8055669 Si02
#       6
#     4   4   4   4   4   4
#     4  10  23  46  68  95 135 183 231 279 344 414
#     4  10  23  44  71  97 134 187 226 283 353 405
#     4  10  23  44  70  96 136 186 223 281 352 407
#     4  12  26  42  71 104 138 179 237 290 344 412
#     4  12  26  43  68 110 137 177 235 292 348 411
#     4  10  23  45  70  98 138 182 228 283 349 419
#
# _framework density 23.550224
#
# number of rings (size 3 to 8) (size 9 to 14) (size 15 to 20)
#    0.000    1.333    0.000    4.000    7.000    0.000 
#    9.000    0.000    0.000    0.000    0.000    0.000 
#    0.000    0.000    0.000    0.000    0.000    0.000 
#
# Total GULP energy -148702.507030 kJ/mol
# GULP energy per Si atom -12391.875586 kJ/mol
# Density = 2.349662 g / cm^3
# Si number density = 23.550224 Si / 1000 Ang^3
#
#
#
# Elastic Constant Matrix: (Units=GPa)
#
#
# Indices 1 2 3 4 5 6 
#
# 1 133.7022 16.0103 64.3272 0.0000 3.1185 0.0000
# 2 16.0103 55.7183 63.5700 0.0000 8.1545 0.0000
# 3 64.3272 63.5700 160.8057 0.0000 0.4053 0.0000
# 4 0.0000 0.0000 0.0000 11.9157 0.0000 6.1766
# 5 3.1185 8.1545 0.4053 0.0000 38.7480 0.0000
# 6 0.0000 0.0000 0.0000 6.1766 0.0000 32.4536
#
#
#
# Elastic Compliance Matrix: (Units=1/GPa)
#
#
# Indices 1 2 3 4 5 6 
#
# 1 0.009591 0.003324 -0.005147 0.000000 -0.001418 0.000000
# 2 0.003324 0.035708 -0.015427 0.000000 -0.007621 0.000000
# 3 -0.005147 -0.015427 0.014367 0.000000 0.003511 0.000000
# 4 0.000000 0.000000 0.000000 0.093109 0.000000 -0.017721
# 5 -0.001418 -0.007621 0.003511 0.000000 0.027489 0.000000
# 6 0.000000 0.000000 0.000000 -0.017721 0.000000 0.034186
#
#
# Mechanical properties :
#
#
# Convention : Reuss Voigt Hill
#
# Bulk Modulus (GPa) = 39.73495 70.89345 55.31420
# Shear Modulus (GPa) = 19.42966 30.37804 24.90385
#
# Velocity S-wave (km/s) = 2.87545 3.59545 3.25542
# Velocity P-wave (km/s) = 5.28520 6.88511 6.13751
#
# Compressibility (1/GPa) = 0.02516676
#
# Stress axis : x y z
#
# Youngs Moduli (GPa) = 104.26763 28.00462 69.60209
#
# Poissons Ratio (x) = -0.09309 0.35825
# Poissons Ratio (y) = -0.34659 1.07374
# Poissons Ratio (z) = 0.53667 0.43202
#
# Static dielectric constant tensor:
#      x y z
#    x 4.627300 0.000000 -0.117000 
#    y 0.000000 4.036640 0.000000 
#    z -0.117000 0.000000 4.110720 
# 
# 
# High freq. dielectric constant tensor:
#      x y z
#    x 1.955820 0.000000 -0.011000 
#    y 0.000000 1.917730 0.000000 
#    z -0.011000 0.000000 1.930980 
# 
# From -- ./inp_files/13151.got.cif
#   From: 2010.06.25/outbox.cif.g09.slc.cpg/sg9_7_cif.got.tgz:13151.got - 2010.06.27 21:40:51.
