data_PCOD8055564
_publ_section_title
;
Structure prediction by ZEFSAII (Michael W. Deem and Ramdas Pophale) SiO2 
 PCOD8055564
Probable space group: C C
;
_chemical_formula_sum "Si O2"
_cell_formula_units_Z 32
_cell_length_a 10.752556
_cell_length_b 18.933387
_cell_length_c 9.317826
_cell_angle_alpha 90.000000
_cell_angle_beta 53.944055
_cell_angle_gamma 90.000000
_cell_volume 1533.570885
_symmetry_space_group_name_H-M "C C"
_symmetry_group_IT_number 9
_symmetry_cell_setting 'monoclinic'
loop_
_space_group_symop_operation_xyz
x,y,z
x,-y,1/2+z
1/2+x,1/2+y,z
1/2+x,1/2-y,1/2+z
loop_
_atom_site_type_symbol
_atom_site_label
_atom_site_fract_x
_atom_site_fract_y
_atom_site_fract_z
Si Si1 0.515790 0.201973 0.004660
Si Si2 0.510985 0.935517 0.029431
Si Si3 0.844306 0.837144 0.195933
Si Si4 0.514332 0.925027 0.699747
Si Si5 0.846120 0.081251 0.413432
Si Si6 0.872577 0.924484 0.436836
Si Si7 0.512839 0.330114 0.582685
Si Si8 0.867213 0.307964 0.296415
O O1 0.476155 0.279455 0.087369
O O2 0.449535 0.144471 0.163035
O O3 0.699379 0.198884 0.871099
O O4 0.449788 0.189437 0.892402
O O5 0.416125 0.875634 0.173633
O O6 0.465466 0.009080 0.134581
O O7 0.452899 0.934902 0.903777
O O8 0.696544 0.926719 0.912866
O O9 0.909702 0.899885 0.249857
O O10 0.790940 0.871066 0.082977
O O11 0.695251 0.916759 0.594117
O O12 0.985819 0.119461 0.237538
O O13 0.915652 0.006960 0.420609
O O14 0.971203 0.874206 0.470733
O O15 0.687230 0.305642 0.452044
O O16 0.408050 0.260779 0.674392
#
# Coordination Sequence:
#
# PCOD8055564 Si02
#       8
#     4   4   4   4   4   4   4   4
#     4  11  23  42  61  99 127 174 219 266 331 384
#     4  11  22  43  69  99 127 174 222 272 330 392
#     4  11  23  40  65  94 129 170 216 274 323 388
#     4  10  23  41  73  96 130 170 224 272 325 399
#     4  11  21  43  70  93 130 171 226 267 329 393
#     4  10  24  40  67  98 130 171 220 271 327 388
#     4  12  25  43  65  99 132 177 222 272 332 393
#     4  12  25  42  68  94 137 175 223 272 333 393
#
# _framework density 20.866332
#
# number of rings (size 3 to 8) (size 9 to 14) (size 15 to 20)
#    0.000    1.000    3.750    3.000    8.750    1.000 
#    4.500    0.000    0.000    0.000    0.000    0.000 
#    0.000    0.000    0.000    0.000    0.000    0.000 
#
# Total GULP energy -198423.209545 kJ/mol
# GULP energy per Si atom -12401.450597 kJ/mol
# Density = 2.081884 g / cm^3
# Si number density = 20.866332 Si / 1000 Ang^3
#
#
#
# Elastic Constant Matrix: (Units=GPa)
#
#
# Indices 1 2 3 4 5 6 
#
# 1 34.9779 30.8378 33.1183 0.0000 -0.7063 0.0000
# 2 30.8378 132.1648 45.9962 0.0000 -4.8040 0.0000
# 3 33.1183 45.9962 112.7625 0.0000 5.5760 0.0000
# 4 0.0000 0.0000 0.0000 46.5730 0.0000 1.8208
# 5 -0.7063 -4.8040 5.5760 0.0000 34.1543 0.0000
# 6 0.0000 0.0000 0.0000 1.8208 0.0000 25.0187
#
#
#
# Elastic Compliance Matrix: (Units=1/GPa)
#
#
# Indices 1 2 3 4 5 6 
#
# 1 0.044335 -0.006670 -0.010383 0.000000 0.001674 0.000000
# 2 -0.006670 0.009938 -0.002175 0.000000 0.001615 0.000000
# 3 -0.010383 -0.002175 0.012935 0.000000 -0.002632 0.000000
# 4 0.000000 0.000000 0.000000 0.021533 0.000000 -0.001567
# 5 0.001674 0.001615 -0.002632 0.000000 0.029970 0.000000
# 6 0.000000 0.000000 0.000000 -0.001567 0.000000 0.040084
#
#
# Mechanical properties :
#
#
# Convention : Reuss Voigt Hill
#
# Bulk Modulus (GPa) = 34.77995 55.53441 45.15718
# Shear Modulus (GPa) = 24.17377 32.47941 28.32659
#
# Velocity S-wave (km/s) = 3.40738 3.94959 3.68846
# Velocity P-wave (km/s) = 5.67313 6.88993 6.31093
#
# Compressibility (1/GPa) = 0.02875219
#
# Stress axis : x y z
#
# Youngs Moduli (GPa) = 22.55548 100.62200 77.31000
#
# Poissons Ratio (x) = 0.67117 0.80272
# Poissons Ratio (y) = 0.15045 0.16812
# Poissons Ratio (z) = 0.23420 0.21882
#
# Static dielectric constant tensor:
#      x y z
#    x 3.545790 0.000000 0.187320 
#    y 0.000000 4.086860 0.000000 
#    z 0.187320 0.000000 3.950800 
# 
# 
# High freq. dielectric constant tensor:
#      x y z
#    x 1.789110 0.000000 0.016340 
#    y 0.000000 1.835660 0.000000 
#    z 0.016340 0.000000 1.828090 
# 
# From -- ./inp_files/8019.got.cif
#   From: 2010.06.25/outbox.cif.g09.slc.cpg/sg9_5_cif.got.tgz:8019.got - 2010.06.27 21:40:51.
