data_PCOD8055375
_publ_section_title
;
Structure prediction by ZEFSAII (Michael W. Deem and Ramdas Pophale) SiO2 
 PCOD8055375
Probable space group: C C
;
_chemical_formula_sum "Si O2"
_cell_formula_units_Z 32
_cell_length_a 8.931456
_cell_length_b 16.386963
_cell_length_c 19.211335
_cell_angle_alpha 90.000000
_cell_angle_beta 31.751178
_cell_angle_gamma 90.000000
_cell_volume 1479.636532
_symmetry_space_group_name_H-M "C C"
_symmetry_group_IT_number 9
_symmetry_cell_setting 'monoclinic'
loop_
_space_group_symop_operation_xyz
x,y,z
x,-y,1/2+z
1/2+x,1/2+y,z
1/2+x,1/2-y,1/2+z
loop_
_atom_site_type_symbol
_atom_site_label
_atom_site_fract_x
_atom_site_fract_y
_atom_site_fract_z
Si Si1 0.987540 0.550149 0.828080
Si Si2 0.324939 0.318288 0.739773
Si Si3 0.916565 0.330743 0.693765
Si Si4 0.626975 0.071578 0.933448
Si Si5 0.733864 0.796556 0.155123
Si Si6 0.073273 0.058326 0.244028
Si Si7 0.862588 0.920573 0.595618
Si Si8 0.275261 0.240652 0.392101
O O1 0.068424 0.554559 0.876101
O O2 0.071129 0.636167 0.762059
O O3 0.148845 0.479504 0.722641
O O4 0.648517 0.535341 0.955947
O O5 0.515203 0.243212 0.688515
O O6 0.344294 0.389887 0.789501
O O7 0.446526 0.349572 0.617445
O O8 0.004576 0.284384 0.860173
O O9 0.911397 0.268431 0.631995
O O10 0.659072 0.393483 0.780380
O O11 0.899824 0.275129 0.767648
O O12 0.206422 0.383864 0.588970
O O13 0.681385 0.164879 0.932174
O O14 0.357276 0.040051 0.085487
O O15 0.918259 0.022514 0.833613
O O16 0.009346 0.823816 0.002040
#
# Coordination Sequence:
#
# PCOD8055375 Si02
#       8
#     4   4   4   4   4   4   4   4
#     4  12  24  42  69  98 132 177 220 274 332 398
#     4  10  22  43  65  94 129 175 218 272 327 393
#     4  10  24  45  64  96 134 174 216 286 324 386
#     4  12  22  45  68  98 132 176 222 275 329 399
#     4  11  24  42  69  95 132 175 223 277 330 393
#     4  11  24  45  68  94 137 170 222 275 332 397
#     4  11  25  43  68  96 136 172 223 268 336 395
#     4  11  23  43  69  95 136 171 226 273 334 391
#
# _framework density 21.626932
#
# number of rings (size 3 to 8) (size 9 to 14) (size 15 to 20)
#    0.000    1.000    6.250    0.000    5.250    3.000 
#    2.250    0.000    0.000    0.000    0.000    0.000 
#    0.000    0.000    0.000    0.000    0.000    0.000 
#
# Total GULP energy -198259.390666 kJ/mol
# GULP energy per Si atom -12391.211917 kJ/mol
# Density = 2.157771 g / cm^3
# Si number density = 21.626932 Si / 1000 Ang^3
#
#
#
# Elastic Constant Matrix: (Units=GPa)
#
#
# Indices 1 2 3 4 5 6 
#
# 1 83.2403 19.5534 2.8018 -0.1162 -12.7427 -0.2418
# 2 19.5534 63.2622 38.1028 -0.1399 0.9201 0.0194
# 3 2.8018 38.1028 113.8561 -0.6295 -16.7664 -0.2211
# 4 -0.1162 -0.1399 -0.6295 27.9467 0.0023 -6.8264
# 5 -12.7427 0.9201 -16.7664 0.0023 22.0457 0.2192
# 6 -0.2418 0.0194 -0.2211 -6.8264 0.2192 34.1894
#
#
#
# Elastic Compliance Matrix: (Units=1/GPa)
#
#
# Indices 1 2 3 4 5 6 
#
# 1 0.015453 -0.007267 0.003843 0.000135 0.012157 0.000087
# 2 -0.007267 0.024108 -0.009749 -0.000147 -0.012620 -0.000076
# 3 0.003843 -0.009749 0.013896 0.000303 0.013195 0.000098
# 4 0.000135 -0.000147 0.000303 0.037624 0.000236 0.007514
# 5 0.012157 -0.012620 0.013195 0.000236 0.062951 -0.000178
# 6 0.000087 -0.000076 0.000098 0.007514 -0.000178 0.030752
#
#
# Mechanical properties :
#
#
# Convention : Reuss Voigt Hill
#
# Bulk Modulus (GPa) = 36.88553 42.36385 39.62469
# Shear Modulus (GPa) = 22.71007 30.16308 26.43657
#
# Velocity S-wave (km/s) = 3.24401 3.73862 3.50006
# Velocity P-wave (km/s) = 5.57888 6.18606 5.89030
#
# Compressibility (1/GPa) = 0.02711090
#
# Stress axis : x y z
#
# Youngs Moduli (GPa) = 64.71377 41.47961 71.96383
#
# Poissons Ratio (x) = 0.30145 -0.27655
# Poissons Ratio (y) = 0.47030 0.70154
# Poissons Ratio (z) = -0.24869 0.40437
#
# Static dielectric constant tensor:
#      x y z
#    x 4.137100 0.000020 -0.127790 
#    y 0.000020 3.949570 0.000680 
#    z -0.127790 0.000680 3.961690 
# 
# 
# High freq. dielectric constant tensor:
#      x y z
#    x 1.864060 0.000000 -0.007860 
#    y 0.000000 1.842210 0.000000 
#    z -0.007860 0.000000 1.850220 
# 
# From -- ./inp_files/20385.got.cif
#   From: 2010.06.25/outbox.cif.g09.slc.cpg/sg9_11_cif.got.tgz:20385.got - 2010.06.27 21:40:51.
