data_PCOD8055177
_publ_section_title
;
Structure prediction by ZEFSAII (Michael W. Deem and Ramdas Pophale) SiO2 
 PCOD8055177
Probable space group: C C
;
_chemical_formula_sum "Si O2"
_cell_formula_units_Z 32
_cell_length_a 26.163934
_cell_length_b 13.540258
_cell_length_c 9.476007
_cell_angle_alpha 90.000000
_cell_angle_beta 152.268677
_cell_angle_gamma 90.000000
_cell_volume 1562.113867
_symmetry_space_group_name_H-M "C C"
_symmetry_group_IT_number 9
_symmetry_cell_setting 'monoclinic'
loop_
_space_group_symop_operation_xyz
x,y,z
x,-y,1/2+z
1/2+x,1/2+y,z
1/2+x,1/2-y,1/2+z
loop_
_atom_site_type_symbol
_atom_site_label
_atom_site_fract_x
_atom_site_fract_y
_atom_site_fract_z
Si Si1 0.647760 0.302717 0.017930
Si Si2 0.584522 0.496331 0.721054
Si Si3 0.358518 0.224043 0.851519
Si Si4 0.046822 0.580285 0.373863
Si Si5 0.216246 0.256800 0.248594
Si Si6 0.507605 0.110521 0.605351
Si Si7 0.018863 0.116805 0.805155
Si Si8 0.756661 0.647572 0.065488
O O1 0.756515 0.307719 0.192585
O O2 0.678810 0.302600 0.257992
O O3 0.585399 0.402813 0.826524
O O4 0.572385 0.210484 0.795588
O O5 0.515628 0.578754 0.636542
O O6 0.518949 0.471622 0.418013
O O7 0.705725 0.541103 0.985048
O O8 0.323390 0.256223 0.608908
O O9 0.445390 0.135537 0.050946
O O10 0.412880 0.315601 0.067669
O O11 0.160461 0.635109 0.610537
O O12 0.031626 0.575279 0.505216
O O13 0.051290 0.470364 0.322570
O O14 0.257269 0.225060 0.194902
O O15 0.129232 0.179765 0.102144
O O16 0.378318 0.129035 0.306017
#
# Coordination Sequence:
#
# PCOD8055177 Si02
#       8
#     4   4   4   4   4   4   4   4
#     4  12  23  44  65  95 139 167 220 274 326 396
#     4  11  21  42  63  97 127 161 216 277 315 388
#     4  11  21  44  67  88 131 178 209 266 338 386
#     4  11  25  44  67  97 134 175 225 271 333 397
#     4  10  23  44  66  93 129 172 216 276 327 390
#     4  12  27  42  67 103 132 181 222 272 329 399
#     4  10  22  38  66  95 122 164 217 261 325 383
#     4  11  26  40  71 100 124 172 225 273 333 385
#
# _framework density 20.485061999999999
#
# number of rings (size 3 to 8) (size 9 to 14) (size 15 to 20)
#    0.000    1.000    5.000    1.500    3.500    2.000 
#    2.250    0.000    0.000    0.000    0.000    0.000 
#    0.000    0.000    0.000    0.000    0.000    0.000 
#
# Total GULP energy -198437.261830 kJ/mol
# GULP energy per Si atom -12402.328864 kJ/mol
# Density = 2.043844 g / cm^3
# Si number density = 20.485062 Si / 1000 Ang^3
#
#
#
# Elastic Constant Matrix: (Units=GPa)
#
#
# Indices 1 2 3 4 5 6 
#
# 1 82.1733 26.2251 26.0338 0.0000 -25.4159 0.0000
# 2 26.2251 87.3761 33.2021 0.0000 -3.0303 0.0000
# 3 26.0338 33.2021 75.0856 0.0000 -26.9135 0.0000
# 4 0.0000 0.0000 0.0000 30.5156 0.0000 -11.8505
# 5 -25.4159 -3.0303 -26.9135 0.0000 25.2841 0.0000
# 6 0.0000 0.0000 0.0000 -11.8505 0.0000 30.5859
#
#
#
# Elastic Compliance Matrix: (Units=1/GPa)
#
#
# Indices 1 2 3 4 5 6 
#
# 1 0.020745 -0.007308 0.005173 0.000000 0.025484 0.000000
# 2 -0.007308 0.017354 -0.011363 0.000000 -0.017362 0.000000
# 3 0.005173 -0.011363 0.028983 0.000000 0.034689 0.000000
# 4 0.000000 0.000000 0.000000 0.038574 0.000000 0.014946
# 5 0.025484 -0.017362 0.034689 0.000000 0.100011 0.000000
# 6 0.000000 0.000000 0.000000 0.014946 0.000000 0.038486
#
#
# Mechanical properties :
#
#
# Convention : Reuss Voigt Hill
#
# Bulk Modulus (GPa) = 24.94643 46.17301 35.55972
# Shear Modulus (GPa) = 17.57407 27.88871 22.73139
#
# Velocity S-wave (km/s) = 2.93216 3.69374 3.33476
# Velocity P-wave (km/s) = 4.86495 6.38595 5.67663
#
# Compressibility (1/GPa) = 0.04008589
#
# Stress axis : x y z
#
# Youngs Moduli (GPa) = 48.20470 57.62369 34.50314
#
# Poissons Ratio (x) = 0.42114 -0.17850
# Poissons Ratio (y) = 0.35230 0.39206
# Poissons Ratio (z) = -0.24938 0.65477
#
# Static dielectric constant tensor:
#      x y z
#    x 3.741010 0.000000 -0.148810 
#    y 0.000000 3.704690 0.000000 
#    z -0.148810 0.000000 3.771520 
# 
# 
# High freq. dielectric constant tensor:
#      x y z
#    x 1.805540 0.000000 -0.015140 
#    y 0.000000 1.801400 0.000000 
#    z -0.015140 0.000000 1.798280 
# 
# From -- ./inp_files/7418.got.cif
#   From: 2010.06.25/outbox.cif.g09.slc.cpg/sg9_4_cif.got.tgz:7418.got - 2010.06.27 21:40:51.
