data_PCOD8055031
_publ_section_title
;
Structure prediction by ZEFSAII (Michael W. Deem and Ramdas Pophale) SiO2 
 PCOD8055031
Probable space group: C C
;
_chemical_formula_sum "Si O2"
_cell_formula_units_Z 24
_cell_length_a 6.949864
_cell_length_b 18.241911
_cell_length_c 9.119965
_cell_angle_alpha 90.000000
_cell_angle_beta 112.724073
_cell_angle_gamma 90.000000
_cell_volume 1066.467788
_symmetry_space_group_name_H-M "C C"
_symmetry_group_IT_number 9
_symmetry_cell_setting 'monoclinic'
loop_
_space_group_symop_operation_xyz
x,y,z
x,-y,1/2+z
1/2+x,1/2+y,z
1/2+x,1/2-y,1/2+z
loop_
_atom_site_type_symbol
_atom_site_label
_atom_site_fract_x
_atom_site_fract_y
_atom_site_fract_z
Si Si1 0.518580 0.599168 0.892180
Si Si2 0.177469 0.293420 0.326980
Si Si3 0.205043 0.408928 0.787105
Si Si4 0.761712 0.762868 0.674910
Si Si5 0.899866 0.993302 0.105354
Si Si6 0.341689 0.189067 0.138828
O O1 0.284029 0.632022 0.801160
O O2 0.561435 0.551858 0.757475
O O3 0.528956 0.549608 0.042273
O O4 0.685639 0.665520 0.960037
O O5 0.288896 0.275966 0.511293
O O6 0.211324 0.223993 0.231018
O O7 0.924201 0.302055 0.267253
O O8 0.337763 0.335991 0.784906
O O9 0.235813 0.467182 0.665244
O O10 0.961371 0.385297 0.723733
O O11 0.271904 0.438610 0.963991
O O12 0.514387 0.749802 0.636544
#
# Coordination Sequence:
#
# PCOD8055031 Si02
#       6
#     4   4   4   4   4   4
#     4  11  23  42  69 101 136 183 234 278 347 405
#     4  12  22  43  68  99 137 181 222 294 344 410
#     4   9  21  42  63  98 133 179 230 278 339 407
#     4  10  25  41  65  97 141 171 230 281 347 405
#     4  10  21  42  69  92 140 182 231 284 326 422
#     4  10  24  42  66  99 137 178 233 283 343 409
#
# _framework density 22.504199
#
# number of rings (size 3 to 8) (size 9 to 14) (size 15 to 20)
#    1.000    0.667    3.333    0.000    4.667    2.667 
#    0.000    0.000    0.000    0.000    0.000    0.000 
#    0.000    0.000    0.000    0.000    0.000    0.000 
#
# Total GULP energy -148669.022880 kJ/mol
# GULP energy per Si atom -12389.085240 kJ/mol
# Density = 2.245298 g / cm^3
# Si number density = 22.504199 Si / 1000 Ang^3
#
#
#
# Elastic Constant Matrix: (Units=GPa)
#
#
# Indices 1 2 3 4 5 6 
#
# 1 96.6041 35.2156 39.8270 0.0000 13.4619 0.0000
# 2 35.2156 53.9603 34.0977 0.0000 5.2438 0.0000
# 3 39.8270 34.0977 115.1885 0.0000 -10.4038 0.0000
# 4 0.0000 0.0000 0.0000 47.3003 0.0000 6.0770
# 5 13.4619 5.2438 -10.4038 0.0000 34.3631 0.0000
# 6 0.0000 0.0000 0.0000 6.0770 0.0000 24.1407
#
#
#
# Elastic Compliance Matrix: (Units=1/GPa)
#
#
# Indices 1 2 3 4 5 6 
#
# 1 0.015308 -0.007024 -0.003761 0.000000 -0.006064 0.000000
# 2 -0.007024 0.027150 -0.005895 0.000000 -0.003176 0.000000
# 3 -0.003761 -0.005895 0.012277 0.000000 0.006090 0.000000
# 4 0.000000 0.000000 0.000000 0.021848 0.000000 -0.005500
# 5 -0.006064 -0.003176 0.006090 0.000000 0.033805 0.000000
# 6 0.000000 0.000000 0.000000 -0.005500 0.000000 0.042808
#
#
# Mechanical properties :
#
#
# Convention : Reuss Voigt Hill
#
# Bulk Modulus (GPa) = 46.78604 53.78151 50.28378
# Shear Modulus (GPa) = 25.81560 31.60166 28.70863
#
# Velocity S-wave (km/s) = 3.39063 3.75141 3.57557
# Velocity P-wave (km/s) = 6.01361 6.53562 6.28004
#
# Compressibility (1/GPa) = 0.02137390
#
# Stress axis : x y z
#
# Youngs Moduli (GPa) = 65.32670 36.83238 81.45360
#
# Poissons Ratio (x) = 0.25872 0.30636
# Poissons Ratio (y) = 0.45887 0.48017
# Poissons Ratio (z) = 0.24570 0.21713
#
# Static dielectric constant tensor:
#      x y z
#    x 3.819290 0.000000 -0.071600 
#    y 0.000000 3.928710 0.000000 
#    z -0.071600 0.000000 3.998450 
# 
# 
# High freq. dielectric constant tensor:
#      x y z
#    x 1.873940 0.000000 -0.009990 
#    y 0.000000 1.867550 0.000000 
#    z -0.009990 0.000000 1.894590 
# 
# From -- ./inp_files/5279.got.cif
#   From: 2010.06.25/outbox.cif.g09.slc.cpg/sg9_3_cif.got.tgz:5279.got - 2010.06.27 21:40:51.
