data_PCOD8055833
_publ_section_title
;
Structure prediction by ZEFSAII (Michael W. Deem and Ramdas Pophale) SiO2 
 PCOD8055833
Probable space group: C C
;
_chemical_formula_sum "Si O2"
_cell_formula_units_Z 32
_cell_length_a 10.057203
_cell_length_b 8.944836
_cell_length_c 21.923325
_cell_angle_alpha 90.000000
_cell_angle_beta 134.953924
_cell_angle_gamma 90.000000
_cell_volume 1395.693295
_symmetry_space_group_name_H-M "C C"
_symmetry_group_IT_number 9
_symmetry_cell_setting 'monoclinic'
loop_
_space_group_symop_operation_xyz
x,y,z
x,-y,1/2+z
1/2+x,1/2+y,z
1/2+x,1/2-y,1/2+z
loop_
_atom_site_type_symbol
_atom_site_label
_atom_site_fract_x
_atom_site_fract_y
_atom_site_fract_z
Si Si1 0.416980 0.034363 0.751050
Si Si2 0.096072 0.296003 0.882883
Si Si3 0.478987 0.279851 0.856896
Si Si4 0.889458 0.958314 0.255460
Si Si5 0.396674 0.834511 0.944565
Si Si6 0.383561 0.297277 0.659496
Si Si7 0.616038 0.285899 0.623026
Si Si8 0.475055 0.179603 0.992319
O O1 0.587890 0.939985 0.835801
O O2 0.256052 0.924317 0.674861
O O3 0.356397 0.146599 0.786425
O O4 0.474231 0.141779 0.713322
O O5 0.309286 0.269123 0.974152
O O6 0.947225 0.308488 0.889809
O O7 0.053689 0.156183 0.825293
O O8 0.361719 0.432367 0.805269
O O9 0.683511 0.288730 0.889816
O O10 0.504149 0.255442 0.936144
O O11 0.961523 0.062490 0.223268
O O12 0.704196 0.868481 0.176391
O O13 0.431273 0.005334 0.973633
O O14 0.542282 0.732206 0.030418
O O15 0.436385 0.321200 0.606608
O O16 0.158148 0.292402 0.592457
#
# Coordination Sequence:
#
# PCOD8055833 Si02
#       8
#     4   4   4   4   4   4   4   4
#     4  10  26  43  66 107 133 179 229 290 342 410
#     4  11  26  44  73 103 142 184 231 287 351 408
#     4  11  24  44  73  99 141 185 232 283 346 416
#     4  10  24  43  68 101 137 182 224 290 340 415
#     4  12  25  48  67 106 147 180 231 291 350 413
#     4  11  25  46  71 100 142 182 234 284 351 413
#     4  11  25  46  71  99 145 184 224 290 355 406
#     4  12  25  46  69 107 139 186 235 285 347 417
#
# _framework density 22.927674
#
# number of rings (size 3 to 8) (size 9 to 14) (size 15 to 20)
#    0.000    1.000    5.000    0.000   10.500    4.000 
#    0.000    0.000    0.000    0.000    0.000    0.000 
#    0.000    0.000    0.000    0.000    0.000    0.000 
#
# Total GULP energy -198313.929366 kJ/mol
# GULP energy per Si atom -12394.620585 kJ/mol
# Density = 2.287549 g / cm^3
# Si number density = 22.927674 Si / 1000 Ang^3
#
#
#
# Elastic Constant Matrix: (Units=GPa)
#
#
# Indices 1 2 3 4 5 6 
#
# 1 80.3336 7.9682 3.5566 0.0000 -5.6878 0.0000
# 2 7.9682 131.3068 24.2127 0.0000 -6.3640 0.0000
# 3 3.5566 24.2127 82.4629 0.0000 -5.6969 0.0000
# 4 0.0000 0.0000 0.0000 38.0473 0.0000 -0.8650
# 5 -5.6878 -6.3640 -5.6969 0.0000 32.8688 0.0000
# 6 0.0000 0.0000 0.0000 -0.8650 0.0000 16.1462
#
#
#
# Elastic Compliance Matrix: (Units=1/GPa)
#
#
# Indices 1 2 3 4 5 6 
#
# 1 0.012664 -0.000629 -0.000221 0.000000 0.002031 0.000000
# 2 -0.000629 0.008127 -0.002285 0.000000 0.001069 0.000000
# 3 -0.000221 -0.002285 0.012929 0.000000 0.001760 0.000000
# 4 0.000000 0.000000 0.000000 0.026315 0.000000 0.001410
# 5 0.002031 0.001069 0.001760 0.000000 0.031287 0.000000
# 6 0.000000 0.000000 0.000000 0.001410 0.000000 0.062009
#
#
# Mechanical properties :
#
#
# Convention : Reuss Voigt Hill
#
# Bulk Modulus (GPa) = 36.43166 40.61981 38.52574
# Shear Modulus (GPa) = 29.62909 34.63685 32.13297
#
# Velocity S-wave (km/s) = 3.59874 3.89099 3.74771
# Velocity P-wave (km/s) = 5.76127 6.15966 5.96379
#
# Compressibility (1/GPa) = 0.02744865
#
# Stress axis : x y z
#
# Youngs Moduli (GPa) = 78.96328 123.04452 77.34658
#
# Poissons Ratio (x) = 0.07743 0.01710
# Poissons Ratio (y) = 0.04969 0.17676
# Poissons Ratio (z) = 0.01746 0.28120
#
# Static dielectric constant tensor:
#      x y z
#    x 3.715970 0.000000 -0.031630 
#    y 0.000000 4.430500 0.000000 
#    z -0.031630 0.000000 4.258040 
# 
# 
# High freq. dielectric constant tensor:
#      x y z
#    x 1.874600 0.000000 -0.003330 
#    y 0.000000 1.924530 0.000000 
#    z -0.003330 0.000000 1.918710 
# 
# From -- ./inp_files/29858.got.cif
#   From: 2010.06.25/outbox.cif.g09.slc.cpg/sg9_15_cif.got.tgz:29858.got - 2010.06.27 21:40:51.
