data_PCOD8055701
_publ_section_title
;
Structure prediction by ZEFSAII (Michael W. Deem and Ramdas Pophale) SiO2 
 PCOD8055701
Probable space group: C C
;
_chemical_formula_sum "Si O2"
_cell_formula_units_Z 32
_cell_length_a 15.604291
_cell_length_b 17.623710
_cell_length_c 9.839750
_cell_angle_alpha 90.000000
_cell_angle_beta 147.447657
_cell_angle_gamma 90.000000
_cell_volume 1456.009194
_symmetry_space_group_name_H-M "C C"
_symmetry_group_IT_number 9
_symmetry_cell_setting 'monoclinic'
loop_
_space_group_symop_operation_xyz
x,y,z
x,-y,1/2+z
1/2+x,1/2+y,z
1/2+x,1/2-y,1/2+z
loop_
_atom_site_type_symbol
_atom_site_label
_atom_site_fract_x
_atom_site_fract_y
_atom_site_fract_z
Si Si1 0.395390 0.010273 0.421810
Si Si2 0.897780 0.062603 0.325461
Si Si3 0.839813 0.665022 0.226508
Si Si4 0.950386 0.921473 0.587787
Si Si5 0.253661 0.177105 0.532883
Si Si6 0.711205 0.364762 0.265903
Si Si7 0.542175 0.922970 0.374913
Si Si8 0.702757 0.210843 0.736848
O O1 0.298897 0.082855 0.235180
O O2 0.517419 0.031453 0.703067
O O3 0.269678 0.949568 0.308393
O O4 0.503901 0.977033 0.448812
O O5 0.914135 0.044529 0.187398
O O6 0.022236 0.127651 0.537598
O O7 0.930564 0.985433 0.449082
O O8 0.726769 0.099087 0.130576
O O9 0.735124 0.725634 0.167319
O O10 0.027270 0.678374 0.487258
O O11 0.794245 0.670233 0.007893
O O12 0.829250 0.855122 0.386384
O O13 0.130642 0.889254 0.824418
O O14 0.245240 0.190821 0.683842
O O15 0.431349 0.151556 0.727507
O O16 0.217604 0.255494 0.408741
#
# Coordination Sequence:
#
# PCOD8055701 Si02
#       8
#     4   4   4   4   4   4   4   4
#     4  11  21  39  69 100 134 170 223 277 335 387
#     4  11  24  41  67 102 134 169 225 283 332 388
#     4  12  25  45  70  98 135 180 221 274 334 401
#     4  11  25  44  67 103 133 173 223 278 334 401
#     4  10  23  45  69  96 135 185 222 266 332 406
#     4  10  25  44  69 101 136 172 228 279 333 387
#     4  11  20  37  65 101 134 174 220 280 331 388
#     4  12  25  47  70  95 137 179 228 265 335 418
#
# _framework density 21.977882999999999
#
# number of rings (size 3 to 8) (size 9 to 14) (size 15 to 20)
#    0.000    1.000    3.750    3.000    3.500    0.000 
#    4.500    0.000    0.000    0.000    0.000    0.000 
#    0.000    0.000    0.000    0.000    0.000    0.000 
#
# Total GULP energy -198484.624097 kJ/mol
# GULP energy per Si atom -12405.289006 kJ/mol
# Density = 2.192786 g / cm^3
# Si number density = 21.977883 Si / 1000 Ang^3
#
#
#
# Elastic Constant Matrix: (Units=GPa)
#
#
# Indices 1 2 3 4 5 6 
#
# 1 92.3410 29.5081 47.6093 0.0000 -14.0436 0.0000
# 2 29.5081 47.8234 17.7004 0.0000 -13.8493 0.0000
# 3 47.6093 17.7004 113.2208 0.0000 -10.8333 0.0000
# 4 0.0000 0.0000 0.0000 28.6339 0.0000 -0.6463
# 5 -14.0436 -13.8493 -10.8333 0.0000 46.5293 0.0000
# 6 0.0000 0.0000 0.0000 -0.6463 0.0000 22.9311
#
#
#
# Elastic Compliance Matrix: (Units=1/GPa)
#
#
# Indices 1 2 3 4 5 6 
#
# 1 0.016335 -0.007630 -0.005545 0.000000 0.001368 0.000000
# 2 -0.007630 0.027483 -0.000538 0.000000 0.005752 0.000000
# 3 -0.005545 -0.000538 0.011325 0.000000 0.000803 0.000000
# 4 0.000000 0.000000 0.000000 0.034946 0.000000 0.000985
# 5 0.001368 0.005752 0.000803 0.000000 0.023804 0.000000
# 6 0.000000 0.000000 0.000000 0.000985 0.000000 0.043637
#
#
# Mechanical properties :
#
#
# Convention : Reuss Voigt Hill
#
# Bulk Modulus (GPa) = 36.07928 49.22452 42.65190
# Shear Modulus (GPa) = 25.74749 30.19004 27.96876
#
# Velocity S-wave (km/s) = 3.42646 3.71031 3.57120
# Velocity P-wave (km/s) = 5.66621 6.38757 6.03768
#
# Compressibility (1/GPa) = 0.02771674
#
# Stress axis : x y z
#
# Youngs Moduli (GPa) = 61.21946 36.38593 88.30157
#
# Poissons Ratio (x) = 0.27764 0.48963
# Poissons Ratio (y) = 0.46713 0.04747
# Poissons Ratio (z) = 0.33946 0.01956
#
# Static dielectric constant tensor:
#      x y z
#    x 4.185120 0.000000 -0.035130 
#    y 0.000000 3.785000 0.000000 
#    z -0.035130 0.000000 4.167520 
# 
# 
# High freq. dielectric constant tensor:
#      x y z
#    x 1.880800 0.000000 -0.001130 
#    y 0.000000 1.848690 0.000000 
#    z -0.001130 0.000000 1.874980 
# 
# From -- ./inp_files/9970.got.cif
#   From: 2010.06.25/outbox.cif.g09.slc.cpg/sg9_5_cif.got.tgz:9970.got - 2010.06.27 21:40:51.
