data_PCOD8055370
_publ_section_title
;
Structure prediction by ZEFSAII (Michael W. Deem and Ramdas Pophale) SiO2 
 PCOD8055370
Probable space group: C C
;
_chemical_formula_sum "Si O2"
_cell_formula_units_Z 32
_cell_length_a 6.743413
_cell_length_b 17.648096
_cell_length_c 17.021079
_cell_angle_alpha 90.000000
_cell_angle_beta 129.578598
_cell_angle_gamma 90.000000
_cell_volume 1561.273411
_symmetry_space_group_name_H-M "C C"
_symmetry_group_IT_number 9
_symmetry_cell_setting 'monoclinic'
loop_
_space_group_symop_operation_xyz
x,y,z
x,-y,1/2+z
1/2+x,1/2+y,z
1/2+x,1/2-y,1/2+z
loop_
_atom_site_type_symbol
_atom_site_label
_atom_site_fract_x
_atom_site_fract_y
_atom_site_fract_z
Si Si1 0.377380 0.578764 0.526250
Si Si2 0.844553 0.835606 0.718801
Si Si3 0.718501 0.077737 0.031703
Si Si4 0.128778 0.100091 0.855201
Si Si5 0.830634 0.831000 0.415891
Si Si6 0.748008 0.666407 0.724080
Si Si7 0.976618 0.943422 0.875259
Si Si8 0.865469 0.662708 0.416230
O O1 0.314618 0.508360 0.567810
O O2 0.635964 0.619403 0.621947
O O3 0.400647 0.543065 0.445643
O O4 0.151847 0.641034 0.463513
O O5 0.739221 0.874526 0.615370
O O6 0.705726 0.755312 0.696832
O O7 0.779316 0.887722 0.779012
O O8 0.159099 0.830333 0.791542
O O9 0.423477 0.077398 0.933925
O O10 0.885408 0.116535 0.004785
O O11 0.084984 0.140873 0.760073
O O12 0.044352 0.157337 0.902623
O O13 0.970051 0.022440 0.826050
O O14 0.549951 0.850087 0.309238
O O15 0.859884 0.745247 0.455482
O O16 0.258349 0.902665 0.947660
#
# Coordination Sequence:
#
# PCOD8055370 Si02
#       8
#     4   4   4   4   4   4   4   4
#     4  12  23  40  67  94 124 173 207 259 320 370
#     4   9  22  44  61  94 130 162 204 271 301 376
#     4  11  22  42  65  94 129 161 216 254 316 375
#     4  11  22  44  65  92 127 167 210 260 315 370
#     4  10  23  43  65  93 124 172 206 264 312 375
#     4  10  25  40  66  95 128 161 215 262 311 375
#     4  10  22  43  62  90 130 165 208 260 311 370
#     4   9  23  42  61  88 132 161 208 262 312 369
#
# _framework density 20.496089999999999
#
# number of rings (size 3 to 8) (size 9 to 14) (size 15 to 20)
#    0.750    1.000    2.500    0.750    5.250    1.000 
#    6.750    0.000    0.000    0.000    0.000    0.000 
#    0.000    0.000    0.000    0.000    0.000    0.000 
#
# Total GULP energy -198291.134092 kJ/mol
# GULP energy per Si atom -12393.195881 kJ/mol
# Density = 2.044944 g / cm^3
# Si number density = 20.496090 Si / 1000 Ang^3
#
#
#
# Elastic Constant Matrix: (Units=GPa)
#
#
# Indices 1 2 3 4 5 6 
#
# 1 64.7656 29.4704 16.3375 0.0000 -13.0142 0.0000
# 2 29.4704 150.8559 51.3860 0.0000 -6.4144 0.0000
# 3 16.3375 51.3860 86.7571 0.0000 -17.8733 0.0000
# 4 0.0000 0.0000 0.0000 29.1732 0.0000 -2.9389
# 5 -13.0142 -6.4144 -17.8733 0.0000 28.1567 0.0000
# 6 0.0000 0.0000 0.0000 -2.9389 0.0000 21.6270
#
#
#
# Elastic Compliance Matrix: (Units=1/GPa)
#
#
# Indices 1 2 3 4 5 6 
#
# 1 0.018503 -0.003314 0.000097 0.000000 0.007859 0.000000
# 2 -0.003314 0.008947 -0.005259 0.000000 -0.002831 0.000000
# 3 0.000097 -0.005259 0.016549 0.000000 0.009352 0.000000
# 4 0.000000 0.000000 0.000000 0.034754 0.000000 0.004723
# 5 0.007859 -0.002831 0.009352 0.000000 0.044440 0.000000
# 6 0.000000 0.000000 0.000000 0.004723 0.000000 0.046880
#
#
# Mechanical properties :
#
#
# Convention : Reuss Voigt Hill
#
# Bulk Modulus (GPa) = 36.96913 55.19626 46.08270
# Shear Modulus (GPa) = 25.50511 29.47036 27.48773
#
# Velocity S-wave (km/s) = 3.53142 3.79602 3.66610
# Velocity P-wave (km/s) = 5.89103 6.79718 6.36026
#
# Compressibility (1/GPa) = 0.02704959
#
# Stress axis : x y z
#
# Youngs Moduli (GPa) = 54.04609 111.76906 60.42493
#
# Poissons Ratio (x) = 0.37036 -0.00589
# Poissons Ratio (y) = 0.17909 0.31775
# Poissons Ratio (z) = -0.00526 0.58775
#
# Static dielectric constant tensor:
#      x y z
#    x 3.508280 0.000000 -0.031460 
#    y 0.000000 3.888910 0.000000 
#    z -0.031460 0.000000 3.449860 
# 
# 
# High freq. dielectric constant tensor:
#      x y z
#    x 1.780690 0.000000 -0.001860 
#    y 0.000000 1.823030 0.000000 
#    z -0.001860 0.000000 1.782150 
# 
# From -- ./inp_files/22094.got.cif
#   From: 2010.06.25/outbox.cif.g09.slc.cpg/sg9_12_cif.got.tgz:22094.got - 2010.06.27 21:40:51.
