data_PCOD8055550
_publ_section_title
;
Structure prediction by ZEFSAII (Michael W. Deem and Ramdas Pophale) SiO2 
 PCOD8055550
Probable space group: C C
;
_chemical_formula_sum "Si O2"
_cell_formula_units_Z 32
_cell_length_a 22.108844
_cell_length_b 11.349499
_cell_length_c 16.769854
_cell_angle_alpha 90.000000
_cell_angle_beta 159.790357
_cell_angle_gamma 90.000000
_cell_volume 1453.666993
_symmetry_space_group_name_H-M "C C"
_symmetry_group_IT_number 9
_symmetry_cell_setting 'monoclinic'
loop_
_space_group_symop_operation_xyz
x,y,z
x,-y,1/2+z
1/2+x,1/2+y,z
1/2+x,1/2-y,1/2+z
loop_
_atom_site_type_symbol
_atom_site_label
_atom_site_fract_x
_atom_site_fract_y
_atom_site_fract_z
Si Si1 0.014110 0.910191 0.876800
Si Si2 0.247816 0.516946 0.324911
Si Si3 0.246498 0.308650 0.427666
Si Si4 0.485810 0.661945 0.520481
Si Si5 0.780612 0.631451 0.003564
Si Si6 0.453339 0.631121 0.714444
Si Si7 0.376053 0.085047 0.881676
Si Si8 0.393215 0.920450 0.053233
O O1 0.922776 0.829476 0.697302
O O2 0.980905 0.849274 0.920025
O O3 0.224606 0.915686 0.127552
O O4 0.949943 0.045830 0.787573
O O5 0.259211 0.379596 0.360326
O O6 0.382867 0.546868 0.422982
O O7 0.291998 0.590622 0.459582
O O8 0.054195 0.551906 0.056468
O O9 0.243538 0.172893 0.395398
O O10 0.076660 0.350648 0.268166
O O11 0.681590 0.658948 0.797565
O O12 0.392871 0.781344 0.436162
O O13 0.638202 0.616055 0.897334
O O14 0.916389 0.734995 0.194886
O O15 0.898961 0.515116 0.133167
O O16 0.338709 0.989081 0.905032
#
# Coordination Sequence:
#
# PCOD8055550 Si02
#       8
#     4   4   4   4   4   4   4   4
#     4  11  25  41  63 102 141 164 223 292 345 382
#     4   9  20  40  65  91 130 176 226 266 335 409
#     4  10  26  42  64  95 135 178 225 282 343 402
#     4  11  21  39  72 103 129 175 227 284 331 394
#     4  11  22  42  74  95 130 181 234 268 331 418
#     4  10  23  41  66 102 134 174 222 283 338 398
#     4  11  21  41  65 100 131 172 228 275 327 398
#     4  11  24  44  69  94 130 186 235 270 330 419
#
# _framework density 22.013293000000001
#
# number of rings (size 3 to 8) (size 9 to 14) (size 15 to 20)
#    0.000    1.500    2.500    2.250   10.500    0.000 
#    2.250    3.750    0.000    0.000    0.000    0.000 
#    0.000    0.000    0.000    0.000    0.000    0.000 
#
# Total GULP energy -198287.645090 kJ/mol
# GULP energy per Si atom -12392.977818 kJ/mol
# Density = 2.196319 g / cm^3
# Si number density = 22.013293 Si / 1000 Ang^3
#
#
#
# Elastic Constant Matrix: (Units=GPa)
#
#
# Indices 1 2 3 4 5 6 
#
# 1 63.3112 42.0250 28.1902 -0.0003 5.4327 -0.0004
# 2 42.0250 151.7007 19.7018 -0.0001 12.4444 -0.0002
# 3 28.1902 19.7018 95.0399 -0.0001 9.2107 -0.0003
# 4 -0.0003 -0.0001 -0.0001 31.9357 -0.0002 7.0449
# 5 5.4327 12.4444 9.2107 -0.0002 23.5241 -0.0003
# 6 -0.0004 -0.0002 -0.0003 7.0449 -0.0003 40.9279
#
#
#
# Elastic Compliance Matrix: (Units=1/GPa)
#
#
# Indices 1 2 3 4 5 6 
#
# 1 0.021701 -0.005311 -0.005325 0.000000 -0.000118 0.000000
# 2 -0.005311 0.008307 0.000167 0.000000 -0.003233 0.000000
# 3 -0.005325 0.000167 0.012428 0.000000 -0.003724 0.000000
# 4 0.000000 0.000000 0.000000 0.032549 0.000000 -0.005603
# 5 -0.000118 -0.003233 -0.003724 0.000000 0.045705 0.000000
# 6 0.000000 0.000000 0.000000 -0.005603 0.000000 0.025398
#
#
# Mechanical properties :
#
#
# Convention : Reuss Voigt Hill
#
# Bulk Modulus (GPa) = 46.51559 54.43175 50.47367
# Shear Modulus (GPa) = 28.70426 33.95319 31.32872
#
# Velocity S-wave (km/s) = 3.61494 3.93159 3.77659
# Velocity P-wave (km/s) = 6.21291 6.73724 6.48038
#
# Compressibility (1/GPa) = 0.02149817
#
# Stress axis : x y z
#
# Youngs Moduli (GPa) = 46.08088 120.38512 80.46568
#
# Poissons Ratio (x) = 0.63931 0.42844
# Poissons Ratio (y) = 0.24472 -0.01340
# Poissons Ratio (z) = 0.24536 -0.02005
#
# Static dielectric constant tensor:
#      x y z
#    x 3.619480 0.000000 0.187840 
#    y 0.000000 4.175140 0.000000 
#    z 0.187840 0.000000 3.968090 
# 
# 
# High freq. dielectric constant tensor:
#      x y z
#    x 1.843470 0.000000 0.023620 
#    y 0.000000 1.876310 0.000000 
#    z 0.023620 0.000000 1.854440 
# 
# From -- ./inp_files/12189.got.cif
#   From: 2010.06.25/outbox.cif.g09.slc.cpg/sg9_7_cif.got.tgz:12189.got - 2010.06.27 21:40:51.
