data_PCOD8055093
_publ_section_title
;
Structure prediction by ZEFSAII (Michael W. Deem and Ramdas Pophale) SiO2 
 PCOD8055093
Probable space group: C C
;
_chemical_formula_sum "Si O2"
_cell_formula_units_Z 32
_cell_length_a 7.149439
_cell_length_b 15.739302
_cell_length_c 13.843131
_cell_angle_alpha 90.000000
_cell_angle_beta 101.651128
_cell_angle_gamma 90.000000
_cell_volume 1525.632158
_symmetry_space_group_name_H-M "C C"
_symmetry_group_IT_number 9
_symmetry_cell_setting 'monoclinic'
loop_
_space_group_symop_operation_xyz
x,y,z
x,-y,1/2+z
1/2+x,1/2+y,z
1/2+x,1/2-y,1/2+z
loop_
_atom_site_type_symbol
_atom_site_label
_atom_site_fract_x
_atom_site_fract_y
_atom_site_fract_z
Si Si1 0.074610 0.450365 0.798570
Si Si2 0.206693 0.281301 0.711903
Si Si3 0.394224 0.650215 0.728798
Si Si4 0.721584 0.123933 0.021894
Si Si5 0.455167 0.533430 0.907063
Si Si6 0.088854 0.457229 0.109118
Si Si7 0.608893 0.763692 0.342441
Si Si8 0.291721 0.092039 0.433658
O O1 0.109313 0.358660 0.756857
O O2 0.263312 0.478022 0.875435
O O3 0.023738 0.520209 0.711485
O O4 0.896966 0.445190 0.851227
O O5 0.262586 0.307395 0.609035
O O6 0.396110 0.253813 0.786403
O O7 0.055136 0.204987 0.692305
O O8 0.497444 0.588321 0.815968
O O9 0.288356 0.594340 0.635464
O O10 0.237733 0.708805 0.765461
O O11 0.608250 0.043757 0.051434
O O12 0.924545 0.094812 0.996838
O O13 0.595348 0.162809 0.921822
O O14 0.630018 0.473334 0.948520
O O15 0.933299 0.398259 0.039907
O O16 0.702348 0.682387 0.401891
#
# Coordination Sequence:
#
# PCOD8055093 Si02
#       8
#     4   4   4   4   4   4   4   4
#     4  10  21  44  63  96 137 166 222 277 329 398
#     4  11  23  43  69  94 135 179 214 280 340 390
#     4  10  24  44  64  93 133 173 222 272 332 401
#     4  10  24  45  62  98 137 170 227 278 322 405
#     4  10  22  43  66  94 131 174 221 275 328 397
#     4  10  24  43  67  97 133 174 225 280 325 405
#     4  11  25  43  66  99 135 173 220 275 339 402
#     4  12  23  41  71  99 129 181 215 277 343 392
#
# _framework density 20.974912
#
# number of rings (size 3 to 8) (size 9 to 14) (size 15 to 20)
#    0.000    1.500    3.750    0.000    3.500    3.000 
#    0.000    0.000    0.000    0.000    0.000    0.000 
#    0.000    0.000    0.000    0.000    0.000    0.000 
#
# Total GULP energy -198445.238791 kJ/mol
# GULP energy per Si atom -12402.827424 kJ/mol
# Density = 2.092717 g / cm^3
# Si number density = 20.974912 Si / 1000 Ang^3
#
#
#
# Elastic Constant Matrix: (Units=GPa)
#
#
# Indices 1 2 3 4 5 6 
#
# 1 85.1684 39.3230 50.6980 0.0000 5.0253 0.0000
# 2 39.3230 90.9548 35.1525 0.0000 8.5020 0.0000
# 3 50.6980 35.1525 114.4834 0.0000 4.9385 0.0000
# 4 0.0000 0.0000 0.0000 32.5772 0.0000 -4.7570
# 5 5.0253 8.5020 4.9385 0.0000 26.6376 0.0000
# 6 0.0000 0.0000 0.0000 -4.7570 0.0000 37.9659
#
#
#
# Elastic Compliance Matrix: (Units=1/GPa)
#
#
# Indices 1 2 3 4 5 6 
#
# 1 0.017968 -0.005278 -0.006313 0.000000 -0.000535 0.000000
# 2 -0.005278 0.014320 -0.001921 0.000000 -0.003219 0.000000
# 3 -0.006313 -0.001921 0.012140 0.000000 -0.000447 0.000000
# 4 0.000000 0.000000 0.000000 0.031268 0.000000 0.003918
# 5 -0.000535 -0.003219 -0.000447 0.000000 0.038752 0.000000
# 6 0.000000 0.000000 0.000000 0.003918 0.000000 0.026830
#
#
# Mechanical properties :
#
#
# Convention : Reuss Voigt Hill
#
# Bulk Modulus (GPa) = 57.46106 60.10593 58.78350
# Shear Modulus (GPa) = 28.71858 30.46499 29.59179
#
# Velocity S-wave (km/s) = 3.70427 3.81524 3.76016
# Velocity P-wave (km/s) = 6.76388 6.93732 6.85115
#
# Compressibility (1/GPa) = 0.01740309
#
# Stress axis : x y z
#
# Youngs Moduli (GPa) = 55.65426 69.83433 82.37475
#
# Poissons Ratio (x) = 0.36861 0.52005
# Poissons Ratio (y) = 0.29376 0.15821
# Poissons Ratio (z) = 0.35136 0.13412
#
# Static dielectric constant tensor:
#      x y z
#    x 3.623480 0.000000 -0.130580 
#    y 0.000000 4.028250 0.000000 
#    z -0.130580 0.000000 3.930980 
# 
# 
# High freq. dielectric constant tensor:
#      x y z
#    x 1.808450 0.000000 -0.007560 
#    y 0.000000 1.836640 0.000000 
#    z -0.007560 0.000000 1.827570 
# 
# From -- ./inp_files/21932.got.cif
#   From: 2010.06.25/outbox.cif.g09.slc.cpg/sg9_11_cif.got.tgz:21932.got - 2010.06.27 21:40:51.
