data_PCOD8055585
_publ_section_title
;
Structure prediction by ZEFSAII (Michael W. Deem and Ramdas Pophale) SiO2 
 PCOD8055585
Probable space group: C C
;
_chemical_formula_sum "Si O2"
_cell_formula_units_Z 28
_cell_length_a 8.689229
_cell_length_b 17.302906
_cell_length_c 7.596854
_cell_angle_alpha 90.000000
_cell_angle_beta 95.531876
_cell_angle_gamma 90.000000
_cell_volume 1136.859293
_symmetry_space_group_name_H-M "C C"
_symmetry_group_IT_number 9
_symmetry_cell_setting 'monoclinic'
loop_
_space_group_symop_operation_xyz
x,y,z
x,-y,1/2+z
1/2+x,1/2+y,z
1/2+x,1/2-y,1/2+z
loop_
_atom_site_type_symbol
_atom_site_label
_atom_site_fract_x
_atom_site_fract_y
_atom_site_fract_z
Si Si1 0.398180 0.342127 0.174290
Si Si2 0.332094 0.078654 0.129239
Si Si3 0.471455 0.927672 0.992517
Si Si4 0.278039 0.405072 0.828863
Si Si5 0.986134 0.110839 0.052590
Si Si6 0.072717 0.295422 0.592545
Si Si7 0.079764 0.721625 0.690769
O O1 0.399585 0.392699 0.353474
O O2 0.540405 0.283394 0.195202
O O3 0.246415 0.290082 0.122514
O O4 0.403241 0.393922 0.998479
O O5 0.334502 0.090329 0.340147
O O6 0.155417 0.073813 0.046281
O O7 0.423738 0.149400 0.053519
O O8 0.425599 0.000309 0.103208
O O9 0.629638 0.948625 0.898039
O O10 0.481208 0.853305 0.120403
O O11 0.381589 0.440715 0.678497
O O12 0.211234 0.329078 0.723787
O O13 0.999408 0.199504 0.120187
O O14 0.119248 0.275376 0.400665
#
# Coordination Sequence:
#
# PCOD8055585 Si02
#       7
#     4   4   4   4   4   4   4
#     4  11  21  39  64 107 144 177 230 297 365 404
#     4  11  24  45  68 100 140 193 241 287 356 441
#     4  10  24  47  69  97 145 198 237 280 365 442
#     4  10  23  42  67 100 138 186 235 292 349 429
#     4  12  23  41  71 109 142 176 242 311 351 411
#     4  11  21  39  68  99 141 187 231 287 360 431
#     4  11  22  39  71 104 142 185 232 298 356 420
#
# _framework density 24.629255000000001
#
# number of rings (size 3 to 8) (size 9 to 14) (size 15 to 20)
#    0.000    1.143    4.286    3.429    0.000    0.000 
#    5.143    2.857    3.143    0.000    0.000    0.000 
#    0.000    0.000    0.000    0.000    0.000    0.000 
#
# Total GULP energy -173464.197833 kJ/mol
# GULP energy per Si atom -12390.299845 kJ/mol
# Density = 2.457320 g / cm^3
# Si number density = 24.629255 Si / 1000 Ang^3
#
#
#
# Elastic Constant Matrix: (Units=GPa)
#
#
# Indices 1 2 3 4 5 6 
#
# 1 76.7802 15.9074 22.5674 0.0000 4.5050 0.0000
# 2 15.9074 64.2108 24.8157 0.0000 -6.0191 0.0000
# 3 22.5674 24.8157 162.4608 0.0000 6.9823 0.0000
# 4 0.0000 0.0000 0.0000 23.4680 0.0000 -2.5919
# 5 4.5050 -6.0191 6.9823 0.0000 39.9348 0.0000
# 6 0.0000 0.0000 0.0000 -2.5919 0.0000 29.6560
#
#
#
# Elastic Compliance Matrix: (Units=1/GPa)
#
#
# Indices 1 2 3 4 5 6 
#
# 1 0.014198 -0.003142 -0.001414 0.000000 -0.001828 0.000000
# 2 -0.003142 0.017601 -0.002399 0.000000 0.003427 0.000000
# 3 -0.001414 -0.002399 0.006778 0.000000 -0.001387 0.000000
# 4 0.000000 0.000000 0.000000 0.043027 0.000000 0.003760
# 5 -0.001828 0.003427 -0.001387 0.000000 0.026006 0.000000
# 6 0.000000 0.000000 0.000000 0.003760 0.000000 0.034049
#
#
# Mechanical properties :
#
#
# Convention : Reuss Voigt Hill
#
# Bulk Modulus (GPa) = 40.54190 47.78142 44.16166
# Shear Modulus (GPa) = 30.52683 34.62251 32.57467
#
# Velocity S-wave (km/s) = 3.52441 3.75340 3.64070
# Velocity P-wave (km/s) = 5.74966 6.18275 5.97013
#
# Compressibility (1/GPa) = 0.02466584
#
# Stress axis : x y z
#
# Youngs Moduli (GPa) = 70.43240 56.81604 147.54028
#
# Poissons Ratio (x) = 0.17854 0.20857
# Poissons Ratio (y) = 0.22133 0.35399
# Poissons Ratio (z) = 0.09957 0.13632
#
# Static dielectric constant tensor:
#      x y z
#    x 4.366880 0.000000 -0.136760 
#    y 0.000000 4.054040 0.000000 
#    z -0.136760 0.000000 4.648590 
# 
# 
# High freq. dielectric constant tensor:
#      x y z
#    x 1.975190 0.000000 0.000290 
#    y 0.000000 1.948210 0.000000 
#    z 0.000290 0.000000 2.000300 
# 
# From -- ./inp_files/5390.got.cif
#   From: 2010.06.25/outbox.cif.g09.slc.cpg/sg9_3_cif.got.tgz:5390.got - 2010.06.27 21:40:51.
