data_PCOD8055549
_publ_section_title
;
Structure prediction by ZEFSAII (Michael W. Deem and Ramdas Pophale) SiO2 
 PCOD8055549
Probable space group: C C
;
_chemical_formula_sum "Si O2"
_cell_formula_units_Z 32
_cell_length_a 8.977114
_cell_length_b 30.071371
_cell_length_c 5.293555
_cell_angle_alpha 90.000000
_cell_angle_beta 100.991987
_cell_angle_gamma 90.000000
_cell_volume 1402.800064
_symmetry_space_group_name_H-M "C C"
_symmetry_group_IT_number 9
_symmetry_cell_setting 'monoclinic'
loop_
_space_group_symop_operation_xyz
x,y,z
x,-y,1/2+z
1/2+x,1/2+y,z
1/2+x,1/2-y,1/2+z
loop_
_atom_site_type_symbol
_atom_site_label
_atom_site_fract_x
_atom_site_fract_y
_atom_site_fract_z
Si Si1 0.960540 0.519154 0.906020
Si Si2 0.707280 0.668228 0.559502
Si Si3 0.451161 0.879533 0.379710
Si Si4 0.755231 0.882006 0.223501
Si Si5 0.883748 0.839544 0.760654
Si Si6 0.801747 0.981573 0.384855
Si Si7 0.955582 0.305425 0.773372
Si Si8 0.243773 0.746732 0.376536
O O1 0.880522 0.508907 0.608104
O O2 0.955278 0.570611 0.989205
O O3 0.131258 0.502058 0.900994
O O4 0.771322 0.630981 0.774498
O O5 0.563712 0.651974 0.355255
O O6 0.862661 0.669933 0.455043
O O7 0.672073 0.715564 0.674018
O O8 0.572650 0.877798 0.187101
O O9 0.514318 0.842101 0.592873
O O10 0.841821 0.854082 0.466122
O O11 0.810623 0.931875 0.285243
O O12 0.797623 0.865834 0.956652
O O13 0.851149 0.786899 0.757132
O O14 0.880587 0.988377 0.687342
O O15 0.841880 0.268427 0.626638
O O16 0.101596 0.281017 0.942399
#
# Coordination Sequence:
#
# PCOD8055549 Si02
#       8
#     4   4   4   4   4   4   4   4
#     4   9  19  34  62  95 129 162 209 269 325 384
#     4  11  27  41  64  92 132 177 218 276 322 391
#     4  10  23  41  65  98 130 172 219 273 330 388
#     4  11  24  41  68  98 130 170 217 271 325 391
#     4  12  26  43  65  95 132 173 218 268 322 388
#     4   9  17  34  61  94 127 159 206 266 324 381
#     4  11  24  41  64  92 131 174 222 273 324 388
#     4  11  24  41  61  94 125 175 221 266 324 379
#
# _framework density 22.811519000000001
#
# number of rings (size 3 to 8) (size 9 to 14) (size 15 to 20)
#    0.000    1.500    2.500    1.500    8.750    2.000 
#    0.000    0.000    0.000    4.500    0.000    0.000 
#    0.000    0.000    0.000    0.000    0.000    0.000 
#
# Total GULP energy -198262.765202 kJ/mol
# GULP energy per Si atom -12391.422825 kJ/mol
# Density = 2.275960 g / cm^3
# Si number density = 22.811519 Si / 1000 Ang^3
#
#
#
# Elastic Constant Matrix: (Units=GPa)
#
#
# Indices 1 2 3 4 5 6 
#
# 1 81.4345 17.4879 1.6074 0.0000 9.0446 0.0000
# 2 17.4879 101.7048 17.1737 0.0000 -0.1322 0.0000
# 3 1.6074 17.1737 84.0747 0.0000 -2.8070 0.0000
# 4 0.0000 0.0000 0.0000 17.7177 0.0000 -0.1666
# 5 9.0446 -0.1322 -2.8070 0.0000 32.6292 0.0000
# 6 0.0000 0.0000 0.0000 -0.1666 0.0000 15.4271
#
#
#
# Elastic Compliance Matrix: (Units=1/GPa)
#
#
# Indices 1 2 3 4 5 6 
#
# 1 0.013175 -0.002286 0.000093 0.000000 -0.003653 0.000000
# 2 -0.002286 0.010581 -0.002101 0.000000 0.000496 0.000000
# 3 0.000093 -0.002101 0.012356 0.000000 0.001029 0.000000
# 4 0.000000 0.000000 0.000000 0.056447 0.000000 0.000610
# 5 -0.003653 0.000496 0.001029 0.000000 0.031751 0.000000
# 6 0.000000 0.000000 0.000000 0.000610 0.000000 0.064828
#
#
# Mechanical properties :
#
#
# Convention : Reuss Voigt Hill
#
# Bulk Modulus (GPa) = 36.33225 37.75020 37.04123
# Shear Modulus (GPa) = 24.16644 28.55111 26.35878
#
# Velocity S-wave (km/s) = 3.25837 3.54165 3.40296
# Velocity P-wave (km/s) = 5.48796 5.77140 5.63146
#
# Compressibility (1/GPa) = 0.02752376
#
# Stress axis : x y z
#
# Youngs Moduli (GPa) = 75.90370 94.51041 80.93283
#
# Poissons Ratio (x) = 0.21603 -0.00753
# Poissons Ratio (y) = 0.17350 0.17005
# Poissons Ratio (z) = -0.00706 0.19857
#
# Static dielectric constant tensor:
#      x y z
#    x 3.783140 0.000000 0.038470 
#    y 0.000000 4.067600 0.000000 
#    z 0.038470 0.000000 4.324030 
# 
# 
# High freq. dielectric constant tensor:
#      x y z
#    x 1.867560 0.000000 0.003700 
#    y 0.000000 1.906080 0.000000 
#    z 0.003700 0.000000 1.903930 
# 
# From -- ./inp_files/1246.got.cif
#   From: 2010.06.25/outbox.cif.g09.slc.cpg/sg9_1_cif.got.tgz:1246.got - 2010.06.27 21:40:51.
