data_PCOD8055777
_publ_section_title
;
Structure prediction by ZEFSAII (Michael W. Deem and Ramdas Pophale) SiO2 
 PCOD8055777
Probable space group: C C
;
_chemical_formula_sum "Si O2"
_cell_formula_units_Z 28
_cell_length_a 8.771738
_cell_length_b 5.247459
_cell_length_c 30.465414
_cell_angle_alpha 90.000000
_cell_angle_beta 118.508302
_cell_angle_gamma 90.000000
_cell_volume 1232.270698
_symmetry_space_group_name_H-M "C C"
_symmetry_group_IT_number 9
_symmetry_cell_setting 'monoclinic'
loop_
_space_group_symop_operation_xyz
x,y,z
x,-y,1/2+z
1/2+x,1/2+y,z
1/2+x,1/2-y,1/2+z
loop_
_atom_site_type_symbol
_atom_site_label
_atom_site_fract_x
_atom_site_fract_y
_atom_site_fract_z
Si Si1 0.348810 0.244329 0.707380
Si Si2 0.559093 0.412216 0.006000
Si Si3 0.245540 0.749550 0.744486
Si Si4 0.709924 0.103685 0.097047
Si Si5 0.511624 0.746029 0.859698
Si Si6 0.907936 0.257157 0.396530
Si Si7 0.921736 0.257417 0.051461
O O1 0.292157 0.504204 0.722526
O O2 0.555120 0.214939 0.738549
O O3 0.291337 0.248216 0.648984
O O4 0.255155 0.005627 0.717096
O O5 0.459968 0.261868 0.954476
O O6 0.554689 0.259878 0.051804
O O7 0.762999 0.460087 0.022596
O O8 0.454774 0.664511 0.005798
O O9 0.375011 0.778277 0.802449
O O10 0.857917 0.054837 0.080151
O O11 0.605655 0.851865 0.097112
O O12 0.700822 0.743878 0.863735
O O13 0.485592 0.481660 0.881230
O O14 0.490219 0.982489 0.889752
#
# Coordination Sequence:
#
# PCOD8055777 Si02
#       7
#     4   4   4   4   4   4   4
#     4  12  26  43  74  98 137 177 228 272 345 399
#     4  10  26  40  66  95 137 172 220 267 326 397
#     4  12  26  48  69 102 133 176 226 288 338 396
#     4  10  26  40  66  95 135 174 220 267 326 397
#     4  12  26  47  71 100 135 174 228 286 337 400
#     4  12  26  43  74 100 135 179 226 272 345 399
#     4  10  24  39  64  88 138 170 216 266 321 382
#
# _framework density 22.722280999999999
#
# number of rings (size 3 to 8) (size 9 to 14) (size 15 to 20)
#    0.857    0.000    0.000    6.000   10.000    0.000 
#    0.000    0.000    0.000    0.000    0.000    0.000 
#    0.000    0.000    0.000    0.000    0.000    0.000 
#
# Total GULP energy -173483.016097 kJ/mol
# GULP energy per Si atom -12391.644007 kJ/mol
# Density = 2.267056 g / cm^3
# Si number density = 22.722281 Si / 1000 Ang^3
#
#
#
# Elastic Constant Matrix: (Units=GPa)
#
#
# Indices 1 2 3 4 5 6 
#
# 1 118.6452 39.3972 0.4991 0.0000 2.2293 0.0000
# 2 39.3972 125.6561 -44.4875 0.0000 -4.1599 0.0000
# 3 0.4991 -44.4875 149.8809 0.0000 -3.8499 0.0000
# 4 0.0000 0.0000 0.0000 38.6373 0.0000 -4.6681
# 5 2.2293 -4.1599 -3.8499 0.0000 28.9883 0.0000
# 6 0.0000 0.0000 0.0000 -4.6681 0.0000 34.4001
#
#
#
# Elastic Compliance Matrix: (Units=1/GPa)
#
#
# Indices 1 2 3 4 5 6 
#
# 1 0.009602 -0.003442 -0.001089 0.000000 -0.001377 0.000000
# 2 -0.003442 0.010204 0.003095 0.000000 0.002140 0.000000
# 3 -0.001089 0.003095 0.007634 0.000000 0.001542 0.000000
# 4 0.000000 0.000000 0.000000 0.026313 0.000000 0.003571
# 5 -0.001377 0.002140 0.001542 0.000000 0.035114 0.000000
# 6 0.000000 0.000000 0.000000 0.003571 0.000000 0.029554
#
#
# Mechanical properties :
#
#
# Convention : Reuss Voigt Hill
#
# Bulk Modulus (GPa) = 40.70160 42.77777 41.73969
# Shear Modulus (GPa) = 38.61555 46.99003 42.80279
#
# Velocity S-wave (km/s) = 4.12692 4.55248 4.34491
# Velocity P-wave (km/s) = 6.37653 6.81914 6.60154
#
# Compressibility (1/GPa) = 0.02456906
#
# Stress axis : x y z
#
# Youngs Moduli (GPa) = 104.14789 98.00162 130.99478
#
# Poissons Ratio (x) = 0.33728 0.14263
# Poissons Ratio (y) = 0.35843 -0.40545
# Poissons Ratio (z) = 0.11340 -0.30333
#
# Static dielectric constant tensor:
#      x y z
#    x 4.258150 0.000000 0.000810 
#    y 0.000000 4.199270 0.000000 
#    z 0.000810 0.000000 4.064910 
# 
# 
# High freq. dielectric constant tensor:
#      x y z
#    x 1.919010 0.000000 0.001390 
#    y 0.000000 1.887290 0.000000 
#    z 0.001390 0.000000 1.902460 
# 
# From -- ./inp_files/36275.got.cif
#   From: 2010.06.25/outbox.cif.g09.slc.cpg/sg9_19_cif.got.tgz:36275.got - 2010.06.27 21:40:51.
