data_PCOD8055962
_publ_section_title
;
Structure prediction by ZEFSAII (Michael W. Deem and Ramdas Pophale) SiO2 
 PCOD8055962
Probable space group: C C
;
_chemical_formula_sum "Si O2"
_cell_formula_units_Z 24
_cell_length_a 13.939355
_cell_length_b 12.463728
_cell_length_c 8.421815
_cell_angle_alpha 90.000000
_cell_angle_beta 43.016294
_cell_angle_gamma 90.000000
_cell_volume 998.187381
_symmetry_space_group_name_H-M "C C"
_symmetry_group_IT_number 9
_symmetry_cell_setting 'monoclinic'
loop_
_space_group_symop_operation_xyz
x,y,z
x,-y,1/2+z
1/2+x,1/2+y,z
1/2+x,1/2-y,1/2+z
loop_
_atom_site_type_symbol
_atom_site_label
_atom_site_fract_x
_atom_site_fract_y
_atom_site_fract_z
Si Si1 0.962740 0.945789 0.207330
Si Si2 0.571558 0.272148 0.302559
Si Si3 0.644309 0.082934 0.001525
Si Si4 0.068453 0.860799 0.751899
Si Si5 0.609976 0.873270 0.182997
Si Si6 0.795349 0.728373 0.791056
O O1 0.799397 0.925843 0.385220
O O2 0.015501 0.883696 0.300624
O O3 0.987693 0.070970 0.215741
O O4 0.053250 0.908317 0.945734
O O5 0.577028 0.190989 0.148944
O O6 0.719531 0.289441 0.211127
O O7 0.462554 0.222159 0.564669
O O8 0.548744 0.979523 0.169436
O O9 0.656015 0.089251 0.800394
O O10 0.011721 0.735108 0.811784
O O11 0.234072 0.857838 0.495439
O O12 0.750902 0.845576 0.911337
#
# Coordination Sequence:
#
# PCOD8055962 Si02
#       6
#     4   4   4   4   4   4
#     4  12  24  45  78 107 147 198 251 301 374 449
#     4  12  23  46  73 113 147 195 251 305 374 443
#     4  12  24  45  76 109 147 197 248 308 370 447
#     4  10  25  44  70 111 140 191 246 307 356 444
#     4  10  25  46  69 114 142 196 245 308 367 440
#     4  10  25  44  70 108 149 187 247 309 363 439
#
# _framework density 24.043582000000001
#
# number of rings (size 3 to 8) (size 9 to 14) (size 15 to 20)
#    1.000    0.000    3.333    3.000    7.000    0.000 
#    0.000    8.333    0.000    0.000    0.000    0.000 
#    0.000    0.000    0.000    0.000    0.000    0.000 
#
# Total GULP energy -148687.052773 kJ/mol
# GULP energy per Si atom -12390.587731 kJ/mol
# Density = 2.398886 g / cm^3
# Si number density = 24.043582 Si / 1000 Ang^3
#
#
#
# Elastic Constant Matrix: (Units=GPa)
#
#
# Indices 1 2 3 4 5 6 
#
# 1 65.5762 40.0150 17.8119 0.0000 23.4498 0.0000
# 2 40.0150 128.0509 5.1604 0.0000 5.6454 0.0000
# 3 17.8119 5.1604 78.8650 0.0000 11.3796 0.0000
# 4 0.0000 0.0000 0.0000 33.5628 0.0000 12.5742
# 5 23.4498 5.6454 11.3796 0.0000 40.2687 0.0000
# 6 0.0000 0.0000 0.0000 12.5742 0.0000 37.2381
#
#
#
# Elastic Compliance Matrix: (Units=1/GPa)
#
#
# Indices 1 2 3 4 5 6 
#
# 1 0.025028 -0.007129 -0.003365 0.000000 -0.012624 0.000000
# 2 -0.007129 0.009899 0.000588 0.000000 0.002598 0.000000
# 3 -0.003365 0.000588 0.013689 0.000000 -0.001991 0.000000
# 4 0.000000 0.000000 0.000000 0.034110 0.000000 -0.011518
# 5 -0.012624 0.002598 -0.001991 0.000000 0.032383 0.000000
# 6 0.000000 0.000000 0.000000 -0.011518 0.000000 0.030743
#
#
# Mechanical properties :
#
#
# Convention : Reuss Voigt Hill
#
# Bulk Modulus (GPa) = 34.71776 44.27407 39.49591
# Shear Modulus (GPa) = 28.52818 36.18090 32.35454
#
# Velocity S-wave (km/s) = 3.44833 3.88339 3.67231
# Velocity P-wave (km/s) = 5.50686 6.20981 5.86887
#
# Compressibility (1/GPa) = 0.02880370
#
# Stress axis : x y z
#
# Youngs Moduli (GPa) = 39.95554 101.02124 73.05305
#
# Poissons Ratio (x) = 0.72017 0.24579
# Poissons Ratio (y) = 0.28484 -0.04292
# Poissons Ratio (z) = 0.13443 -0.05935
#
# Static dielectric constant tensor:
#      x y z
#    x 3.908720 0.000000 0.309220 
#    y 0.000000 4.589730 0.000000 
#    z 0.309220 0.000000 4.216880 
# 
# 
# High freq. dielectric constant tensor:
#      x y z
#    x 1.942110 0.000000 0.034200 
#    y 0.000000 1.963440 0.000000 
#    z 0.034200 0.000000 1.947450 
# 
# From -- ./inp_files/9629.got.cif
#   From: 2010.06.25/outbox.cif.g09.slc.cpg/sg9_5_cif.got.tgz:9629.got - 2010.06.27 21:40:51.
