data_PCOD8055738
_publ_section_title
;
Structure prediction by ZEFSAII (Michael W. Deem and Ramdas Pophale) SiO2 
 PCOD8055738
Probable space group: C C
;
_chemical_formula_sum "Si O2"
_cell_formula_units_Z 28
_cell_length_a 6.284635
_cell_length_b 22.900468
_cell_length_c 8.862980
_cell_angle_alpha 90.000000
_cell_angle_beta 79.900404
_cell_angle_gamma 90.000000
_cell_volume 1255.803981
_symmetry_space_group_name_H-M "C C"
_symmetry_group_IT_number 9
_symmetry_cell_setting 'monoclinic'
loop_
_space_group_symop_operation_xyz
x,y,z
x,-y,1/2+z
1/2+x,1/2+y,z
1/2+x,1/2-y,1/2+z
loop_
_atom_site_type_symbol
_atom_site_label
_atom_site_fract_x
_atom_site_fract_y
_atom_site_fract_z
Si Si1 0.326950 0.624765 0.102900
Si Si2 0.351931 0.637908 0.631466
Si Si3 0.595293 0.828595 0.903147
Si Si4 0.216307 0.078437 0.427784
Si Si5 0.184917 0.039560 0.088224
Si Si6 0.114070 0.196624 0.858119
Si Si7 0.992656 0.377642 0.393703
O O1 0.274850 0.639285 0.280822
O O2 0.436252 0.559763 0.086505
O O3 0.497269 0.671966 0.020834
O O4 0.104134 0.632440 0.041120
O O5 0.200819 0.681700 0.554695
O O6 0.472475 0.598528 0.492807
O O7 0.527246 0.668908 0.714400
O O8 0.183065 0.601634 0.756679
O O9 0.380613 0.868462 0.939025
O O10 0.553293 0.764205 0.845154
O O11 0.244923 0.055604 0.253285
O O12 0.242379 0.027568 0.550008
O O13 0.320849 0.071889 0.941130
O O14 0.368950 0.180743 0.847224
#
# Coordination Sequence:
#
# PCOD8055738 Si02
#       7
#     4   4   4   4   4   4   4
#     4  10  23  46  68 103 140 186 231 293 358 424
#     4  11  26  45  70 105 142 183 244 293 364 428
#     4  12  26  44  71 109 141 186 244 294 369 431
#     4  12  28  45  71 105 145 188 242 299 359 431
#     4  11  26  47  71 101 145 188 242 300 354 428
#     4  10  26  43  74 102 147 187 233 300 361 440
#     4  10  23  48  71  99 138 190 236 287 363 422
#
# _framework density 22.296472999999999
#
# number of rings (size 3 to 8) (size 9 to 14) (size 15 to 20)
#    0.000    1.143    2.857    0.857   14.000    3.429 
#    0.000    0.000    0.000    0.000    0.000    0.000 
#    0.000    0.000    0.000    0.000    0.000    0.000 
#
# Total GULP energy -173470.390715 kJ/mol
# GULP energy per Si atom -12390.742194 kJ/mol
# Density = 2.224572 g / cm^3
# Si number density = 22.296473 Si / 1000 Ang^3
#
#
#
# Elastic Constant Matrix: (Units=GPa)
#
#
# Indices 1 2 3 4 5 6 
#
# 1 116.1305 49.3407 48.8498 0.0000 7.8519 0.0000
# 2 49.3407 110.7969 24.2788 0.0000 -11.2982 0.0000
# 3 48.8498 24.2788 115.7313 0.0000 -1.5591 0.0000
# 4 0.0000 0.0000 0.0000 27.6094 0.0000 -1.0910
# 5 7.8519 -11.2982 -1.5591 0.0000 51.3462 0.0000
# 6 0.0000 0.0000 0.0000 -1.0910 0.0000 23.6902
#
#
#
# Elastic Compliance Matrix: (Units=1/GPa)
#
#
# Indices 1 2 3 4 5 6 
#
# 1 0.012836 -0.005081 -0.004395 0.000000 -0.003214 0.000000
# 2 -0.005081 0.011686 -0.000262 0.000000 0.003340 0.000000
# 3 -0.004395 -0.000262 0.010564 0.000000 0.000935 0.000000
# 4 0.000000 0.000000 0.000000 0.036286 0.000000 0.001671
# 5 -0.003214 0.003340 0.000935 0.000000 0.020731 0.000000
# 6 0.000000 0.000000 0.000000 0.001671 0.000000 0.042289
#
#
# Mechanical properties :
#
#
# Convention : Reuss Voigt Hill
#
# Bulk Modulus (GPa) = 64.06466 65.28858 64.67662
# Shear Modulus (GPa) = 31.43273 35.20845 33.32059
#
# Velocity S-wave (km/s) = 3.75875 3.97811 3.86998
# Velocity P-wave (km/s) = 6.90167 7.10254 7.00283
#
# Compressibility (1/GPa) = 0.01560923
#
# Stress axis : x y z
#
# Youngs Moduli (GPa) = 77.90623 85.57127 94.66495
#
# Poissons Ratio (x) = 0.43477 0.41609
# Poissons Ratio (y) = 0.39582 0.02480
# Poissons Ratio (z) = 0.34243 0.02242
#
# Static dielectric constant tensor:
#      x y z
#    x 4.183220 0.000000 -0.144820 
#    y 0.000000 3.739920 0.000000 
#    z -0.144820 0.000000 4.173400 
# 
# 
# High freq. dielectric constant tensor:
#      x y z
#    x 1.888160 0.000000 -0.007230 
#    y 0.000000 1.847470 0.000000 
#    z -0.007230 0.000000 1.901450 
# 
# From -- ./inp_files/3976.got.cif
#   From: 2010.06.25/outbox.cif.g09.slc.cpg/sg9_2_cif.got.tgz:3976.got - 2010.06.27 21:40:51.
