data_PCOD8055249
_publ_section_title
;
Structure prediction by ZEFSAII (Michael W. Deem and Ramdas Pophale) SiO2 
 PCOD8055249
Probable space group: C C
;
_chemical_formula_sum "Si O2"
_cell_formula_units_Z 28
_cell_length_a 23.154506
_cell_length_b 8.268662
_cell_length_c 10.022646
_cell_angle_alpha 90.000000
_cell_angle_beta 42.519255
_cell_angle_gamma 90.000000
_cell_volume 1296.867838
_symmetry_space_group_name_H-M "C C"
_symmetry_group_IT_number 9
_symmetry_cell_setting 'monoclinic'
loop_
_space_group_symop_operation_xyz
x,y,z
x,-y,1/2+z
1/2+x,1/2+y,z
1/2+x,1/2-y,1/2+z
loop_
_atom_site_type_symbol
_atom_site_label
_atom_site_fract_x
_atom_site_fract_y
_atom_site_fract_z
Si Si1 0.165480 0.666659 0.439010
Si Si2 0.404720 0.557718 0.647969
Si Si3 0.298165 0.544546 0.572992
Si Si4 0.046715 0.595232 0.254956
Si Si5 0.175811 0.804127 0.691589
Si Si6 0.582245 0.377282 0.370759
Si Si7 0.996304 0.636377 0.055776
O O1 0.236036 0.603820 0.215879
O O2 0.127783 0.513772 0.581829
O O3 0.201536 0.785105 0.491832
O O4 0.092163 0.759720 0.481081
O O5 0.376730 0.541688 0.542064
O O6 0.491319 0.463636 0.532666
O O7 0.418890 0.747490 0.647630
O O8 0.330491 0.490017 0.868864
O O9 0.249678 0.719168 0.655340
O O10 0.082970 0.771960 0.233288
O O11 0.984841 0.600775 0.232124
O O12 0.991683 0.524817 0.472934
O O13 0.161546 0.995689 0.740142
O O14 0.087776 0.716150 0.875056
#
# Coordination Sequence:
#
# PCOD8055249 Si02
#       7
#     4   4   4   4   4   4   4
#     4  11  22  42  71 100 130 187 233 278 346 427
#     4  11  27  42  70 102 144 182 225 294 362 408
#     4  12  23  47  67  99 144 187 227 286 368 413
#     4  11  20  41  71  97 131 174 242 284 337 405
#     4  10  23  40  68  99 132 181 234 280 341 426
#     4  11  25  42  73 102 137 178 246 290 338 428
#     4  10  22  40  68  99 128 185 231 278 342 423
#
# _framework density 21.590481
#
# number of rings (size 3 to 8) (size 9 to 14) (size 15 to 20)
#    0.000    1.143    4.286    1.714   10.000    0.000 
#    0.000    4.286    0.000    0.000    0.000    0.000 
#    0.000    0.000    0.000    0.000    0.000    0.000 
#
# Total GULP energy -173580.305061 kJ/mol
# GULP energy per Si atom -12398.593219 kJ/mol
# Density = 2.154134 g / cm^3
# Si number density = 21.590481 Si / 1000 Ang^3
#
#
#
# Elastic Constant Matrix: (Units=GPa)
#
#
# Indices 1 2 3 4 5 6 
#
# 1 102.1556 33.9740 27.7852 0.0000 14.9770 0.0000
# 2 33.9740 112.6377 43.2748 0.0000 0.7729 0.0000
# 3 27.7852 43.2748 75.7450 0.0000 12.5082 0.0000
# 4 0.0000 0.0000 0.0000 25.7086 0.0000 2.2134
# 5 14.9770 0.7729 12.5082 0.0000 39.4458 0.0000
# 6 0.0000 0.0000 0.0000 2.2134 0.0000 47.9762
#
#
#
# Elastic Compliance Matrix: (Units=1/GPa)
#
#
# Indices 1 2 3 4 5 6 
#
# 1 0.011830 -0.002707 -0.002174 0.000000 -0.003750 0.000000
# 2 -0.002707 0.012137 -0.006407 0.000000 0.002822 0.000000
# 3 -0.002174 -0.006407 0.018470 0.000000 -0.004906 0.000000
# 4 0.000000 0.000000 0.000000 0.039053 0.000000 -0.001802
# 5 -0.003750 0.002822 -0.004906 0.000000 0.028275 0.000000
# 6 0.000000 0.000000 0.000000 -0.001802 0.000000 0.020927
#
#
# Mechanical properties :
#
#
# Convention : Reuss Voigt Hill
#
# Bulk Modulus (GPa) = 50.34920 55.62291 52.98606
# Shear Modulus (GPa) = 31.27189 34.99308 33.13248
#
# Velocity S-wave (km/s) = 3.80993 4.03024 3.92163
# Velocity P-wave (km/s) = 6.53642 6.89026 6.71567
#
# Compressibility (1/GPa) = 0.01986129
#
# Stress axis : x y z
#
# Youngs Moduli (GPa) = 84.52847 82.39448 54.14175
#
# Poissons Ratio (x) = 0.22308 0.11769
# Poissons Ratio (y) = 0.22886 0.34687
# Poissons Ratio (z) = 0.18374 0.52788
#
# Static dielectric constant tensor:
#      x y z
#    x 3.883310 0.000000 0.298430 
#    y 0.000000 4.207740 0.000000 
#    z 0.298430 0.000000 3.784630 
# 
# 
# High freq. dielectric constant tensor:
#      x y z
#    x 1.846320 0.000000 0.025320 
#    y 0.000000 1.849890 0.000000 
#    z 0.025320 0.000000 1.832910 
# 
# From -- ./inp_files/10373.got.cif
#   From: 2010.06.25/outbox.cif.g09.slc.cpg/sg9_6_cif.got.tgz:10373.got - 2010.06.27 21:40:51.
