data_PCOD8055977
_publ_section_title
;
Structure prediction by ZEFSAII (Michael W. Deem and Ramdas Pophale) SiO2 
 PCOD8055977
Probable space group: C C
;
_chemical_formula_sum "Si O2"
_cell_formula_units_Z 32
_cell_length_a 16.413509
_cell_length_b 6.892960
_cell_length_c 14.088384
_cell_angle_alpha 90.000000
_cell_angle_beta 120.566709
_cell_angle_gamma 90.000000
_cell_volume 1372.431003
_symmetry_space_group_name_H-M "C C"
_symmetry_group_IT_number 9
_symmetry_cell_setting 'monoclinic'
loop_
_space_group_symop_operation_xyz
x,y,z
x,-y,1/2+z
1/2+x,1/2+y,z
1/2+x,1/2-y,1/2+z
loop_
_atom_site_type_symbol
_atom_site_label
_atom_site_fract_x
_atom_site_fract_y
_atom_site_fract_z
Si Si1 0.839720 0.007614 0.798520
Si Si2 0.425110 0.836965 0.961103
Si Si3 0.098392 0.085898 0.022901
Si Si4 0.299128 0.770939 0.610448
Si Si5 0.578817 0.626129 0.701163
Si Si6 0.282014 0.828136 0.379675
Si Si7 0.020812 0.868580 0.821104
Si Si8 0.477715 0.990134 0.188240
O O1 0.848580 0.179495 0.881187
O O2 0.811731 0.070532 0.675310
O O3 0.768061 0.852914 0.800087
O O4 0.937659 0.892996 0.847940
O O5 0.374136 0.042814 0.905926
O O6 0.526192 0.774128 0.971651
O O7 0.441942 0.845734 0.084091
O O8 0.204781 0.150642 0.104239
O O9 0.064398 0.944012 0.085996
O O10 0.108210 0.957369 0.932651
O O11 0.292187 0.745634 0.493059
O O12 0.387683 0.911708 0.686764
O O13 0.681696 0.566588 0.804423
O O14 0.504032 0.504534 0.719284
O O15 0.552188 0.853318 0.692391
O O16 0.031809 0.643607 0.797608
#
# Coordination Sequence:
#
# PCOD8055977 Si02
#       8
#     4   4   4   4   4   4   4   4
#     4  11  26  43  74 102 143 191 238 293 358 428
#     4  10  25  45  73  98 142 186 238 289 360 416
#     4  11  25  47  77 105 145 187 239 303 355 431
#     4  11  25  48  72 107 144 185 243 295 358 426
#     4  12  25  49  69 108 144 185 242 297 352 427
#     4  11  27  48  73 104 147 188 238 299 352 430
#     4  11  25  46  70 104 145 189 234 297 358 420
#     4  11  26  44  74 100 146 193 234 297 359 424
#
# _framework density 23.316292000000001
#
# number of rings (size 3 to 8) (size 9 to 14) (size 15 to 20)
#    0.000    1.000    3.750    0.750   14.000    1.000 
#    2.250    0.000    0.000    0.000    0.000    0.000 
#    0.000    0.000    0.000    0.000    0.000    0.000 
#
# Total GULP energy -198234.228076 kJ/mol
# GULP energy per Si atom -12389.639255 kJ/mol
# Density = 2.326322 g / cm^3
# Si number density = 23.316292 Si / 1000 Ang^3
#
#
#
# Elastic Constant Matrix: (Units=GPa)
#
#
# Indices 1 2 3 4 5 6 
#
# 1 95.4911 53.3468 35.0342 0.0000 -0.9763 0.0000
# 2 53.3468 123.6056 57.0817 0.0000 -15.5731 0.0000
# 3 35.0342 57.0817 100.8069 0.0000 -7.2366 0.0000
# 4 0.0000 0.0000 0.0000 44.9066 0.0000 -16.8246
# 5 -0.9763 -15.5731 -7.2366 0.0000 40.2511 0.0000
# 6 0.0000 0.0000 0.0000 -16.8246 0.0000 24.5844
#
#
#
# Elastic Compliance Matrix: (Units=1/GPa)
#
#
# Indices 1 2 3 4 5 6 
#
# 1 0.014255 -0.005502 -0.001992 0.000000 -0.002141 0.000000
# 2 -0.005502 0.013491 -0.005432 0.000000 0.004110 0.000000
# 3 -0.001992 -0.005432 0.013711 0.000000 0.000315 0.000000
# 4 0.000000 0.000000 0.000000 0.029947 0.000000 0.020494
# 5 -0.002141 0.004110 0.000315 0.000000 0.026439 0.000000
# 6 0.000000 0.000000 0.000000 0.020494 0.000000 0.054702
#
#
# Mechanical properties :
#
#
# Convention : Reuss Voigt Hill
#
# Bulk Modulus (GPa) = 64.08585 67.86988 65.97786
# Shear Modulus (GPa) = 27.23325 33.57781 30.40553
#
# Velocity S-wave (km/s) = 3.42130 3.79898 3.61508
# Velocity P-wave (km/s) = 6.56903 6.95806 6.76634
#
# Compressibility (1/GPa) = 0.01560407
#
# Stress axis : x y z
#
# Youngs Moduli (GPa) = 70.15094 74.12216 72.93428
#
# Poissons Ratio (x) = 0.40782 0.14531
# Poissons Ratio (y) = 0.38597 0.39620
# Poissons Ratio (z) = 0.13977 0.40265
#
# Static dielectric constant tensor:
#      x y z
#    x 4.106920 0.000000 0.030560 
#    y 0.000000 4.073160 0.000000 
#    z 0.030560 0.000000 4.156650 
# 
# 
# High freq. dielectric constant tensor:
#      x y z
#    x 1.918260 0.000000 -0.007420 
#    y 0.000000 1.909680 0.000000 
#    z -0.007420 0.000000 1.929820 
# 
# From -- ./inp_files/26447.got.cif
#   From: 2010.06.25/outbox.cif.g09.slc.cpg/sg9_14_cif.got.tgz:26447.got - 2010.06.27 21:40:51.
