data_PCOD8055168
_publ_section_title
;
Structure prediction by ZEFSAII (Michael W. Deem and Ramdas Pophale) SiO2 
 PCOD8055168
Probable space group: C C
;
_chemical_formula_sum "Si O2"
_cell_formula_units_Z 28
_cell_length_a 14.752032
_cell_length_b 19.495545
_cell_length_c 9.492868
_cell_angle_alpha 90.000000
_cell_angle_beta 150.459976
_cell_angle_gamma 90.000000
_cell_volume 1346.044047
_symmetry_space_group_name_H-M "C C"
_symmetry_group_IT_number 9
_symmetry_cell_setting 'monoclinic'
loop_
_space_group_symop_operation_xyz
x,y,z
x,-y,1/2+z
1/2+x,1/2+y,z
1/2+x,1/2-y,1/2+z
loop_
_atom_site_type_symbol
_atom_site_label
_atom_site_fract_x
_atom_site_fract_y
_atom_site_fract_z
Si Si1 0.667510 0.965173 0.197200
Si Si2 0.716433 0.080839 0.068257
Si Si3 0.801810 0.376890 0.728885
Si Si4 0.468266 0.206942 0.683217
Si Si5 0.620223 0.394430 0.207045
Si Si6 0.073897 0.950707 0.650623
Si Si7 0.690832 0.338282 0.015848
O O1 0.729402 0.968150 0.445601
O O2 0.850348 0.947127 0.350052
O O3 0.612263 0.039598 0.054200
O O4 0.493230 0.914754 0.944339
O O5 0.905968 0.109768 0.383842
O O6 0.624107 0.149757 0.888850
O O7 0.690586 0.354054 0.439924
O O8 0.658483 0.424041 0.619636
O O9 0.839561 0.308650 0.873385
O O10 0.526778 0.285530 0.759015
O O11 0.371962 0.197396 0.702888
O O12 0.664297 0.474363 0.288215
O O13 0.726856 0.355823 0.226343
O O14 0.148875 0.909455 0.884121
#
# Coordination Sequence:
#
# PCOD8055168 Si02
#       7
#     4   4   4   4   4   4   4
#     4  10  22  38  61  93 132 171 213 271 318 389
#     4  10  22  39  62  93 131 170 221 263 332 383
#     4  10  24  39  63  97 132 165 222 265 327 390
#     4  10  24  43  66  91 125 186 213 266 327 400
#     4  11  22  39  66  97 132 161 220 278 321 387
#     4  10  22  40  65  95 127 178 207 274 331 379
#     4  11  22  42  69  90 131 175 220 263 328 394
#
# _framework density 20.801697000000001
#
# number of rings (size 3 to 8) (size 9 to 14) (size 15 to 20)
#    0.000    1.714    1.429    1.714   16.000    0.000 
#    0.000    5.714    0.000    0.000    0.000    0.000 
#    0.000    0.000    0.000    0.000    0.000    0.000 
#
# Total GULP energy -173452.768926 kJ/mol
# GULP energy per Si atom -12389.483495 kJ/mol
# Density = 2.075435 g / cm^3
# Si number density = 20.801697 Si / 1000 Ang^3
#
#
#
# Elastic Constant Matrix: (Units=GPa)
#
#
# Indices 1 2 3 4 5 6 
#
# 1 127.1666 38.9863 53.4079 0.0000 -17.2729 0.0000
# 2 38.9863 81.9581 21.6275 0.0000 -12.9815 0.0000
# 3 53.4079 21.6275 106.5750 0.0000 -28.4874 0.0000
# 4 0.0000 0.0000 0.0000 7.0493 0.0000 1.4132
# 5 -17.2729 -12.9815 -28.4874 0.0000 40.8916 0.0000
# 6 0.0000 0.0000 0.0000 1.4132 0.0000 20.2282
#
#
#
# Elastic Compliance Matrix: (Units=1/GPa)
#
#
# Indices 1 2 3 4 5 6 
#
# 1 0.011088 -0.004012 -0.004708 0.000000 0.000131 0.000000
# 2 -0.004012 0.014607 -0.000206 0.000000 0.002799 0.000000
# 3 -0.004708 -0.000206 0.013806 0.000000 0.007564 0.000000
# 4 0.000000 0.000000 0.000000 0.143874 0.000000 -0.010052
# 5 0.000131 0.002799 0.007564 0.000000 0.030668 0.000000
# 6 0.000000 0.000000 0.000000 -0.010052 0.000000 0.050138
#
#
# Mechanical properties :
#
#
# Convention : Reuss Voigt Hill
#
# Bulk Modulus (GPa) = 46.18608 60.41589 53.30099
# Shear Modulus (GPa) = 17.28611 27.07901 22.18256
#
# Velocity S-wave (km/s) = 2.88583 3.61192 3.26909
# Velocity P-wave (km/s) = 5.77540 6.81919 6.31889
#
# Compressibility (1/GPa) = 0.02165154
#
# Stress axis : x y z
#
# Youngs Moduli (GPa) = 90.18356 68.45882 72.43297
#
# Poissons Ratio (x) = 0.27463 0.34100
# Poissons Ratio (y) = 0.36178 0.01490
# Poissons Ratio (z) = 0.42456 0.01408
#
# Static dielectric constant tensor:
#      x y z
#    x 4.114300 0.000000 -0.014930 
#    y 0.000000 3.925180 0.000000 
#    z -0.014930 0.000000 3.795920 
# 
# 
# High freq. dielectric constant tensor:
#      x y z
#    x 1.825800 0.000000 0.000680 
#    y 0.000000 1.794680 0.000000 
#    z 0.000680 0.000000 1.811850 
# 
# From -- ./inp_files/5548.got.cif
#   From: 2010.06.25/outbox.cif.g09.slc.cpg/sg9_3_cif.got.tgz:5548.got - 2010.06.27 21:40:51.
