data_PCOD8055700
_publ_section_title
;
Structure prediction by ZEFSAII (Michael W. Deem and Ramdas Pophale) SiO2 
 PCOD8055700
Probable space group: C C
;
_chemical_formula_sum "Si O2"
_cell_formula_units_Z 28
_cell_length_a 11.786787
_cell_length_b 13.690885
_cell_length_c 7.862493
_cell_angle_alpha 90.000000
_cell_angle_beta 67.284832
_cell_angle_gamma 90.000000
_cell_volume 1170.370656
_symmetry_space_group_name_H-M "C C"
_symmetry_group_IT_number 9
_symmetry_cell_setting 'monoclinic'
loop_
_space_group_symop_operation_xyz
x,y,z
x,-y,1/2+z
1/2+x,1/2+y,z
1/2+x,1/2-y,1/2+z
loop_
_atom_site_type_symbol
_atom_site_label
_atom_site_fract_x
_atom_site_fract_y
_atom_site_fract_z
Si Si1 0.555790 0.169675 0.636790
Si Si2 0.196719 0.706691 0.231640
Si Si3 0.802017 0.407027 0.185826
Si Si4 0.945175 0.871324 0.713751
Si Si5 0.736609 0.389617 0.865872
Si Si6 0.464783 0.576834 0.573879
Si Si7 0.234677 0.678192 0.827420
O O1 0.609457 0.150890 0.415859
O O2 0.426002 0.112296 0.722340
O O3 0.545757 0.285995 0.671635
O O4 0.643467 0.130850 0.738482
O O5 0.199572 0.822538 0.277686
O O6 0.334179 0.669726 0.170652
O O7 0.165887 0.681647 0.051811
O O8 0.745006 0.514623 0.244800
O O9 0.830895 0.401937 0.967994
O O10 0.998059 0.963730 0.583110
O O11 0.904684 0.904985 0.924589
O O12 0.772814 0.289116 0.748504
O O13 0.596778 0.371200 0.013610
O O14 0.361816 0.616641 0.765276
#
# Coordination Sequence:
#
# PCOD8055700 Si02
#       7
#     4   4   4   4   4   4   4
#     4  11  23  49  68 103 143 185 223 299 351 413
#     4  10  23  45  69 103 140 182 231 292 341 423
#     4  10  25  43  69 103 139 180 237 277 357 411
#     4  11  23  41  69 103 139 180 234 286 350 415
#     4  11  24  44  67 104 134 190 228 289 340 428
#     4  12  23  42  72 103 139 186 234 293 345 420
#     4  11  25  44  74 103 136 183 241 282 360 404
#
# _framework density 23.924046000000001
#
# number of rings (size 3 to 8) (size 9 to 14) (size 15 to 20)
#    0.000    1.143    2.857    2.571    2.000    8.000 
#    5.143    0.000    0.000    0.000    0.000    0.000 
#    0.000    0.000    0.000    0.000    0.000    0.000 
#
# Total GULP energy -173512.799245 kJ/mol
# GULP energy per Si atom -12393.771375 kJ/mol
# Density = 2.386959 g / cm^3
# Si number density = 23.924046 Si / 1000 Ang^3
#
#
#
# Elastic Constant Matrix: (Units=GPa)
#
#
# Indices 1 2 3 4 5 6 
#
# 1 100.4544 16.5385 21.8567 0.0000 11.3055 0.0000
# 2 16.5385 61.0564 0.0604 0.0000 0.5942 0.0000
# 3 21.8567 0.0604 89.4867 0.0000 15.1469 0.0000
# 4 0.0000 0.0000 0.0000 35.6718 0.0000 2.1121
# 5 11.3055 0.5942 15.1469 0.0000 34.9236 0.0000
# 6 0.0000 0.0000 0.0000 2.1121 0.0000 19.8916
#
#
#
# Elastic Compliance Matrix: (Units=1/GPa)
#
#
# Indices 1 2 3 4 5 6 
#
# 1 0.011245 -0.003018 -0.002306 0.000000 -0.002589 0.000000
# 2 -0.003018 0.017191 0.000658 0.000000 0.000399 0.000000
# 3 -0.002306 0.000658 0.012533 0.000000 -0.004700 0.000000
# 4 0.000000 0.000000 0.000000 0.028211 0.000000 -0.002995
# 5 -0.002589 0.000399 -0.004700 0.000000 0.031504 0.000000
# 6 0.000000 0.000000 0.000000 -0.002995 0.000000 0.050590
#
#
# Mechanical properties :
#
#
# Convention : Reuss Voigt Hill
#
# Bulk Modulus (GPa) = 31.60940 36.43431 34.02186
# Shear Modulus (GPa) = 29.21358 32.26686 30.74022
#
# Velocity S-wave (km/s) = 3.49821 3.67648 3.58845
# Velocity P-wave (km/s) = 5.43670 5.76925 5.60544
#
# Compressibility (1/GPa) = 0.03163616
#
# Stress axis : x y z
#
# Youngs Moduli (GPa) = 88.92966 58.16870 79.78720
#
# Poissons Ratio (x) = 0.17558 0.18401
# Poissons Ratio (y) = 0.26843 -0.05251
# Poissons Ratio (z) = 0.20510 -0.03828
#
# Static dielectric constant tensor:
#      x y z
#    x 4.089500 0.000000 0.229170 
#    y 0.000000 4.361840 0.000000 
#    z 0.229170 0.000000 4.028520 
# 
# 
# High freq. dielectric constant tensor:
#      x y z
#    x 1.950890 0.000000 0.018740 
#    y 0.000000 1.944140 0.000000 
#    z 0.018740 0.000000 1.930890 
# 
# From -- ./inp_files/7342.got.cif
#   From: 2010.06.25/outbox.cif.g09.slc.cpg/sg9_4_cif.got.tgz:7342.got - 2010.06.27 21:40:51.
