data_PCOD8055535
_publ_section_title
;
Structure prediction by ZEFSAII (Michael W. Deem and Ramdas Pophale) SiO2 
 PCOD8055535
Probable space group: C C
;
_chemical_formula_sum "Si O2"
_cell_formula_units_Z 32
_cell_length_a 11.669035
_cell_length_b 23.892315
_cell_length_c 11.786123
_cell_angle_alpha 90.000000
_cell_angle_beta 25.382785
_cell_angle_gamma 90.000000
_cell_volume 1408.577838
_symmetry_space_group_name_H-M "C C"
_symmetry_group_IT_number 9
_symmetry_cell_setting 'monoclinic'
loop_
_space_group_symop_operation_xyz
x,y,z
x,-y,1/2+z
1/2+x,1/2+y,z
1/2+x,1/2-y,1/2+z
loop_
_atom_site_type_symbol
_atom_site_label
_atom_site_fract_x
_atom_site_fract_y
_atom_site_fract_z
Si Si1 0.336520 0.548075 0.255750
Si Si2 0.380259 0.017514 0.508146
Si Si3 0.539411 0.912942 0.671720
Si Si4 0.144365 0.781400 0.363222
Si Si5 0.971828 0.072043 0.603156
Si Si6 0.250302 0.215091 0.031343
Si Si7 0.576921 0.406518 0.762186
Si Si8 0.987118 0.112166 0.912673
O O1 0.533965 0.494895 0.055334
O O2 0.362852 0.573601 0.358435
O O3 0.036743 0.529041 0.486888
O O4 0.418405 0.599095 0.103665
O O5 0.557132 0.031462 0.237455
O O6 0.125584 0.059283 0.726749
O O7 0.308855 0.952667 0.566086
O O8 0.692015 0.919697 0.416858
O O9 0.718794 0.869113 0.583623
O O10 0.231618 0.895436 0.922831
O O11 0.214029 0.793214 0.430602
O O12 0.184997 0.835400 0.246467
O O13 0.834703 0.764355 0.636787
O O14 0.920106 0.093697 0.522048
O O15 0.216474 0.153465 0.116096
O O16 0.046557 0.257957 0.276985
#
# Coordination Sequence:
#
# PCOD8055535 Si02
#       8
#     4   4   4   4   4   4   4   4
#     4  11  24  40  63 106 140 178 227 280 353 419
#     4  11  24  42  70 102 143 189 228 283 361 430
#     4  11  24  44  65  94 147 178 223 279 339 409
#     4  10  23  40  67 104 138 177 232 286 353 417
#     4  12  25  44  64 101 141 183 234 272 338 439
#     4  10  24  46  67  99 140 182 240 302 343 409
#     4  12  24  46  72 105 141 200 227 293 363 434
#     4  11  22  44  70  99 144 185 213 297 346 417
#
# _framework density 22.717949000000001
#
# number of rings (size 3 to 8) (size 9 to 14) (size 15 to 20)
#    0.000    1.000    5.000    0.750    5.250    3.000 
#    2.250    0.000    0.000    4.500    0.000    0.000 
#    0.000    0.000    0.000    0.000    0.000    0.000 
#
# Total GULP energy -198224.528801 kJ/mol
# GULP energy per Si atom -12389.033050 kJ/mol
# Density = 2.266624 g / cm^3
# Si number density = 22.717949 Si / 1000 Ang^3
#
#
#
# Elastic Constant Matrix: (Units=GPa)
#
#
# Indices 1 2 3 4 5 6 
#
# 1 105.4712 19.0557 37.2915 0.0015 5.5554 -0.0116
# 2 19.0557 100.9656 24.2499 -0.0035 6.8132 -0.0028
# 3 37.2915 24.2499 110.2925 -0.0072 -2.6313 -0.0076
# 4 0.0015 -0.0035 -0.0072 17.6346 -0.0039 -0.6685
# 5 5.5554 6.8132 -2.6313 -0.0039 30.6437 0.0103
# 6 -0.0116 -0.0028 -0.0076 -0.6685 0.0103 30.7253
#
#
#
# Elastic Compliance Matrix: (Units=1/GPa)
#
#
# Indices 1 2 3 4 5 6 
#
# 1 0.011040 -0.001094 -0.003541 -0.000003 -0.002062 0.000004
# 2 -0.001094 0.010764 -0.002053 0.000001 -0.002371 0.000001
# 3 -0.003541 -0.002053 0.010764 0.000005 0.002023 0.000001
# 4 -0.000003 0.000001 0.000005 0.056754 0.000008 0.001235
# 5 -0.002062 -0.002371 0.002023 0.000008 0.033708 -0.000012
# 6 0.000004 0.000001 0.000001 0.001235 -0.000012 0.032573
#
#
# Mechanical properties :
#
#
# Convention : Reuss Voigt Hill
#
# Bulk Modulus (GPa) = 52.10947 53.10261 52.60604
# Shear Modulus (GPa) = 28.51010 31.54286 30.02648
#
# Velocity S-wave (km/s) = 3.54638 3.73024 3.63947
# Velocity P-wave (km/s) = 6.30527 6.47907 6.39277
#
# Compressibility (1/GPa) = 0.01919037
#
# Stress axis : x y z
#
# Youngs Moduli (GPa) = 90.58280 92.90226 92.90292
#
# Poissons Ratio (x) = 0.10162 0.32900
# Poissons Ratio (y) = 0.09908 0.19077
# Poissons Ratio (z) = 0.32079 0.19077
#
# Static dielectric constant tensor:
#      x y z
#    x 4.214250 0.000010 0.054650 
#    y 0.000010 3.818550 -0.000010 
#    z 0.054650 -0.000010 4.113650 
# 
# 
# High freq. dielectric constant tensor:
#      x y z
#    x 1.901280 0.000000 0.000810 
#    y 0.000000 1.858100 0.000000 
#    z 0.000810 0.000000 1.901400 
# 
# From -- ./inp_files/2776.got.cif
#   From: 2010.06.25/outbox.cif.g09.slc.cpg/sg9_2_cif.got.tgz:2776.got - 2010.06.27 21:40:51.
