data_PCOD8055844
_publ_section_title
;
Structure prediction by ZEFSAII (Michael W. Deem and Ramdas Pophale) SiO2 
 PCOD8055844
Probable space group: C C
;
_chemical_formula_sum "Si O2"
_cell_formula_units_Z 28
_cell_length_a 14.367624
_cell_length_b 9.617702
_cell_length_c 13.879851
_cell_angle_alpha 90.000000
_cell_angle_beta 36.629918
_cell_angle_gamma 90.000000
_cell_volume 1144.343353
_symmetry_space_group_name_H-M "C C"
_symmetry_group_IT_number 9
_symmetry_cell_setting 'monoclinic'
loop_
_space_group_symop_operation_xyz
x,y,z
x,-y,1/2+z
1/2+x,1/2+y,z
1/2+x,1/2-y,1/2+z
loop_
_atom_site_type_symbol
_atom_site_label
_atom_site_fract_x
_atom_site_fract_y
_atom_site_fract_z
Si Si1 0.915460 0.125429 0.929040
Si Si2 0.614766 0.294862 0.436924
Si Si3 0.899597 0.625079 0.003233
Si Si4 0.819963 0.411627 0.916799
Si Si5 0.423531 0.945958 0.158896
Si Si6 0.986864 0.028367 0.662258
Si Si7 0.265819 0.402931 0.178768
O O1 0.951433 0.031724 0.805747
O O2 0.065807 0.158039 0.869883
O O3 0.854752 0.274331 0.946561
O O4 0.789921 0.047718 0.101162
O O5 0.580147 0.130612 0.488084
O O6 0.797780 0.326717 0.292411
O O7 0.512876 0.372220 0.603256
O O8 0.810579 0.545522 0.992856
O O9 0.849724 0.546695 0.141358
O O10 0.841243 0.782605 0.051157
O O11 0.084957 0.623884 0.839696
O O12 0.650912 0.391096 0.006955
O O13 0.952185 0.452258 0.726987
O O14 0.849278 0.099398 0.714406
#
# Coordination Sequence:
#
# PCOD8055844 Si02
#       7
#     4   4   4   4   4   4   4
#     4  11  24  45  75 105 145 192 255 303 377 439
#     4  10  24  43  72 108 147 195 233 315 366 454
#     4  12  28  48  73 111 149 199 248 313 375 447
#     4  11  26  44  78 108 144 195 248 312 370 452
#     4  11  25  46  75 107 153 188 254 301 391 438
#     4  10  25  45  73 104 148 192 246 306 372 442
#     4  11  30  47  74 107 154 199 248 310 381 444
#
# _framework density 24.468181000000001
#
# number of rings (size 3 to 8) (size 9 to 14) (size 15 to 20)
#    0.000    1.143    1.429    1.714   18.000    2.286 
#    0.000    0.000    0.000    0.000    0.000    0.000 
#    0.000    0.000    0.000    0.000    0.000    0.000 
#
# Total GULP energy -173567.885924 kJ/mol
# GULP energy per Si atom -12397.706137 kJ/mol
# Density = 2.441249 g / cm^3
# Si number density = 24.468181 Si / 1000 Ang^3
#
#
#
# Elastic Constant Matrix: (Units=GPa)
#
#
# Indices 1 2 3 4 5 6 
#
# 1 103.3384 43.0376 38.2126 0.0000 16.6870 0.0000
# 2 43.0376 95.3662 31.0559 0.0000 -1.7641 0.0000
# 3 38.2126 31.0559 95.5377 0.0000 5.3417 0.0000
# 4 0.0000 0.0000 0.0000 37.9695 0.0000 7.7538
# 5 16.6870 -1.7641 5.3417 0.0000 51.5669 0.0000
# 6 0.0000 0.0000 0.0000 7.7538 0.0000 39.4605
#
#
#
# Elastic Compliance Matrix: (Units=1/GPa)
#
#
# Indices 1 2 3 4 5 6 
#
# 1 0.013855 -0.005151 -0.003628 0.000000 -0.004284 0.000000
# 2 -0.005151 0.013675 -0.002519 0.000000 0.002395 0.000000
# 3 -0.003628 -0.002519 0.012750 0.000000 -0.000233 0.000000
# 4 0.000000 0.000000 0.000000 0.027438 0.000000 -0.005391
# 5 -0.004284 0.002395 -0.000233 0.000000 0.020885 0.000000
# 6 0.000000 0.000000 0.000000 -0.005391 0.000000 0.026401
#
#
# Mechanical properties :
#
#
# Convention : Reuss Voigt Hill
#
# Bulk Modulus (GPa) = 56.54481 57.65049 57.09765
# Shear Modulus (GPa) = 34.84458 37.92845 36.38652
#
# Velocity S-wave (km/s) = 3.77779 3.94142 3.86047
# Velocity P-wave (km/s) = 6.49528 6.65775 6.57701
#
# Compressibility (1/GPa) = 0.01768509
#
# Stress axis : x y z
#
# Youngs Moduli (GPa) = 72.17436 73.12660 78.43095
#
# Poissons Ratio (x) = 0.37664 0.28455
# Poissons Ratio (y) = 0.37174 0.19757
# Poissons Ratio (z) = 0.26185 0.18421
#
# Static dielectric constant tensor:
#      x y z
#    x 4.574180 0.000000 0.195070 
#    y 0.000000 4.452470 0.000000 
#    z 0.195070 0.000000 4.290530 
# 
# 
# High freq. dielectric constant tensor:
#      x y z
#    x 1.976930 0.000000 0.011610 
#    y 0.000000 1.973770 0.000000 
#    z 0.011610 0.000000 1.970930 
# 
# From -- ./inp_files/25743.got.cif
#   From: 2010.06.25/outbox.cif.g09.slc.cpg/sg9_13_cif.got.tgz:25743.got - 2010.06.27 21:40:51.
