data_PCOD8055619
_publ_section_title
;
Structure prediction by ZEFSAII (Michael W. Deem and Ramdas Pophale) SiO2 
 PCOD8055619
Probable space group: C C
;
_chemical_formula_sum "Si O2"
_cell_formula_units_Z 28
_cell_length_a 19.325214
_cell_length_b 13.042118
_cell_length_c 9.256684
_cell_angle_alpha 90.000000
_cell_angle_beta 36.720528
_cell_angle_gamma 90.000000
_cell_volume 1394.971753
_symmetry_space_group_name_H-M "C C"
_symmetry_group_IT_number 9
_symmetry_cell_setting 'monoclinic'
loop_
_space_group_symop_operation_xyz
x,y,z
x,-y,1/2+z
1/2+x,1/2+y,z
1/2+x,1/2-y,1/2+z
loop_
_atom_site_type_symbol
_atom_site_label
_atom_site_fract_x
_atom_site_fract_y
_atom_site_fract_z
Si Si1 0.160210 0.805015 0.202920
Si Si2 0.464970 0.621227 0.241631
Si Si3 0.122115 0.595401 0.122061
Si Si4 0.531565 0.730745 0.408133
Si Si5 0.540761 0.394928 0.156512
Si Si6 0.407709 0.199307 0.374900
Si Si7 0.201857 0.399110 0.160196
O O1 0.173080 0.686957 0.134101
O O2 0.152681 0.874503 0.070640
O O3 0.046631 0.830369 0.484724
O O4 0.272899 0.830266 0.112001
O O5 0.466340 0.698312 0.373436
O O6 0.505514 0.511473 0.231482
O O7 0.336600 0.607864 0.394817
O O8 0.143025 0.493152 0.175916
O O9 0.984288 0.614689 0.331599
O O10 0.185146 0.592020 0.860959
O O11 0.569284 0.631509 0.441394
O O12 0.443257 0.803158 0.645639
O O13 0.646651 0.796404 0.185133
O O14 0.439919 0.314379 0.379428
#
# Coordination Sequence:
#
# PCOD8055619 Si02
#       7
#     4   4   4   4   4   4   4
#     4  11  21  39  63  95 127 166 203 263 318 364
#     4  12  24  36  66  99 121 161 216 260 306 380
#     4  10  23  43  68  90 125 171 213 255 312 370
#     4   9  22  41  60  90 128 161 209 257 314 360
#     4   9  21  40  61  88 123 170 209 248 320 362
#     4   8  19  42  63  81 128 170 199 251 317 367
#     4  11  24  43  67  93 124 167 215 260 305 375
#
# _framework density 20.072092000000001
#
# number of rings (size 3 to 8) (size 9 to 14) (size 15 to 20)
#    0.857    1.143    1.429    2.571    6.000    2.286 
#    5.143    1.429    0.000    0.000    0.000    0.000 
#    0.000    0.000    0.000    0.000    0.000    0.000 
#
# Total GULP energy -173488.048356 kJ/mol
# GULP energy per Si atom -12392.003454 kJ/mol
# Density = 2.002641 g / cm^3
# Si number density = 20.072092 Si / 1000 Ang^3
#
#
#
# Elastic Constant Matrix: (Units=GPa)
#
#
# Indices 1 2 3 4 5 6 
#
# 1 116.3690 46.5218 43.0184 0.0000 -16.1688 0.0000
# 2 46.5218 94.8273 34.6431 0.0000 -11.9041 0.0000
# 3 43.0184 34.6431 78.1640 0.0000 -12.1162 0.0000
# 4 0.0000 0.0000 0.0000 19.2461 0.0000 5.1171
# 5 -16.1688 -11.9041 -12.1162 0.0000 31.9491 0.0000
# 6 0.0000 0.0000 0.0000 5.1171 0.0000 38.1476
#
#
#
# Elastic Compliance Matrix: (Units=1/GPa)
#
#
# Indices 1 2 3 4 5 6 
#
# 1 0.012280 -0.003995 -0.004521 0.000000 0.003012 0.000000
# 2 -0.003995 0.014111 -0.003776 0.000000 0.001804 0.000000
# 3 -0.004521 -0.003776 0.017406 0.000000 0.002906 0.000000
# 4 0.000000 0.000000 0.000000 0.053880 0.000000 -0.007227
# 5 0.003012 0.001804 0.002906 0.000000 0.034598 0.000000
# 6 0.000000 0.000000 0.000000 -0.007227 0.000000 0.027183
#
#
# Mechanical properties :
#
#
# Convention : Reuss Voigt Hill
#
# Bulk Modulus (GPa) = 52.04700 59.74745 55.89722
# Shear Modulus (GPa) = 26.25394 28.88036 27.56715
#
# Velocity S-wave (km/s) = 3.62053 3.79731 3.70997
# Velocity P-wave (km/s) = 6.59272 7.00408 6.80151
#
# Compressibility (1/GPa) = 0.01921340
#
# Stress axis : x y z
#
# Youngs Moduli (GPa) = 81.43185 70.86518 57.45178
#
# Poissons Ratio (x) = 0.28309 0.25975
# Poissons Ratio (y) = 0.32531 0.21694
# Poissons Ratio (z) = 0.36817 0.26759
#
# Static dielectric constant tensor:
#      x y z
#    x 3.717830 0.000000 -0.005720 
#    y 0.000000 3.489670 0.000000 
#    z -0.005720 0.000000 3.405810 
# 
# 
# High freq. dielectric constant tensor:
#      x y z
#    x 1.796850 0.000000 0.001150 
#    y 0.000000 1.773230 0.000000 
#    z 0.001150 0.000000 1.757000 
# 
# From -- ./inp_files/10883.got.cif
#   From: 2010.06.25/outbox.cif.g09.slc.cpg/sg9_6_cif.got.tgz:10883.got - 2010.06.27 21:40:51.
