data_PCOD8055046
_publ_section_title
;
Structure prediction by ZEFSAII (Michael W. Deem and Ramdas Pophale) SiO2 
 PCOD8055046
Probable space group: C C
;
_chemical_formula_sum "Si O2"
_cell_formula_units_Z 28
_cell_length_a 9.333215
_cell_length_b 30.841349
_cell_length_c 5.045555
_cell_angle_alpha 90.000000
_cell_angle_beta 58.437447
_cell_angle_gamma 90.000000
_cell_volume 1237.509255
_symmetry_space_group_name_H-M "C C"
_symmetry_group_IT_number 9
_symmetry_cell_setting 'monoclinic'
loop_
_space_group_symop_operation_xyz
x,y,z
x,-y,1/2+z
1/2+x,1/2+y,z
1/2+x,1/2-y,1/2+z
loop_
_atom_site_type_symbol
_atom_site_label
_atom_site_fract_x
_atom_site_fract_y
_atom_site_fract_z
Si Si1 0.230120 0.354209 0.588590
Si Si2 0.359046 0.028993 0.873666
Si Si3 0.578919 0.225149 0.954306
Si Si4 0.256227 0.797702 0.518637
Si Si5 0.477777 0.471248 0.739651
Si Si6 0.068535 0.186675 0.684678
Si Si7 0.169564 0.591918 0.640185
O O1 0.431768 0.348433 0.402366
O O2 0.179376 0.390948 0.428823
O O3 0.159244 0.307527 0.584082
O O4 0.165124 0.367976 0.940142
O O5 0.495380 0.066328 0.783228
O O6 0.388469 0.009129 0.555912
O O7 0.168169 0.047806 0.084996
O O8 0.452085 0.197948 0.892501
O O9 0.494806 0.264153 0.213179
O O10 0.711496 0.246925 0.621711
O O11 0.216483 0.812045 0.260221
O O12 0.152835 0.828270 0.825491
O O13 0.450903 0.489916 0.472555
O O14 0.336705 0.435274 0.917526
#
# Coordination Sequence:
#
# PCOD8055046 Si02
#       7
#     4   4   4   4   4   4   4
#     4  12  26  42  63  92 138 168 216 280 338 380
#     4  10  21  42  72 101 132 171 219 255 299 402
#     4  10  23  40  62  88 113 167 226 274 322 388
#     4  10  22  35  67  80 114 148 235 275 309 377
#     4  10  21  42  74 100 128 177 218 250 305 401
#     4  10  22  41  60  87 111 168 221 269 314 386
#     4  12  25  42  64 102 142 171 203 273 343 384
#
# _framework density 22.626094999999999
#
# number of rings (size 3 to 8) (size 9 to 14) (size 15 to 20)
#    0.857    0.571    1.429    3.429    6.000    0.000 
#    7.714    0.000    0.000    0.000    0.000    0.000 
#    0.000    0.000    0.000    0.000    0.000    0.000 
#
# Total GULP energy -173542.177720 kJ/mol
# GULP energy per Si atom -12395.869837 kJ/mol
# Density = 2.257460 g / cm^3
# Si number density = 22.626095 Si / 1000 Ang^3
#
#
#
# Elastic Constant Matrix: (Units=GPa)
#
#
# Indices 1 2 3 4 5 6 
#
# 1 94.5981 4.4706 16.1328 0.0000 6.2559 0.0000
# 2 4.4706 42.3929 8.7877 0.0000 -8.0314 0.0000
# 3 16.1328 8.7877 53.2694 0.0000 2.4498 0.0000
# 4 0.0000 0.0000 0.0000 22.8181 0.0000 -0.5535
# 5 6.2559 -8.0314 2.4498 0.0000 40.1079 0.0000
# 6 0.0000 0.0000 0.0000 -0.5535 0.0000 31.9969
#
#
#
# Elastic Compliance Matrix: (Units=1/GPa)
#
#
# Indices 1 2 3 4 5 6 
#
# 1 0.011271 -0.000855 -0.003192 0.000000 -0.001734 0.000000
# 2 -0.000855 0.025599 -0.004218 0.000000 0.005517 0.000000
# 3 -0.003192 -0.004218 0.020509 0.000000 -0.001599 0.000000
# 4 0.000000 0.000000 0.000000 0.043843 0.000000 0.000758
# 5 -0.001734 0.005517 -0.001599 0.000000 0.026406 0.000000
# 6 0.000000 0.000000 0.000000 0.000758 0.000000 0.031266
#
#
# Mechanical properties :
#
#
# Convention : Reuss Voigt Hill
#
# Bulk Modulus (GPa) = 24.48160 27.67140 26.07650
# Shear Modulus (GPa) = 26.44950 29.70919 28.07935
#
# Velocity S-wave (km/s) = 3.42275 3.62753 3.52663
# Velocity P-wave (km/s) = 5.14430 5.45910 5.30404
#
# Compressibility (1/GPa) = 0.04084700
#
# Stress axis : x y z
#
# Youngs Moduli (GPa) = 88.72647 39.06470 48.75983
#
# Poissons Ratio (x) = 0.03341 0.15567
# Poissons Ratio (y) = 0.07589 0.20565
# Poissons Ratio (z) = 0.28326 0.16476
#
# Static dielectric constant tensor:
#      x y z
#    x 4.169070 0.000000 0.029540 
#    y 0.000000 3.640990 0.000000 
#    z 0.029540 0.000000 4.000140 
# 
# 
# High freq. dielectric constant tensor:
#      x y z
#    x 1.910350 0.000000 0.005520 
#    y 0.000000 1.860240 0.000000 
#    z 0.005520 0.000000 1.893590 
# 
# From -- ./inp_files/1200.got.cif
#   From: 2010.06.25/outbox.cif.g09.slc.cpg/sg9_1_cif.got.tgz:1200.got - 2010.06.27 21:40:51.
