data_PCOD8055868
_publ_section_title
;
Structure prediction by ZEFSAII (Michael W. Deem and Ramdas Pophale) SiO2 
 PCOD8055868
Probable space group: C C
;
_chemical_formula_sum "Si O2"
_cell_formula_units_Z 28
_cell_length_a 5.156065
_cell_length_b 23.853461
_cell_length_c 10.499339
_cell_angle_alpha 90.000000
_cell_angle_beta 63.528950
_cell_angle_gamma 90.000000
_cell_volume 1155.931943
_symmetry_space_group_name_H-M "C C"
_symmetry_group_IT_number 9
_symmetry_cell_setting 'monoclinic'
loop_
_space_group_symop_operation_xyz
x,y,z
x,-y,1/2+z
1/2+x,1/2+y,z
1/2+x,1/2-y,1/2+z
loop_
_atom_site_type_symbol
_atom_site_label
_atom_site_fract_x
_atom_site_fract_y
_atom_site_fract_z
Si Si1 0.129490 0.371221 0.713170
Si Si2 0.090729 0.322441 0.313288
Si Si3 0.532391 0.620416 0.909055
Si Si4 0.102744 0.463252 0.909224
Si Si5 0.087597 0.191075 0.285562
Si Si6 0.602945 0.462455 0.190872
Si Si7 0.882543 0.880999 0.041232
O O1 0.332554 0.402776 0.566749
O O2 0.970307 0.419261 0.834256
O O3 0.321660 0.328940 0.756538
O O4 0.897362 0.336169 0.680255
O O5 0.767683 0.339691 0.427256
O O6 0.338872 0.342634 0.355097
O O7 0.114597 0.257096 0.282410
O O8 0.108723 0.353280 0.171835
O O9 0.681556 0.565031 0.811274
O O10 0.304332 0.504200 0.779685
O O11 0.309357 0.428706 0.956005
O O12 0.863703 0.494554 0.055017
O O13 0.049669 0.170223 0.439055
O O14 0.575490 0.408457 0.107840
#
# Coordination Sequence:
#
# PCOD8055868 Si02
#       7
#     4   4   4   4   4   4   4
#     4  11  25  45  69 106 143 180 244 299 353 441
#     4  11  24  44  72 102 144 189 234 296 366 430
#     4  11  25  45  69 106 143 180 244 299 353 441
#     4  11  25  46  72 101 143 194 240 307 367 430
#     4  11  24  44  72 102 144 189 234 296 366 430
#     4  11  25  46  72 101 143 194 240 307 367 430
#     4  10  24  44  68 102 142 180 246 296 348 444
#
# _framework density 24.222877
#
# number of rings (size 3 to 8) (size 9 to 14) (size 15 to 20)
#    0.000    1.143    2.857    1.714    6.000    5.714 
#    0.000    0.000    0.000    0.000    0.000    0.000 
#    0.000    0.000    0.000    0.000    0.000    0.000 
#
# Total GULP energy -173434.603670 kJ/mol
# GULP energy per Si atom -12388.185976 kJ/mol
# Density = 2.416774 g / cm^3
# Si number density = 24.222877 Si / 1000 Ang^3
#
#
#
# Elastic Constant Matrix: (Units=GPa)
#
#
# Indices 1 2 3 4 5 6 
#
# 1 90.6241 11.9011 6.3810 0.0000 -15.2801 0.0000
# 2 11.9011 67.5246 30.6489 0.0000 -9.6291 0.0000
# 3 6.3810 30.6489 141.0097 0.0000 -27.5852 0.0000
# 4 0.0000 0.0000 0.0000 29.2510 0.0000 -8.0922
# 5 -15.2801 -9.6291 -27.5852 0.0000 40.7827 0.0000
# 6 0.0000 0.0000 0.0000 -8.0922 0.0000 29.1261
#
#
#
# Elastic Compliance Matrix: (Units=1/GPa)
#
#
# Indices 1 2 3 4 5 6 
#
# 1 0.011989 -0.001798 0.000742 0.000000 0.004569 0.000000
# 2 -0.001798 0.016801 -0.003372 0.000000 0.001012 0.000000
# 3 0.000742 -0.003372 0.008862 0.000000 0.005476 0.000000
# 4 0.000000 0.000000 0.000000 0.037033 0.000000 0.010289
# 5 0.004569 0.001012 0.005476 0.000000 0.030175 0.000000
# 6 0.000000 0.000000 0.000000 0.010289 0.000000 0.037192
#
#
# Mechanical properties :
#
#
# Convention : Reuss Voigt Hill
#
# Bulk Modulus (GPa) = 34.72746 44.11338 39.42042
# Shear Modulus (GPa) = 31.15084 36.51377 33.83231
#
# Velocity S-wave (km/s) = 3.58999 3.88675 3.74131
# Velocity P-wave (km/s) = 5.61710 6.19624 5.91376
#
# Compressibility (1/GPa) = 0.02879566
#
# Stress axis : x y z
#
# Youngs Moduli (GPa) = 83.41023 59.51877 112.83546
#
# Poissons Ratio (x) = 0.10703 -0.08375
# Poissons Ratio (y) = 0.15000 0.38054
# Poissons Ratio (z) = -0.06191 0.20073
#
# Static dielectric constant tensor:
#      x y z
#    x 4.175630 0.000000 -0.131000 
#    y 0.000000 4.086620 0.000000 
#    z -0.131000 0.000000 5.187070 
# 
# 
# High freq. dielectric constant tensor:
#      x y z
#    x 1.954590 0.000000 -0.006610 
#    y 0.000000 1.942090 0.000000 
#    z -0.006610 0.000000 1.992070 
# 
# From -- ./inp_files/3986.got.cif
#   From: 2010.06.25/outbox.cif.g09.slc.cpg/sg9_2_cif.got.tgz:3986.got - 2010.06.27 21:40:51.
