data_PCOD8055720
_publ_section_title
;
Structure prediction by ZEFSAII (Michael W. Deem and Ramdas Pophale) SiO2 
 PCOD8055720
Probable space group: C C
;
_chemical_formula_sum "Si O2"
_cell_formula_units_Z 28
_cell_length_a 7.569161
_cell_length_b 11.885922
_cell_length_c 14.667012
_cell_angle_alpha 90.000000
_cell_angle_beta 69.817123
_cell_angle_gamma 90.000000
_cell_volume 1238.514359
_symmetry_space_group_name_H-M "C C"
_symmetry_group_IT_number 9
_symmetry_cell_setting 'monoclinic'
loop_
_space_group_symop_operation_xyz
x,y,z
x,-y,1/2+z
1/2+x,1/2+y,z
1/2+x,1/2-y,1/2+z
loop_
_atom_site_type_symbol
_atom_site_label
_atom_site_fract_x
_atom_site_fract_y
_atom_site_fract_z
Si Si1 0.072940 0.005201 0.495360
Si Si2 0.308999 0.124032 0.097902
Si Si3 0.234899 0.613883 0.969091
Si Si4 0.889820 0.839198 0.153536
Si Si5 0.267630 0.977102 0.283195
Si Si6 0.031084 0.242450 0.809845
Si Si7 0.153967 0.508512 0.299613
O O1 0.052012 0.120752 0.555197
O O2 0.216244 0.919861 0.521211
O O3 0.156724 0.043605 0.382821
O O4 0.868103 0.947980 0.519091
O O5 0.242069 0.254300 0.128407
O O6 0.250590 0.041335 0.190573
O O7 0.536357 0.140477 0.051780
O O8 0.351481 0.721920 0.909046
O O9 0.184003 0.529889 0.896752
O O10 0.964610 0.754687 0.217713
O O11 0.821441 0.957348 0.208919
O O12 0.181595 0.854716 0.293076
O O13 0.476450 0.956820 0.280150
O O14 0.141131 0.357422 0.808835
#
# Coordination Sequence:
#
# PCOD8055720 Si02
#       7
#     4   4   4   4   4   4   4
#     4  11  25  45  68 106 141 186 241 291 355 431
#     4  12  24  44  74 105 141 190 237 296 357 426
#     4  10  25  45  71 106 142 187 239 295 361 422
#     4  11  25  42  69 107 145 185 238 291 362 432
#     4  11  23  45  70 102 138 188 237 291 357 409
#     4  10  23  45  73 104 143 188 236 298 354 429
#     4  11  23  46  73 106 144 186 238 302 354 427
#
# _framework density 22.60773
#
# number of rings (size 3 to 8) (size 9 to 14) (size 15 to 20)
#    0.000    1.143    4.286    0.857    2.000    3.429 
#    0.000    0.000    0.000    0.000    0.000    0.000 
#    0.000    0.000    0.000    0.000    0.000    0.000 
#
# Total GULP energy -173488.134683 kJ/mol
# GULP energy per Si atom -12392.009620 kJ/mol
# Density = 2.255627 g / cm^3
# Si number density = 22.607730 Si / 1000 Ang^3
#
#
#
# Elastic Constant Matrix: (Units=GPa)
#
#
# Indices 1 2 3 4 5 6 
#
# 1 67.0996 6.0438 12.3736 0.0000 9.0502 0.0000
# 2 6.0438 109.9501 44.7560 0.0000 -8.6964 0.0000
# 3 12.3736 44.7560 120.4209 0.0000 1.8044 0.0000
# 4 0.0000 0.0000 0.0000 6.1575 0.0000 -6.0442
# 5 9.0502 -8.6964 1.8044 0.0000 26.2455 0.0000
# 6 0.0000 0.0000 0.0000 -6.0442 0.0000 28.4847
#
#
#
# Elastic Compliance Matrix: (Units=1/GPa)
#
#
# Indices 1 2 3 4 5 6 
#
# 1 0.015976 -0.000819 -0.001252 0.000000 -0.005694 0.000000
# 2 -0.000819 0.011157 -0.004126 0.000000 0.004263 0.000000
# 3 -0.001252 -0.004126 0.009991 0.000000 -0.001622 0.000000
# 4 0.000000 0.000000 0.000000 0.205128 0.000000 0.043526
# 5 -0.005694 0.004263 -0.001622 0.000000 0.041589 0.000000
# 6 0.000000 0.000000 0.000000 0.043526 0.000000 0.044342
#
#
# Mechanical properties :
#
#
# Convention : Reuss Voigt Hill
#
# Bulk Modulus (GPa) = 40.43807 47.09083 43.76445
# Shear Modulus (GPa) = 14.33401 27.79737 21.06569
#
# Velocity S-wave (km/s) = 2.52073 3.51030 3.05584
# Velocity P-wave (km/s) = 5.13788 6.10773 5.64367
#
# Compressibility (1/GPa) = 0.02472917
#
# Stress axis : x y z
#
# Youngs Moduli (GPa) = 62.59443 89.63084 100.09258
#
# Poissons Ratio (x) = 0.07341 0.12530
# Poissons Ratio (y) = 0.05126 0.41301
# Poissons Ratio (z) = 0.07836 0.36985
#
# Static dielectric constant tensor:
#      x y z
#    x 4.158440 0.000000 -0.014290 
#    y 0.000000 4.018710 0.000000 
#    z -0.014290 0.000000 4.449340 
# 
# 
# High freq. dielectric constant tensor:
#      x y z
#    x 1.885680 0.000000 0.006020 
#    y 0.000000 1.890940 0.000000 
#    z 0.006020 0.000000 1.912320 
# 
# From -- ./inp_files/22672.got.cif
#   From: 2010.06.25/outbox.cif.g09.slc.cpg/sg9_12_cif.got.tgz:22672.got - 2010.06.27 21:40:51.
