data_PCOD8055160
_publ_section_title
;
Structure prediction by ZEFSAII (Michael W. Deem and Ramdas Pophale) SiO2 
 PCOD8055160
Probable space group: C C
;
_chemical_formula_sum "Si O2"
_cell_formula_units_Z 32
_cell_length_a 26.411448
_cell_length_b 12.132392
_cell_length_c 14.648340
_cell_angle_alpha 90.000000
_cell_angle_beta 17.376121
_cell_angle_gamma 90.000000
_cell_volume 1401.778838
_symmetry_space_group_name_H-M "C C"
_symmetry_group_IT_number 9
_symmetry_cell_setting 'monoclinic'
loop_
_space_group_symop_operation_xyz
x,y,z
x,-y,1/2+z
1/2+x,1/2+y,z
1/2+x,1/2-y,1/2+z
loop_
_atom_site_type_symbol
_atom_site_label
_atom_site_fract_x
_atom_site_fract_y
_atom_site_fract_z
Si Si1 0.988080 0.613349 0.282240
Si Si2 0.457219 0.585031 0.193127
Si Si3 0.233684 0.913819 0.746045
Si Si4 0.493911 0.871743 0.977330
Si Si5 0.162812 0.320352 0.310738
Si Si6 0.706848 0.779335 0.768861
Si Si7 0.765361 0.833015 0.865040
Si Si8 0.446254 0.115456 0.037451
O O1 0.879293 0.499780 0.463160
O O2 0.877807 0.719325 0.444353
O O3 0.065428 0.629643 0.250187
O O4 0.139453 0.619961 0.948563
O O5 0.282656 0.595423 0.549195
O O6 0.410985 0.592217 0.163997
O O7 0.548640 0.469374 0.057246
O O8 0.574271 0.684847 0.026121
O O9 0.240534 0.802405 0.675352
O O10 0.266653 0.872086 0.794068
O O11 0.643194 0.846027 0.791137
O O12 0.437310 0.994182 0.096109
O O13 0.328690 0.793331 0.270104
O O14 0.984538 0.309887 0.560350
O O15 0.742817 0.857064 0.795641
O O16 0.586361 0.857986 0.218987
#
# Coordination Sequence:
#
# PCOD8055160 Si02
#       8
#     4   4   4   4   4   4   4   4
#     4   9  21  38  60  90 121 163 207 247 310 368
#     4   9  20  39  64  93 125 164 207 250 309 368
#     4  10  22  44  62  85 131 163 200 262 301 360
#     4   9  19  36  59  87 124 160 203 259 302 358
#     4  11  23  39  63  94 123 159 208 254 305 366
#     4   9  17  36  65  87 120 168 206 252 309 360
#     4   9  18  35  61  93 121 161 211 250 301 367
#     4  10  22  37  60  93 123 160 208 250 307 369
#
# _framework density 22.828136000000001
#
# number of rings (size 3 to 8) (size 9 to 14) (size 15 to 20)
#    0.000    2.500    0.000    1.500    0.000    8.000 
#    0.000    7.500    0.000    3.000    0.000    0.000 
#    0.000    0.000    0.000    0.000    0.000    0.000 
#
# Total GULP energy -198215.110265 kJ/mol
# GULP energy per Si atom -12388.444392 kJ/mol
# Density = 2.277618 g / cm^3
# Si number density = 22.828136 Si / 1000 Ang^3
#
#
#
# Elastic Constant Matrix: (Units=GPa)
#
#
# Indices 1 2 3 4 5 6 
#
# 1 173.2534 52.3700 33.4536 -0.0004 -26.2629 0.0002
# 2 52.3700 95.1101 20.9503 -0.0006 -5.9605 0.0004
# 3 33.4536 20.9503 50.3574 -0.0007 1.9945 0.0005
# 4 -0.0004 -0.0006 -0.0007 23.5738 0.0005 -6.2076
# 5 -26.2629 -5.9605 1.9945 0.0005 31.0190 -0.0004
# 6 0.0002 0.0004 0.0005 -6.2076 -0.0004 34.1900
#
#
#
# Elastic Compliance Matrix: (Units=1/GPa)
#
#
# Indices 1 2 3 4 5 6 
#
# 1 0.008767 -0.003345 -0.004713 0.000000 0.007083 0.000000
# 2 -0.003345 0.013054 -0.003204 0.000000 -0.000118 0.000000
# 3 -0.004713 -0.003204 0.024567 0.000001 -0.006185 0.000000
# 4 0.000000 0.000000 0.000001 0.044550 -0.000001 0.008089
# 5 0.007083 -0.000118 -0.006185 -0.000001 0.038610 0.000000
# 6 0.000000 0.000000 0.000000 0.008089 0.000000 0.030717
#
#
# Mechanical properties :
#
#
# Convention : Reuss Voigt Hill
#
# Bulk Modulus (GPa) = 41.90429 59.14096 50.52262
# Shear Modulus (GPa) = 26.21319 31.88636 29.04977
#
# Velocity S-wave (km/s) = 3.39231 3.74143 3.57114
# Velocity P-wave (km/s) = 5.80861 6.68040 6.25970
#
# Compressibility (1/GPa) = 0.02386391
#
# Stress axis : x y z
#
# Youngs Moduli (GPa) = 114.06827 76.60199 40.70530
#
# Poissons Ratio (x) = 0.25625 0.19183
# Poissons Ratio (y) = 0.38158 0.13042
# Poissons Ratio (z) = 0.53757 0.24544
#
# Static dielectric constant tensor:
#      x y z
#    x 4.564650 0.000000 -0.368780 
#    y 0.000000 4.086940 0.000000 
#    z -0.368780 0.000000 3.806280 
# 
# 
# High freq. dielectric constant tensor:
#      x y z
#    x 1.922510 0.000000 -0.019050 
#    y 0.000000 1.893280 0.000000 
#    z -0.019050 0.000000 1.866150 
# 
# From -- ./inp_files/28086.got.cif
#   From: 2010.06.25/outbox.cif.g09.slc.cpg/sg9_15_cif.got.tgz:28086.got - 2010.06.27 21:40:51.
