data_PCOD8055068
_publ_section_title
;
Structure prediction by ZEFSAII (Michael W. Deem and Ramdas Pophale) SiO2 
 PCOD8055068
Probable space group: C C
;
_chemical_formula_sum "Si O2"
_cell_formula_units_Z 32
_cell_length_a 9.861571
_cell_length_b 13.215909
_cell_length_c 19.854293
_cell_angle_alpha 90.000000
_cell_angle_beta 33.490262
_cell_angle_gamma 90.000000
_cell_volume 1427.826801
_symmetry_space_group_name_H-M "C C"
_symmetry_group_IT_number 9
_symmetry_cell_setting 'monoclinic'
loop_
_space_group_symop_operation_xyz
x,y,z
x,-y,1/2+z
1/2+x,1/2+y,z
1/2+x,1/2-y,1/2+z
loop_
_atom_site_type_symbol
_atom_site_label
_atom_site_fract_x
_atom_site_fract_y
_atom_site_fract_z
Si Si1 0.922400 0.215125 0.760960
Si Si2 0.556727 0.763220 0.850040
Si Si3 0.063484 0.861088 0.863410
Si Si4 0.459550 0.895190 0.512875
Si Si5 0.805140 0.080700 0.596848
Si Si6 0.316583 0.557815 0.978305
Si Si7 0.198013 0.926714 0.044505
Si Si8 0.521143 0.737801 0.246512
O O1 0.844623 0.318851 0.753798
O O2 0.083061 0.237847 0.760443
O O3 0.088903 0.143904 0.647319
O O4 0.663758 0.160810 0.883845
O O5 0.416884 0.671132 0.945188
O O6 0.819928 0.783444 0.773306
O O7 0.406026 0.865987 0.918715
O O8 0.929583 0.800229 0.857768
O O9 0.039811 0.982641 0.860327
O O10 0.927315 0.840989 0.991681
O O11 0.595653 0.953407 0.517090
O O12 0.271233 0.819782 0.626003
O O13 0.311358 0.972564 0.528044
O O14 0.580004 0.141608 0.724499
O O15 0.990862 0.042535 0.576997
O O16 0.717498 0.980717 0.592341
#
# Coordination Sequence:
#
# PCOD8055068 Si02
#       8
#     4   4   4   4   4   4   4   4
#     4  11  24  47  69  93 138 179 217 283 331 396
#     4  11  25  44  64 105 132 172 230 272 334 406
#     4  10  21  43  67  93 129 176 222 268 336 383
#     4  11  25  44  68  99 135 170 231 268 340 401
#     4  10  22  45  62  99 130 175 221 272 326 403
#     4   9  22  44  67  89 137 170 223 269 322 403
#     4  12  25  44  69  97 137 178 218 278 339 389
#     4  12  24  41  70  97 136 174 218 282 336 395
#
# _framework density 22.411681999999999
#
# number of rings (size 3 to 8) (size 9 to 14) (size 15 to 20)
#    0.750    0.500    3.750    1.500    7.000    1.000 
#    2.250    0.000    0.000    0.000    0.000    0.000 
#    0.000    0.000    0.000    0.000    0.000    0.000 
#
# Total GULP energy -198324.684495 kJ/mol
# GULP energy per Si atom -12395.292781 kJ/mol
# Density = 2.236067 g / cm^3
# Si number density = 22.411682 Si / 1000 Ang^3
#
#
#
# Elastic Constant Matrix: (Units=GPa)
#
#
# Indices 1 2 3 4 5 6 
#
# 1 158.9933 20.5628 19.7640 -0.0022 2.7830 -0.0009
# 2 20.5628 56.9526 -10.5761 0.0047 1.7287 -0.0012
# 3 19.7640 -10.5761 37.2595 0.0159 2.1444 0.0003
# 4 -0.0022 0.0047 0.0159 15.0152 -0.0009 -7.4027
# 5 2.7830 1.7287 2.1444 -0.0009 29.9534 -0.0006
# 6 -0.0009 -0.0012 0.0003 -7.4027 -0.0006 46.3940
#
#
#
# Elastic Compliance Matrix: (Units=1/GPa)
#
#
# Indices 1 2 3 4 5 6 
#
# 1 0.007364 -0.003567 -0.004911 0.000008 -0.000127 0.000001
# 2 -0.003567 0.020326 0.007742 -0.000016 -0.001396 -0.000002
# 3 -0.004911 0.007742 0.031772 -0.000040 -0.002265 -0.000007
# 4 0.000008 -0.000016 -0.000040 0.072286 0.000005 0.011534
# 5 -0.000127 -0.001396 -0.002265 0.000005 0.033640 0.000001
# 6 0.000001 -0.000002 -0.000007 0.011534 0.000001 0.023395
#
#
# Mechanical properties :
#
#
# Convention : Reuss Voigt Hill
#
# Bulk Modulus (GPa) = 17.24445 34.74521 25.99483
# Shear Modulus (GPa) = 23.85682 33.16949 28.51316
#
# Velocity S-wave (km/s) = 3.26618 3.85126 3.57072
# Velocity P-wave (km/s) = 4.68348 5.94248 5.35015
#
# Compressibility (1/GPa) = 0.05798968
#
# Stress axis : x y z
#
# Youngs Moduli (GPa) = 135.80380 49.19737 31.47455
#
# Poissons Ratio (x) = 0.17548 0.15457
# Poissons Ratio (y) = 0.48438 -0.24367
# Poissons Ratio (z) = 0.66694 -0.38088
#
# Static dielectric constant tensor:
#      x y z
#    x 4.186740 0.000000 0.065880 
#    y 0.000000 3.997470 0.000010 
#    z 0.065880 0.000010 3.778960 
# 
# 
# High freq. dielectric constant tensor:
#      x y z
#    x 1.900740 0.000000 0.006060 
#    y 0.000000 1.884750 0.000000 
#    z 0.006060 0.000000 1.858390 
# 
# From -- ./inp_files/32712.got.cif
#   From: 2010.06.25/outbox.cif.g09.slc.cpg/sg9_17_cif.got.tgz:32712.got - 2010.06.27 21:40:51.
