data_PCOD8055496
_publ_section_title
;
Structure prediction by ZEFSAII (Michael W. Deem and Ramdas Pophale) SiO2 
 PCOD8055496
Probable space group: C C
;
_chemical_formula_sum "Si O2"
_cell_formula_units_Z 32
_cell_length_a 20.825194
_cell_length_b 9.186281
_cell_length_c 15.140443
_cell_angle_alpha 90.000000
_cell_angle_beta 150.969347
_cell_angle_gamma 90.000000
_cell_volume 1405.586224
_symmetry_space_group_name_H-M "C C"
_symmetry_group_IT_number 9
_symmetry_cell_setting 'monoclinic'
loop_
_space_group_symop_operation_xyz
x,y,z
x,-y,1/2+z
1/2+x,1/2+y,z
1/2+x,1/2-y,1/2+z
loop_
_atom_site_type_symbol
_atom_site_label
_atom_site_fract_x
_atom_site_fract_y
_atom_site_fract_z
Si Si1 0.359820 0.403208 0.596110
Si Si2 0.217209 0.612276 0.292924
Si Si3 0.352307 0.663390 0.283182
Si Si4 0.863426 0.631036 0.166685
Si Si5 0.922381 0.475751 0.410631
Si Si6 0.549269 0.632543 0.803905
Si Si7 0.317038 0.093480 0.463121
Si Si8 0.097309 0.896168 0.173753
O O1 0.278063 0.528842 0.448865
O O2 0.301788 0.376701 0.624668
O O3 0.511139 0.464581 0.784662
O O4 0.346641 0.259300 0.522231
O O5 0.274044 0.573343 0.264328
O O6 0.225286 0.786993 0.321745
O O7 0.063812 0.580018 0.108211
O O8 0.506505 0.613354 0.477573
O O9 0.333176 0.836031 0.276210
O O10 0.930095 0.582755 0.337496
O O11 0.953508 0.767426 0.247219
O O12 0.707007 0.664224 0.999472
O O13 0.883471 0.505322 0.118366
O O14 0.868807 0.566907 0.427737
O O15 0.506447 0.650309 0.648926
O O16 0.159239 0.056108 0.267158
#
# Coordination Sequence:
#
# PCOD8055496 Si02
#       8
#     4   4   4   4   4   4   4   4
#     4  12  26  44  71 115 142 186 237 317 357 438
#     4  11  24  45  73 103 144 191 243 299 375 436
#     4  11  23  46  73 103 140 191 247 291 370 440
#     4  11  25  49  73 109 143 203 247 301 372 451
#     4  11  25  44  73 104 141 194 239 302 366 444
#     4  11  25  44  76 105 150 193 250 304 375 441
#     4  11  24  44  71 103 147 182 243 300 362 432
#     4  10  22  46  76  94 145 202 240 292 371 448
#
# _framework density 22.766303000000001
#
# number of rings (size 3 to 8) (size 9 to 14) (size 15 to 20)
#    0.000    1.000    3.750    3.000    1.750    7.000 
#    0.000    0.000    0.000    0.000    0.000    0.000 
#    0.000    0.000    0.000    0.000    0.000    0.000 
#
# Total GULP energy -198291.371424 kJ/mol
# GULP energy per Si atom -12393.210714 kJ/mol
# Density = 2.271449 g / cm^3
# Si number density = 22.766303 Si / 1000 Ang^3
#
#
#
# Elastic Constant Matrix: (Units=GPa)
#
#
# Indices 1 2 3 4 5 6 
#
# 1 141.7247 40.7732 28.0773 0.0000 -28.0923 0.0000
# 2 40.7732 100.3507 27.4105 0.0000 -0.5410 0.0000
# 3 28.0773 27.4105 43.8721 0.0000 -11.6457 0.0000
# 4 0.0000 0.0000 0.0000 18.8605 0.0000 -8.0847
# 5 -28.0923 -0.5410 -11.6457 0.0000 43.2502 0.0000
# 6 0.0000 0.0000 0.0000 -8.0847 0.0000 37.6619
#
#
#
# Elastic Compliance Matrix: (Units=1/GPa)
#
#
# Indices 1 2 3 4 5 6 
#
# 1 0.009572 -0.003112 -0.002737 0.000000 0.005441 0.000000
# 2 -0.003112 0.013193 -0.007263 0.000000 -0.003812 0.000000
# 3 -0.002737 -0.007263 0.030787 0.000000 0.006421 0.000000
# 4 0.000000 0.000000 0.000000 0.058394 0.000000 0.012535
# 5 0.005441 -0.003812 0.006421 0.000000 0.028337 0.000000
# 6 0.000000 0.000000 0.000000 0.012535 0.000000 0.029243
#
#
# Mechanical properties :
#
#
# Convention : Reuss Voigt Hill
#
# Bulk Modulus (GPa) = 36.59238 53.16329 44.87783
# Shear Modulus (GPa) = 24.40693 32.60030 28.50362
#
# Velocity S-wave (km/s) = 3.27779 3.78822 3.54221
# Velocity P-wave (km/s) = 5.51663 6.52201 6.04027
#
# Compressibility (1/GPa) = 0.02732810
#
# Stress axis : x y z
#
# Youngs Moduli (GPa) = 104.46983 75.79875 32.48092
#
# Poissons Ratio (x) = 0.23591 0.08890
# Poissons Ratio (y) = 0.32514 0.23590
# Poissons Ratio (z) = 0.28594 0.55051
#
# Static dielectric constant tensor:
#      x y z
#    x 4.235190 0.000000 -0.031790 
#    y 0.000000 4.112350 0.000000 
#    z -0.031790 0.000000 4.054050 
# 
# 
# High freq. dielectric constant tensor:
#      x y z
#    x 1.913740 0.000000 -0.007820 
#    y 0.000000 1.885530 0.000000 
#    z -0.007820 0.000000 1.894490 
# 
# From -- ./inp_files/26716.got.cif
#   From: 2010.06.25/outbox.cif.g09.slc.cpg/sg9_14_cif.got.tgz:26716.got - 2010.06.27 21:40:51.
