data_PCOD8055940
_publ_section_title
;
Structure prediction by ZEFSAII (Michael W. Deem and Ramdas Pophale) SiO2 
 PCOD8055940
Probable space group: C C
;
_chemical_formula_sum "Si O2"
_cell_formula_units_Z 28
_cell_length_a 18.520980
_cell_length_b 9.287771
_cell_length_c 9.131379
_cell_angle_alpha 90.000000
_cell_angle_beta 129.342033
_cell_angle_gamma 90.000000
_cell_volume 1214.792642
_symmetry_space_group_name_H-M "C C"
_symmetry_group_IT_number 9
_symmetry_cell_setting 'monoclinic'
loop_
_space_group_symop_operation_xyz
x,y,z
x,-y,1/2+z
1/2+x,1/2+y,z
1/2+x,1/2-y,1/2+z
loop_
_atom_site_type_symbol
_atom_site_label
_atom_site_fract_x
_atom_site_fract_y
_atom_site_fract_z
Si Si1 0.369370 0.775597 0.831570
Si Si2 0.713591 0.820158 0.935974
Si Si3 0.032441 0.827983 0.159952
Si Si4 0.306819 0.275228 0.564130
Si Si5 0.956243 0.417856 0.407449
Si Si6 0.661837 0.915380 0.557346
Si Si7 0.950783 0.991148 0.320572
O O1 0.309973 0.758503 0.604548
O O2 0.439087 0.639689 0.920663
O O3 0.432446 0.918400 0.917035
O O4 0.302099 0.763820 0.886428
O O5 0.640729 0.689457 0.832548
O O6 0.716742 0.900964 0.783216
O O7 0.682181 0.926700 0.023745
O O8 0.989202 0.935401 0.218431
O O9 0.979322 0.671896 0.086641
O O10 0.021732 0.895214 0.983456
O O11 0.365776 0.147705 0.713385
O O12 0.202721 0.291321 0.499538
O O13 0.352535 0.431573 0.657219
O O14 0.049904 0.401865 0.428769
#
# Coordination Sequence:
#
# PCOD8055940 Si02
#       7
#     4   4   4   4   4   4   4
#     4  12  25  44  74 110 148 190 249 309 380 429
#     4  11  25  44  73 106 146 192 245 306 368 448
#     4  10  24  48  70 103 143 190 247 300 368 444
#     4  11  25  46  75 110 141 199 251 303 366 453
#     4  10  27  46  76 109 152 192 248 321 370 444
#     4  11  24  47  75 103 151 201 248 298 384 453
#     4  11  22  45  73  97 143 194 244 295 364 453
#
# _framework density 23.049202000000001
#
# number of rings (size 3 to 8) (size 9 to 14) (size 15 to 20)
#    0.000    1.143    2.857    1.714   10.000    0.000 
#   12.857    0.000    0.000    0.000    0.000    0.000 
#    0.000    0.000    0.000    0.000    0.000    0.000 
#
# Total GULP energy -173560.767640 kJ/mol
# GULP energy per Si atom -12397.197689 kJ/mol
# Density = 2.299674 g / cm^3
# Si number density = 23.049202 Si / 1000 Ang^3
#
#
#
# Elastic Constant Matrix: (Units=GPa)
#
#
# Indices 1 2 3 4 5 6 
#
# 1 130.2577 52.3761 40.6987 0.0000 -5.8260 0.0000
# 2 52.3761 126.5869 37.5176 0.0000 1.9297 0.0000
# 3 40.6987 37.5176 90.0195 0.0000 -1.7482 0.0000
# 4 0.0000 0.0000 0.0000 28.3346 0.0000 2.3061
# 5 -5.8260 1.9297 -1.7482 0.0000 37.1000 0.0000
# 6 0.0000 0.0000 0.0000 2.3061 0.0000 33.9775
#
#
#
# Elastic Compliance Matrix: (Units=1/GPa)
#
#
# Indices 1 2 3 4 5 6 
#
# 1 0.010038 -0.003242 -0.003156 0.000000 0.001596 0.000000
# 2 -0.003242 0.010076 -0.002756 0.000000 -0.001163 0.000000
# 3 -0.003156 -0.002756 0.013690 0.000000 0.000293 0.000000
# 4 0.000000 0.000000 0.000000 0.035489 0.000000 -0.002409
# 5 0.001596 -0.001163 0.000293 0.000000 0.027279 0.000000
# 6 0.000000 0.000000 0.000000 -0.002409 0.000000 0.029595
#
#
# Mechanical properties :
#
#
# Convention : Reuss Voigt Hill
#
# Bulk Modulus (GPa) = 64.53635 67.56097 66.04866
# Shear Modulus (GPa) = 33.41343 34.30054 33.85698
#
# Velocity S-wave (km/s) = 3.81157 3.86183 3.83678
# Velocity P-wave (km/s) = 6.88701 7.01857 6.95310
#
# Compressibility (1/GPa) = 0.01549514
#
# Stress axis : x y z
#
# Youngs Moduli (GPa) = 99.61809 99.24773 73.04646
#
# Poissons Ratio (x) = 0.32180 0.23054
# Poissons Ratio (y) = 0.32300 0.20132
# Poissons Ratio (z) = 0.31441 0.27353
#
# Static dielectric constant tensor:
#      x y z
#    x 4.061220 0.000000 -0.070650 
#    y 0.000000 4.245580 0.000000 
#    z -0.070650 0.000000 4.188600 
# 
# 
# High freq. dielectric constant tensor:
#      x y z
#    x 1.901800 0.000000 -0.006210 
#    y 0.000000 1.915110 0.000000 
#    z -0.006210 0.000000 1.910020 
# 
# From -- ./inp_files/11424.got.cif
#   From: 2010.06.25/outbox.cif.g09.slc.cpg/sg9_6_cif.got.tgz:11424.got - 2010.06.27 21:40:51.
