data_PCOD8055378
_publ_section_title
;
Structure prediction by ZEFSAII (Michael W. Deem and Ramdas Pophale) SiO2 
 PCOD8055378
Probable space group: C C
;
_chemical_formula_sum "Si O2"
_cell_formula_units_Z 32
_cell_length_a 11.053456
_cell_length_b 11.471127
_cell_length_c 17.052972
_cell_angle_alpha 90.000000
_cell_angle_beta 38.814217
_cell_angle_gamma 90.000000
_cell_volume 1355.287030
_symmetry_space_group_name_H-M "C C"
_symmetry_group_IT_number 9
_symmetry_cell_setting 'monoclinic'
loop_
_space_group_symop_operation_xyz
x,y,z
x,-y,1/2+z
1/2+x,1/2+y,z
1/2+x,1/2-y,1/2+z
loop_
_atom_site_type_symbol
_atom_site_label
_atom_site_fract_x
_atom_site_fract_y
_atom_site_fract_z
Si Si1 0.014890 0.335261 0.052880
Si Si2 0.899505 0.926859 0.590545
Si Si3 0.610692 0.238727 0.930098
Si Si4 0.183380 0.966408 0.145362
Si Si5 0.294076 0.828432 0.687797
Si Si6 0.274704 0.059973 0.424725
Si Si7 0.255162 0.504149 0.327279
Si Si8 0.064393 0.487988 0.655677
O O1 0.077922 0.386120 0.106065
O O2 0.004035 0.196262 0.055752
O O3 0.795376 0.376502 0.144509
O O4 0.180082 0.380648 0.909608
O O5 0.762810 0.961924 0.732399
O O6 0.772892 0.933693 0.574835
O O7 0.072371 0.016591 0.491276
O O8 0.634302 0.276778 0.827386
O O9 0.776822 0.302162 0.898982
O O10 0.609771 0.097849 0.926895
O O11 0.406146 0.268286 0.077447
O O12 0.179554 0.093658 0.184360
O O13 0.957798 0.942009 0.248508
O O14 0.297248 0.961965 0.005271
O O15 0.461017 0.896221 0.651067
O O16 0.446120 0.991826 0.295398
#
# Coordination Sequence:
#
# PCOD8055378 Si02
#       8
#     4   4   4   4   4   4   4   4
#     4  11  25  44  71 106 140 187 249 299 369 449
#     4  11  26  46  69 104 150 190 238 306 379 439
#     4  11  22  45  72  99 141 185 248 300 361 452
#     4  10  22  45  68 102 141 182 235 305 362 437
#     4  10  22  43  66 109 138 183 248 295 364 451
#     4  10  24  44  67 104 138 183 246 293 369 441
#     4  11  24  47  68 103 140 187 243 303 376 446
#     4  10  23  44  67 103 138 187 239 299 366 439
#
# _framework density 23.611234
#
# number of rings (size 3 to 8) (size 9 to 14) (size 15 to 20)
#    0.000    1.500    2.500    2.250    7.000    3.000 
#   13.500    0.000    0.000    0.000    0.000    0.000 
#    0.000    0.000    0.000    0.000    0.000    0.000 
#
# Total GULP energy -198274.779063 kJ/mol
# GULP energy per Si atom -12392.173691 kJ/mol
# Density = 2.355749 g / cm^3
# Si number density = 23.611234 Si / 1000 Ang^3
#
#
#
# Elastic Constant Matrix: (Units=GPa)
#
#
# Indices 1 2 3 4 5 6 
#
# 1 69.0938 38.5483 24.8629 -0.0001 14.7644 0.0000
# 2 38.5483 88.1167 18.4960 -0.0003 17.2519 0.0001
# 3 24.8629 18.4960 115.6906 -0.0014 28.1619 0.0004
# 4 -0.0001 -0.0003 -0.0014 34.4635 0.0004 5.8841
# 5 14.7644 17.2519 28.1619 0.0004 27.8038 -0.0001
# 6 0.0000 0.0001 0.0004 5.8841 -0.0001 23.6267
#
#
#
# Elastic Compliance Matrix: (Units=1/GPa)
#
#
# Indices 1 2 3 4 5 6 
#
# 1 0.020384 -0.007709 -0.002227 0.000000 -0.003786 0.000000
# 2 -0.007709 0.015835 0.000691 0.000000 -0.006431 0.000000
# 3 -0.002227 0.000691 0.011717 0.000001 -0.011114 0.000000
# 4 0.000000 0.000000 0.000001 0.030305 -0.000001 -0.007547
# 5 -0.003786 -0.006431 -0.011114 -0.000001 0.053225 0.000001
# 6 0.000000 0.000000 0.000000 -0.007547 0.000001 0.044205
#
#
# Mechanical properties :
#
#
# Convention : Reuss Voigt Hill
#
# Bulk Modulus (GPa) = 33.95949 48.52393 41.24171
# Shear Modulus (GPa) = 24.51264 29.91172 27.21218
#
# Velocity S-wave (km/s) = 3.22557 3.56314 3.39855
# Velocity P-wave (km/s) = 5.31850 6.12566 5.73629
#
# Compressibility (1/GPa) = 0.02944685
#
# Stress axis : x y z
#
# Youngs Moduli (GPa) = 49.05761 63.15057 85.34341
#
# Poissons Ratio (x) = 0.48682 0.19004
# Poissons Ratio (y) = 0.37818 -0.05894
# Poissons Ratio (z) = 0.10924 -0.04361
#
# Static dielectric constant tensor:
#      x y z
#    x 4.106900 0.000000 0.161970 
#    y 0.000000 4.051000 0.000000 
#    z 0.161970 0.000000 4.405460 
# 
# 
# High freq. dielectric constant tensor:
#      x y z
#    x 1.925360 0.000000 0.009250 
#    y 0.000000 1.922110 0.000000 
#    z 0.009250 0.000000 1.951030 
# 
# From -- ./inp_files/16455.got.cif
#   From: 2010.06.25/outbox.cif.g09.slc.cpg/sg9_9_cif.got.tgz:16455.got - 2010.06.27 21:40:51.
