data_PCOD8055315
_publ_section_title
;
Structure prediction by ZEFSAII (Michael W. Deem and Ramdas Pophale) SiO2 
 PCOD8055315
Probable space group: C C
;
_chemical_formula_sum "Si O2"
_cell_formula_units_Z 28
_cell_length_a 14.888077
_cell_length_b 8.056579
_cell_length_c 12.461841
_cell_angle_alpha 90.000000
_cell_angle_beta 61.643827
_cell_angle_gamma 90.000000
_cell_volume 1315.406979
_symmetry_space_group_name_H-M "C C"
_symmetry_group_IT_number 9
_symmetry_cell_setting 'monoclinic'
loop_
_space_group_symop_operation_xyz
x,y,z
x,-y,1/2+z
1/2+x,1/2+y,z
1/2+x,1/2-y,1/2+z
loop_
_atom_site_type_symbol
_atom_site_label
_atom_site_fract_x
_atom_site_fract_y
_atom_site_fract_z
Si Si1 0.094330 0.283437 0.313010
Si Si2 0.956164 0.695397 0.640799
Si Si3 0.880283 0.835564 0.895226
Si Si4 0.674580 0.302028 0.991066
Si Si5 0.164118 0.165617 0.058957
Si Si6 0.386947 0.284882 0.447295
Si Si7 0.534299 0.908721 0.721365
O O1 0.162070 0.270705 0.379603
O O2 0.143828 0.156597 0.198545
O O3 0.097860 0.468701 0.263041
O O4 0.975543 0.242255 0.406866
O O5 0.908919 0.828103 0.752331
O O6 0.897875 0.720973 0.563136
O O7 0.078209 0.716656 0.554677
O O8 0.949767 0.510001 0.697349
O O9 0.866348 0.020080 0.948015
O O10 0.777405 0.731775 0.972193
O O11 0.792119 0.312819 0.954218
O O12 0.637512 0.490294 0.019930
O O13 0.616099 0.180776 0.102496
O O14 0.483541 0.232917 0.322394
#
# Coordination Sequence:
#
# PCOD8055315 Si02
#       7
#     4   4   4   4   4   4   4
#     4  10  23  42  61  88 125 162 203 258 306 364
#     4  10  23  42  61  88 125 162 203 258 306 364
#     4  10  22  42  63  88 122 164 207 255 309 365
#     4  12  24  38  63  94 121 163 207 251 312 369
#     4  10  22  42  63  88 122 164 207 255 309 365
#     4  12  24  38  63  94 121 163 207 251 312 369
#     4  10  22  42  62  90 126 162 208 258 304 364
#
# _framework density 21.286189
#
# number of rings (size 3 to 8) (size 9 to 14) (size 15 to 20)
#    0.000    1.714    0.000    6.857    0.000    6.857 
#    0.000    0.000    0.000    0.000    0.000    0.000 
#    0.000    0.000    0.000    0.000    0.000    0.000 
#
# Total GULP energy -173563.083558 kJ/mol
# GULP energy per Si atom -12397.363111 kJ/mol
# Density = 2.123774 g / cm^3
# Si number density = 21.286189 Si / 1000 Ang^3
#
#
#
# Elastic Constant Matrix: (Units=GPa)
#
#
# Indices 1 2 3 4 5 6 
#
# 1 128.5765 15.4692 59.6599 0.0000 20.8190 0.0000
# 2 15.4692 105.9028 32.3670 0.0000 10.4771 0.0000
# 3 59.6599 32.3670 104.1524 0.0000 8.9059 0.0000
# 4 0.0000 0.0000 0.0000 39.3915 0.0000 -5.9833
# 5 20.8190 10.4771 8.9059 0.0000 35.0653 0.0000
# 6 0.0000 0.0000 0.0000 -5.9833 0.0000 23.0460
#
#
#
# Elastic Compliance Matrix: (Units=1/GPa)
#
#
# Indices 1 2 3 4 5 6 
#
# 1 0.011529 0.000809 -0.006388 0.000000 -0.005464 0.000000
# 2 0.000809 0.010682 -0.003546 0.000000 -0.002771 0.000000
# 3 -0.006388 -0.003546 0.014257 0.000000 0.001231 0.000000
# 4 0.000000 0.000000 0.000000 0.026428 0.000000 0.006862
# 5 -0.005464 -0.002771 0.001231 0.000000 0.032278 0.000000
# 6 0.000000 0.000000 0.000000 0.006862 0.000000 0.045173
#
#
# Mechanical properties :
#
#
# Convention : Reuss Voigt Hill
#
# Bulk Modulus (GPa) = 54.89050 61.51375 58.20213
# Shear Modulus (GPa) = 30.36352 34.90960 32.63656
#
# Velocity S-wave (km/s) = 3.78092 4.05410 3.91989
# Velocity P-wave (km/s) = 6.70100 7.13270 6.92022
#
# Compressibility (1/GPa) = 0.01821809
#
# Stress axis : x y z
#
# Youngs Moduli (GPa) = 86.73756 93.61160 70.13968
#
# Poissons Ratio (x) = -0.07573 0.44806
# Poissons Ratio (y) = -0.07017 0.24872
# Poissons Ratio (z) = 0.55409 0.33196
#
# Static dielectric constant tensor:
#      x y z
#    x 3.794950 0.000000 -0.029390 
#    y 0.000000 3.868460 0.000000 
#    z -0.029390 0.000000 3.953290 
# 
# 
# High freq. dielectric constant tensor:
#      x y z
#    x 1.828860 0.000000 -0.005800 
#    y 0.000000 1.840020 0.000000 
#    z -0.005800 0.000000 1.839900 
# 
# From -- ./inp_files/17679.got.cif
#   From: 2010.06.25/outbox.cif.g09.slc.cpg/sg9_9_cif.got.tgz:17679.got - 2010.06.27 21:40:51.
