data_PCOD8055191
_publ_section_title
;
Structure prediction by ZEFSAII (Michael W. Deem and Ramdas Pophale) SiO2 
 PCOD8055191
Probable space group: C C
;
_chemical_formula_sum "Si O2"
_cell_formula_units_Z 32
_cell_length_a 6.663998
_cell_length_b 28.568300
_cell_length_c 8.278141
_cell_angle_alpha 90.000000
_cell_angle_beta 98.167392
_cell_angle_gamma 90.000000
_cell_volume 1560.000152
_symmetry_space_group_name_H-M "C C"
_symmetry_group_IT_number 9
_symmetry_cell_setting 'monoclinic'
loop_
_space_group_symop_operation_xyz
x,y,z
x,-y,1/2+z
1/2+x,1/2+y,z
1/2+x,1/2-y,1/2+z
loop_
_atom_site_type_symbol
_atom_site_label
_atom_site_fract_x
_atom_site_fract_y
_atom_site_fract_z
Si Si1 0.136850 0.208660 0.753490
Si Si2 0.989740 0.458175 0.201723
Si Si3 0.706304 0.363728 0.693013
Si Si4 0.710127 0.616929 0.564666
Si Si5 0.472118 0.794239 0.546490
Si Si6 0.919901 0.935406 0.261179
Si Si7 0.792354 0.456279 0.508281
Si Si8 0.339717 0.657021 0.931727
O O1 0.226157 0.164179 0.669060
O O2 0.099086 0.250782 0.627207
O O3 0.926394 0.195271 0.815791
O O4 0.301340 0.224506 0.904505
O O5 0.227858 0.468058 0.190601
O O6 0.962894 0.451536 0.390551
O O7 0.922398 0.410764 0.102032
O O8 0.846472 0.500609 0.128821
O O9 0.666099 0.371617 0.875532
O O10 0.871240 0.322911 0.682410
O O11 0.789912 0.409903 0.615560
O O12 0.492208 0.347567 0.598745
O O13 0.535502 0.582937 0.615476
O O14 0.620788 0.828063 0.466348
O O15 0.816761 0.892437 0.342284
O O16 0.073822 0.963383 0.396189
#
# Coordination Sequence:
#
# PCOD8055191 Si02
#       8
#     4   4   4   4   4   4   4   4
#     4  10  24  39  60  87 125 161 209 261 314 372
#     4  11  21  39  64  89 123 166 206 254 319 373
#     4  10  22  41  62  92 126 163 206 263 309 369
#     4  10  22  40  60  90 126 160 210 262 308 373
#     4  11  23  40  63  88 123 167 208 259 315 374
#     4   9  20  40  62  86 123 166 201 254 316 366
#     4  10  22  39  62  91 126 157 210 262 304 377
#     4   9  20  40  61  85 120 164 208 249 311 368
#
# _framework density 20.512817999999999
#
# number of rings (size 3 to 8) (size 9 to 14) (size 15 to 20)
#    0.000    2.000    0.000    4.500    3.500    4.000 
#    2.250    3.750    0.000    0.000    0.000    0.000 
#    0.000    0.000    0.000    0.000    0.000    0.000 
#
# Total GULP energy -198419.952716 kJ/mol
# GULP energy per Si atom -12401.247045 kJ/mol
# Density = 2.046613 g / cm^3
# Si number density = 20.512818 Si / 1000 Ang^3
#
#
#
# Elastic Constant Matrix: (Units=GPa)
#
#
# Indices 1 2 3 4 5 6 
#
# 1 109.6240 30.4661 24.2666 0.0000 6.2366 0.0000
# 2 30.4661 84.3125 26.5368 0.0000 14.3498 0.0000
# 3 24.2666 26.5368 102.9127 0.0000 -0.8982 0.0000
# 4 0.0000 0.0000 0.0000 27.2896 0.0000 4.3426
# 5 6.2366 14.3498 -0.8982 0.0000 20.8595 0.0000
# 6 0.0000 0.0000 0.0000 4.3426 0.0000 24.3939
#
#
#
# Elastic Compliance Matrix: (Units=1/GPa)
#
#
# Indices 1 2 3 4 5 6 
#
# 1 0.010402 -0.003046 -0.001677 0.000000 -0.001087 0.000000
# 2 -0.003046 0.015757 -0.003433 0.000000 -0.010077 0.000000
# 3 -0.001677 -0.003433 0.011027 0.000000 0.003338 0.000000
# 4 0.000000 0.000000 0.000000 0.037712 0.000000 -0.006714
# 5 -0.001087 -0.010077 0.003338 0.000000 0.055340 0.000000
# 6 0.000000 0.000000 0.000000 -0.006714 0.000000 0.042189
#
#
# Mechanical properties :
#
#
# Convention : Reuss Voigt Hill
#
# Bulk Modulus (GPa) = 47.90600 51.04316 49.47458
# Shear Modulus (GPa) = 25.54991 28.88057 27.21524
#
# Velocity S-wave (km/s) = 3.53308 3.75631 3.64640
# Velocity P-wave (km/s) = 6.32838 6.61443 6.47298
#
# Compressibility (1/GPa) = 0.02087421
#
# Stress axis : x y z
#
# Youngs Moduli (GPa) = 96.13925 63.46501 90.68952
#
# Poissons Ratio (x) = 0.19331 0.15206
# Poissons Ratio (y) = 0.29283 0.31131
# Poissons Ratio (z) = 0.16120 0.21786
#
# Static dielectric constant tensor:
#      x y z
#    x 3.666370 0.000000 -0.035970 
#    y 0.000000 3.676450 0.000000 
#    z -0.035970 0.000000 3.731720 
# 
# 
# High freq. dielectric constant tensor:
#      x y z
#    x 1.805090 0.000000 -0.001730 
#    y 0.000000 1.798880 0.000000 
#    z -0.001730 0.000000 1.801620 
# 
# From -- ./inp_files/4337.got.cif
#   From: 2010.06.25/outbox.cif.g09.slc.cpg/sg9_3_cif.got.tgz:4337.got - 2010.06.27 21:40:51.
