data_PCOD8055524
_publ_section_title
;
Structure prediction by ZEFSAII (Michael W. Deem and Ramdas Pophale) SiO2 
 PCOD8055524
Probable space group: C C
;
_chemical_formula_sum "Si O2"
_cell_formula_units_Z 24
_cell_length_a 5.394392
_cell_length_b 23.426952
_cell_length_c 8.345014
_cell_angle_alpha 90.000000
_cell_angle_beta 99.044290
_cell_angle_gamma 90.000000
_cell_volume 1041.482513
_symmetry_space_group_name_H-M "C C"
_symmetry_group_IT_number 9
_symmetry_cell_setting 'monoclinic'
loop_
_space_group_symop_operation_xyz
x,y,z
x,-y,1/2+z
1/2+x,1/2+y,z
1/2+x,1/2-y,1/2+z
loop_
_atom_site_type_symbol
_atom_site_label
_atom_site_fract_x
_atom_site_fract_y
_atom_site_fract_z
Si Si1 0.072770 0.002802 0.807840
Si Si2 0.643228 0.714403 0.159911
Si Si3 0.740056 0.960559 0.523548
Si Si4 0.471489 0.177230 0.467300
Si Si5 0.625442 0.155361 0.144208
Si Si6 0.879284 0.556991 0.589856
O O1 0.309136 0.041359 0.768929
O O2 0.988827 0.959711 0.660171
O O3 0.839379 0.042392 0.849039
O O4 0.140769 0.961326 0.960127
O O5 0.729389 0.707798 0.356178
O O6 0.380013 0.682548 0.100148
O O7 0.870249 0.689629 0.072440
O O8 0.612097 0.779558 0.100873
O O9 0.576915 0.906305 0.559122
O O10 0.609959 0.021031 0.545034
O O11 0.648767 0.153396 0.341306
O O12 0.406484 0.124593 0.576336
#
# Coordination Sequence:
#
# PCOD8055524 Si02
#       6
#     4   4   4   4   4   4
#     4  10  23  38  68 107 141 178 233 278 374 429
#     4  10  25  45  73  99 139 191 239 295 355 414
#     4  11  22  43  66 106 138 185 226 294 362 428
#     4  10  24  46  72 100 144 185 246 296 357 419
#     4  10  24  44  73  97 143 182 235 299 354 422
#     4  11  22  44  68 103 141 183 227 298 354 436
#
# _framework density 23.044073999999998
#
# number of rings (size 3 to 8) (size 9 to 14) (size 15 to 20)
#    1.000    0.667    0.000    4.000    7.000    1.333 
#    9.000    0.000    0.000    0.000    0.000    0.000 
#    0.000    0.000    0.000    0.000    0.000    0.000 
#
# Total GULP energy -148687.808777 kJ/mol
# GULP energy per Si atom -12390.650731 kJ/mol
# Density = 2.299162 g / cm^3
# Si number density = 23.044074 Si / 1000 Ang^3
#
#
#
# Elastic Constant Matrix: (Units=GPa)
#
#
# Indices 1 2 3 4 5 6 
#
# 1 127.4695 49.3993 18.2134 0.0000 -26.4253 0.0000
# 2 49.3993 173.7873 55.4458 0.0000 -9.5444 0.0000
# 3 18.2134 55.4458 71.9997 0.0000 -21.2367 0.0000
# 4 0.0000 0.0000 0.0000 39.6423 0.0000 -1.5466
# 5 -26.4253 -9.5444 -21.2367 0.0000 35.5133 0.0000
# 6 0.0000 0.0000 0.0000 -1.5466 0.0000 34.6668
#
#
#
# Elastic Compliance Matrix: (Units=1/GPa)
#
#
# Indices 1 2 3 4 5 6 
#
# 1 0.010506 -0.003267 0.002313 0.000000 0.008323 0.000000
# 2 -0.003267 0.008738 -0.007196 0.000000 -0.004386 0.000000
# 3 0.002313 -0.007196 0.022805 0.000000 0.013425 0.000000
# 4 0.000000 0.000000 0.000000 0.025270 0.000000 0.001127
# 5 0.008323 -0.004386 0.013425 0.000000 0.041200 0.000000
# 6 0.000000 0.000000 0.000000 0.001127 0.000000 0.028896
#
#
# Mechanical properties :
#
#
# Convention : Reuss Voigt Hill
#
# Bulk Modulus (GPa) = 38.83693 68.81928 53.82810
# Shear Modulus (GPa) = 30.80744 38.64432 34.72588
#
# Velocity S-wave (km/s) = 3.66032 4.09953 3.88613
# Velocity P-wave (km/s) = 5.89524 7.23445 6.59890
#
# Compressibility (1/GPa) = 0.02574869
#
# Stress axis : x y z
#
# Youngs Moduli (GPa) = 95.18324 114.44413 43.85003
#
# Poissons Ratio (x) = 0.37392 -0.10144
# Poissons Ratio (y) = 0.31099 0.31555
# Poissons Ratio (z) = -0.22018 0.82355
#
# Static dielectric constant tensor:
#      x y z
#    x 4.133730 0.000000 -0.042020 
#    y 0.000000 3.843490 0.000000 
#    z -0.042020 0.000000 4.235410 
# 
# 
# High freq. dielectric constant tensor:
#      x y z
#    x 1.918120 0.000000 0.001100 
#    y 0.000000 1.889520 0.000000 
#    z 0.001100 0.000000 1.905040 
# 
# From -- ./inp_files/3958.got.cif
#   From: 2010.06.25/outbox.cif.g09.slc.cpg/sg9_2_cif.got.tgz:3958.got - 2010.06.27 21:40:51.
