data_PCOD8055052
_publ_section_title
;
Structure prediction by ZEFSAII (Michael W. Deem and Ramdas Pophale) SiO2 
 PCOD8055052
Probable space group: C C
;
_chemical_formula_sum "Si O2"
_cell_formula_units_Z 32
_cell_length_a 23.163394
_cell_length_b 9.362338
_cell_length_c 17.938321
_cell_angle_alpha 90.000000
_cell_angle_beta 22.400850
_cell_angle_gamma 90.000000
_cell_volume 1482.480952
_symmetry_space_group_name_H-M "C C"
_symmetry_group_IT_number 9
_symmetry_cell_setting 'monoclinic'
loop_
_space_group_symop_operation_xyz
x,y,z
x,-y,1/2+z
1/2+x,1/2+y,z
1/2+x,1/2-y,1/2+z
loop_
_atom_site_type_symbol
_atom_site_label
_atom_site_fract_x
_atom_site_fract_y
_atom_site_fract_z
Si Si1 0.335220 0.683127 0.600490
Si Si2 0.992120 0.693173 0.045975
Si Si3 0.277131 0.046918 0.793306
Si Si4 0.406570 0.861975 0.380978
Si Si5 0.317578 0.116376 0.579919
Si Si6 0.978548 0.891689 0.454916
Si Si7 0.245175 0.274690 0.944017
Si Si8 0.953340 0.005698 0.650040
O O1 0.451898 0.779408 0.507957
O O2 0.313561 0.760278 0.547992
O O3 0.411526 0.530259 0.494049
O O4 0.172949 0.671457 0.837047
O O5 0.906826 0.550869 0.177196
O O6 0.920629 0.827499 0.175801
O O7 0.297234 0.029522 0.680608
O O8 0.281003 0.208901 0.819091
O O9 0.108501 0.992659 0.011591
O O10 0.308335 0.848444 0.423351
O O11 0.415994 0.022749 0.403451
O O12 0.571034 0.800947 0.167683
O O13 0.156719 0.137952 0.730707
O O14 0.394396 0.263066 0.513479
O O15 0.955443 0.913893 0.571002
O O16 0.327697 0.428671 0.851438
#
# Coordination Sequence:
#
# PCOD8055052 Si02
#       8
#     4   4   4   4   4   4   4   4
#     4  11  22  40  64 103 131 173 223 280 341 402
#     4  11  21  39  73  96 133 171 231 291 330 390
#     4  11  22  42  66 102 130 175 230 285 332 407
#     4  12  25  43  66  99 137 181 222 275 352 419
#     4  11  23  43  67 100 133 174 235 280 331 404
#     4  10  23  38  70  97 132 167 232 288 327 389
#     4  12  25  42  70  95 141 182 220 281 355 412
#     4  10  21  43  62 102 131 175 227 280 338 407
#
# _framework density 21.585438
#
# number of rings (size 3 to 8) (size 9 to 14) (size 15 to 20)
#    0.000    1.000    5.000    3.000    1.750    2.000 
#    0.000    3.750    0.000    0.000    0.000    0.000 
#    0.000    0.000    0.000    0.000    0.000    0.000 
#
# Total GULP energy -198271.274097 kJ/mol
# GULP energy per Si atom -12391.954631 kJ/mol
# Density = 2.153631 g / cm^3
# Si number density = 21.585438 Si / 1000 Ang^3
#
#
#
# Elastic Constant Matrix: (Units=GPa)
#
#
# Indices 1 2 3 4 5 6 
#
# 1 43.7150 12.8406 13.7120 0.0000 -15.9928 0.0000
# 2 12.8406 121.4607 49.2476 0.0000 -14.8220 0.0000
# 3 13.7120 49.2476 91.6228 -0.0001 -20.0076 0.0000
# 4 0.0000 0.0000 -0.0001 43.6721 0.0000 0.5892
# 5 -15.9928 -14.8220 -20.0076 0.0000 27.3588 0.0000
# 6 0.0000 0.0000 0.0000 0.5892 0.0000 32.7904
#
#
#
# Elastic Compliance Matrix: (Units=1/GPa)
#
#
# Indices 1 2 3 4 5 6 
#
# 1 0.029234 -0.000983 -0.000275 0.000000 0.016355 0.000000
# 2 -0.000983 0.010641 -0.005283 0.000000 0.001327 0.000000
# 3 -0.000275 -0.005283 0.015631 0.000000 0.008408 0.000000
# 4 0.000000 0.000000 0.000000 0.022903 0.000000 -0.000412
# 5 0.016355 0.001327 0.008408 0.000000 0.052980 0.000000
# 6 0.000000 0.000000 0.000000 -0.000412 0.000000 0.030504
#
#
# Mechanical properties :
#
#
# Convention : Reuss Voigt Hill
#
# Bulk Modulus (GPa) = 23.57165 45.37767 34.47466
# Shear Modulus (GPa) = 26.43877 32.83081 29.63479
#
# Velocity S-wave (km/s) = 3.50357 3.90419 3.70930
# Velocity P-wave (km/s) = 5.22595 6.43363 5.86098
#
# Compressibility (1/GPa) = 0.04242384
#
# Stress axis : x y z
#
# Youngs Moduli (GPa) = 34.20690 93.97727 63.97536
#
# Poissons Ratio (x) = 0.09240 0.01760
# Poissons Ratio (y) = 0.03363 0.33796
# Poissons Ratio (z) = 0.00941 0.49645
#
# Static dielectric constant tensor:
#      x y z
#    x 3.904140 0.000000 -0.169590 
#    y 0.000000 3.887020 0.000000 
#    z -0.169590 0.000000 3.769230 
# 
# 
# High freq. dielectric constant tensor:
#      x y z
#    x 1.833160 0.000000 -0.023900 
#    y 0.000000 1.850410 0.000000 
#    z -0.023900 0.000000 1.840080 
# 
# From -- ./inp_files/11349.got.cif
#   From: 2010.06.25/outbox.cif.g09.slc.cpg/sg9_6_cif.got.tgz:11349.got - 2010.06.27 21:40:51.
