data_PCOD8055949
_publ_section_title
;
Structure prediction by ZEFSAII (Michael W. Deem and Ramdas Pophale) SiO2 
 PCOD8055949
Probable space group: C C
;
_chemical_formula_sum "Si O2"
_cell_formula_units_Z 28
_cell_length_a 11.866311
_cell_length_b 11.399086
_cell_length_c 17.555032
_cell_angle_alpha 90.000000
_cell_angle_beta 147.595302
_cell_angle_gamma 90.000000
_cell_volume 1272.529670
_symmetry_space_group_name_H-M "C C"
_symmetry_group_IT_number 9
_symmetry_cell_setting 'monoclinic'
loop_
_space_group_symop_operation_xyz
x,y,z
x,-y,1/2+z
1/2+x,1/2+y,z
1/2+x,1/2-y,1/2+z
loop_
_atom_site_type_symbol
_atom_site_label
_atom_site_fract_x
_atom_site_fract_y
_atom_site_fract_z
Si Si1 0.790720 0.065341 0.135700
Si Si2 0.810779 0.811337 0.794470
Si Si3 0.104263 0.992462 0.428936
Si Si4 0.403043 0.961338 0.321960
Si Si5 0.043175 0.474691 0.731589
Si Si6 0.888823 0.828894 0.410286
Si Si7 0.085437 0.143895 0.177962
O O1 0.702362 0.149340 0.152434
O O2 0.902718 0.144564 0.135858
O O3 0.595464 0.996038 0.986318
O O4 0.973467 0.979271 0.274703
O O5 0.875782 0.676774 0.822353
O O6 0.649657 0.846867 0.771937
O O7 0.024206 0.888851 0.926290
O O8 0.355570 0.999854 0.563865
O O9 0.071814 0.874607 0.459677
O O10 0.461314 0.007362 0.270775
O O11 0.175582 0.014260 0.212348
O O12 0.214847 0.571289 0.813044
O O13 0.790928 0.711943 0.321500
O O14 0.983085 0.797411 0.545785
#
# Coordination Sequence:
#
# PCOD8055949 Si02
#       7
#     4   4   4   4   4   4   4
#     4  10  25  41  68 102 128 184 230 290 345 415
#     4   9  25  42  71 102 135 188 230 286 354 420
#     4   9  23  44  67  96 137 182 223 293 353 420
#     4  12  25  46  69 103 142 178 244 286 356 432
#     4  11  22  46  73  95 140 184 230 287 359 413
#     4  11  25  44  69  98 138 184 235 282 362 426
#     4  12  27  43  69 102 136 186 234 296 347 442
#
# _framework density 22.003416000000001
#
# number of rings (size 3 to 8) (size 9 to 14) (size 15 to 20)
#    0.857    0.571    2.857    0.857   10.000    0.000 
#    5.143    0.000    0.000    0.000    0.000    0.000 
#    0.000    0.000    0.000    0.000    0.000    0.000 
#
# Total GULP energy -173447.759620 kJ/mol
# GULP energy per Si atom -12389.125687 kJ/mol
# Density = 2.195334 g / cm^3
# Si number density = 22.003416 Si / 1000 Ang^3
#
#
#
# Elastic Constant Matrix: (Units=GPa)
#
#
# Indices 1 2 3 4 5 6 
#
# 1 91.9612 47.2264 32.1083 0.0017 -12.2944 0.0003
# 2 47.2264 57.1356 9.4177 0.0039 8.2296 0.0014
# 3 32.1083 9.4177 142.2196 0.0133 -6.5540 0.0043
# 4 0.0017 0.0039 0.0133 22.8931 0.0032 5.8277
# 5 -12.2944 8.2296 -6.5540 0.0032 30.6176 0.0004
# 6 0.0003 0.0014 0.0043 5.8277 0.0004 19.1155
#
#
#
# Elastic Compliance Matrix: (Units=1/GPa)
#
#
# Indices 1 2 3 4 5 6 
#
# 1 0.026402 -0.023546 -0.003657 0.000002 0.016147 0.000001
# 2 -0.023546 0.039505 0.001792 -0.000003 -0.019689 -0.000002
# 3 -0.003657 0.001792 0.007725 -0.000004 -0.000297 0.000000
# 4 0.000002 -0.000003 -0.000004 0.047357 -0.000004 -0.014437
# 5 0.016147 -0.019689 -0.000297 -0.000004 0.044374 0.000002
# 6 0.000001 -0.000002 0.000000 -0.014437 0.000002 0.056715
#
#
# Mechanical properties :
#
#
# Convention : Reuss Voigt Hill
#
# Bulk Modulus (GPa) = 43.84009 52.09126 47.96567
# Shear Modulus (GPa) = 17.82522 28.02949 22.92736
#
# Velocity S-wave (km/s) = 2.84933 3.57300 3.23149
# Velocity P-wave (km/s) = 5.54909 6.38337 5.98079
#
# Compressibility (1/GPa) = 0.02281017
#
# Stress axis : x y z
#
# Youngs Moduli (GPa) = 37.87626 25.31326 129.45494
#
# Poissons Ratio (x) = 0.59602 0.47345
# Poissons Ratio (y) = 0.89183 -0.23205
# Poissons Ratio (z) = 0.13852 -0.04537
#
# Static dielectric constant tensor:
#      x y z
#    x 4.115620 0.000000 -0.048900 
#    y 0.000000 3.641290 -0.000010 
#    z -0.048900 -0.000010 4.118740 
# 
# 
# High freq. dielectric constant tensor:
#      x y z
#    x 1.861790 0.000000 -0.000860 
#    y 0.000000 1.835550 0.000000 
#    z -0.000860 0.000000 1.881040 
# 
# From -- ./inp_files/30101.got.cif
#   From: 2010.06.25/outbox.cif.g09.slc.cpg/sg9_16_cif.got.tgz:30101.got - 2010.06.27 21:40:51.
