data_PCOD8055544
_publ_section_title
;
Structure prediction by ZEFSAII (Michael W. Deem and Ramdas Pophale) SiO2 
 PCOD8055544
Probable space group: C C
;
_chemical_formula_sum "Si O2"
_cell_formula_units_Z 32
_cell_length_a 14.959919
_cell_length_b 11.613957
_cell_length_c 9.925610
_cell_angle_alpha 90.000000
_cell_angle_beta 108.673039
_cell_angle_gamma 90.000000
_cell_volume 1633.737144
_symmetry_space_group_name_H-M "C C"
_symmetry_group_IT_number 9
_symmetry_cell_setting 'monoclinic'
loop_
_space_group_symop_operation_xyz
x,y,z
x,-y,1/2+z
1/2+x,1/2+y,z
1/2+x,1/2-y,1/2+z
loop_
_atom_site_type_symbol
_atom_site_label
_atom_site_fract_x
_atom_site_fract_y
_atom_site_fract_z
Si Si1 0.235810 0.474923 0.900220
Si Si2 0.361103 0.663586 0.058815
Si Si3 0.607723 0.343486 0.284440
Si Si4 0.534385 0.241608 0.522123
Si Si5 0.614729 0.996513 0.088429
Si Si6 0.517692 0.766947 0.487251
Si Si7 0.808565 0.246977 0.312035
Si Si8 0.546107 0.398896 0.759499
O O1 0.291777 0.594532 0.928180
O O2 0.148584 0.478500 0.755656
O O3 0.305177 0.374822 0.886586
O O4 0.200265 0.453851 0.035013
O O5 0.421376 0.741525 0.984129
O O6 0.305094 0.734824 0.147116
O O7 0.434168 0.580311 0.176590
O O8 0.576220 0.270830 0.397949
O O9 0.718318 0.323745 0.307782
O O10 0.597200 0.479668 0.303289
O O11 0.537448 0.297392 0.136451
O O12 0.541799 0.107436 0.560692
O O13 0.589062 0.324835 0.655396
O O14 0.570917 0.111605 0.004450
O O15 0.407771 0.799526 0.410037
O O16 0.558897 0.679718 0.396788
#
# Coordination Sequence:
#
# PCOD8055544 Si02
#       8
#     4   4   4   4   4   4   4   4
#     4  12  21  39  67  95 129 168 229 266 315 393
#     4   9  22  40  63  95 123 169 218 266 319 385
#     4  12  21  41  65  99 125 167 224 274 317 383
#     4  10  23  41  63  97 126 165 224 262 329 389
#     4  12  23  41  65  96 134 173 208 274 336 392
#     4  11  23  42  67  91 136 176 208 267 343 385
#     4  11  23  40  62 100 127 169 221 262 331 383
#     4   9  22  40  68  87 128 173 212 259 334 380
#
# _framework density 19.586994000000001
#
# number of rings (size 3 to 8) (size 9 to 14) (size 15 to 20)
#    0.750    0.500    3.750    2.250    3.500    1.000 
#    0.000    5.000    0.000    0.000    0.000    0.000 
#    0.000    0.000    0.000    0.000    0.000    0.000 
#
# Total GULP energy -198308.080433 kJ/mol
# GULP energy per Si atom -12394.255027 kJ/mol
# Density = 1.954241 g / cm^3
# Si number density = 19.586994 Si / 1000 Ang^3
#
#
#
# Elastic Constant Matrix: (Units=GPa)
#
#
# Indices 1 2 3 4 5 6 
#
# 1 94.4513 32.1249 26.1338 0.0000 -4.2393 0.0000
# 2 32.1249 105.5974 27.4449 0.0000 8.1316 0.0000
# 3 26.1338 27.4449 89.7834 0.0000 1.2167 0.0000
# 4 0.0000 0.0000 0.0000 23.1580 0.0000 4.0505
# 5 -4.2393 8.1316 1.2167 0.0000 30.5449 0.0000
# 6 0.0000 0.0000 0.0000 4.0505 0.0000 42.8672
#
#
#
# Elastic Compliance Matrix: (Units=1/GPa)
#
#
# Indices 1 2 3 4 5 6 
#
# 1 0.012590 -0.003345 -0.002679 0.000000 0.002745 0.000000
# 2 -0.003345 0.011389 -0.002462 0.000000 -0.003398 0.000000
# 3 -0.002679 -0.002462 0.012673 0.000000 -0.000221 0.000000
# 4 0.000000 0.000000 0.000000 0.043907 0.000000 -0.004149
# 5 0.002745 -0.003398 -0.000221 0.000000 0.034033 0.000000
# 6 0.000000 0.000000 0.000000 -0.004149 0.000000 0.023720
#
#
# Mechanical properties :
#
#
# Convention : Reuss Voigt Hill
#
# Bulk Modulus (GPa) = 50.81286 51.24881 51.03084
# Shear Modulus (GPa) = 30.89389 32.92257 31.90823
#
# Velocity S-wave (km/s) = 3.97579 4.10425 4.04053
# Velocity P-wave (km/s) = 6.86107 6.97720 6.91938
#
# Compressibility (1/GPa) = 0.01968006
#
# Stress axis : x y z
#
# Youngs Moduli (GPa) = 79.43000 87.80369 78.90628
#
# Poissons Ratio (x) = 0.29371 0.21141
# Poissons Ratio (y) = 0.26570 0.19424
# Poissons Ratio (z) = 0.21281 0.21614
#
# Static dielectric constant tensor:
#      x y z
#    x 3.537640 0.000000 -0.072760 
#    y 0.000000 3.485090 0.000000 
#    z -0.072760 0.000000 3.576380 
# 
# 
# High freq. dielectric constant tensor:
#      x y z
#    x 1.759390 0.000000 -0.013250 
#    y 0.000000 1.755850 0.000000 
#    z -0.013250 0.000000 1.767780 
# 
# From -- ./inp_files/9298.got.cif
#   From: 2010.06.25/outbox.cif.g09.slc.cpg/sg9_5_cif.got.tgz:9298.got - 2010.06.27 21:40:51.
