data_PCOD8055800
_publ_section_title
;
Structure prediction by ZEFSAII (Michael W. Deem and Ramdas Pophale) SiO2 
 PCOD8055800
Probable space group: C C
;
_chemical_formula_sum "Si O2"
_cell_formula_units_Z 32
_cell_length_a 11.852322
_cell_length_b 9.210818
_cell_length_c 13.670753
_cell_angle_alpha 90.000000
_cell_angle_beta 68.145774
_cell_angle_gamma 90.000000
_cell_volume 1385.175284
_symmetry_space_group_name_H-M "C C"
_symmetry_group_IT_number 9
_symmetry_cell_setting 'monoclinic'
loop_
_space_group_symop_operation_xyz
x,y,z
x,-y,1/2+z
1/2+x,1/2+y,z
1/2+x,1/2-y,1/2+z
loop_
_atom_site_type_symbol
_atom_site_label
_atom_site_fract_x
_atom_site_fract_y
_atom_site_fract_z
Si Si1 0.191350 0.007053 0.988710
Si Si2 0.591475 0.777335 0.469174
Si Si3 0.553389 0.436744 0.203340
Si Si4 0.818566 0.233296 0.530481
Si Si5 0.848550 0.123243 0.316204
Si Si6 0.179170 0.580547 0.748803
Si Si7 0.277565 0.916112 0.260416
Si Si8 0.005327 0.612164 0.183043
O O1 0.200322 0.831016 0.969989
O O2 0.184070 0.070815 0.881984
O O3 0.067825 0.018296 0.093018
O O4 0.297917 0.093749 0.013136
O O5 0.457468 0.703279 0.513579
O O6 0.612890 0.824265 0.351823
O O7 0.579280 0.903487 0.555975
O O8 0.480674 0.551238 0.293541
O O9 0.691180 0.406447 0.194820
O O10 0.487458 0.281263 0.216770
O O11 0.784846 0.144911 0.441927
O O12 0.730610 0.181363 0.645844
O O13 0.858562 0.272141 0.251197
O O14 0.783206 0.007831 0.268702
O O15 0.077759 0.470320 0.743352
O O16 0.368689 0.051010 0.218815
#
# Coordination Sequence:
#
# PCOD8055800 Si02
#       8
#     4   4   4   4   4   4   4   4
#     4  10  24  40  70 100 134 188 236 286 352 424
#     4  11  25  45  69 108 142 189 247 290 361 431
#     4  11  24  46  69 100 143 183 240 296 353 425
#     4  11  25  45  69 108 142 189 247 290 361 431
#     4  11  25  45  70 107 141 191 242 290 366 427
#     4  12  24  46  72 102 152 188 236 312 352 432
#     4  11  24  46  69 100 143 183 240 296 353 425
#     4  11  25  45  70 107 141 191 242 290 366 427
#
# _framework density 23.101769000000001
#
# number of rings (size 3 to 8) (size 9 to 14) (size 15 to 20)
#    0.000    1.000    1.250    5.250    8.750    0.000 
#    0.000    2.500    0.000    0.000    0.000    0.000 
#    0.000    0.000    0.000    0.000    0.000    0.000 
#
# Total GULP energy -198209.456917 kJ/mol
# GULP energy per Si atom -12388.091057 kJ/mol
# Density = 2.304919 g / cm^3
# Si number density = 23.101769 Si / 1000 Ang^3
#
#
#
# Elastic Constant Matrix: (Units=GPa)
#
#
# Indices 1 2 3 4 5 6 
#
# 1 90.2533 60.2571 31.8754 0.0000 5.0717 0.0000
# 2 60.2571 125.5749 70.0797 0.0000 -4.5825 0.0000
# 3 31.8754 70.0797 162.6252 0.0000 7.6014 0.0000
# 4 0.0000 0.0000 0.0000 41.3417 0.0000 1.8144
# 5 5.0717 -4.5825 7.6014 0.0000 29.6460 0.0000
# 6 0.0000 0.0000 0.0000 1.8144 0.0000 40.9156
#
#
#
# Elastic Compliance Matrix: (Units=1/GPa)
#
#
# Indices 1 2 3 4 5 6 
#
# 1 0.016837 -0.008571 0.000597 0.000000 -0.004358 0.000000
# 2 -0.008571 0.015086 -0.005059 0.000000 0.005095 0.000000
# 3 0.000597 -0.005059 0.008353 0.000000 -0.003026 0.000000
# 4 0.000000 0.000000 0.000000 0.024236 0.000000 -0.001075
# 5 -0.004358 0.005095 -0.003026 0.000000 0.036040 0.000000
# 6 0.000000 0.000000 0.000000 -0.001075 0.000000 0.024488
#
#
# Mechanical properties :
#
#
# Convention : Reuss Voigt Hill
#
# Bulk Modulus (GPa) = 70.37498 78.09754 74.23626
# Shear Modulus (GPa) = 32.08366 36.79674 34.44020
#
# Velocity S-wave (km/s) = 3.73070 3.99533 3.86528
# Velocity P-wave (km/s) = 7.00619 7.42717 7.21975
#
# Compressibility (1/GPa) = 0.01420959
#
# Stress axis : x y z
#
# Youngs Moduli (GPa) = 59.39465 66.28870 119.71048
#
# Poissons Ratio (x) = 0.56819 -0.07151
# Poissons Ratio (y) = 0.50910 0.60560
# Poissons Ratio (z) = -0.03548 0.33535
#
# Static dielectric constant tensor:
#      x y z
#    x 4.019160 0.000000 0.191760 
#    y 0.000000 4.251850 0.000000 
#    z 0.191760 0.000000 4.451050 
# 
# 
# High freq. dielectric constant tensor:
#      x y z
#    x 1.900740 0.000000 0.016790 
#    y 0.000000 1.912210 0.000000 
#    z 0.016790 0.000000 1.929470 
# 
# From -- ./inp_files/24333.got.cif
#   From: 2010.06.25/outbox.cif.g09.slc.cpg/sg9_13_cif.got.tgz:24333.got - 2010.06.27 21:40:51.
