data_PCOD8055218
_publ_section_title
;
Structure prediction by ZEFSAII (Michael W. Deem and Ramdas Pophale) SiO2 
 PCOD8055218
Probable space group: C C
;
_chemical_formula_sum "Si O2"
_cell_formula_units_Z 32
_cell_length_a 18.402392
_cell_length_b 13.568564
_cell_length_c 5.283945
_cell_angle_alpha 90.000000
_cell_angle_beta 62.979874
_cell_angle_gamma 90.000000
_cell_volume 1175.356395
_symmetry_space_group_name_H-M "C C"
_symmetry_group_IT_number 9
_symmetry_cell_setting 'monoclinic'
loop_
_space_group_symop_operation_xyz
x,y,z
x,-y,1/2+z
1/2+x,1/2+y,z
1/2+x,1/2-y,1/2+z
loop_
_atom_site_type_symbol
_atom_site_label
_atom_site_fract_x
_atom_site_fract_y
_atom_site_fract_z
Si Si1 0.132610 0.360671 0.699260
Si Si2 0.963352 0.386037 0.779354
Si Si3 0.349178 0.235824 0.820110
Si Si4 0.305345 0.558649 0.027156
Si Si5 0.437545 0.686983 0.604790
Si Si6 0.093950 0.941103 0.877482
Si Si7 0.325457 0.965662 0.496810
Si Si8 0.169818 0.255026 0.117455
O O1 0.206953 0.429250 0.672275
O O2 0.154950 0.315400 0.394865
O O3 0.047025 0.419521 0.788951
O O4 0.114873 0.283946 0.958854
O O5 0.982686 0.294754 0.555903
O O6 0.913855 0.482593 0.757618
O O7 0.898381 0.325861 0.042727
O O8 0.331735 0.149130 0.060855
O O9 0.399185 0.320114 0.885382
O O10 0.261807 0.279814 0.874127
O O11 0.331192 0.497490 0.738845
O O12 0.363250 0.659471 0.925864
O O13 0.504051 0.603025 0.509838
O O14 0.161188 0.859097 0.703285
O O15 0.105772 0.024808 0.647681
O O16 0.278198 0.021355 0.800455
#
# Coordination Sequence:
#
# PCOD8055218 Si02
#       8
#     4   4   4   4   4   4   4   4
#     4  12  26  49  76 105 146 195 250 298 369 440
#     4  11  25  43  77 106 147 190 247 303 372 444
#     4  11  25  43  77 106 147 190 247 303 372 444
#     4  12  28  48  73 110 149 194 249 304 365 430
#     4  12  24  46  76 102 146 196 250 298 370 438
#     4  12  28  48  73 110 149 194 249 304 365 430
#     4  10  22  40  62 106 138 176 236 296 362 422
#     4  12  26  49  76 105 146 195 250 298 369 440
#
# _framework density 27.225783
#
# number of rings (size 3 to 8) (size 9 to 14) (size 15 to 20)
#    0.000    0.500    3.750    3.750    3.500    4.000 
#    0.000    0.000    0.000    0.000    0.000    0.000 
#    0.000    0.000    0.000    0.000    0.000    0.000 
#
# Total GULP energy -198254.963888 kJ/mol
# GULP energy per Si atom -12390.935243 kJ/mol
# Density = 2.716382 g / cm^3
# Si number density = 27.225783 Si / 1000 Ang^3
#
#
#
# Elastic Constant Matrix: (Units=GPa)
#
#
# Indices 1 2 3 4 5 6 
#
# 1 90.4937 4.1944 9.6171 0.0000 -17.3073 0.0000
# 2 4.1944 39.9261 -18.9560 0.0000 2.7345 0.0000
# 3 9.6171 -18.9560 109.9658 0.0000 18.8700 0.0000
# 4 0.0000 0.0000 0.0000 32.2061 0.0000 -1.9683
# 5 -17.3073 2.7345 18.8700 0.0000 37.8781 0.0000
# 6 0.0000 0.0000 0.0000 -1.9683 0.0000 40.7229
#
#
#
# Elastic Compliance Matrix: (Units=1/GPa)
#
#
# Indices 1 2 3 4 5 6 
#
# 1 0.012997 -0.003331 -0.003030 0.000000 0.007689 0.000000
# 2 -0.003331 0.028925 0.006448 0.000000 -0.006822 0.000000
# 3 -0.003030 0.006448 0.011796 0.000000 -0.007727 0.000000
# 4 0.000000 0.000000 0.000000 0.031142 0.000000 0.001505
# 5 0.007689 -0.006822 -0.007727 0.000000 0.034255 0.000000
# 6 0.000000 0.000000 0.000000 0.001505 0.000000 0.024629
#
#
# Mechanical properties :
#
#
# Convention : Reuss Voigt Hill
#
# Bulk Modulus (GPa) = 18.55541 25.56628 22.06084
# Shear Modulus (GPa) = 30.95308 38.53010 34.74159
#
# Velocity S-wave (km/s) = 3.37546 3.76600 3.57607
# Velocity P-wave (km/s) = 4.69274 5.32177 5.01712
#
# Compressibility (1/GPa) = 0.05389265
#
# Stress axis : x y z
#
# Youngs Moduli (GPa) = 76.93830 34.57238 84.77332
#
# Poissons Ratio (x) = 0.11515 0.25688
# Poissons Ratio (y) = 0.25626 -0.54663
# Poissons Ratio (z) = 0.23314 -0.22293
#
# Static dielectric constant tensor:
#      x y z
#    x 5.139030 0.000000 0.087700 
#    y 0.000000 8.296250 0.000000 
#    z 0.087700 0.000000 5.049120 
# 
# 
# High freq. dielectric constant tensor:
#      x y z
#    x 2.103090 0.000000 0.005460 
#    y 0.000000 2.097720 0.000000 
#    z 0.005460 0.000000 2.115780 
# 
# From -- ./inp_files/2968.got.cif
#   From: 2010.06.25/outbox.cif.g09.slc.cpg/sg9_2_cif.got.tgz:2968.got - 2010.06.27 21:40:51.
