data_PCOD8055442
_publ_section_title
;
Structure prediction by ZEFSAII (Michael W. Deem and Ramdas Pophale) SiO2 
 PCOD8055442
Probable space group: C C
;
_chemical_formula_sum "Si O2"
_cell_formula_units_Z 32
_cell_length_a 6.687650
_cell_length_b 13.836618
_cell_length_c 17.556832
_cell_angle_alpha 90.000000
_cell_angle_beta 125.151007
_cell_angle_gamma 90.000000
_cell_volume 1328.343646
_symmetry_space_group_name_H-M "C C"
_symmetry_group_IT_number 9
_symmetry_cell_setting 'monoclinic'
loop_
_space_group_symop_operation_xyz
x,y,z
x,-y,1/2+z
1/2+x,1/2+y,z
1/2+x,1/2-y,1/2+z
loop_
_atom_site_type_symbol
_atom_site_label
_atom_site_fract_x
_atom_site_fract_y
_atom_site_fract_z
Si Si1 0.721940 0.876439 0.865870
Si Si2 0.890395 0.617000 0.161367
Si Si3 0.970198 0.949888 0.346969
Si Si4 0.876498 0.331824 0.369295
Si Si5 0.512153 0.089312 0.645546
Si Si6 0.678668 0.284632 0.163546
Si Si7 0.159131 0.368583 0.017010
Si Si8 0.927873 0.825057 0.482911
O O1 0.462656 0.872058 0.765695
O O2 0.806499 0.766393 0.898699
O O3 0.911772 0.937567 0.853893
O O4 0.684415 0.924870 0.941439
O O5 0.863902 0.504688 0.137513
O O6 0.099922 0.671360 0.154875
O O7 0.622380 0.663133 0.094434
O O8 0.765379 0.903594 0.247216
O O9 0.990136 0.899585 0.431591
O O10 0.230238 0.927965 0.363986
O O11 0.837758 0.318404 0.270925
O O12 0.157281 0.347307 0.452728
O O13 0.346901 0.185509 0.627493
O O14 0.546136 0.072632 0.562706
O O15 0.425800 0.340923 0.105091
O O16 0.968504 0.281854 0.958851
#
# Coordination Sequence:
#
# PCOD8055442 Si02
#       8
#     4   4   4   4   4   4   4   4
#     4  10  24  47  71 102 148 186 243 303 350 441
#     4   9  24  47  69 104 146 182 244 302 349 440
#     4  11  23  46  73 103 143 185 246 297 364 436
#     4  11  22  47  73 100 146 187 238 300 369 427
#     4  11  23  46  75 102 141 190 239 300 367 428
#     4  10  22  44  72 101 140 185 234 301 360 431
#     4  11  24  43  73 105 140 192 237 294 365 430
#     4  11  24  42  70 109 140 191 233 297 366 429
#
# _framework density 24.090152
#
# number of rings (size 3 to 8) (size 9 to 14) (size 15 to 20)
#    0.000    1.500    3.750    0.000    3.500    0.000 
#    6.750    0.000    0.000    0.000    0.000    0.000 
#    0.000    0.000    0.000    0.000    0.000    0.000 
#
# Total GULP energy -198282.965785 kJ/mol
# GULP energy per Si atom -12392.685362 kJ/mol
# Density = 2.403532 g / cm^3
# Si number density = 24.090152 Si / 1000 Ang^3
#
#
#
# Elastic Constant Matrix: (Units=GPa)
#
#
# Indices 1 2 3 4 5 6 
#
# 1 118.0678 21.8617 53.7103 0.0000 14.8451 0.0000
# 2 21.8617 60.1055 22.4924 0.0000 6.9513 0.0000
# 3 53.7103 22.4924 117.2852 0.0000 8.8897 0.0000
# 4 0.0000 0.0000 0.0000 26.1996 0.0000 0.6815
# 5 14.8451 6.9513 8.8897 0.0000 43.0089 0.0000
# 6 0.0000 0.0000 0.0000 0.6815 0.0000 28.4583
#
#
#
# Elastic Compliance Matrix: (Units=1/GPa)
#
#
# Indices 1 2 3 4 5 6 
#
# 1 0.011257 -0.002088 -0.004557 0.000000 -0.002606 0.000000
# 2 -0.002088 0.018522 -0.002462 0.000000 -0.001764 0.000000
# 3 -0.004557 -0.002462 0.011110 0.000000 -0.000325 0.000000
# 4 0.000000 0.000000 0.000000 0.038192 0.000000 -0.000915
# 5 -0.002606 -0.001764 -0.000325 0.000000 0.024503 0.000000
# 6 0.000000 0.000000 0.000000 -0.000915 0.000000 0.035161
#
#
# Mechanical properties :
#
#
# Convention : Reuss Voigt Hill
#
# Bulk Modulus (GPa) = 44.10169 54.62083 49.36126
# Shear Modulus (GPa) = 30.39173 32.69298 31.54236
#
# Velocity S-wave (km/s) = 3.55573 3.68789 3.62241
# Velocity P-wave (km/s) = 5.93332 6.39193 6.16689
#
# Compressibility (1/GPa) = 0.02267487
#
# Stress axis : x y z
#
# Youngs Moduli (GPa) = 88.83290 53.98924 90.00833
#
# Poissons Ratio (x) = 0.11271 0.41019
# Poissons Ratio (y) = 0.18545 0.22163
# Poissons Ratio (z) = 0.40483 0.13294
#
# Static dielectric constant tensor:
#      x y z
#    x 4.408540 0.000000 0.093850 
#    y 0.000000 4.271110 0.000000 
#    z 0.093850 0.000000 4.533550 
# 
# 
# High freq. dielectric constant tensor:
#      x y z
#    x 1.936660 0.000000 0.005640 
#    y 0.000000 1.942230 0.000000 
#    z 0.005640 0.000000 1.973830 
# 
# From -- ./inp_files/28669.got.cif
#   From: 2010.06.25/outbox.cif.g09.slc.cpg/sg9_15_cif.got.tgz:28669.got - 2010.06.27 21:40:51.
