data_PCOD8055142
_publ_section_title
;
Structure prediction by ZEFSAII (Michael W. Deem and Ramdas Pophale) SiO2 
 PCOD8055142
Probable space group: C C
;
_chemical_formula_sum "Si O2"
_cell_formula_units_Z 20
_cell_length_a 15.836805
_cell_length_b 5.535650
_cell_length_c 8.211808
_cell_angle_alpha 90.000000
_cell_angle_beta 87.859186
_cell_angle_gamma 90.000000
_cell_volume 719.402184
_symmetry_space_group_name_H-M "C C"
_symmetry_group_IT_number 9
_symmetry_cell_setting 'monoclinic'
loop_
_space_group_symop_operation_xyz
x,y,z
x,-y,1/2+z
1/2+x,1/2+y,z
1/2+x,1/2-y,1/2+z
loop_
_atom_site_type_symbol
_atom_site_label
_atom_site_fract_x
_atom_site_fract_y
_atom_site_fract_z
Si Si1 0.334000 0.129938 0.697190
Si Si2 0.489165 0.195926 0.124275
Si Si3 0.603811 0.106498 0.395582
Si Si4 0.206156 0.237605 0.178869
Si Si5 0.355512 0.525421 0.483362
O O1 0.333590 0.239592 0.509712
O O2 0.348067 0.375886 0.800897
O O3 0.412950 0.952524 0.715725
O O4 0.238638 0.024651 0.744307
O O5 0.561473 0.262644 0.252818
O O6 0.451208 0.437141 0.045441
O O7 0.529125 0.050986 0.973748
O O8 0.638467 0.279636 0.536570
O O9 0.676007 0.921869 0.322081
O O10 0.294327 0.313113 0.095679
#
# Coordination Sequence:
#
# PCOD8055142 Si02
#       5
#     4   4   4   4   4
#     4  11  25  45  73 113 154 205 253 312 372 470
#     4  10  22  44  76 108 155 188 256 316 387 455
#     4  10  21  46  76 117 149 192 251 323 388 454
#     4  10  24  45  75 108 159 193 257 311 382 458
#     4  11  24  44  72 110 149 208 253 306 375 465
#
# _framework density 27.80086
#
# number of rings (size 3 to 8) (size 9 to 14) (size 15 to 20)
#    0.000    1.600    2.000    1.200    2.800    4.800 
#    0.000   24.000    0.000    0.000    0.000    0.000 
#    0.000    0.000    0.000    0.000    0.000    0.000 
#
# Total GULP energy -123887.930987 kJ/mol
# GULP energy per Si atom -12388.793099 kJ/mol
# Density = 2.773758 g / cm^3
# Si number density = 27.800860 Si / 1000 Ang^3
#
#
#
# Elastic Constant Matrix: (Units=GPa)
#
#
# Indices 1 2 3 4 5 6 
#
# 1 110.1262 14.3995 22.1830 0.0000 15.2992 0.0000
# 2 14.3995 59.3496 13.6185 0.0000 29.9415 0.0000
# 3 22.1830 13.6185 92.0560 0.0000 11.9153 0.0000
# 4 0.0000 0.0000 0.0000 27.3991 0.0000 -16.7890
# 5 15.2992 29.9415 11.9153 0.0000 51.7296 0.0000
# 6 0.0000 0.0000 0.0000 -16.7890 0.0000 22.4971
#
#
#
# Elastic Compliance Matrix: (Units=1/GPa)
#
#
# Indices 1 2 3 4 5 6 
#
# 1 0.009873 -0.000985 -0.001988 0.000000 -0.001892 0.000000
# 2 -0.000985 0.024187 -0.001615 0.000000 -0.013336 0.000000
# 3 -0.001988 -0.001615 0.011734 0.000000 -0.001180 0.000000
# 4 0.000000 0.000000 0.000000 0.067250 0.000000 0.050187
# 5 -0.001892 -0.013336 -0.001180 0.000000 0.027882 0.000000
# 6 0.000000 0.000000 0.000000 0.050187 0.000000 0.081903
#
#
# Mechanical properties :
#
#
# Convention : Reuss Voigt Hill
#
# Bulk Modulus (GPa) = 27.30911 40.21483 33.76197
# Shear Modulus (GPa) = 20.47423 34.41387 27.44405
#
# Velocity S-wave (km/s) = 2.71672 3.52216 3.14533
# Velocity P-wave (km/s) = 4.43680 5.57113 5.03601
#
# Compressibility (1/GPa) = 0.03661781
#
# Stress axis : x y z
#
# Youngs Moduli (GPa) = 101.29030 41.34476 85.22433
#
# Poissons Ratio (x) = 0.04071 0.16947
# Poissons Ratio (y) = 0.09972 0.13761
# Poissons Ratio (z) = 0.20141 0.06676
#
# Static dielectric constant tensor:
#      x y z
#    x 5.288530 0.000000 -0.014510 
#    y 0.000000 5.116990 0.000000 
#    z -0.014510 0.000000 5.193020 
# 
# 
# High freq. dielectric constant tensor:
#      x y z
#    x 2.140730 0.000000 0.004170 
#    y 0.000000 2.092490 0.000000 
#    z 0.004170 0.000000 2.135710 
# 
# From -- ./inp_files/10208.got.cif
#   From: 2010.06.25/outbox.cif.g09.slc.cpg/sg9_6_cif.got.tgz:10208.got - 2010.06.27 21:40:51.
