data_PCOD8055220
_publ_section_title
;
Structure prediction by ZEFSAII (Michael W. Deem and Ramdas Pophale) SiO2 
 PCOD8055220
Probable space group: C C
;
_chemical_formula_sum "Si O2"
_cell_formula_units_Z 32
_cell_length_a 9.723550
_cell_length_b 11.002386
_cell_length_c 24.166534
_cell_angle_alpha 90.000000
_cell_angle_beta 143.336339
_cell_angle_gamma 90.000000
_cell_volume 1543.779175
_symmetry_space_group_name_H-M "C C"
_symmetry_group_IT_number 9
_symmetry_cell_setting 'monoclinic'
loop_
_space_group_symop_operation_xyz
x,y,z
x,-y,1/2+z
1/2+x,1/2+y,z
1/2+x,1/2-y,1/2+z
loop_
_atom_site_type_symbol
_atom_site_label
_atom_site_fract_x
_atom_site_fract_y
_atom_site_fract_z
Si Si1 0.774770 0.788570 0.891370
Si Si2 0.874267 0.700777 0.185907
Si Si3 0.033020 0.622067 0.517169
Si Si4 0.972437 0.239758 0.888206
Si Si5 0.133630 0.633705 0.066962
Si Si6 0.139479 0.542149 0.190884
Si Si7 0.551457 0.536301 0.406424
Si Si8 0.080474 0.269607 0.183056
O O1 0.610349 0.741457 0.787962
O O2 0.610522 0.826672 0.889679
O O3 0.933758 0.898528 0.921461
O O4 0.908592 0.676819 0.961658
O O5 0.733874 0.794024 0.104492
O O6 0.703323 0.670705 0.182202
O O7 0.944637 0.583876 0.172250
O O8 0.942025 0.684484 0.433178
O O9 0.803229 0.596655 0.479591
O O10 0.174197 0.497987 0.553438
O O11 0.713120 0.217797 0.783590
O O12 0.085979 0.105712 0.933106
O O13 0.119761 0.625294 0.129539
O O14 0.324985 0.729845 0.112672
O O15 0.393687 0.552048 0.300456
O O16 0.084882 0.403318 0.155537
#
# Coordination Sequence:
#
# PCOD8055220 Si02
#       8
#     4   4   4   4   4   4   4   4
#     4  10  22  40  62  88 125 165 206 256 309 365
#     4  10  22  40  62  88 125 165 206 256 309 365
#     4  12  23  38  64  95 125 163 207 256 312 375
#     4  10  22  43  65  90 124 163 208 261 314 370
#     4  12  23  38  64  95 125 163 207 256 312 375
#     4  10  22  44  67  90 123 165 210 261 314 369
#     4  10  22  44  67  90 123 165 210 261 314 369
#     4  10  22  43  65  90 124 163 208 261 314 370
#
# _framework density 20.728352999999998
#
# number of rings (size 3 to 8) (size 9 to 14) (size 15 to 20)
#    0.000    1.500    2.500    2.250    0.000    1.000 
#    9.000    0.000    0.000    0.000    0.000    0.000 
#    0.000    0.000    0.000    0.000    0.000    0.000 
#
# Total GULP energy -198213.455631 kJ/mol
# GULP energy per Si atom -12388.340977 kJ/mol
# Density = 2.068117 g / cm^3
# Si number density = 20.728353 Si / 1000 Ang^3
#
#
#
# Elastic Constant Matrix: (Units=GPa)
#
#
# Indices 1 2 3 4 5 6 
#
# 1 78.9115 29.4892 24.1241 0.0000 4.4337 0.0000
# 2 29.4892 48.4062 14.3873 0.0000 3.5785 0.0000
# 3 24.1241 14.3873 84.1205 0.0000 5.1475 0.0000
# 4 0.0000 0.0000 0.0000 35.5977 0.0000 -3.3078
# 5 4.4337 3.5785 5.1475 0.0000 33.9009 0.0000
# 6 0.0000 0.0000 0.0000 -3.3078 0.0000 36.8410
#
#
#
# Elastic Compliance Matrix: (Units=1/GPa)
#
#
# Indices 1 2 3 4 5 6 
#
# 1 0.017263 -0.009485 -0.003282 0.000000 -0.000758 0.000000
# 2 -0.009485 0.027080 -0.001829 0.000000 -0.001340 0.000000
# 3 -0.003282 -0.001829 0.013227 0.000000 -0.001386 0.000000
# 4 0.000000 0.000000 0.000000 0.028328 0.000000 0.002543
# 5 -0.000758 -0.001340 -0.001386 0.000000 0.029949 0.000000
# 6 0.000000 0.000000 0.000000 0.002543 0.000000 0.027372
#
#
# Mechanical properties :
#
#
# Convention : Reuss Voigt Hill
#
# Bulk Modulus (GPa) = 35.24071 38.60439 36.92255
# Shear Modulus (GPa) = 27.49220 30.83043 29.16131
#
# Velocity S-wave (km/s) = 3.64580 3.86081 3.75485
# Velocity P-wave (km/s) = 5.89581 6.20797 6.05390
#
# Compressibility (1/GPa) = 0.02837627
#
# Stress axis : x y z
#
# Youngs Moduli (GPa) = 57.92747 36.92811 75.60512
#
# Poissons Ratio (x) = 0.35027 0.24814
# Poissons Ratio (y) = 0.54945 0.13831
# Poissons Ratio (z) = 0.19012 0.06755
#
# Static dielectric constant tensor:
#      x y z
#    x 3.806770 0.000000 -0.063920 
#    y 0.000000 3.591910 0.000000 
#    z -0.063920 0.000000 4.080290 
# 
# 
# High freq. dielectric constant tensor:
#      x y z
#    x 1.802510 0.000000 -0.001730 
#    y 0.000000 1.786180 0.000000 
#    z -0.001730 0.000000 1.843750 
# 
# From -- ./inp_files/22741.got.cif
#   From: 2010.06.25/outbox.cif.g09.slc.cpg/sg9_12_cif.got.tgz:22741.got - 2010.06.27 21:40:51.
