data_PCOD8055350
_publ_section_title
;
Structure prediction by ZEFSAII (Michael W. Deem and Ramdas Pophale) SiO2 
 PCOD8055350
Probable space group: C C
;
_chemical_formula_sum "Si O2"
_cell_formula_units_Z 28
_cell_length_a 8.391797
_cell_length_b 12.898314
_cell_length_c 12.896620
_cell_angle_alpha 90.000000
_cell_angle_beta 124.070979
_cell_angle_gamma 90.000000
_cell_volume 1156.310990
_symmetry_space_group_name_H-M "C C"
_symmetry_group_IT_number 9
_symmetry_cell_setting 'monoclinic'
loop_
_space_group_symop_operation_xyz
x,y,z
x,-y,1/2+z
1/2+x,1/2+y,z
1/2+x,1/2-y,1/2+z
loop_
_atom_site_type_symbol
_atom_site_label
_atom_site_fract_x
_atom_site_fract_y
_atom_site_fract_z
Si Si1 0.373010 0.130304 0.487560
Si Si2 0.021236 0.161643 0.969233
Si Si3 0.843729 0.013800 0.035168
Si Si4 0.429609 0.803662 0.653880
Si Si5 0.135401 0.149571 0.596687
Si Si6 0.928041 0.508495 0.309738
Si Si7 0.780299 0.098091 0.707164
O O1 0.436075 0.224586 0.437503
O O2 0.197072 0.160387 0.498549
O O3 0.330174 0.044778 0.383609
O O4 0.548612 0.100552 0.629712
O O5 0.890269 0.081481 0.855055
O O6 0.244490 0.160815 0.016998
O O7 0.994529 0.108649 0.073222
O O8 0.833554 0.998602 0.154662
O O9 0.928716 0.906572 0.019298
O O10 0.634710 0.039889 0.912603
O O11 0.601968 0.762788 0.640417
O O12 0.480206 0.900659 0.745574
O O13 0.362262 0.708400 0.699710
O O14 0.289996 0.080488 0.715346
#
# Coordination Sequence:
#
# PCOD8055350 Si02
#       7
#     4   4   4   4   4   4   4
#     4  10  23  43  68 105 138 184 246 292 360 443
#     4  11  20  44  71  94 144 196 229 304 365 422
#     4  10  23  41  67 104 136 188 243 285 369 435
#     4  10  22  42  69  98 137 192 238 294 369 424
#     4  11  24  45  67 111 141 179 254 296 362 448
#     4  11  22  49  70  97 152 191 235 309 365 434
#     4   9  20  40  68  95 138 188 237 286 358 434
#
# _framework density 24.214938
#
# number of rings (size 3 to 8) (size 9 to 14) (size 15 to 20)
#    0.000    1.714    2.857    1.714    0.000    2.286 
#   12.857    0.000    0.000    0.000    0.000    0.000 
#    0.000    0.000    0.000    0.000    0.000    0.000 
#
# Total GULP energy -173447.311445 kJ/mol
# GULP energy per Si atom -12389.093675 kJ/mol
# Density = 2.415982 g / cm^3
# Si number density = 24.214938 Si / 1000 Ang^3
#
#
#
# Elastic Constant Matrix: (Units=GPa)
#
#
# Indices 1 2 3 4 5 6 
#
# 1 133.8319 27.8540 42.0943 0.0000 -15.2016 0.0000
# 2 27.8540 67.5329 30.6890 0.0000 4.6921 0.0000
# 3 42.0943 30.6890 104.3685 0.0000 4.3486 0.0000
# 4 0.0000 0.0000 0.0000 26.7426 0.0000 -1.8029
# 5 -15.2016 4.6921 4.3486 0.0000 27.6386 0.0000
# 6 0.0000 0.0000 0.0000 -1.8029 0.0000 48.2887
#
#
#
# Elastic Compliance Matrix: (Units=1/GPa)
#
#
# Indices 1 2 3 4 5 6 
#
# 1 0.009895 -0.002996 -0.003380 0.000000 0.006483 0.000000
# 2 -0.002996 0.018123 -0.003950 0.000000 -0.004103 0.000000
# 3 -0.003380 -0.003950 0.012236 0.000000 -0.003114 0.000000
# 4 0.000000 0.000000 0.000000 0.037488 0.000000 0.001400
# 5 0.006483 -0.004103 -0.003114 0.000000 0.040933 0.000000
# 6 0.000000 0.000000 0.000000 0.001400 0.000000 0.020761
#
#
# Mechanical properties :
#
#
# Convention : Reuss Voigt Hill
#
# Bulk Modulus (GPa) = 51.01305 56.33422 53.67364
# Shear Modulus (GPa) = 30.00807 34.20705 32.10756
#
# Velocity S-wave (km/s) = 3.52410 3.76259 3.64530
# Velocity P-wave (km/s) = 6.13771 6.49545 6.31911
#
# Compressibility (1/GPa) = 0.01960283
#
# Stress axis : x y z
#
# Youngs Moduli (GPa) = 101.06056 55.17807 81.72655
#
# Poissons Ratio (x) = 0.16529 0.27625
# Poissons Ratio (y) = 0.30274 0.32281
# Poissons Ratio (z) = 0.34160 0.21795
#
# Static dielectric constant tensor:
#      x y z
#    x 4.405650 0.000000 0.025510 
#    y 0.000000 4.198760 0.000000 
#    z 0.025510 0.000000 4.358210 
# 
# 
# High freq. dielectric constant tensor:
#      x y z
#    x 1.963240 0.000000 -0.001800 
#    y 0.000000 1.947960 0.000000 
#    z -0.001800 0.000000 1.955290 
# 
# From -- ./inp_files/14422.got.cif
#   From: 2010.06.25/outbox.cif.g09.slc.cpg/sg9_8_cif.got.tgz:14422.got - 2010.06.27 21:40:51.
