data_PCOD8055153
_publ_section_title
;
Structure prediction by ZEFSAII (Michael W. Deem and Ramdas Pophale) SiO2 
 PCOD8055153
Probable space group: C C
;
_chemical_formula_sum "Si O2"
_cell_formula_units_Z 24
_cell_length_a 10.920935
_cell_length_b 18.242352
_cell_length_c 5.123301
_cell_angle_alpha 90.000000
_cell_angle_beta 92.527230
_cell_angle_gamma 90.000000
_cell_volume 1019.689427
_symmetry_space_group_name_H-M "C C"
_symmetry_group_IT_number 9
_symmetry_cell_setting 'monoclinic'
loop_
_space_group_symop_operation_xyz
x,y,z
x,-y,1/2+z
1/2+x,1/2+y,z
1/2+x,1/2-y,1/2+z
loop_
_atom_site_type_symbol
_atom_site_label
_atom_site_fract_x
_atom_site_fract_y
_atom_site_fract_z
Si Si1 0.571040 0.127396 0.216870
Si Si2 0.728514 0.339567 0.028406
Si Si3 0.478054 0.706985 0.689574
Si Si4 0.448940 0.934144 0.203843
Si Si5 0.326502 0.312498 0.653781
Si Si6 0.235137 0.036108 0.170122
O O1 0.512702 0.208207 0.250009
O O2 0.537102 0.079730 0.466536
O O3 0.718995 0.130297 0.206526
O O4 0.531508 0.082577 0.959614
O O5 0.595721 0.343102 0.145524
O O6 0.827948 0.382327 0.213298
O O7 0.765958 0.256298 0.997784
O O8 0.724992 0.377853 0.739456
O O9 0.390548 0.707414 0.430447
O O10 0.422695 0.664623 0.937810
O O11 0.383324 0.015549 0.176698
O O12 0.170958 0.988424 0.396839
#
# Coordination Sequence:
#
# PCOD8055153 Si02
#       6
#     4   4   4   4   4   4
#     4  11  21  36  57  86 126 169 193 253 296 378
#     4  10  22  38  60  90 129 150 207 252 306 364
#     4  11  22  37  57  88 127 170 190 247 308 373
#     4  11  20  38  59  88 122 154 206 252 308 343
#     4  11  23  37  58  89 129 166 198 234 319 370
#     4  10  22  36  59  91 115 153 192 258 305 336
#
# _framework density 23.536579
#
# number of rings (size 3 to 8) (size 9 to 14) (size 15 to 20)
#    0.000    1.333    3.333    3.000    0.000    8.000 
#    0.000    0.000    0.000    0.000    0.000   93.333 
#    0.000    0.000    0.000    0.000    0.000    0.000 
#
# Total GULP energy -148661.874913 kJ/mol
# GULP energy per Si atom -12388.489576 kJ/mol
# Density = 2.348301 g / cm^3
# Si number density = 23.536579 Si / 1000 Ang^3
#
#
#
# Elastic Constant Matrix: (Units=GPa)
#
#
# Indices 1 2 3 4 5 6 
#
# 1 93.0242 13.8936 30.8981 0.0000 -30.6405 0.0000
# 2 13.8936 57.5494 6.1379 0.0000 -19.9096 0.0000
# 3 30.8981 6.1379 156.0190 0.0000 -22.9878 0.0000
# 4 0.0000 0.0000 0.0000 37.7671 0.0000 -12.1935
# 5 -30.6405 -19.9096 -22.9878 0.0000 41.2958 0.0000
# 6 0.0000 0.0000 0.0000 -12.1935 0.0000 32.2936
#
#
#
# Elastic Compliance Matrix: (Units=1/GPa)
#
#
# Indices 1 2 3 4 5 6 
#
# 1 0.014504 0.000122 -0.001397 0.000000 0.010042 0.000000
# 2 0.000122 0.020930 0.000711 0.000000 0.010577 0.000000
# 3 -0.001397 0.000711 0.007142 0.000000 0.003281 0.000000
# 4 0.000000 0.000000 0.000000 0.030154 0.000000 0.011386
# 5 0.010042 0.010577 0.003281 0.000000 0.038593 0.000000
# 6 0.000000 0.000000 0.000000 0.011386 0.000000 0.035265
#
#
# Mechanical properties :
#
#
# Convention : Reuss Voigt Hill
#
# Bulk Modulus (GPa) = 24.12781 45.38351 34.75566
# Shear Modulus (GPa) = 30.95357 39.31548 35.13453
#
# Velocity S-wave (km/s) = 3.63040 4.09149 3.86782
# Velocity P-wave (km/s) = 5.27698 6.45324 5.89453
#
# Compressibility (1/GPa) = 0.04144595
#
# Stress axis : x y z
#
# Youngs Moduli (GPa) = 68.94859 47.77739 140.02175
#
# Poissons Ratio (x) = -0.00581 0.19568
# Poissons Ratio (y) = -0.00839 -0.09954
# Poissons Ratio (z) = 0.09636 -0.03397
#
# Static dielectric constant tensor:
#      x y z
#    x 4.295630 0.000000 -0.275600 
#    y 0.000000 4.397920 0.000000 
#    z -0.275600 0.000000 4.928570 
# 
# 
# High freq. dielectric constant tensor:
#      x y z
#    x 1.909220 0.000000 -0.011850 
#    y 0.000000 1.913620 0.000000 
#    z -0.011850 0.000000 1.966290 
# 
# From -- ./inp_files/1677.got.cif
#   From: 2010.06.25/outbox.cif.g09.slc.cpg/sg9_1_cif.got.tgz:1677.got - 2010.06.27 21:40:51.
