data_PCOD8055937
_publ_section_title
;
Structure prediction by ZEFSAII (Michael W. Deem and Ramdas Pophale) SiO2 
 PCOD8055937
Probable space group: C C
;
_chemical_formula_sum "Si O2"
_cell_formula_units_Z 28
_cell_length_a 8.501206
_cell_length_b 18.579087
_cell_length_c 12.287360
_cell_angle_alpha 90.000000
_cell_angle_beta 144.402592
_cell_angle_gamma 90.000000
_cell_volume 1129.667888
_symmetry_space_group_name_H-M "C C"
_symmetry_group_IT_number 9
_symmetry_cell_setting 'monoclinic'
loop_
_space_group_symop_operation_xyz
x,y,z
x,-y,1/2+z
1/2+x,1/2+y,z
1/2+x,1/2-y,1/2+z
loop_
_atom_site_type_symbol
_atom_site_label
_atom_site_fract_x
_atom_site_fract_y
_atom_site_fract_z
Si Si1 0.012190 0.682175 0.802410
Si Si2 0.593872 0.677173 0.031043
Si Si3 0.112664 0.328450 0.963056
Si Si4 0.284119 0.336617 0.669189
Si Si5 0.339430 0.102917 0.495274
Si Si6 0.786590 0.922671 0.888850
Si Si7 0.228498 0.973488 0.552393
O O1 0.309233 0.701474 0.922371
O O2 0.820205 0.751282 0.706700
O O3 0.860302 0.628397 0.634184
O O4 0.060201 0.648283 0.949493
O O5 0.695625 0.744883 0.017151
O O6 0.579712 0.603799 0.950507
O O7 0.814121 0.662608 0.246654
O O8 0.098533 0.369071 0.072974
O O9 0.343593 0.365891 0.018393
O O10 0.571458 0.365960 0.789361
O O11 0.201887 0.378428 0.732680
O O12 0.300451 0.016019 0.479982
O O13 0.516621 0.965167 0.774824
O O14 0.029625 0.977975 0.013722
#
# Coordination Sequence:
#
# PCOD8055937 Si02
#       7
#     4   4   4   4   4   4   4
#     4  12  20  39  71 104 137 193 240 294 365 426
#     4  11  21  40  70 105 144 183 244 299 358 432
#     4  11  22  42  72 103 140 189 243 301 353 432
#     4  11  22  39  68 105 140 185 248 296 349 432
#     4  11  22  43  72 102 142 192 239 296 361 438
#     4  10  25  47  70 103 151 188 242 305 360 439
#     4  10  24  48  69 102 150 190 236 299 370 431
#
# _framework density 24.786045000000001
#
# number of rings (size 3 to 8) (size 9 to 14) (size 15 to 20)
#    0.000    1.143    4.286    1.714    0.000    2.286 
#    7.714    5.714   12.571    0.000    0.000    0.000 
#    0.000    0.000    0.000    0.000    0.000    0.000 
#
# Total GULP energy -173495.868504 kJ/mol
# GULP energy per Si atom -12392.562036 kJ/mol
# Density = 2.472963 g / cm^3
# Si number density = 24.786045 Si / 1000 Ang^3
#
#
#
# Elastic Constant Matrix: (Units=GPa)
#
#
# Indices 1 2 3 4 5 6 
#
# 1 96.5262 85.5036 12.0639 0.0005 -11.5794 0.0002
# 2 85.5036 187.4179 24.6691 0.0001 -14.7141 0.0001
# 3 12.0639 24.6691 81.9375 0.0008 -10.3462 0.0005
# 4 0.0005 0.0001 0.0008 21.6862 0.0007 4.7715
# 5 -11.5794 -14.7141 -10.3462 0.0007 42.7472 0.0005
# 6 0.0002 0.0001 0.0005 4.7715 0.0005 32.6893
#
#
#
# Elastic Compliance Matrix: (Units=1/GPa)
#
#
# Indices 1 2 3 4 5 6 
#
# 1 0.017560 -0.007854 0.000040 0.000000 0.002063 0.000000
# 2 -0.007854 0.009171 -0.001521 0.000000 0.000661 0.000000
# 3 0.000040 -0.001521 0.012989 -0.000001 0.002631 0.000000
# 4 0.000000 0.000000 -0.000001 0.047642 -0.000001 -0.006954
# 5 0.002063 0.000661 0.002631 -0.000001 0.024816 0.000000
# 6 0.000000 0.000000 0.000000 -0.006954 0.000000 0.031606
#
#
# Mechanical properties :
#
#
# Convention : Reuss Voigt Hill
#
# Bulk Modulus (GPa) = 47.51049 67.81721 57.66385
# Shear Modulus (GPa) = 29.50332 35.66753 32.58542
#
# Velocity S-wave (km/s) = 3.45384 3.79755 3.62977
# Velocity P-wave (km/s) = 5.92581 6.83001 6.39391
#
# Compressibility (1/GPa) = 0.02104798
#
# Stress axis : x y z
#
# Youngs Moduli (GPa) = 56.94798 109.03741 76.98952
#
# Poissons Ratio (x) = 0.85643 -0.00307
# Poissons Ratio (y) = 0.44730 0.11712
# Poissons Ratio (z) = -0.00227 0.16588
#
# Static dielectric constant tensor:
#      x y z
#    x 4.384260 0.000000 -0.029340 
#    y 0.000000 4.841930 0.000000 
#    z -0.029340 0.000000 4.299950 
# 
# 
# High freq. dielectric constant tensor:
#      x y z
#    x 1.975520 0.000000 0.009650 
#    y 0.000000 1.995300 0.000000 
#    z 0.009650 0.000000 1.969300 
# 
# From -- ./inp_files/15509.got.cif
#   From: 2010.06.25/outbox.cif.g09.slc.cpg/sg9_8_cif.got.tgz:15509.got - 2010.06.27 21:40:51.
