data_PCOD8055446
_publ_section_title
;
Structure prediction by ZEFSAII (Michael W. Deem and Ramdas Pophale) SiO2 
 PCOD8055446
Probable space group: C C
;
_chemical_formula_sum "Si O2"
_cell_formula_units_Z 32
_cell_length_a 8.914620
_cell_length_b 11.293895
_cell_length_c 13.459639
_cell_angle_alpha 90.000000
_cell_angle_beta 88.275459
_cell_angle_gamma 90.000000
_cell_volume 1354.513194
_symmetry_space_group_name_H-M "C C"
_symmetry_group_IT_number 9
_symmetry_cell_setting 'monoclinic'
loop_
_space_group_symop_operation_xyz
x,y,z
x,-y,1/2+z
1/2+x,1/2+y,z
1/2+x,1/2-y,1/2+z
loop_
_atom_site_type_symbol
_atom_site_label
_atom_site_fract_x
_atom_site_fract_y
_atom_site_fract_z
Si Si1 0.420840 0.831421 0.395000
Si Si2 0.873293 0.093247 0.311767
Si Si3 0.663706 0.998943 0.970761
Si Si4 0.567563 0.778733 0.087320
Si Si5 0.605178 0.112289 0.175180
Si Si6 0.846169 0.572859 0.704743
Si Si7 0.388793 0.711980 0.596273
Si Si8 0.044751 0.015321 0.123542
O O1 0.470745 0.706536 0.344835
O O2 0.559331 0.919673 0.404520
O O3 0.303226 0.894129 0.320244
O O4 0.351708 0.798755 0.503258
O O5 0.720883 0.135486 0.260287
O O6 0.975898 0.018571 0.235864
O O7 0.819638 0.017293 0.408417
O O8 0.692128 0.066341 0.074782
O O9 0.587576 0.868355 0.992550
O O10 0.419825 0.810797 0.152902
O O11 0.723009 0.795361 0.149553
O O12 0.543934 0.639255 0.063293
O O13 0.521201 0.237290 0.161171
O O14 0.477086 0.022341 0.208237
O O15 0.714967 0.527028 0.636944
O O16 0.447300 0.581118 0.563581
#
# Coordination Sequence:
#
# PCOD8055446 Si02
#       8
#     4   4   4   4   4   4   4   4
#     4  11  23  44  71 103 139 183 244 293 355 425
#     4  12  23  43  74 104 142 190 239 294 355 429
#     4  10  23  42  75 102 141 193 228 295 363 419
#     4  11  23  46  71 100 140 185 230 290 365 419
#     4  10  22  44  76 102 143 192 234 291 372 414
#     4  11  22  45  73 100 141 184 238 300 351 425
#     4  11  24  45  71 103 145 187 233 297 359 430
#     4  12  26  43  75 108 139 188 246 292 358 437
#
# _framework density 23.624722999999999
#
# number of rings (size 3 to 8) (size 9 to 14) (size 15 to 20)
#    0.000    1.000    5.000    2.250    0.000    0.000 
#    2.250    0.000    5.500    0.000    0.000    0.000 
#    0.000    0.000    0.000    0.000    0.000    0.000 
#
# Total GULP energy -198229.579763 kJ/mol
# GULP energy per Si atom -12389.348735 kJ/mol
# Density = 2.357095 g / cm^3
# Si number density = 23.624723 Si / 1000 Ang^3
#
#
#
# Elastic Constant Matrix: (Units=GPa)
#
#
# Indices 1 2 3 4 5 6 
#
# 1 89.6285 40.5647 21.2390 0.0000 -10.7992 0.0000
# 2 40.5647 142.1925 20.4105 0.0000 2.0382 0.0000
# 3 21.2390 20.4105 74.9714 0.0000 -9.4384 0.0000
# 4 0.0000 0.0000 0.0000 31.6364 0.0000 9.1165
# 5 -10.7992 2.0382 -9.4384 0.0000 26.5566 0.0000
# 6 0.0000 0.0000 0.0000 9.1165 0.0000 41.6965
#
#
#
# Elastic Compliance Matrix: (Units=1/GPa)
#
#
# Indices 1 2 3 4 5 6 
#
# 1 0.014020 -0.003743 -0.002302 0.000000 0.005170 0.000000
# 2 -0.003743 0.008363 -0.001559 0.000000 -0.002718 0.000000
# 3 -0.002302 -0.001559 0.014982 0.000000 0.004508 0.000000
# 4 0.000000 0.000000 0.000000 0.033735 0.000000 -0.007376
# 5 0.005170 -0.002718 0.004508 0.000000 0.041569 0.000000
# 6 0.000000 0.000000 0.000000 -0.007376 0.000000 0.025595
#
#
# Mechanical properties :
#
#
# Convention : Reuss Voigt Hill
#
# Bulk Modulus (GPa) = 45.12990 52.35786 48.74388
# Shear Modulus (GPa) = 31.08338 34.94976 33.01657
#
# Velocity S-wave (km/s) = 3.63121 3.85043 3.74243
# Velocity P-wave (km/s) = 6.06014 6.47906 6.27310
#
# Compressibility (1/GPa) = 0.02215826
#
# Stress axis : x y z
#
# Youngs Moduli (GPa) = 71.32804 119.57030 66.74499
#
# Poissons Ratio (x) = 0.44758 0.15363
# Poissons Ratio (y) = 0.26700 0.10403
# Poissons Ratio (z) = 0.16418 0.18636
#
# Static dielectric constant tensor:
#      x y z
#    x 4.208140 0.000000 -0.044190 
#    y 0.000000 4.602140 0.000000 
#    z -0.044190 0.000000 4.176350 
# 
# 
# High freq. dielectric constant tensor:
#      x y z
#    x 1.925560 0.000000 0.002550 
#    y 0.000000 1.954520 0.000000 
#    z 0.002550 0.000000 1.916120 
# 
# From -- ./inp_files/22766.got.cif
#   From: 2010.06.25/outbox.cif.g09.slc.cpg/sg9_12_cif.got.tgz:22766.got - 2010.06.27 21:40:51.
