data_PCOD8055214
_publ_section_title
;
Structure prediction by ZEFSAII (Michael W. Deem and Ramdas Pophale) SiO2 
 PCOD8055214
Probable space group: C C
;
_chemical_formula_sum "Si O2"
_cell_formula_units_Z 24
_cell_length_a 8.217014
_cell_length_b 11.287261
_cell_length_c 13.318731
_cell_angle_alpha 90.000000
_cell_angle_beta 107.892161
_cell_angle_gamma 90.000000
_cell_volume 1175.537556
_symmetry_space_group_name_H-M "C C"
_symmetry_group_IT_number 9
_symmetry_cell_setting 'monoclinic'
loop_
_space_group_symop_operation_xyz
x,y,z
x,-y,1/2+z
1/2+x,1/2+y,z
1/2+x,1/2-y,1/2+z
loop_
_atom_site_type_symbol
_atom_site_label
_atom_site_fract_x
_atom_site_fract_y
_atom_site_fract_z
Si Si1 0.477830 0.743925 0.118160
Si Si2 0.910473 0.980516 0.474955
Si Si3 0.046466 0.143305 0.814385
Si Si4 0.597161 0.146580 0.449004
Si Si5 0.218096 0.926395 0.149956
Si Si6 0.814841 0.655257 0.247516
O O1 0.395559 0.639191 0.036927
O O2 0.328877 0.810881 0.148865
O O3 0.614516 0.690721 0.223632
O O4 0.576555 0.836132 0.064069
O O5 0.946092 0.951073 0.365056
O O6 0.058964 0.067191 0.543946
O O7 0.728353 0.043431 0.448133
O O8 0.159115 0.229428 0.908733
O O9 0.160038 0.075589 0.755340
O O10 0.913698 0.227109 0.726765
O O11 0.407279 0.114272 0.368695
O O12 0.326185 0.049581 0.166413
#
# Coordination Sequence:
#
# PCOD8055214 Si02
#       6
#     4   4   4   4   4   4
#     4  10  22  40  61  91 125 155 210 261 305 372
#     4  10  22  41  60  89 127 160 209 258 303 369
#     4   9  22  39  59  90 122 159 204 252 301 371
#     4   9  21  41  62  86 123 164 199 260 307 357
#     4  11  23  38  64  90 122 164 204 258 312 365
#     4   9  22  39  60  88 121 158 204 253 302 372
#
# _framework density 20.416191000000001
#
# number of rings (size 3 to 8) (size 9 to 14) (size 15 to 20)
#    1.000    1.333    0.000    1.000    4.667    4.000 
#    3.000    0.000    0.000    0.000    0.000    0.000 
#    0.000    0.000    0.000    0.000    0.000    0.000 
#
# Total GULP energy -148688.397813 kJ/mol
# GULP energy per Si atom -12390.699818 kJ/mol
# Density = 2.036972 g / cm^3
# Si number density = 20.416191 Si / 1000 Ang^3
#
#
#
# Elastic Constant Matrix: (Units=GPa)
#
#
# Indices 1 2 3 4 5 6 
#
# 1 112.1145 66.9583 60.6798 0.0000 2.2913 0.0000
# 2 66.9583 91.6620 35.5114 0.0000 2.3712 0.0000
# 3 60.6798 35.5114 88.8847 0.0000 7.3082 0.0000
# 4 0.0000 0.0000 0.0000 27.7689 0.0000 5.3240
# 5 2.2913 2.3712 7.3082 0.0000 36.1698 0.0000
# 6 0.0000 0.0000 0.0000 5.3240 0.0000 49.4895
#
#
#
# Elastic Compliance Matrix: (Units=1/GPa)
#
#
# Indices 1 2 3 4 5 6 
#
# 1 0.021287 -0.011726 -0.009965 0.000000 0.001434 0.000000
# 2 -0.011726 0.019369 0.000316 0.000000 -0.000591 0.000000
# 3 -0.009965 0.000316 0.018179 0.000000 -0.003063 0.000000
# 4 0.000000 0.000000 0.000000 0.036770 0.000000 -0.003956
# 5 0.001434 -0.000591 -0.003063 0.000000 0.028214 0.000000
# 6 0.000000 0.000000 0.000000 -0.003956 0.000000 0.020632
#
#
# Mechanical properties :
#
#
# Convention : Reuss Voigt Hill
#
# Bulk Modulus (GPa) = 62.17646 68.77338 65.47492
# Shear Modulus (GPa) = 25.96552 31.31977 28.64264
#
# Velocity S-wave (km/s) = 3.57011 3.92096 3.74964
# Velocity P-wave (km/s) = 6.89310 7.36596 7.13345
#
# Compressibility (1/GPa) = 0.01608326
#
# Stress axis : x y z
#
# Youngs Moduli (GPa) = 46.97717 51.62993 55.00796
#
# Poissons Ratio (x) = 0.60543 0.54816
# Poissons Ratio (y) = 0.55087 -0.01737
# Poissons Ratio (z) = 0.46813 -0.01630
#
# Static dielectric constant tensor:
#      x y z
#    x 3.317540 0.000000 0.148580 
#    y 0.000000 3.732530 0.000000 
#    z 0.148580 0.000000 3.574030 
# 
# 
# High freq. dielectric constant tensor:
#      x y z
#    x 1.767990 0.000000 0.014930 
#    y 0.000000 1.805590 0.000000 
#    z 0.014930 0.000000 1.791320 
# 
# From -- ./inp_files/14202.got.cif
#   From: 2010.06.25/outbox.cif.g09.slc.cpg/sg9_8_cif.got.tgz:14202.got - 2010.06.27 21:40:51.
