data_PCOD8055872
_publ_section_title
;
Structure prediction by ZEFSAII (Michael W. Deem and Ramdas Pophale) SiO2 
 PCOD8055872
Probable space group: C C
;
_chemical_formula_sum "Si O2"
_cell_formula_units_Z 32
_cell_length_a 18.183465
_cell_length_b 10.552146
_cell_length_c 14.413992
_cell_angle_alpha 90.000000
_cell_angle_beta 32.451098
_cell_angle_gamma 90.000000
_cell_volume 1484.006668
_symmetry_space_group_name_H-M "C C"
_symmetry_group_IT_number 9
_symmetry_cell_setting 'monoclinic'
loop_
_space_group_symop_operation_xyz
x,y,z
x,-y,1/2+z
1/2+x,1/2+y,z
1/2+x,1/2-y,1/2+z
loop_
_atom_site_type_symbol
_atom_site_label
_atom_site_fract_x
_atom_site_fract_y
_atom_site_fract_z
Si Si1 0.897410 0.859763 0.688460
Si Si2 0.611539 0.772603 0.073198
Si Si3 0.471383 0.369748 0.072650
Si Si4 0.804765 0.371041 0.990871
Si Si5 0.571510 0.446561 0.765993
Si Si6 0.210997 0.735960 0.920319
Si Si7 0.321642 0.393260 0.556472
Si Si8 0.098154 0.531023 0.175094
O O1 0.850000 0.873943 0.633684
O O2 0.023877 0.762779 0.573868
O O3 0.953527 0.000577 0.651587
O O4 0.769809 0.806295 0.883590
O O5 0.592710 0.656591 0.163835
O O6 0.548728 0.896379 0.188091
O O7 0.325116 0.299039 0.222305
O O8 0.524326 0.384423 0.912121
O O9 0.573322 0.279386 0.018615
O O10 0.714758 0.482843 0.130518
O O11 0.767859 0.240200 0.078228
O O12 0.770005 0.352431 0.919205
O O13 0.962146 0.394289 0.846273
O O14 0.456100 0.551024 0.861070
O O15 0.183407 0.608095 0.007429
O O16 0.193712 0.485970 0.665721
#
# Coordination Sequence:
#
# PCOD8055872 Si02
#       8
#     4   4   4   4   4   4   4   4
#     4  11  26  43  69 101 141 182 234 291 356 426
#     4  12  25  44  69  99 143 187 229 292 366 431
#     4  11  25  46  69 105 141 183 239 298 355 420
#     4  11  23  41  70 101 131 178 241 286 353 423
#     4  11  26  45  68 101 143 187 226 295 370 423
#     4  11  22  44  72 100 135 186 239 297 346 429
#     4  10  24  44  68  98 140 182 232 300 347 423
#     4  11  23  41  69 101 134 183 238 289 363 421
#
# _framework density 21.563244999999998
#
# number of rings (size 3 to 8) (size 9 to 14) (size 15 to 20)
#    0.000    1.000    2.500    3.750    8.750    4.000 
#    0.000    0.000    0.000    0.000    0.000    0.000 
#    0.000    0.000    0.000    0.000    0.000    0.000 
#
# Total GULP energy -198337.637698 kJ/mol
# GULP energy per Si atom -12396.102356 kJ/mol
# Density = 2.151417 g / cm^3
# Si number density = 21.563245 Si / 1000 Ang^3
#
#
#
# Elastic Constant Matrix: (Units=GPa)
#
#
# Indices 1 2 3 4 5 6 
#
# 1 111.9365 53.4581 35.9807 0.0000 -8.8497 0.0000
# 2 53.4581 105.3079 38.4021 0.0000 1.0303 0.0000
# 3 35.9807 38.4021 112.1232 0.0000 -0.4116 0.0000
# 4 0.0000 0.0000 0.0000 40.0150 0.0000 -2.2754
# 5 -8.8497 1.0303 -0.4116 0.0000 35.7214 0.0000
# 6 0.0000 0.0000 0.0000 -2.2754 0.0000 31.3220
#
#
#
# Elastic Compliance Matrix: (Units=1/GPa)
#
#
# Indices 1 2 3 4 5 6 
#
# 1 0.012557 -0.005646 -0.002084 0.000000 0.003250 0.000000
# 2 -0.005646 0.013395 -0.002782 0.000000 -0.001817 0.000000
# 3 -0.002084 -0.002782 0.010539 0.000000 -0.000315 0.000000
# 4 0.000000 0.000000 0.000000 0.025094 0.000000 0.001823
# 5 0.003250 -0.001817 -0.000315 0.000000 0.028848 0.000000
# 6 0.000000 0.000000 0.000000 0.001823 0.000000 0.032059
#
#
# Mechanical properties :
#
#
# Convention : Reuss Voigt Hill
#
# Bulk Modulus (GPa) = 64.65838 65.00547 64.83193
# Shear Modulus (GPa) = 33.63099 34.84679 34.23889
#
# Velocity S-wave (km/s) = 3.95352 4.02435 3.98909
# Velocity P-wave (km/s) = 7.13379 7.19762 7.16577
#
# Compressibility (1/GPa) = 0.01546590
#
# Stress axis : x y z
#
# Youngs Moduli (GPa) = 79.63776 74.65688 94.88320
#
# Poissons Ratio (x) = 0.42153 0.19772
# Poissons Ratio (y) = 0.44965 0.26401
# Poissons Ratio (z) = 0.16595 0.20773
#
# Static dielectric constant tensor:
#      x y z
#    x 4.087040 0.000000 -0.245670 
#    y 0.000000 4.030890 0.000000 
#    z -0.245670 0.000000 3.896920 
# 
# 
# High freq. dielectric constant tensor:
#      x y z
#    x 1.847280 0.000000 -0.015830 
#    y 0.000000 1.850980 0.000000 
#    z -0.015830 0.000000 1.849610 
# 
# From -- ./inp_files/12740.got.cif
#   From: 2010.06.25/outbox.cif.g09.slc.cpg/sg9_7_cif.got.tgz:12740.got - 2010.06.27 21:40:51.
