data_PCOD8055386
_publ_section_title
;
Structure prediction by ZEFSAII (Michael W. Deem and Ramdas Pophale) SiO2 
 PCOD8055386
Probable space group: C C
;
_chemical_formula_sum "Si O2"
_cell_formula_units_Z 24
_cell_length_a 7.304296
_cell_length_b 27.354547
_cell_length_c 7.790466
_cell_angle_alpha 90.000000
_cell_angle_beta 36.710957
_cell_angle_gamma 90.000000
_cell_volume 930.489749
_symmetry_space_group_name_H-M "C C"
_symmetry_group_IT_number 9
_symmetry_cell_setting 'monoclinic'
loop_
_space_group_symop_operation_xyz
x,y,z
x,-y,1/2+z
1/2+x,1/2+y,z
1/2+x,1/2-y,1/2+z
loop_
_atom_site_type_symbol
_atom_site_label
_atom_site_fract_x
_atom_site_fract_y
_atom_site_fract_z
Si Si1 0.431620 0.376085 0.397030
Si Si2 0.756486 0.783023 0.701837
Si Si3 0.974948 0.554243 0.673979
Si Si4 0.095583 0.988891 0.756163
Si Si5 0.967907 0.133121 0.244900
Si Si6 0.796619 0.406046 0.811206
O O1 0.263894 0.322940 0.542559
O O2 0.583333 0.390182 0.471100
O O3 0.161425 0.413465 0.549601
O O4 0.687537 0.375771 0.059649
O O5 0.921981 0.733414 0.515415
O O6 0.908471 0.809373 0.755304
O O7 0.240464 0.511695 0.470592
O O8 0.146152 0.606348 0.533728
O O9 0.749404 0.542480 0.674815
O O10 0.788668 0.547835 0.990614
O O11 0.136442 0.960065 0.912523
O O12 0.213561 0.127892 0.209650
#
# Coordination Sequence:
#
# PCOD8055386 Si02
#       6
#     4   4   4   4   4   4
#     4  10  24  40  74  92 135 182 212 285 342 400
#     4  10  22  43  68 102 136 171 223 280 340 413
#     4  11  24  46  63 102 133 186 227 289 340 395
#     4  11  25  42  69  95 142 171 241 286 326 415
#     4   9  25  44  72  94 142 177 228 277 341 409
#     4  11  22  45  66 103 128 181 233 271 335 410
#
# _framework density 25.792869
#
# number of rings (size 3 to 8) (size 9 to 14) (size 15 to 20)
#    1.000    0.667    0.000    4.000    2.333    8.000 
#    0.000    5.000    0.000    0.000    0.000    0.000 
#    0.000    0.000    0.000    0.000    0.000    0.000 
#
# Total GULP energy -148747.034550 kJ/mol
# GULP energy per Si atom -12395.586213 kJ/mol
# Density = 2.573416 g / cm^3
# Si number density = 25.792869 Si / 1000 Ang^3
#
#
#
# Elastic Constant Matrix: (Units=GPa)
#
#
# Indices 1 2 3 4 5 6 
#
# 1 122.1230 -7.9695 36.5546 0.0000 -2.9875 0.0000
# 2 -7.9695 77.5471 -3.8297 0.0000 14.1085 0.0000
# 3 36.5546 -3.8297 131.4725 0.0000 7.7539 0.0000
# 4 0.0000 0.0000 0.0000 27.5876 0.0000 -9.5582
# 5 -2.9875 14.1085 7.7539 0.0000 44.2931 0.0000
# 6 0.0000 0.0000 0.0000 -9.5582 0.0000 28.6626
#
#
#
# Elastic Compliance Matrix: (Units=1/GPa)
#
#
# Indices 1 2 3 4 5 6 
#
# 1 0.009011 0.000647 -0.002536 0.000000 0.000846 0.000000
# 2 0.000647 0.013792 0.000483 0.000000 -0.004434 0.000000
# 3 -0.002536 0.000483 0.008432 0.000000 -0.001801 0.000000
# 4 0.000000 0.000000 0.000000 0.040983 0.000000 0.013667
# 5 0.000846 -0.004434 -0.001801 0.000000 0.024362 0.000000
# 6 0.000000 0.000000 0.000000 0.013667 0.000000 0.039446
#
#
# Mechanical properties :
#
#
# Convention : Reuss Voigt Hill
#
# Bulk Modulus (GPa) = 35.18317 42.29483 38.73900
# Shear Modulus (GPa) = 33.71270 40.53447 37.12358
#
# Velocity S-wave (km/s) = 3.61924 3.96856 3.79792
# Velocity P-wave (km/s) = 5.57992 6.11823 5.85527
#
# Compressibility (1/GPa) = 0.02842268
#
# Stress axis : x y z
#
# Youngs Moduli (GPa) = 110.98084 72.50323 118.60063
#
# Poissons Ratio (x) = -0.04690 0.30081
# Poissons Ratio (y) = -0.07179 -0.05733
# Poissons Ratio (z) = 0.28148 -0.03505
#
# Static dielectric constant tensor:
#      x y z
#    x 4.782830 0.000000 0.045310 
#    y 0.000000 4.456260 0.000000 
#    z 0.045310 0.000000 4.662400 
# 
# 
# High freq. dielectric constant tensor:
#      x y z
#    x 2.030380 0.000000 -0.000910 
#    y 0.000000 2.026680 0.000000 
#    z -0.000910 0.000000 2.048360 
# 
# From -- ./inp_files/6500.got.cif
#   From: 2010.06.25/outbox.cif.g09.slc.cpg/sg9_4_cif.got.tgz:6500.got - 2010.06.27 21:40:51.
