data_PCOD8055185
_publ_section_title
;
Structure prediction by ZEFSAII (Michael W. Deem and Ramdas Pophale) SiO2 
 PCOD8055185
Probable space group: C C
;
_chemical_formula_sum "Si O2"
_cell_formula_units_Z 32
_cell_length_a 7.713719
_cell_length_b 13.124927
_cell_length_c 18.408906
_cell_angle_alpha 90.000000
_cell_angle_beta 88.044155
_cell_angle_gamma 90.000000
_cell_volume 1862.668663
_symmetry_space_group_name_H-M "C C"
_symmetry_group_IT_number 9
_symmetry_cell_setting 'monoclinic'
loop_
_space_group_symop_operation_xyz
x,y,z
x,-y,1/2+z
1/2+x,1/2+y,z
1/2+x,1/2-y,1/2+z
loop_
_atom_site_type_symbol
_atom_site_label
_atom_site_fract_x
_atom_site_fract_y
_atom_site_fract_z
Si Si1 0.694890 0.702736 0.564400
Si Si2 0.891484 0.059658 0.733114
Si Si3 0.079602 0.706447 0.712421
Si Si4 0.393223 0.354002 0.809299
Si Si5 0.381979 0.676951 0.478656
Si Si6 0.000782 0.989045 0.074465
Si Si7 0.568007 0.279020 0.553043
Si Si8 0.700195 0.293354 0.223189
O O1 0.547214 0.739566 0.509530
O O2 0.676031 0.579730 0.576253
O O3 0.655978 0.753666 0.643974
O O4 0.884811 0.729555 0.532985
O O5 0.879106 0.973634 0.794283
O O6 0.907862 0.006953 0.654162
O O7 0.720810 0.128708 0.740090
O O8 0.056635 0.128040 0.751865
O O9 0.132315 0.746656 0.632018
O O10 0.061795 0.804414 0.766638
O O11 0.890035 0.651559 0.712602
O O12 0.218243 0.299053 0.780815
O O13 0.412700 0.337877 0.893855
O O14 0.369793 0.566568 0.519170
O O15 0.207974 0.741380 0.492949
O O16 0.050099 0.100031 0.046555
#
# Coordination Sequence:
#
# PCOD8055185 Si02
#       8
#     4   4   4   4   4   4   4   4
#     4   8  18  37  55  82 109 143 201 221 268 362
#     4  11  17  39  61  77 115 151 190 232 281 345
#     4   9  19  36  59  83 108 149 195 227 280 348
#     4  10  22  39  53  88 121 139 194 249 275 331
#     4  10  22  39  53  88 122 139 193 249 274 338
#     4   9  19  35  58  85 106 149 194 226 284 338
#     4  11  17  39  62  78 114 154 184 236 283 333
#     4   8  18  36  55  83 107 144 195 228 269 345
#
# _framework density 17.179652000000001
#
# number of rings (size 3 to 8) (size 9 to 14) (size 15 to 20)
#    1.500    1.000    2.500    0.000    0.000    1.000 
#    9.000    1.250    0.000    0.000    0.000    0.000 
#    0.000    0.000    0.000    0.000    0.000    0.000 
#
# Total GULP energy -198233.316108 kJ/mol
# GULP energy per Si atom -12389.582257 kJ/mol
# Density = 1.714055 g / cm^3
# Si number density = 17.179652 Si / 1000 Ang^3
#
#
#
# Elastic Constant Matrix: (Units=GPa)
#
#
# Indices 1 2 3 4 5 6 
#
# 1 89.9700 40.9650 24.5761 0.0000 6.6292 0.0000
# 2 40.9650 79.0934 21.5343 0.0000 5.3923 0.0000
# 3 24.5761 21.5343 89.5882 0.0000 10.2380 0.0000
# 4 0.0000 0.0000 0.0000 19.4174 0.0000 0.8580
# 5 6.6292 5.3923 10.2380 0.0000 20.4853 0.0000
# 6 0.0000 0.0000 0.0000 0.8580 0.0000 27.1202
#
#
#
# Elastic Compliance Matrix: (Units=1/GPa)
#
#
# Indices 1 2 3 4 5 6 
#
# 1 0.015084 -0.007079 -0.002218 0.000000 -0.001910 0.000000
# 2 -0.007079 0.016932 -0.001995 0.000000 -0.001170 0.000000
# 3 -0.002218 -0.001995 0.012842 0.000000 -0.005175 0.000000
# 4 0.000000 0.000000 0.000000 0.051572 0.000000 -0.001632
# 5 -0.001910 -0.001170 -0.005175 0.000000 0.052328 0.000000
# 6 0.000000 0.000000 0.000000 -0.001632 0.000000 0.036925
#
#
# Mechanical properties :
#
#
# Convention : Reuss Voigt Hill
#
# Bulk Modulus (GPa) = 44.89257 48.08917 46.49087
# Shear Modulus (GPa) = 23.18132 24.84297 24.01214
#
# Velocity S-wave (km/s) = 3.67733 3.80685 3.74265
# Velocity P-wave (km/s) = 6.64969 6.88299 6.76734
#
# Compressibility (1/GPa) = 0.02227540
#
# Stress axis : x y z
#
# Youngs Moduli (GPa) = 66.29335 59.05877 77.87233
#
# Poissons Ratio (x) = 0.41805 0.17275
# Poissons Ratio (y) = 0.46926 0.15532
# Poissons Ratio (z) = 0.14706 0.11779
#
# Static dielectric constant tensor:
#      x y z
#    x 3.086170 0.000000 0.064280 
#    y 0.000000 2.995000 0.000000 
#    z 0.064280 0.000000 3.026440 
# 
# 
# High freq. dielectric constant tensor:
#      x y z
#    x 1.652020 0.000000 0.004070 
#    y 0.000000 1.644520 0.000000 
#    z 0.004070 0.000000 1.653580 
# 
# From -- ./inp_files/29089.got.cif
#   From: 2010.06.25/outbox.cif.g09.slc.cpg/sg9_15_cif.got.tgz:29089.got - 2010.06.27 21:40:51.
