data_PCOD8055735
_publ_section_title
;
Structure prediction by ZEFSAII (Michael W. Deem and Ramdas Pophale) SiO2 
 PCOD8055735
Probable space group: C C
;
_chemical_formula_sum "Si O2"
_cell_formula_units_Z 32
_cell_length_a 24.831671
_cell_length_b 9.312136
_cell_length_c 8.842096
_cell_angle_alpha 90.000000
_cell_angle_beta 138.449844
_cell_angle_gamma 90.000000
_cell_volume 1356.139560
_symmetry_space_group_name_H-M "C C"
_symmetry_group_IT_number 9
_symmetry_cell_setting 'monoclinic'
loop_
_space_group_symop_operation_xyz
x,y,z
x,-y,1/2+z
1/2+x,1/2+y,z
1/2+x,1/2-y,1/2+z
loop_
_atom_site_type_symbol
_atom_site_label
_atom_site_fract_x
_atom_site_fract_y
_atom_site_fract_z
Si Si1 0.487930 0.925585 0.416960
Si Si2 0.716821 0.542829 0.629985
Si Si3 0.804167 0.808782 0.929763
Si Si4 0.587487 0.924864 0.896489
Si Si5 0.346890 0.194979 0.441151
Si Si6 0.458727 0.749086 0.908621
Si Si7 0.119775 0.144982 0.144525
Si Si8 0.757934 0.054663 0.647422
O O1 0.528466 0.847025 0.647146
O O2 0.544030 0.935989 0.384060
O O3 0.487009 0.088479 0.470675
O O4 0.399614 0.854758 0.197533
O O5 0.746177 0.670988 0.798790
O O6 0.794641 0.438320 0.765016
O O7 0.689841 0.611224 0.413856
O O8 0.640207 0.462744 0.548378
O O9 0.803495 0.906438 0.778802
O O10 0.897622 0.764113 0.139162
O O11 0.773678 0.898107 0.010174
O O12 0.618491 0.807482 0.081289
O O13 0.663602 0.985319 0.965358
O O14 0.409560 0.273672 0.459248
O O15 0.282145 0.323833 0.326160
O O16 0.530666 0.630546 0.036538
#
# Coordination Sequence:
#
# PCOD8055735 Si02
#       8
#     4   4   4   4   4   4   4   4
#     4  11  22  42  72 100 145 189 245 293 371 440
#     4  12  26  49  78 106 151 198 258 302 370 458
#     4  11  26  45  72 103 152 195 245 311 368 450
#     4  11  24  43  68 106 141 188 244 307 364 445
#     4  11  23  46  77 108 141 196 252 308 364 453
#     4  10  23  46  66 108 145 191 246 299 374 433
#     4  11  27  46  72 109 142 194 247 313 368 434
#     4  11  25  45  67 106 145 189 247 301 381 425
#
# _framework density 23.596392999999999
#
# number of rings (size 3 to 8) (size 9 to 14) (size 15 to 20)
#    0.000    1.000    3.750    2.250    5.250    3.000 
#    6.750    0.000    0.000    0.000    0.000    0.000 
#    0.000    0.000    0.000    0.000    0.000    0.000 
#
# Total GULP energy -198222.804410 kJ/mol
# GULP energy per Si atom -12388.925276 kJ/mol
# Density = 2.354269 g / cm^3
# Si number density = 23.596393 Si / 1000 Ang^3
#
#
#
# Elastic Constant Matrix: (Units=GPa)
#
#
# Indices 1 2 3 4 5 6 
#
# 1 78.0614 8.7395 30.3542 0.0000 2.5110 0.0000
# 2 8.7395 74.8576 19.3432 0.0000 6.1572 0.0000
# 3 30.3542 19.3432 117.0155 0.0000 13.4722 0.0000
# 4 0.0000 0.0000 0.0000 42.0467 0.0000 -0.1693
# 5 2.5110 6.1572 13.4722 0.0000 26.9952 0.0000
# 6 0.0000 0.0000 0.0000 -0.1693 0.0000 34.7064
#
#
#
# Elastic Compliance Matrix: (Units=1/GPa)
#
#
# Indices 1 2 3 4 5 6 
#
# 1 0.014298 -0.000780 -0.003658 0.000000 0.000673 0.000000
# 2 -0.000780 0.014116 -0.001877 0.000000 -0.002211 0.000000
# 3 -0.003658 -0.001877 0.010309 0.000000 -0.004376 0.000000
# 4 0.000000 0.000000 0.000000 0.023784 0.000000 0.000116
# 5 0.000673 -0.002211 -0.004376 0.000000 0.039669 0.000000
# 6 0.000000 0.000000 0.000000 0.000116 0.000000 0.028814
#
#
# Mechanical properties :
#
#
# Convention : Reuss Voigt Hill
#
# Bulk Modulus (GPa) = 38.32064 42.97870 40.64967
# Shear Modulus (GPa) = 32.82634 34.84951 33.83793
#
# Velocity S-wave (km/s) = 3.73387 3.84721 3.79097
# Velocity P-wave (km/s) = 5.90460 6.16347 6.03543
#
# Compressibility (1/GPa) = 0.02609560
#
# Stress axis : x y z
#
# Youngs Moduli (GPa) = 69.93821 70.83915 97.00465
#
# Poissons Ratio (x) = 0.05522 0.35481
# Poissons Ratio (y) = 0.05452 0.18206
# Poissons Ratio (z) = 0.25581 0.13295
#
# Static dielectric constant tensor:
#      x y z
#    x 4.817400 0.000000 0.292990 
#    y 0.000000 4.081520 0.000000 
#    z 0.292990 0.000000 4.605240 
# 
# 
# High freq. dielectric constant tensor:
#      x y z
#    x 1.934270 0.000000 0.007860 
#    y 0.000000 1.912020 0.000000 
#    z 0.007860 0.000000 1.948040 
# 
# From -- ./inp_files/12457.got.cif
#   From: 2010.06.25/outbox.cif.g09.slc.cpg/sg9_7_cif.got.tgz:12457.got - 2010.06.27 21:40:51.
