data_PCOD8055626
_publ_section_title
;
Structure prediction by ZEFSAII (Michael W. Deem and Ramdas Pophale) SiO2 
 PCOD8055626
Probable space group: C C
;
_chemical_formula_sum "Si O2"
_cell_formula_units_Z 32
_cell_length_a 23.952936
_cell_length_b 8.545922
_cell_length_c 9.670629
_cell_angle_alpha 90.000000
_cell_angle_beta 52.091336
_cell_angle_gamma 90.000000
_cell_volume 1561.868813
_symmetry_space_group_name_H-M "C C"
_symmetry_group_IT_number 9
_symmetry_cell_setting 'monoclinic'
loop_
_space_group_symop_operation_xyz
x,y,z
x,-y,1/2+z
1/2+x,1/2+y,z
1/2+x,1/2-y,1/2+z
loop_
_atom_site_type_symbol
_atom_site_label
_atom_site_fract_x
_atom_site_fract_y
_atom_site_fract_z
Si Si1 0.585030 0.370638 0.341470
Si Si2 0.220267 0.339265 0.630247
Si Si3 0.418255 0.679666 0.486018
Si Si4 0.431497 0.320317 0.488650
Si Si5 0.074890 0.834743 0.673940
Si Si6 0.342225 0.818192 0.356967
Si Si7 0.862429 0.323846 0.841441
Si Si8 0.711141 0.144875 0.463160
O O1 0.647074 0.249355 0.216343
O O2 0.514363 0.294681 0.386920
O O3 0.576435 0.406122 0.517271
O O4 0.599784 0.534315 0.244286
O O5 0.282101 0.224458 0.489690
O O6 0.225001 0.490737 0.528797
O O7 0.230376 0.388345 0.774284
O O8 0.413177 0.494681 0.464673
O O9 0.497814 0.734568 0.327595
O O10 0.359498 0.773507 0.488561
O O11 0.402040 0.716966 0.669455
O O12 0.391319 0.294657 0.692531
O O13 0.406801 0.193790 0.414399
O O14 0.129500 0.692004 0.602906
O O15 0.260277 0.784809 0.446985
O O16 0.361342 0.996807 0.295980
#
# Coordination Sequence:
#
# PCOD8055626 Si02
#       8
#     4   4   4   4   4   4   4   4
#     4  10  23  43  69  94 131 168 217 268 323 389
#     4  11  25  45  64  96 130 174 219 268 327 385
#     4  11  24  42  70  97 131 174 216 262 328 386
#     4  11  22  44  66  98 131 171 217 265 322 388
#     4  10  23  44  66  97 129 171 215 267 325 385
#     4  12  24  43  65  98 133 170 218 271 322 385
#     4  12  26  41  67  99 131 175 216 268 326 383
#     4  11  25  44  67  93 132 171 220 271 323 391
#
# _framework density 20.488275999999999
#
# number of rings (size 3 to 8) (size 9 to 14) (size 15 to 20)
#    0.000    1.000    2.500    3.750    7.000    3.000 
#    0.000    0.000    0.000    0.000    0.000    0.000 
#    0.000    0.000    0.000    0.000    0.000    0.000 
#
# Total GULP energy -198505.478475 kJ/mol
# GULP energy per Si atom -12406.592405 kJ/mol
# Density = 2.044164 g / cm^3
# Si number density = 20.488276 Si / 1000 Ang^3
#
#
#
# Elastic Constant Matrix: (Units=GPa)
#
#
# Indices 1 2 3 4 5 6 
#
# 1 112.6575 50.9464 39.2886 0.0000 -1.5421 0.0000
# 2 50.9464 65.3369 34.3760 0.0000 0.5486 0.0000
# 3 39.2886 34.3760 103.5005 0.0000 -7.0428 0.0000
# 4 0.0000 0.0000 0.0000 25.0813 0.0000 1.9250
# 5 -1.5421 0.5486 -7.0428 0.0000 35.4721 0.0000
# 6 0.0000 0.0000 0.0000 1.9250 0.0000 29.4086
#
#
#
# Elastic Compliance Matrix: (Units=1/GPa)
#
#
# Indices 1 2 3 4 5 6 
#
# 1 0.014068 -0.009907 -0.002025 0.000000 0.000363 0.000000
# 2 -0.009907 0.025605 -0.004866 0.000000 -0.001793 0.000000
# 3 -0.002025 -0.004866 0.012211 0.000000 0.002412 0.000000
# 4 0.000000 0.000000 0.000000 0.040072 0.000000 -0.002623
# 5 0.000363 -0.001793 0.002412 0.000000 0.028713 0.000000
# 6 0.000000 0.000000 0.000000 -0.002623 0.000000 0.034175
#
#
# Mechanical properties :
#
#
# Convention : Reuss Voigt Hill
#
# Bulk Modulus (GPa) = 54.67947 58.96855 56.82401
# Shear Modulus (GPa) = 25.70222 28.45133 27.07678
#
# Velocity S-wave (km/s) = 3.54571 3.73052 3.63929
# Velocity P-wave (km/s) = 6.59613 6.88475 6.74198
#
# Compressibility (1/GPa) = 0.01828840
#
# Stress axis : x y z
#
# Youngs Moduli (GPa) = 71.08427 39.05438 81.89587
#
# Poissons Ratio (x) = 0.38691 0.16584
# Poissons Ratio (y) = 0.70423 0.39848
# Poissons Ratio (z) = 0.14394 0.19003
#
# Static dielectric constant tensor:
#      x y z
#    x 3.875170 0.000000 -0.024260 
#    y 0.000000 3.432330 0.000000 
#    z -0.024260 0.000000 3.816050 
# 
# 
# High freq. dielectric constant tensor:
#      x y z
#    x 1.817660 0.000000 0.000120 
#    y 0.000000 1.791930 0.000000 
#    z 0.000120 0.000000 1.814480 
# 
# From -- ./inp_files/11339.got.cif
#   From: 2010.06.25/outbox.cif.g09.slc.cpg/sg9_6_cif.got.tgz:11339.got - 2010.06.27 21:40:51.
