data_PCOD8055597
_publ_section_title
;
Structure prediction by ZEFSAII (Michael W. Deem and Ramdas Pophale) SiO2 
 PCOD8055597
Probable space group: C C
;
_chemical_formula_sum "Si O2"
_cell_formula_units_Z 28
_cell_length_a 8.224631
_cell_length_b 17.018715
_cell_length_c 11.478185
_cell_angle_alpha 90.000000
_cell_angle_beta 53.247949
_cell_angle_gamma 90.000000
_cell_volume 1287.285590
_symmetry_space_group_name_H-M "C C"
_symmetry_group_IT_number 9
_symmetry_cell_setting 'monoclinic'
loop_
_space_group_symop_operation_xyz
x,y,z
x,-y,1/2+z
1/2+x,1/2+y,z
1/2+x,1/2-y,1/2+z
loop_
_atom_site_type_symbol
_atom_site_label
_atom_site_fract_x
_atom_site_fract_y
_atom_site_fract_z
Si Si1 0.989050 0.574390 0.528290
Si Si2 0.151744 0.125048 0.849471
Si Si3 0.560130 0.664276 0.476774
Si Si4 0.981879 0.704742 0.366116
Si Si5 0.854223 0.704024 0.174822
Si Si6 0.737059 0.429559 0.571357
Si Si7 0.425188 0.526497 0.393316
O O1 0.858261 0.615486 0.686684
O O2 0.090164 0.638682 0.397830
O O3 0.854147 0.512351 0.513716
O O4 0.183000 0.531370 0.500010
O O5 0.051800 0.210549 0.880512
O O6 0.982803 0.064292 0.878195
O O7 0.198127 0.107434 0.963226
O O8 0.742149 0.681369 0.491262
O O9 0.627209 0.702754 0.324549
O O10 0.366452 0.712051 0.605248
O O11 0.508865 0.573066 0.473216
O O12 0.018780 0.696398 0.210923
O O13 0.885976 0.630853 0.075341
O O14 0.525803 0.439719 0.731997
#
# Coordination Sequence:
#
# PCOD8055597 Si02
#       7
#     4   4   4   4   4   4   4
#     4  11  25  43  71  99 137 183 225 282 341 403
#     4  11  25  45  69 104 134 181 232 278 337 416
#     4   9  20  40  66  92 132 171 217 273 339 399
#     4  10  23  42  70  90 139 173 229 271 341 395
#     4   9  21  39  68  93 130 171 218 278 337 392
#     4  10  24  44  68  98 140 173 230 279 338 409
#     4  10  24  45  66 102 138 176 221 285 343 400
#
# _framework density 21.751197000000001
#
# number of rings (size 3 to 8) (size 9 to 14) (size 15 to 20)
#    0.857    1.143    0.000    1.714    6.000    5.714 
#    0.000    0.000    0.000    0.000    0.000    0.000 
#    0.000    0.000    0.000    0.000    0.000    0.000 
#
# Total GULP energy -173438.189497 kJ/mol
# GULP energy per Si atom -12388.442107 kJ/mol
# Density = 2.170169 g / cm^3
# Si number density = 21.751197 Si / 1000 Ang^3
#
#
#
# Elastic Constant Matrix: (Units=GPa)
#
#
# Indices 1 2 3 4 5 6 
#
# 1 103.7242 47.8774 43.3153 0.0000 4.2351 0.0000
# 2 47.8774 120.0928 37.1178 0.0000 12.0965 0.0000
# 3 43.3153 37.1178 72.4719 0.0000 22.0785 0.0000
# 4 0.0000 0.0000 0.0000 35.1498 0.0000 4.3181
# 5 4.2351 12.0965 22.0785 0.0000 40.1879 0.0000
# 6 0.0000 0.0000 0.0000 4.3181 0.0000 36.9066
#
#
#
# Elastic Compliance Matrix: (Units=1/GPa)
#
#
# Indices 1 2 3 4 5 6 
#
# 1 0.014536 -0.003726 -0.007992 0.000000 0.003980 0.000000
# 2 -0.003726 0.010850 -0.002948 0.000000 -0.001253 0.000000
# 3 -0.007992 -0.002948 0.023490 0.000000 -0.011175 0.000000
# 4 0.000000 0.000000 0.000000 0.028865 0.000000 -0.003377
# 5 0.003980 -0.001253 -0.011175 0.000000 0.030980 0.000000
# 6 0.000000 0.000000 0.000000 -0.003377 0.000000 0.027491
#
#
# Mechanical properties :
#
#
# Convention : Reuss Voigt Hill
#
# Bulk Modulus (GPa) = 51.16942 61.43444 56.30193
# Shear Modulus (GPa) = 29.06012 33.64743 31.35378
#
# Velocity S-wave (km/s) = 3.65913 3.93736 3.80079
# Velocity P-wave (km/s) = 6.43648 6.99828 6.72325
#
# Compressibility (1/GPa) = 0.01954292
#
# Stress axis : x y z
#
# Youngs Moduli (GPa) = 68.79620 92.16849 42.57174
#
# Poissons Ratio (x) = 0.34339 0.34024
# Poissons Ratio (y) = 0.25631 0.12551
# Poissons Ratio (z) = 0.54983 0.27174
#
# Static dielectric constant tensor:
#      x y z
#    x 3.641730 0.000000 0.114790 
#    y 0.000000 3.907790 0.000000 
#    z 0.114790 0.000000 3.839890 
# 
# 
# High freq. dielectric constant tensor:
#      x y z
#    x 1.834810 0.000000 0.011330 
#    y 0.000000 1.861610 0.000000 
#    z 0.011330 0.000000 1.850100 
# 
# From -- ./inp_files/14698.got.cif
#   From: 2010.06.25/outbox.cif.g09.slc.cpg/sg9_8_cif.got.tgz:14698.got - 2010.06.27 21:40:51.
