data_PCOD8055734
_publ_section_title
;
Structure prediction by ZEFSAII (Michael W. Deem and Ramdas Pophale) SiO2 
 PCOD8055734
Probable space group: C C
;
_chemical_formula_sum "Si O2"
_cell_formula_units_Z 28
_cell_length_a 13.328994
_cell_length_b 12.376059
_cell_length_c 9.125514
_cell_angle_alpha 90.000000
_cell_angle_beta 121.604817
_cell_angle_gamma 90.000000
_cell_volume 1282.079618
_symmetry_space_group_name_H-M "C C"
_symmetry_group_IT_number 9
_symmetry_cell_setting 'monoclinic'
loop_
_space_group_symop_operation_xyz
x,y,z
x,-y,1/2+z
1/2+x,1/2+y,z
1/2+x,1/2-y,1/2+z
loop_
_atom_site_type_symbol
_atom_site_label
_atom_site_fract_x
_atom_site_fract_y
_atom_site_fract_z
Si Si1 0.057390 0.902271 0.517270
Si Si2 0.325262 0.872629 0.788392
Si Si3 0.137162 0.576975 0.236778
Si Si4 0.503057 0.059465 0.852079
Si Si5 0.395144 0.607129 0.381050
Si Si6 0.983193 0.763411 0.206110
Si Si7 0.911353 0.758915 0.618962
O O1 0.195797 0.915075 0.650660
O O2 0.028349 0.866269 0.330160
O O3 0.012942 0.811454 0.597167
O O4 0.995768 0.017852 0.478960
O O5 0.371969 0.793132 0.698743
O O6 0.407199 0.979417 0.853275
O O7 0.322550 0.805478 0.941092
O O8 0.276319 0.559201 0.361549
O O9 0.063393 0.480704 0.250295
O O10 0.096885 0.686572 0.285303
O O11 0.108506 0.578931 0.044343
O O12 0.450974 0.174100 0.770581
O O13 0.439416 0.707834 0.510829
O O14 0.365020 0.644337 0.190270
#
# Coordination Sequence:
#
# PCOD8055734 Si02
#       7
#     4   4   4   4   4   4   4
#     4  11  26  44  67 100 138 178 223 282 337 400
#     4  10  24  46  69  97 137 176 227 280 336 411
#     4  11  25  42  69  96 137 170 228 281 333 413
#     4  11  23  45  69 100 129 184 227 278 342 403
#     4  12  26  43  67 103 136 178 223 284 338 397
#     4  10  23  46  65  98 129 181 221 271 345 396
#     4  11  25  44  68 102 134 183 229 272 351 402
#
# _framework density 21.839516
#
# number of rings (size 3 to 8) (size 9 to 14) (size 15 to 20)
#    0.000    1.143    2.857    1.714    6.000    4.571 
#    0.000    0.000    0.000    0.000    0.000    0.000 
#    0.000    0.000    0.000    0.000    0.000    0.000 
#
# Total GULP energy -173529.575829 kJ/mol
# GULP energy per Si atom -12394.969702 kJ/mol
# Density = 2.178981 g / cm^3
# Si number density = 21.839516 Si / 1000 Ang^3
#
#
#
# Elastic Constant Matrix: (Units=GPa)
#
#
# Indices 1 2 3 4 5 6 
#
# 1 116.1694 36.5601 54.4410 0.0000 23.0607 0.0000
# 2 36.5601 90.5812 35.6314 0.0000 1.8972 0.0000
# 3 54.4410 35.6314 109.2540 0.0000 -5.9417 0.0000
# 4 0.0000 0.0000 0.0000 42.0459 0.0000 -2.9351
# 5 23.0607 1.8972 -5.9417 0.0000 38.2940 0.0000
# 6 0.0000 0.0000 0.0000 -2.9351 0.0000 19.9890
#
#
#
# Elastic Compliance Matrix: (Units=1/GPa)
#
#
# Indices 1 2 3 4 5 6 
#
# 1 0.014732 -0.003033 -0.006884 0.000000 -0.009790 0.000000
# 2 -0.003033 0.013351 -0.002803 0.000000 0.000730 0.000000
# 3 -0.006884 -0.002803 0.013847 0.000000 0.006433 0.000000
# 4 0.000000 0.000000 0.000000 0.024030 0.000000 0.003528
# 5 -0.009790 0.000730 0.006433 0.000000 0.032971 0.000000
# 6 0.000000 0.000000 0.000000 0.003528 0.000000 0.050546
#
#
# Mechanical properties :
#
#
# Convention : Reuss Voigt Hill
#
# Bulk Modulus (GPa) = 60.64306 63.25217 61.94762
# Shear Modulus (GPa) = 27.71380 32.69058 30.20219
#
# Velocity S-wave (km/s) = 3.56613 3.87312 3.72279
# Velocity P-wave (km/s) = 6.69210 7.00189 6.84875
#
# Compressibility (1/GPa) = 0.01648993
#
# Stress axis : x y z
#
# Youngs Moduli (GPa) = 67.87856 74.89826 72.21537
#
# Poissons Ratio (x) = 0.22718 0.49715
# Poissons Ratio (y) = 0.20588 0.20244
# Poissons Ratio (z) = 0.46729 0.20996
#
# Static dielectric constant tensor:
#      x y z
#    x 3.761800 0.000000 -0.230360 
#    y 0.000000 3.911470 0.000000 
#    z -0.230360 0.000000 3.964680 
# 
# 
# High freq. dielectric constant tensor:
#      x y z
#    x 1.848920 0.000000 -0.014080 
#    y 0.000000 1.865850 0.000000 
#    z -0.014080 0.000000 1.869720 
# 
# From -- ./inp_files/6951.got.cif
#   From: 2010.06.25/outbox.cif.g09.slc.cpg/sg9_4_cif.got.tgz:6951.got - 2010.06.27 21:40:51.
