data_PCOD8055794
_publ_section_title
;
Structure prediction by ZEFSAII (Michael W. Deem and Ramdas Pophale) SiO2 
 PCOD8055794
Probable space group: C C
;
_chemical_formula_sum "Si O2"
_cell_formula_units_Z 28
_cell_length_a 8.949971
_cell_length_b 5.094206
_cell_length_c 32.248888
_cell_angle_alpha 90.000000
_cell_angle_beta 123.370270
_cell_angle_gamma 90.000000
_cell_volume 1227.916179
_symmetry_space_group_name_H-M "C C"
_symmetry_group_IT_number 9
_symmetry_cell_setting 'monoclinic'
loop_
_space_group_symop_operation_xyz
x,y,z
x,-y,1/2+z
1/2+x,1/2+y,z
1/2+x,1/2-y,1/2+z
loop_
_atom_site_type_symbol
_atom_site_label
_atom_site_fract_x
_atom_site_fract_y
_atom_site_fract_z
Si Si1 0.837380 0.435951 0.033600
Si Si2 0.450103 0.936333 0.797579
Si Si3 0.785947 0.906308 0.387958
Si Si4 0.432025 0.435986 0.996838
Si Si5 0.573237 0.007656 0.649330
Si Si6 0.815919 0.490644 0.186968
Si Si7 0.975954 0.058295 0.343305
O O1 0.634173 0.373335 0.014732
O O2 0.926955 0.176829 0.028069
O O3 0.944879 0.516709 0.090596
O O4 0.844881 0.677369 0.003011
O O5 0.658112 0.895332 0.842426
O O6 0.372997 0.168550 0.815684
O O7 0.426020 0.007453 0.746273
O O8 0.376312 0.647671 0.797104
O O9 0.813244 0.989437 0.439216
O O10 0.966038 0.937785 0.388502
O O11 0.690422 0.618747 0.371333
O O12 0.728765 0.793922 0.667839
O O13 0.455823 0.951112 0.671998
O O14 0.659766 0.294589 0.664501
#
# Coordination Sequence:
#
# PCOD8055794 Si02
#       7
#     4   4   4   4   4   4   4
#     4  12  26  48  71 103 137 179 233 291 345 401
#     4  10  26  41  68  98 139 175 223 275 332 411
#     4  10  26  41  68  98 139 174 226 270 338 405
#     4  12  27  44  76 101 139 182 230 280 352 410
#     4  12  26  48  71 103 137 179 233 292 340 411
#     4  12  27  44  76 101 139 182 231 277 357 402
#     4  10  24  40  66  90 144 171 220 271 328 392
#
# _framework density 22.802859999999999
#
# number of rings (size 3 to 8) (size 9 to 14) (size 15 to 20)
#    0.857    0.000    0.000    6.000   10.000    0.000 
#    0.000    0.000    0.000    0.000    0.000    0.000 
#    0.000    0.000    0.000    0.000    0.000    0.000 
#
# Total GULP energy -173478.078190 kJ/mol
# GULP energy per Si atom -12391.291299 kJ/mol
# Density = 2.275096 g / cm^3
# Si number density = 22.802860 Si / 1000 Ang^3
#
#
#
# Elastic Constant Matrix: (Units=GPa)
#
#
# Indices 1 2 3 4 5 6 
#
# 1 86.8370 35.7913 25.4810 0.0000 -16.1006 0.0000
# 2 35.7913 112.0472 5.4941 0.0000 -7.8192 0.0000
# 3 25.4810 5.4941 113.2590 0.0000 -0.8785 0.0000
# 4 0.0000 0.0000 0.0000 26.2171 0.0000 -1.3377
# 5 -16.1006 -7.8192 -0.8785 0.0000 31.7537 0.0000
# 6 0.0000 0.0000 0.0000 -1.3377 0.0000 34.8831
#
#
#
# Elastic Compliance Matrix: (Units=1/GPa)
#
#
# Indices 1 2 3 4 5 6 
#
# 1 0.015484 -0.004321 -0.003222 0.000000 0.006698 0.000000
# 2 -0.004321 0.010307 0.000475 0.000000 0.000360 0.000000
# 3 -0.003222 0.000475 0.009521 0.000000 -0.001253 0.000000
# 4 0.000000 0.000000 0.000000 0.038218 0.000000 0.001466
# 5 0.006698 0.000360 -0.001253 0.000000 0.034943 0.000000
# 6 0.000000 0.000000 0.000000 0.001466 0.000000 0.028723
#
#
# Mechanical properties :
#
#
# Convention : Reuss Voigt Hill
#
# Bulk Modulus (GPa) = 47.22182 49.51956 48.37069
# Shear Modulus (GPa) = 31.56753 34.92926 33.24839
#
# Velocity S-wave (km/s) = 3.72474 3.91806 3.82262
# Velocity P-wave (km/s) = 6.26514 6.49860 6.38294
#
# Compressibility (1/GPa) = 0.02117665
#
# Stress axis : x y z
#
# Youngs Moduli (GPa) = 64.58275 97.02313 105.02596
#
# Poissons Ratio (x) = 0.41920 0.33840
# Poissons Ratio (y) = 0.27904 -0.04988
# Poissons Ratio (z) = 0.20809 -0.04607
#
# Static dielectric constant tensor:
#      x y z
#    x 4.147650 0.000000 -0.064730 
#    y 0.000000 4.196280 0.000000 
#    z -0.064730 0.000000 4.141480 
# 
# 
# High freq. dielectric constant tensor:
#      x y z
#    x 1.894220 0.000000 -0.008930 
#    y 0.000000 1.912820 0.000000 
#    z -0.008930 0.000000 1.909770 
# 
# From -- ./inp_files/36274.got.cif
#   From: 2010.06.25/outbox.cif.g09.slc.cpg/sg9_19_cif.got.tgz:36274.got - 2010.06.27 21:40:51.
