data_PCOD8055515
_publ_section_title
;
Structure prediction by ZEFSAII (Michael W. Deem and Ramdas Pophale) SiO2 
 PCOD8055515
Probable space group: C C
;
_chemical_formula_sum "Si O2"
_cell_formula_units_Z 32
_cell_length_a 11.572057
_cell_length_b 7.932049
_cell_length_c 23.403993
_cell_angle_alpha 90.000000
_cell_angle_beta 42.287509
_cell_angle_gamma 90.000000
_cell_volume 1445.456334
_symmetry_space_group_name_H-M "C C"
_symmetry_group_IT_number 9
_symmetry_cell_setting 'monoclinic'
loop_
_space_group_symop_operation_xyz
x,y,z
x,-y,1/2+z
1/2+x,1/2+y,z
1/2+x,1/2-y,1/2+z
loop_
_atom_site_type_symbol
_atom_site_label
_atom_site_fract_x
_atom_site_fract_y
_atom_site_fract_z
Si Si1 0.407100 0.105425 0.583180
Si Si2 0.480790 0.127693 0.955033
Si Si3 0.637903 0.881957 0.682248
Si Si4 0.043381 0.639207 0.807813
Si Si5 0.668404 0.493171 0.765648
Si Si6 0.365234 0.727419 0.264143
Si Si7 0.357614 0.378283 0.313580
Si Si8 0.657151 0.160380 0.585009
O O1 0.315743 0.284905 0.613995
O O2 0.286250 0.985994 0.666024
O O3 0.593991 0.132362 0.543226
O O4 0.428916 0.032083 0.512185
O O5 0.457204 0.069476 0.897458
O O6 0.672812 0.191673 0.902098
O O7 0.353919 0.283083 0.014227
O O8 0.467215 0.766617 0.742317
O O9 0.647789 0.991473 0.737177
O O10 0.627610 0.986898 0.628655
O O11 0.904175 0.707476 0.813754
O O12 0.161793 0.797019 0.787904
O O13 0.736153 0.632819 0.785476
O O14 0.474038 0.550758 0.822391
O O15 0.298385 0.534234 0.293092
O O16 0.535490 0.707161 0.162921
#
# Coordination Sequence:
#
# PCOD8055515 Si02
#       8
#     4   4   4   4   4   4   4   4
#     4  10  23  45  65  92 134 176 221 271 345 404
#     4  12  26  42  62 105 144 164 216 303 348 392
#     4  10  22  50  70  95 126 192 238 265 330 436
#     4  10  23  39  69 101 133 170 234 283 341 399
#     4   9  20  45  74  90 129 184 232 274 332 430
#     4   9  20  45  74  90 129 184 232 274 332 430
#     4  10  23  39  69 101 133 170 234 283 341 399
#     4  10  23  45  65  92 134 176 221 271 345 404
#
# _framework density 22.138338000000001
#
# number of rings (size 3 to 8) (size 9 to 14) (size 15 to 20)
#    0.000    2.000    0.000    3.000   14.000    0.000 
#    6.750    0.000    0.000    0.000    0.000    0.000 
#    0.000    0.000    0.000    0.000    0.000    0.000 
#
# Total GULP energy -198277.045658 kJ/mol
# GULP energy per Si atom -12392.315354 kJ/mol
# Density = 2.208795 g / cm^3
# Si number density = 22.138338 Si / 1000 Ang^3
#
#
#
# Elastic Constant Matrix: (Units=GPa)
#
#
# Indices 1 2 3 4 5 6 
#
# 1 100.8822 30.8803 57.4594 0.0000 -10.4624 0.0000
# 2 30.8803 127.8773 38.7571 -0.0001 -13.4224 -0.0001
# 3 57.4594 38.7571 94.1373 0.0000 -12.5788 -0.0001
# 4 0.0000 -0.0001 0.0000 18.5625 0.0000 -3.4029
# 5 -10.4624 -13.4224 -12.5788 0.0000 35.8132 0.0000
# 6 0.0000 -0.0001 -0.0001 -3.4029 0.0000 30.0812
#
#
#
# Elastic Compliance Matrix: (Units=1/GPa)
#
#
# Indices 1 2 3 4 5 6 
#
# 1 0.015339 -0.000914 -0.008849 0.000000 0.001031 0.000000
# 2 -0.000914 0.009151 -0.002924 0.000000 0.002136 0.000000
# 3 -0.008849 -0.002924 0.017560 0.000000 0.002487 0.000000
# 4 0.000000 0.000000 0.000000 0.055013 0.000000 0.006223
# 5 0.001031 0.002136 0.002487 0.000000 0.029898 0.000000
# 6 0.000000 0.000000 0.000000 0.006223 0.000000 0.033947
#
#
# Mechanical properties :
#
#
# Convention : Reuss Voigt Hill
#
# Bulk Modulus (GPa) = 59.96543 64.12113 62.04328
# Shear Modulus (GPa) = 26.06326 29.94472 28.00399
#
# Velocity S-wave (km/s) = 3.43489 3.68179 3.56048
# Velocity P-wave (km/s) = 6.54804 6.86300 6.70737
#
# Compressibility (1/GPa) = 0.01667628
#
# Stress axis : x y z
#
# Youngs Moduli (GPa) = 65.19266 109.27527 56.94759
#
# Poissons Ratio (x) = 0.09989 0.50391
# Poissons Ratio (y) = 0.05960 0.16653
# Poissons Ratio (z) = 0.57686 0.31955
#
# Static dielectric constant tensor:
#      x y z
#    x 4.958000 0.000000 -0.226440 
#    y 0.000000 4.196420 0.000000 
#    z -0.226440 0.000000 3.943630 
# 
# 
# High freq. dielectric constant tensor:
#      x y z
#    x 1.883780 0.000000 -0.001460 
#    y 0.000000 1.872030 0.000000 
#    z -0.001460 0.000000 1.851020 
# 
# From -- ./inp_files/35317.got.cif
#   From: 2010.06.25/outbox.cif.g09.slc.cpg/sg9_18_cif.got.tgz:35317.got - 2010.06.27 21:40:51.
