data_PCOD8055864
_publ_section_title
;
Structure prediction by ZEFSAII (Michael W. Deem and Ramdas Pophale) SiO2 
 PCOD8055864
Probable space group: C C
;
_chemical_formula_sum "Si O2"
_cell_formula_units_Z 32
_cell_length_a 14.461126
_cell_length_b 12.085742
_cell_length_c 8.159870
_cell_angle_alpha 90.000000
_cell_angle_beta 75.870557
_cell_angle_gamma 90.000000
_cell_volume 1382.983437
_symmetry_space_group_name_H-M "C C"
_symmetry_group_IT_number 9
_symmetry_cell_setting 'monoclinic'
loop_
_space_group_symop_operation_xyz
x,y,z
x,-y,1/2+z
1/2+x,1/2+y,z
1/2+x,1/2-y,1/2+z
loop_
_atom_site_type_symbol
_atom_site_label
_atom_site_fract_x
_atom_site_fract_y
_atom_site_fract_z
Si Si1 0.243300 0.943674 0.573670
Si Si2 0.943520 0.888293 0.551620
Si Si3 0.637013 0.614891 0.812609
Si Si4 0.550309 0.231792 0.108417
Si Si5 0.518693 0.835717 0.139656
Si Si6 0.460544 0.037289 0.991003
Si Si7 0.193234 0.271627 0.247105
Si Si8 0.382340 0.608297 0.726982
O O1 0.223940 0.887059 0.404693
O O2 0.349068 0.990363 0.541077
O O3 0.233330 0.852160 0.719482
O O4 0.167757 0.041493 0.642847
O O5 0.953514 0.772682 0.643806
O O6 0.876691 0.868197 0.423283
O O7 0.045089 0.935406 0.444090
O O8 0.896341 0.977696 0.691787
O O9 0.603682 0.736431 0.757631
O O10 0.494218 0.114338 0.131305
O O11 0.469948 0.325056 0.105169
O O12 0.631342 0.222137 0.936894
O O13 0.483852 0.901144 0.313855
O O14 0.627639 0.796994 0.116387
O O15 0.512534 0.918484 0.987067
O O16 0.280253 0.357066 0.200335
#
# Coordination Sequence:
#
# PCOD8055864 Si02
#       8
#     4   4   4   4   4   4   4   4
#     4  12  22  41  68 105 133 183 242 286 343 419
#     4  11  25  45  72 105 140 187 235 295 360 420
#     4  11  23  40  72 103 138 181 237 303 343 412
#     4  10  24  44  67 102 142 185 226 296 359 406
#     4  11  27  46  71 101 144 189 234 287 365 421
#     4  11  26  45  70 100 146 184 230 296 356 420
#     4  11  24  44  69 103 140 186 235 286 350 429
#     4  11  25  43  75 105 143 181 241 295 356 419
#
# _framework density 23.138383000000001
#
# number of rings (size 3 to 8) (size 9 to 14) (size 15 to 20)
#    0.000    1.000    2.500    3.750    7.000    5.000 
#    0.000    0.000    0.000    0.000    0.000    0.000 
#    0.000    0.000    0.000    0.000    0.000    0.000 
#
# Total GULP energy -198367.337435 kJ/mol
# GULP energy per Si atom -12397.958590 kJ/mol
# Density = 2.308572 g / cm^3
# Si number density = 23.138383 Si / 1000 Ang^3
#
#
#
# Elastic Constant Matrix: (Units=GPa)
#
#
# Indices 1 2 3 4 5 6 
#
# 1 103.9365 44.1471 25.3462 0.0000 8.2706 0.0000
# 2 44.1471 138.4204 21.5078 0.0000 1.6637 0.0000
# 3 25.3462 21.5078 60.1657 0.0000 2.0644 0.0000
# 4 0.0000 0.0000 0.0000 40.3919 0.0000 4.9710
# 5 8.2706 1.6637 2.0644 0.0000 32.4024 0.0000
# 6 0.0000 0.0000 0.0000 4.9710 0.0000 35.6753
#
#
#
# Elastic Compliance Matrix: (Units=1/GPa)
#
#
# Indices 1 2 3 4 5 6 
#
# 1 0.012157 -0.003244 -0.003869 0.000000 -0.002690 0.000000
# 2 -0.003244 0.008516 -0.001695 0.000000 0.000499 0.000000
# 3 -0.003869 -0.001695 0.018861 0.000000 -0.000127 0.000000
# 4 0.000000 0.000000 0.000000 0.025189 0.000000 -0.003510
# 5 -0.002690 0.000499 -0.000127 0.000000 0.031531 0.000000
# 6 0.000000 0.000000 0.000000 -0.003510 0.000000 0.028520
#
#
# Mechanical properties :
#
#
# Convention : Reuss Voigt Hill
#
# Bulk Modulus (GPa) = 45.62489 53.83610 49.73049
# Shear Modulus (GPa) = 33.40097 35.79536 34.59816
#
# Velocity S-wave (km/s) = 3.80350 3.93747 3.87107
# Velocity P-wave (km/s) = 6.24900 6.63243 6.44357
#
# Compressibility (1/GPa) = 0.02191786
#
# Stress axis : x y z
#
# Youngs Moduli (GPa) = 82.25959 117.42263 53.01898
#
# Poissons Ratio (x) = 0.38087 0.20516
# Poissons Ratio (y) = 0.26682 0.08987
# Poissons Ratio (z) = 0.31830 0.19903
#
# Static dielectric constant tensor:
#      x y z
#    x 4.308380 0.000000 0.246850 
#    y 0.000000 4.275260 0.000000 
#    z 0.246850 0.000000 4.042760 
# 
# 
# High freq. dielectric constant tensor:
#      x y z
#    x 1.917440 0.000000 0.011650 
#    y 0.000000 1.913550 0.000000 
#    z 0.011650 0.000000 1.907670 
# 
# From -- ./inp_files/9104.got.cif
#   From: 2010.06.25/outbox.cif.g09.slc.cpg/sg9_5_cif.got.tgz:9104.got - 2010.06.27 21:40:51.
