data_PCOD8055076
_publ_section_title
;
Structure prediction by ZEFSAII (Michael W. Deem and Ramdas Pophale) SiO2 
 PCOD8055076
Probable space group: C C
;
_chemical_formula_sum "Si O2"
_cell_formula_units_Z 32
_cell_length_a 11.417902
_cell_length_b 9.072536
_cell_length_c 18.747297
_cell_angle_alpha 90.000000
_cell_angle_beta 129.624383
_cell_angle_gamma 90.000000
_cell_volume 1495.825097
_symmetry_space_group_name_H-M "C C"
_symmetry_group_IT_number 9
_symmetry_cell_setting 'monoclinic'
loop_
_space_group_symop_operation_xyz
x,y,z
x,-y,1/2+z
1/2+x,1/2+y,z
1/2+x,1/2-y,1/2+z
loop_
_atom_site_type_symbol
_atom_site_label
_atom_site_fract_x
_atom_site_fract_y
_atom_site_fract_z
Si Si1 0.089900 0.425804 0.297430
Si Si2 0.109968 0.245053 0.782559
Si Si3 0.851405 0.787499 0.663717
Si Si4 0.655647 0.297258 0.458832
Si Si5 0.416456 0.238424 0.837370
Si Si6 0.905387 0.936735 0.095344
Si Si7 0.403381 0.657390 0.974895
Si Si8 0.216316 0.119008 0.495556
O O1 0.059945 0.585426 0.251690
O O2 0.270214 0.409870 0.374488
O O3 0.018669 0.293938 0.220840
O O4 0.006674 0.408470 0.343820
O O5 0.292269 0.210930 0.850263
O O6 0.029803 0.151355 0.689368
O O7 0.069949 0.203283 0.848713
O O8 0.815211 0.806779 0.733186
O O9 0.729640 0.676698 0.581671
O O10 0.834871 0.945994 0.622303
O O11 0.772088 0.163084 0.511705
O O12 0.534159 0.282818 0.474823
O O13 0.752277 0.446868 0.504386
O O14 0.540186 0.359831 0.906965
O O15 0.971998 0.031168 0.054457
O O16 0.336347 0.794250 0.993266
#
# Coordination Sequence:
#
# PCOD8055076 Si02
#       8
#     4   4   4   4   4   4   4   4
#     4   9  20  44  63  98 132 178 221 280 344 399
#     4  12  24  40  69 104 136 176 234 282 344 405
#     4   9  21  44  65  91 132 178 222 277 334 407
#     4  12  26  43  68 104 137 180 225 293 341 401
#     4   9  22  40  69  93 131 179 220 277 339 406
#     4  11  25  45  62 106 136 177 242 280 336 417
#     4  10  23  47  68  93 145 180 222 288 339 408
#     4  10  21  43  68  95 129 180 224 269 349 401
#
# _framework density 21.392876999999999
#
# number of rings (size 3 to 8) (size 9 to 14) (size 15 to 20)
#    0.750    1.000    1.250    2.250    1.750    1.000 
#   11.250    0.000    0.000    0.000    0.000    0.000 
#    0.000    0.000    0.000    0.000    0.000    0.000 
#
# Total GULP energy -198248.187661 kJ/mol
# GULP energy per Si atom -12390.511729 kJ/mol
# Density = 2.134419 g / cm^3
# Si number density = 21.392877 Si / 1000 Ang^3
#
#
#
# Elastic Constant Matrix: (Units=GPa)
#
#
# Indices 1 2 3 4 5 6 
#
# 1 98.2404 14.1034 23.0064 0.0000 3.0903 0.0000
# 2 14.1034 100.0469 29.1977 0.0000 11.2811 0.0000
# 3 23.0064 29.1977 97.6537 0.0000 -15.4105 0.0000
# 4 0.0000 0.0000 0.0000 37.7633 0.0000 -1.4610
# 5 3.0903 11.2811 -15.4105 0.0000 18.7769 0.0000
# 6 0.0000 0.0000 0.0000 -1.4610 0.0000 15.7516
#
#
#
# Elastic Compliance Matrix: (Units=1/GPa)
#
#
# Indices 1 2 3 4 5 6 
#
# 1 0.011105 -0.000101 -0.003291 0.000000 -0.004468 0.000000
# 2 -0.000101 0.013181 -0.005933 0.000000 -0.012771 0.000000
# 3 -0.003291 -0.005933 0.015437 0.000000 0.016775 0.000000
# 4 0.000000 0.000000 0.000000 0.026576 0.000000 0.002465
# 5 -0.004468 -0.012771 0.016775 0.000000 0.075433 0.000000
# 6 0.000000 0.000000 0.000000 0.002465 0.000000 0.063714
#
#
# Mechanical properties :
#
#
# Convention : Reuss Voigt Hill
#
# Bulk Modulus (GPa) = 47.45433 47.61732 47.53582
# Shear Modulus (GPa) = 21.63383 29.76728 25.70056
#
# Velocity S-wave (km/s) = 3.18349 3.73427 3.46982
# Velocity P-wave (km/s) = 5.97856 6.39530 6.19044
#
# Compressibility (1/GPa) = 0.02107289
#
# Stress axis : x y z
#
# Youngs Moduli (GPa) = 90.05049 75.86656 64.78092
#
# Poissons Ratio (x) = 0.00768 0.21320
# Poissons Ratio (y) = 0.00911 0.38432
# Poissons Ratio (z) = 0.29636 0.45009
#
# Static dielectric constant tensor:
#      x y z
#    x 3.531970 0.000000 -0.188870 
#    y 0.000000 3.847250 0.000000 
#    z -0.188870 0.000000 3.973960 
# 
# 
# High freq. dielectric constant tensor:
#      x y z
#    x 1.813730 0.000000 -0.010490 
#    y 0.000000 1.841890 0.000000 
#    z -0.010490 0.000000 1.849290 
# 
# From -- ./inp_files/33226.got.cif
#   From: 2010.06.25/outbox.cif.g09.slc.cpg/sg9_17_cif.got.tgz:33226.got - 2010.06.27 21:40:51.
