data_PCOD8055187
_publ_section_title
;
Structure prediction by ZEFSAII (Michael W. Deem and Ramdas Pophale) SiO2 
 PCOD8055187
Probable space group: C C
;
_chemical_formula_sum "Si O2"
_cell_formula_units_Z 20
_cell_length_a 7.797238
_cell_length_b 22.111953
_cell_length_c 9.216869
_cell_angle_alpha 90.000000
_cell_angle_beta 145.099369
_cell_angle_gamma 90.000000
_cell_volume 909.211529
_symmetry_space_group_name_H-M "C C"
_symmetry_group_IT_number 9
_symmetry_cell_setting 'monoclinic'
loop_
_space_group_symop_operation_xyz
x,y,z
x,-y,1/2+z
1/2+x,1/2+y,z
1/2+x,1/2-y,1/2+z
loop_
_atom_site_type_symbol
_atom_site_label
_atom_site_fract_x
_atom_site_fract_y
_atom_site_fract_z
Si Si1 0.888310 0.528478 0.212600
Si Si2 0.266950 0.121114 0.912163
Si Si3 0.025509 0.002717 0.210150
Si Si4 0.941425 0.787911 0.387554
Si Si5 0.555664 0.211388 0.892251
O O1 0.701237 0.548181 0.225066
O O2 0.169747 0.487559 0.455989
O O3 0.975660 0.588304 0.180642
O O4 0.656528 0.485669 0.961447
O O5 0.089673 0.067366 0.707064
O O6 0.470940 0.156753 0.940045
O O7 0.022369 0.161146 0.827204
O O8 0.745175 0.813659 0.386411
O O9 0.248453 0.761082 0.665049
O O10 0.251709 0.241935 0.622912
#
# Coordination Sequence:
#
# PCOD8055187 Si02
#       5
#     4   4   4   4   4
#     4  10  23  41  61  89 123 162 208 255 307 364
#     4  10  24  36  68  86 122 160 208 238 322 348
#     4  10  23  41  61  89 123 162 208 255 307 364
#     4  10  22  39  59  90 124 156 199 250 300 365
#     4  10  22  39  59  90 124 156 199 250 300 365
#
# _framework density 21.99708
#
# number of rings (size 3 to 8) (size 9 to 14) (size 15 to 20)
#    1.200    0.800    0.000    2.400    5.600    1.600 
#    0.000    0.000    0.000    0.000    0.000    0.000 
#    0.000    0.000    0.000    0.000    0.000    0.000 
#
# Total GULP energy -123885.342822 kJ/mol
# GULP energy per Si atom -12388.534282 kJ/mol
# Density = 2.194701 g / cm^3
# Si number density = 21.997080 Si / 1000 Ang^3
#
#
#
# Elastic Constant Matrix: (Units=GPa)
#
#
# Indices 1 2 3 4 5 6 
#
# 1 88.3527 14.3318 15.8292 0.0000 -0.1156 0.0000
# 2 14.3318 32.3125 2.5272 0.0000 -9.3484 0.0000
# 3 15.8292 2.5272 127.5096 0.0000 15.6404 0.0000
# 4 0.0000 0.0000 0.0000 0.7039 0.0000 -6.7639
# 5 -0.1156 -9.3484 15.6404 0.0000 30.7787 0.0000
# 6 0.0000 0.0000 0.0000 -6.7639 0.0000 35.5590
#
#
#
# Elastic Compliance Matrix: (Units=1/GPa)
#
#
# Indices 1 2 3 4 5 6 
#
# 1 0.012481 -0.005731 -0.001310 0.000000 -0.001028 0.000000
# 2 -0.005731 0.037078 -0.001495 0.000000 0.012000 0.000000
# 3 -0.001310 -0.001495 0.008629 0.000000 -0.004844 0.000000
# 4 0.000000 0.000000 0.000000 -1.715985 0.000000 -0.326409
# 5 -0.001028 0.012000 -0.004844 0.000000 0.038593 0.000000
# 6 0.000000 0.000000 0.000000 -0.326409 0.000000 -0.033966
#
#
# Mechanical properties :
#
#
# Convention : Reuss Voigt Hill
#
# Bulk Modulus (GPa) = 24.32114 34.83903 29.58008
# Shear Modulus (GPa) = -3.08187 27.77407 12.34610
#
# Velocity S-wave (km/s) = -1.18494 3.55720 2.37166
# Velocity P-wave (km/s) = 3.03454 5.72223 4.57998
#
# Compressibility (1/GPa) = 0.04111649
#
# Stress axis : x y z
#
# Youngs Moduli (GPa) = 80.12052 26.96986 115.88910
#
# Poissons Ratio (x) = 0.15456 0.15178
# Poissons Ratio (y) = 0.45916 0.17330
# Poissons Ratio (z) = 0.10494 0.04033
#
# Static dielectric constant tensor:
#      x y z
#    x 3.962360 0.000000 -0.114760 
#    y 0.000000 3.487120 0.000000 
#    z -0.114760 0.000000 3.980920 
# 
# 
# High freq. dielectric constant tensor:
#      x y z
#    x 1.878320 0.000000 -0.007410 
#    y 0.000000 1.824900 0.000000 
#    z -0.007410 0.000000 1.874450 
# 
# From -- ./inp_files/492.got.cif
#   From: 2010.06.25/outbox.cif.g09.slc.cpg/sg9_1_cif.got.tgz:492.got - 2010.06.27 21:40:51.
