data_PCOD8055493
_publ_section_title
;
Structure prediction by ZEFSAII (Michael W. Deem and Ramdas Pophale) SiO2 
 PCOD8055493
Probable space group: C C
;
_chemical_formula_sum "Si O2"
_cell_formula_units_Z 32
_cell_length_a 21.521657
_cell_length_b 13.887177
_cell_length_c 13.634470
_cell_angle_alpha 90.000000
_cell_angle_beta 160.838669
_cell_angle_gamma 90.000000
_cell_volume 1337.535033
_symmetry_space_group_name_H-M "C C"
_symmetry_group_IT_number 9
_symmetry_cell_setting 'monoclinic'
loop_
_space_group_symop_operation_xyz
x,y,z
x,-y,1/2+z
1/2+x,1/2+y,z
1/2+x,1/2-y,1/2+z
loop_
_atom_site_type_symbol
_atom_site_label
_atom_site_fract_x
_atom_site_fract_y
_atom_site_fract_z
Si Si1 0.474380 0.799176 0.940930
Si Si2 0.976683 0.832124 0.962575
Si Si3 0.433777 0.513626 0.028243
Si Si4 0.645512 0.837571 0.004340
Si Si5 0.674867 0.613817 0.251819
Si Si6 0.886154 0.993082 0.688487
Si Si7 0.842982 0.670082 0.894885
Si Si8 0.969848 0.524820 0.568417
O O1 0.286526 0.753058 0.705690
O O2 0.502906 0.904559 0.027398
O O3 0.475006 0.813640 0.825188
O O4 0.654817 0.729051 0.230253
O O5 0.185773 0.798271 0.240005
O O6 0.898839 0.883789 0.748718
O O7 0.857488 0.739976 0.822084
O O8 0.963739 0.905250 0.034454
O O9 0.257897 0.567303 0.710980
O O10 0.626868 0.569563 0.286654
O O11 0.418121 0.509425 0.120527
O O12 0.543692 0.842995 0.748311
O O13 0.887741 0.585513 0.538634
O O14 0.521569 0.570377 0.944121
O O15 0.671358 0.024219 0.393139
O O16 0.813577 0.559559 0.811379
#
# Coordination Sequence:
#
# PCOD8055493 Si02
#       8
#     4   4   4   4   4   4   4   4
#     4  11  22  40  70 105 133 176 241 298 355 423
#     4  11  27  49  69 107 149 196 246 296 380 433
#     4  10  22  46  73 100 144 186 237 308 363 420
#     4  11  23  42  73 106 137 182 246 298 360 433
#     4  10  23  46  67 104 143 181 242 295 369 434
#     4  11  24  48  74 103 152 188 239 317 360 442
#     4  12  26  47  71 106 145 194 244 298 367 455
#     4  12  23  46  73 101 143 191 245 296 368 440
#
# _framework density 23.924607000000002
#
# number of rings (size 3 to 8) (size 9 to 14) (size 15 to 20)
#    0.000    1.000    5.000    3.000    3.500    1.000 
#    6.750    0.000    0.000    0.000    0.000    0.000 
#    0.000    0.000    0.000    0.000    0.000    0.000 
#
# Total GULP energy -198209.764568 kJ/mol
# GULP energy per Si atom -12388.110286 kJ/mol
# Density = 2.387015 g / cm^3
# Si number density = 23.924607 Si / 1000 Ang^3
#
#
#
# Elastic Constant Matrix: (Units=GPa)
#
#
# Indices 1 2 3 4 5 6 
#
# 1 163.5657 44.8312 42.1517 0.0000 23.0562 0.0000
# 2 44.8312 124.4335 -0.6148 0.0000 6.7128 0.0000
# 3 42.1517 -0.6148 40.4197 0.0000 10.8134 0.0000
# 4 0.0000 0.0000 0.0000 17.5681 0.0000 2.4182
# 5 23.0562 6.7128 10.8134 0.0000 29.7639 0.0000
# 6 0.0000 0.0000 0.0000 2.4182 0.0000 45.7642
#
#
#
# Elastic Compliance Matrix: (Units=1/GPa)
#
#
# Indices 1 2 3 4 5 6 
#
# 1 0.010025 -0.003470 -0.009569 0.000000 -0.003507 0.000000
# 2 -0.003470 0.009353 0.003994 0.000000 -0.000873 0.000000
# 3 -0.009569 0.003994 0.036595 0.000000 -0.006783 0.000000
# 4 0.000000 0.000000 0.000000 0.057338 0.000000 -0.003030
# 5 -0.003507 -0.000873 -0.006783 0.000000 0.038975 0.000000
# 6 0.000000 0.000000 0.000000 -0.003030 0.000000 0.022011
#
#
# Mechanical properties :
#
#
# Convention : Reuss Voigt Hill
#
# Bulk Modulus (GPa) = 26.39633 55.68388 41.04011
# Shear Modulus (GPa) = 24.38820 34.75596 29.57208
#
# Velocity S-wave (km/s) = 3.19623 3.81560 3.51957
# Velocity P-wave (km/s) = 4.96772 6.53736 5.80583
#
# Compressibility (1/GPa) = 0.03788405
#
# Stress axis : x y z
#
# Youngs Moduli (GPa) = 99.74836 106.91269 27.32583
#
# Poissons Ratio (x) = 0.37099 0.26149
# Poissons Ratio (y) = 0.34613 -0.10915
# Poissons Ratio (z) = 0.95454 -0.42706
#
# Static dielectric constant tensor:
#      x y z
#    x 4.529690 0.000000 0.339330 
#    y 0.000000 4.492740 0.000000 
#    z 0.339330 0.000000 4.031420 
# 
# 
# High freq. dielectric constant tensor:
#      x y z
#    x 1.968640 0.000000 0.029940 
#    y 0.000000 1.956690 0.000000 
#    z 0.029940 0.000000 1.914740 
# 
# From -- ./inp_files/27823.got.cif
#   From: 2010.06.25/outbox.cif.g09.slc.cpg/sg9_14_cif.got.tgz:27823.got - 2010.06.27 21:40:51.
