data_PCOD8055010
_publ_section_title
;
Structure prediction by ZEFSAII (Michael W. Deem and Ramdas Pophale) SiO2 
 PCOD8055010
Probable space group: C C
;
_chemical_formula_sum "Si O2"
_cell_formula_units_Z 20
_cell_length_a 9.057828
_cell_length_b 20.300110
_cell_length_c 7.361721
_cell_angle_alpha 90.000000
_cell_angle_beta 35.186086
_cell_angle_gamma 90.000000
_cell_volume 780.010751
_symmetry_space_group_name_H-M "C C"
_symmetry_group_IT_number 9
_symmetry_cell_setting 'monoclinic'
loop_
_space_group_symop_operation_xyz
x,y,z
x,-y,1/2+z
1/2+x,1/2+y,z
1/2+x,1/2-y,1/2+z
loop_
_atom_site_type_symbol
_atom_site_label
_atom_site_fract_x
_atom_site_fract_y
_atom_site_fract_z
Si Si1 0.500000 0.410254 0.049890
Si Si2 0.233388 0.142929 0.652376
Si Si3 0.002160 0.053964 0.153427
Si Si4 0.733671 0.825036 0.826474
Si Si5 0.704338 0.787269 0.255758
O O1 0.715402 0.375309 0.957693
O O2 0.255532 0.361352 0.277116
O O3 0.414440 0.477987 0.233549
O O4 0.618098 0.426810 0.734646
O O5 0.215738 0.075071 0.789361
O O6 0.493544 0.182218 0.431705
O O7 0.998156 0.191501 0.950948
O O8 0.748556 0.097887 0.373156
O O9 0.705075 0.781301 0.035303
O O10 0.432743 0.760269 0.599973
#
# Coordination Sequence:
#
# PCOD8055010 Si02
#       5
#     4   4   4   4   4
#     4  11  21  44  71 101 146 174 232 284 342 420
#     4  10  21  42  63 108 128 171 221 279 352 402
#     4   9  20  41  64 107 129 183 210 294 347 395
#     4   9  21  43  67  92 136 168 231 277 341 399
#     4  11  25  46  69 100 137 190 232 280 336 404
#
# _framework density 25.640668999999999
#
# number of rings (size 3 to 8) (size 9 to 14) (size 15 to 20)
#    1.200    0.800    2.000    1.200    0.000    1.600 
#   18.000    6.000    0.000    0.000    0.000    0.000 
#    0.000    0.000    0.000    0.000    0.000    0.000 
#
# Total GULP energy -123891.634076 kJ/mol
# GULP energy per Si atom -12389.163408 kJ/mol
# Density = 2.558231 g / cm^3
# Si number density = 25.640669 Si / 1000 Ang^3
#
#
#
# Elastic Constant Matrix: (Units=GPa)
#
#
# Indices 1 2 3 4 5 6 
#
# 1 166.3000 22.7639 28.4878 0.0000 -8.2955 0.0000
# 2 22.7639 99.1268 -2.0466 0.0000 -6.6308 0.0000
# 3 28.4878 -2.0466 82.0614 0.0000 -39.2851 0.0000
# 4 0.0000 0.0000 0.0000 7.3599 0.0000 15.8360
# 5 -8.2955 -6.6308 -39.2851 0.0000 42.5945 0.0000
# 6 0.0000 0.0000 0.0000 15.8360 0.0000 38.3053
#
#
#
# Elastic Compliance Matrix: (Units=1/GPa)
#
#
# Indices 1 2 3 4 5 6 
#
# 1 0.006727 -0.001753 -0.003371 0.000000 -0.002072 0.000000
# 2 -0.001753 0.010804 0.002721 0.000000 0.003850 0.000000
# 3 -0.003371 0.002721 0.023838 0.000000 0.021753 0.000000
# 4 0.000000 0.000000 0.000000 1.229963 0.000000 -0.508487
# 5 -0.002072 0.003850 0.021753 0.000000 0.043736 0.000000
# 6 0.000000 0.000000 0.000000 -0.508487 0.000000 0.236323
#
#
# Mechanical properties :
#
#
# Convention : Reuss Voigt Hill
#
# Bulk Modulus (GPa) = 27.34913 49.54426 38.44669
# Shear Modulus (GPa) = 3.18799 37.53748 20.36274
#
# Velocity S-wave (km/s) = 1.11626 3.83035 2.82114
# Velocity P-wave (km/s) = 3.51438 6.23912 5.06347
#
# Compressibility (1/GPa) = 0.03656423
#
# Stress axis : x y z
#
# Youngs Moduli (GPa) = 148.64803 92.55470 41.95024
#
# Poissons Ratio (x) = 0.16225 0.14141
# Poissons Ratio (y) = 0.26059 -0.11416
# Poissons Ratio (z) = 0.50108 -0.25187
#
# Static dielectric constant tensor:
#      x y z
#    x 4.699450 0.000000 0.066730 
#    y 0.000000 4.567510 0.000000 
#    z 0.066730 0.000000 3.871800 
# 
# 
# High freq. dielectric constant tensor:
#      x y z
#    x 2.039540 0.000000 0.005470 
#    y 0.000000 2.025200 0.000000 
#    z 0.005470 0.000000 1.971800 
# 
# From -- ./inp_files/591.got.cif
#   From: 2010.06.25/outbox.cif.g09.slc.cpg/sg9_1_cif.got.tgz:591.got - 2010.06.27 21:40:51.
