data_PCOD8055999
_publ_section_title
;
Structure prediction by ZEFSAII (Michael W. Deem and Ramdas Pophale) SiO2 
 PCOD8055999
Probable space group: C C
;
_chemical_formula_sum "Si O2"
_cell_formula_units_Z 24
_cell_length_a 20.653659
_cell_length_b 4.630936
_cell_length_c 8.147009
_cell_angle_alpha 90.000000
_cell_angle_beta 75.070988
_cell_angle_gamma 90.000000
_cell_volume 752.924755
_symmetry_space_group_name_H-M "C C"
_symmetry_group_IT_number 9
_symmetry_cell_setting 'monoclinic'
loop_
_space_group_symop_operation_xyz
x,y,z
x,-y,1/2+z
1/2+x,1/2+y,z
1/2+x,1/2-y,1/2+z
loop_
_atom_site_type_symbol
_atom_site_label
_atom_site_fract_x
_atom_site_fract_y
_atom_site_fract_z
Si Si1 0.821120 0.081911 0.629440
Si Si2 0.488240 0.185721 0.978300
Si Si3 0.737211 0.292131 0.395747
Si Si4 0.908535 0.256828 0.845159
Si Si5 0.646638 0.224305 0.918619
Si Si6 0.566937 0.332520 0.283983
O O1 0.760839 0.219690 0.565735
O O2 0.844830 0.293001 0.764304
O O3 0.794767 0.781656 0.726746
O O4 0.888242 0.007149 0.480722
O O5 0.497942 0.488406 0.872263
O O6 0.421047 0.035418 0.950532
O O7 0.554993 0.971248 0.896565
O O8 0.475916 0.252953 0.181720
O O9 0.717763 0.628902 0.424743
O O10 0.669429 0.109603 0.382647
O O11 0.583460 0.254859 0.084891
O O12 0.625435 0.432958 0.782063
#
# Coordination Sequence:
#
# PCOD8055999 Si02
#       6
#     4   4   4   4   4   4
#     4  10  25  47  74 108 148 197 251 306 372 446
#     4  12  26  47  73 108 149 197 248 306 370 446
#     4  11  24  45  71 106 145 192 244 306 370 444
#     4  11  26  47  76 108 152 198 250 308 372 440
#     4  12  24  44  71 104 145 190 242 304 370 440
#     4  12  25  44  71 106 145 194 247 304 370 444
#
# _framework density 31.875695
#
# number of rings (size 3 to 8) (size 9 to 14) (size 15 to 20)
#    0.000    0.667    0.000    7.000    0.000   10.667 
#    0.000    0.000    0.000    0.000    0.000    0.000 
#    0.000    0.000    0.000    0.000    0.000    0.000 
#
# Total GULP energy -148743.108874 kJ/mol
# GULP energy per Si atom -12395.259073 kJ/mol
# Density = 3.180314 g / cm^3
# Si number density = 31.875695 Si / 1000 Ang^3
#
#
#
# Elastic Constant Matrix: (Units=GPa)
#
#
# Indices 1 2 3 4 5 6 
#
# 1 105.1193 8.5556 19.4122 0.0000 -23.8213 0.0000
# 2 8.5556 164.4075 28.9591 0.0000 14.7089 0.0000
# 3 19.4122 28.9591 110.8371 0.0000 10.2492 0.0000
# 4 0.0000 0.0000 0.0000 49.3041 0.0000 11.9805
# 5 -23.8213 14.7089 10.2492 0.0000 55.1094 0.0000
# 6 0.0000 0.0000 0.0000 11.9805 0.0000 42.9620
#
#
#
# Elastic Compliance Matrix: (Units=1/GPa)
#
#
# Indices 1 2 3 4 5 6 
#
# 1 0.011229 -0.000668 -0.002297 0.000000 0.005459 0.000000
# 2 -0.000668 0.006526 -0.001425 0.000000 -0.001766 0.000000
# 3 -0.002297 -0.001425 0.010026 0.000000 -0.002477 0.000000
# 4 0.000000 0.000000 0.000000 0.021757 0.000000 -0.006067
# 5 0.005459 -0.001766 -0.002477 0.000000 0.021437 0.000000
# 6 0.000000 0.000000 0.000000 -0.006067 0.000000 0.024968
#
#
# Mechanical properties :
#
#
# Convention : Reuss Voigt Hill
#
# Bulk Modulus (GPa) = 52.62885 54.91308 53.77097
# Shear Modulus (GPa) = 45.02223 51.03756 48.02990
#
# Velocity S-wave (km/s) = 3.76231 4.00577 3.88595
# Velocity P-wave (km/s) = 5.95145 6.21768 6.08602
#
# Compressibility (1/GPa) = 0.01900098
#
# Stress axis : x y z
#
# Youngs Moduli (GPa) = 89.05799 153.22947 99.74213
#
# Poissons Ratio (x) = 0.10238 0.22909
# Poissons Ratio (y) = 0.05951 0.14212
# Poissons Ratio (z) = 0.20455 0.21833
#
# Static dielectric constant tensor:
#      x y z
#    x 6.497820 0.000000 -0.108650 
#    y 0.000000 5.808270 0.000000 
#    z -0.108650 0.000000 5.882420 
# 
# 
# High freq. dielectric constant tensor:
#      x y z
#    x 2.399940 0.000000 -0.009280 
#    y 0.000000 2.330300 0.000000 
#    z -0.009280 0.000000 2.321160 
# 
# From -- ./inp_files/11901.got.cif
#   From: 2010.06.25/outbox.cif.g09.slc.cpg/sg9_6_cif.got.tgz:11901.got - 2010.06.27 21:40:51.
