data_PCOD8055802
_publ_section_title
;
Structure prediction by ZEFSAII (Michael W. Deem and Ramdas Pophale) SiO2 
 PCOD8055802
Probable space group: C C
;
_chemical_formula_sum "Si O2"
_cell_formula_units_Z 32
_cell_length_a 6.962022
_cell_length_b 17.960924
_cell_length_c 11.721884
_cell_angle_alpha 90.000000
_cell_angle_beta 100.382323
_cell_angle_gamma 90.000000
_cell_volume 1441.756703
_symmetry_space_group_name_H-M "C C"
_symmetry_group_IT_number 9
_symmetry_cell_setting 'monoclinic'
loop_
_space_group_symop_operation_xyz
x,y,z
x,-y,1/2+z
1/2+x,1/2+y,z
1/2+x,1/2-y,1/2+z
loop_
_atom_site_type_symbol
_atom_site_label
_atom_site_fract_x
_atom_site_fract_y
_atom_site_fract_z
Si Si1 0.015100 0.958740 0.324130
Si Si2 0.486888 0.795790 0.987708
Si Si3 0.195396 0.497574 0.457153
Si Si4 0.338249 0.927560 0.815409
Si Si5 0.018392 0.617259 0.106253
Si Si6 0.852607 0.128186 0.599790
Si Si7 0.709002 0.260627 0.153577
Si Si8 0.754697 0.679954 0.894048
O O1 0.182911 0.904107 0.382110
O O2 0.851611 0.952207 0.402886
O O3 0.902887 0.930625 0.201736
O O4 0.121138 0.038483 0.313018
O O5 0.369566 0.856202 0.899679
O O6 0.583471 0.735825 0.914003
O O7 0.647226 0.829146 0.092709
O O8 0.337171 0.755281 0.054388
O O9 0.308041 0.575899 0.486733
O O10 0.001048 0.510875 0.362530
O O11 0.133552 0.452940 0.565311
O O12 0.359220 0.909538 0.682411
O O13 0.162437 0.675238 0.184632
O O14 0.931908 0.673572 0.000916
O O15 0.023125 0.187758 0.602473
O O16 0.823044 0.294893 0.274966
#
# Coordination Sequence:
#
# PCOD8055802 Si02
#       8
#     4   4   4   4   4   4   4   4
#     4  11  24  42  68 100 133 181 230 285 347 424
#     4  11  23  46  70  98 140 185 228 295 346 413
#     4  11  24  43  67 101 134 182 233 287 348 422
#     4  11  25  45  69 101 143 181 230 292 356 415
#     4  12  24  45  71 100 144 183 232 296 348 420
#     4  10  24  41  65  98 136 172 238 277 347 417
#     4  11  24  45  72  96 139 188 230 293 353 413
#     4  11  24  45  66 104 137 176 241 281 349 424
#
# _framework density 22.195145
#
# number of rings (size 3 to 8) (size 9 to 14) (size 15 to 20)
#    0.000    1.000    3.750    2.250    3.500    4.000 
#    4.500    0.000    0.000    0.000    0.000    0.000 
#    0.000    0.000    0.000    0.000    0.000    0.000 
#
# Total GULP energy -198295.089169 kJ/mol
# GULP energy per Si atom -12393.443073 kJ/mol
# Density = 2.214463 g / cm^3
# Si number density = 22.195145 Si / 1000 Ang^3
#
#
#
# Elastic Constant Matrix: (Units=GPa)
#
#
# Indices 1 2 3 4 5 6 
#
# 1 53.8200 20.7597 38.4990 0.0000 -14.3259 0.0000
# 2 20.7597 92.2167 23.3134 0.0000 -4.9397 0.0000
# 3 38.4990 23.3134 84.3199 0.0000 -10.7745 0.0000
# 4 0.0000 0.0000 0.0000 27.7996 0.0000 -3.6005
# 5 -14.3259 -4.9397 -10.7745 0.0000 42.5673 0.0000
# 6 0.0000 0.0000 0.0000 -3.6005 0.0000 27.8498
#
#
#
# Elastic Compliance Matrix: (Units=1/GPa)
#
#
# Indices 1 2 3 4 5 6 
#
# 1 0.030300 -0.003419 -0.012026 0.000000 0.006757 0.000000
# 2 -0.003419 0.012057 -0.001799 0.000000 -0.000207 0.000000
# 3 -0.012026 -0.001799 0.017882 0.000000 0.000270 0.000000
# 4 0.000000 0.000000 0.000000 0.036584 0.000000 0.004730
# 5 0.006757 -0.000207 0.000270 0.000000 0.025811 0.000000
# 6 0.000000 0.000000 0.000000 0.004730 0.000000 0.036518
#
#
# Mechanical properties :
#
#
# Convention : Reuss Voigt Hill
#
# Bulk Modulus (GPa) = 38.83172 43.94453 41.38812
# Shear Modulus (GPa) = 24.72491 29.49564 27.11028
#
# Velocity S-wave (km/s) = 3.34125 3.64939 3.49872
# Velocity P-wave (km/s) = 5.69376 6.13185 5.91686
#
# Compressibility (1/GPa) = 0.02575215
#
# Stress axis : x y z
#
# Youngs Moduli (GPa) = 33.00311 82.93627 55.92103
#
# Poissons Ratio (x) = 0.28355 0.67250
# Poissons Ratio (y) = 0.11284 0.10061
# Poissons Ratio (z) = 0.39689 0.14921
#
# Static dielectric constant tensor:
#      x y z
#    x 3.904460 0.000000 0.095990 
#    y 0.000000 4.120840 0.000000 
#    z 0.095990 0.000000 3.957340 
# 
# 
# High freq. dielectric constant tensor:
#      x y z
#    x 1.863800 0.000000 0.005650 
#    y 0.000000 1.888670 0.000000 
#    z 0.005650 0.000000 1.875650 
# 
# From -- ./inp_files/13347.got.cif
#   From: 2010.06.25/outbox.cif.g09.slc.cpg/sg9_7_cif.got.tgz:13347.got - 2010.06.27 21:40:51.
