data_PCOD8055024
_publ_section_title
;
Structure prediction by ZEFSAII (Michael W. Deem and Ramdas Pophale) SiO2 
 PCOD8055024
Probable space group: C C
;
_chemical_formula_sum "Si O2"
_cell_formula_units_Z 32
_cell_length_a 16.576391
_cell_length_b 6.759608
_cell_length_c 25.263445
_cell_angle_alpha 90.000000
_cell_angle_beta 148.663287
_cell_angle_gamma 90.000000
_cell_volume 1472.186917
_symmetry_space_group_name_H-M "C C"
_symmetry_group_IT_number 9
_symmetry_cell_setting 'monoclinic'
loop_
_space_group_symop_operation_xyz
x,y,z
x,-y,1/2+z
1/2+x,1/2+y,z
1/2+x,1/2-y,1/2+z
loop_
_atom_site_type_symbol
_atom_site_label
_atom_site_fract_x
_atom_site_fract_y
_atom_site_fract_z
Si Si1 0.357690 0.327980 0.823780
Si Si2 0.908109 0.466865 0.440717
Si Si3 0.497776 0.155507 0.107352
Si Si4 0.510908 0.225935 0.806511
Si Si5 0.590732 0.385431 0.299344
Si Si6 0.725665 0.910518 0.955846
Si Si7 0.552157 0.299098 0.452486
Si Si8 0.377080 0.055599 0.143193
O O1 0.438284 0.218401 0.918632
O O2 0.172717 0.325169 0.725358
O O3 0.397427 0.206267 0.792933
O O4 0.419981 0.552873 0.856795
O O5 0.720942 0.497776 0.337224
O O6 0.987006 0.428159 0.541967
O O7 0.982577 0.667862 0.460560
O O8 0.409843 0.004659 0.099398
O O9 0.409838 0.370213 0.065528
O O10 0.517830 0.456370 0.798130
O O11 0.680898 0.137760 0.917631
O O12 0.444102 0.110419 0.718860
O O13 0.685149 0.219353 0.382575
O O14 0.452592 0.275312 0.191501
O O15 0.617008 0.843093 0.943226
O O16 0.694986 0.430901 0.554054
#
# Coordination Sequence:
#
# PCOD8055024 Si02
#       8
#     4   4   4   4   4   4   4   4
#     4  12  25  44  68 102 136 176 228 282 337 407
#     4  11  25  44  68  99 137 177 221 285 343 393
#     4  10  24  45  67  95 141 178 222 284 336 398
#     4  11  23  41  73  96 127 179 229 274 343 404
#     4  10  21  42  67  96 130 171 220 278 333 401
#     4   9  20  44  64  92 135 172 216 274 333 397
#     4  11  24  41  66  98 136 172 222 278 333 402
#     4  10  24  45  65  96 134 177 224 277 338 404
#
# _framework density 21.736370000000001
#
# number of rings (size 3 to 8) (size 9 to 14) (size 15 to 20)
#    0.000    1.500    3.750    0.000    5.250    0.000 
#    0.000    2.500    0.000    0.000    0.000    0.000 
#    0.000    0.000    0.000    0.000    0.000    0.000 
#
# Total GULP energy -198296.888100 kJ/mol
# GULP energy per Si atom -12393.555506 kJ/mol
# Density = 2.168690 g / cm^3
# Si number density = 21.736370 Si / 1000 Ang^3
#
#
#
# Elastic Constant Matrix: (Units=GPa)
#
#
# Indices 1 2 3 4 5 6 
#
# 1 125.0196 27.9742 28.7355 0.0000 -6.9988 0.0000
# 2 27.9742 73.3544 29.7969 -0.0001 -1.5939 0.0001
# 3 28.7355 29.7969 100.5342 0.0002 10.3651 0.0001
# 4 0.0000 -0.0001 0.0002 19.2001 0.0000 -1.9172
# 5 -6.9988 -1.5939 10.3651 0.0000 43.7435 0.0000
# 6 0.0000 0.0001 0.0001 -1.9172 0.0000 29.1294
#
#
#
# Elastic Compliance Matrix: (Units=1/GPa)
#
#
# Indices 1 2 3 4 5 6 
#
# 1 0.009157 -0.002627 -0.002029 0.000000 0.001850 0.000000
# 2 -0.002627 0.016376 -0.004224 0.000000 0.001177 0.000000
# 3 -0.002029 -0.004224 0.012124 0.000000 -0.003351 0.000000
# 4 0.000000 0.000000 0.000000 0.052428 0.000000 0.003451
# 5 0.001850 0.001177 -0.003351 0.000000 0.023994 0.000000
# 6 0.000000 0.000000 0.000000 0.003451 0.000000 0.034557
#
#
# Mechanical properties :
#
#
# Convention : Reuss Voigt Hill
#
# Bulk Modulus (GPa) = 50.26253 52.43573 51.34913
# Shear Modulus (GPa) = 28.89708 32.57470 30.73589
#
# Velocity S-wave (km/s) = 3.65010 3.87541 3.76444
# Velocity P-wave (km/s) = 6.39829 6.64838 6.52453
#
# Compressibility (1/GPa) = 0.01989554
#
# Stress axis : x y z
#
# Youngs Moduli (GPa) = 109.21022 61.06567 82.47885
#
# Poissons Ratio (x) = 0.16045 0.16737
# Poissons Ratio (y) = 0.28695 0.34838
# Poissons Ratio (z) = 0.22161 0.25794
#
# Static dielectric constant tensor:
#      x y z
#    x 4.091020 0.000000 0.004490 
#    y 0.000000 3.724730 0.000000 
#    z 0.004490 0.000000 4.064010 
# 
# 
# High freq. dielectric constant tensor:
#      x y z
#    x 1.873030 0.000000 -0.003490 
#    y 0.000000 1.830340 0.000000 
#    z -0.003490 0.000000 1.854310 
# 
# From -- ./inp_files/26480.got.cif
#   From: 2010.06.25/outbox.cif.g09.slc.cpg/sg9_14_cif.got.tgz:26480.got - 2010.06.27 21:40:51.
