data_PCOD8055278
_publ_section_title
;
Structure prediction by ZEFSAII (Michael W. Deem and Ramdas Pophale) SiO2 
 PCOD8055278
Probable space group: C C
;
_chemical_formula_sum "Si O2"
_cell_formula_units_Z 32
_cell_length_a 6.646862
_cell_length_b 17.712430
_cell_length_c 14.503753
_cell_angle_alpha 90.000000
_cell_angle_beta 123.916381
_cell_angle_gamma 90.000000
_cell_volume 1417.020923
_symmetry_space_group_name_H-M "C C"
_symmetry_group_IT_number 9
_symmetry_cell_setting 'monoclinic'
loop_
_space_group_symop_operation_xyz
x,y,z
x,-y,1/2+z
1/2+x,1/2+y,z
1/2+x,1/2-y,1/2+z
loop_
_atom_site_type_symbol
_atom_site_label
_atom_site_fract_x
_atom_site_fract_y
_atom_site_fract_z
Si Si1 0.949670 0.019145 0.881570
Si Si2 0.937067 0.197371 0.619510
Si Si3 0.280286 0.096690 0.826004
Si Si4 0.411611 0.194852 0.411635
Si Si5 0.281758 0.155205 0.173797
Si Si6 0.448366 0.990696 0.192472
Si Si7 0.298827 0.654332 0.961958
Si Si8 0.159117 0.121723 0.508720
O O1 0.875445 0.074580 0.943032
O O2 0.191649 0.047826 0.891154
O O3 0.736122 0.008708 0.753503
O O4 0.952075 0.938683 0.933808
O O5 0.667960 0.171072 0.521768
O O6 0.927665 0.284362 0.648607
O O7 0.057381 0.148530 0.732711
O O8 0.096646 0.185769 0.568146
O O9 0.512016 0.149519 0.915274
O O10 0.358974 0.036893 0.769446
O O11 0.379236 0.160527 0.302431
O O12 0.356415 0.284581 0.396040
O O13 0.207015 0.163094 0.425974
O O14 0.336678 0.073090 0.145148
O O15 0.988803 0.171299 0.094900
O O16 0.380504 0.929875 0.098427
#
# Coordination Sequence:
#
# PCOD8055278 Si02
#       8
#     4   4   4   4   4   4   4   4
#     4  11  21  41  65  95 131 175 225 280 336 407
#     4  10  24  44  70  94 140 179 224 282 344 400
#     4  10  22  42  67  96 132 184 220 276 352 398
#     4  11  24  43  67 102 135 179 229 286 334 406
#     4  11  22  45  70  99 138 185 231 284 339 415
#     4  10  22  41  64  96 133 170 228 284 332 407
#     4  10  24  42  64  96 141 169 226 284 335 411
#     4  11  23  42  65  98 134 175 227 278 342 396
#
# _framework density 22.582588999999999
#
# number of rings (size 3 to 8) (size 9 to 14) (size 15 to 20)
#    0.000    1.500    1.250    3.000    0.000   10.000 
#    4.500    1.250    0.000    0.000    0.000    0.000 
#    0.000    0.000    0.000    0.000    0.000    0.000 
#
# Total GULP energy -198286.581325 kJ/mol
# GULP energy per Si atom -12392.911333 kJ/mol
# Density = 2.253119 g / cm^3
# Si number density = 22.582589 Si / 1000 Ang^3
#
#
#
# Elastic Constant Matrix: (Units=GPa)
#
#
# Indices 1 2 3 4 5 6 
#
# 1 81.6496 37.3772 41.3702 0.0000 8.2780 0.0000
# 2 37.3772 110.5737 36.2650 0.0000 -1.5458 0.0000
# 3 41.3702 36.2650 119.7775 0.0000 20.1038 0.0000
# 4 0.0000 0.0000 0.0000 33.9680 0.0000 0.6813
# 5 8.2780 -1.5458 20.1038 0.0000 44.0031 0.0000
# 6 0.0000 0.0000 0.0000 0.6813 0.0000 32.2611
#
#
#
# Elastic Compliance Matrix: (Units=1/GPa)
#
#
# Indices 1 2 3 4 5 6 
#
# 1 0.016421 -0.004199 -0.004177 0.000000 -0.001328 0.000000
# 2 -0.004199 0.011261 -0.002337 0.000000 0.002254 0.000000
# 3 -0.004177 -0.002337 0.011243 0.000000 -0.004433 0.000000
# 4 0.000000 0.000000 0.000000 0.029452 0.000000 -0.000622
# 5 -0.001328 0.002254 -0.004433 0.000000 0.025080 0.000000
# 6 0.000000 0.000000 0.000000 -0.000622 0.000000 0.031010
#
#
# Mechanical properties :
#
#
# Convention : Reuss Voigt Hill
#
# Bulk Modulus (GPa) = 57.15066 60.22508 58.68787
# Shear Modulus (GPa) = 32.95355 35.17899 34.06627
#
# Velocity S-wave (km/s) = 3.82415 3.95117 3.88818
# Velocity P-wave (km/s) = 6.69785 6.89510 6.79719
#
# Compressibility (1/GPa) = 0.01749761
#
# Stress axis : x y z
#
# Youngs Moduli (GPa) = 60.89745 88.79926 88.94120
#
# Poissons Ratio (x) = 0.37290 0.37154
# Poissons Ratio (y) = 0.25573 0.20789
# Poissons Ratio (z) = 0.25439 0.20756
#
# Static dielectric constant tensor:
#      x y z
#    x 3.864520 0.000000 0.439740 
#    y 0.000000 4.146540 0.000000 
#    z 0.439740 0.000000 4.253070 
# 
# 
# High freq. dielectric constant tensor:
#      x y z
#    x 1.871700 0.000000 0.016100 
#    y 0.000000 1.900780 0.000000 
#    z 0.016100 0.000000 1.900700 
# 
# From -- ./inp_files/21928.got.cif
#   From: 2010.06.25/outbox.cif.g09.slc.cpg/sg9_11_cif.got.tgz:21928.got - 2010.06.27 21:40:51.
