data_PCOD8055091
_publ_section_title
;
Structure prediction by ZEFSAII (Michael W. Deem and Ramdas Pophale) SiO2 
 PCOD8055091
Probable space group: C C
;
_chemical_formula_sum "Si O2"
_cell_formula_units_Z 32
_cell_length_a 11.359320
_cell_length_b 7.365107
_cell_length_c 18.420745
_cell_angle_alpha 90.000000
_cell_angle_beta 84.002027
_cell_angle_gamma 90.000000
_cell_volume 1532.690794
_symmetry_space_group_name_H-M "C C"
_symmetry_group_IT_number 9
_symmetry_cell_setting 'monoclinic'
loop_
_space_group_symop_operation_xyz
x,y,z
x,-y,1/2+z
1/2+x,1/2+y,z
1/2+x,1/2-y,1/2+z
loop_
_atom_site_type_symbol
_atom_site_label
_atom_site_fract_x
_atom_site_fract_y
_atom_site_fract_z
Si Si1 0.556610 0.366270 0.458190
Si Si2 0.341071 0.845275 0.754450
Si Si3 0.738388 0.686697 0.832819
Si Si4 0.527963 0.638215 0.580954
Si Si5 0.259272 0.389616 0.137673
Si Si6 0.620610 0.000684 0.508507
Si Si7 0.825787 0.054339 0.883862
Si Si8 0.106132 0.300759 0.710027
O O1 0.679890 0.397003 0.408128
O O2 0.580372 0.480159 0.528758
O O3 0.538180 0.150571 0.474354
O O4 0.444796 0.442734 0.422678
O O5 0.256113 0.784719 0.692458
O O6 0.327511 0.704655 0.821287
O O7 0.472548 0.873633 0.714910
O O8 0.315195 0.044231 0.784331
O O9 0.625862 0.732852 0.789796
O O10 0.820433 0.858027 0.846073
O O11 0.394458 0.579630 0.606633
O O12 0.608982 0.642693 0.648403
O O13 0.538308 0.837498 0.542270
O O14 0.182579 0.382543 0.069144
O O15 0.209542 0.556352 0.187635
O O16 0.715109 0.918118 0.445432
#
# Coordination Sequence:
#
# PCOD8055091 Si02
#       8
#     4   4   4   4   4   4   4   4
#     4  11  23  42  67  94 126 168 209 259 321 374
#     4  11  23  40  65  92 126 172 211 260 319 370
#     4  11  24  41  66  95 124 171 211 257 319 374
#     4  10  22  43  64  91 127 168 209 263 316 370
#     4  10  21  44  63  90 134 163 210 268 305 372
#     4  10  23  42  63  93 127 164 212 265 310 375
#     4  11  22  43  63  94 133 160 213 268 307 378
#     4  10  22  43  61  93 131 162 217 264 305 379
#
# _framework density 20.878315000000001
#
# number of rings (size 3 to 8) (size 9 to 14) (size 15 to 20)
#    0.000    1.500    3.750    0.750    1.750    2.000 
#    9.000    0.000    0.000    0.000    0.000    0.000 
#    0.000    0.000    0.000    0.000    0.000    0.000 
#
# Total GULP energy -198310.255270 kJ/mol
# GULP energy per Si atom -12394.390954 kJ/mol
# Density = 2.083080 g / cm^3
# Si number density = 20.878315 Si / 1000 Ang^3
#
#
#
# Elastic Constant Matrix: (Units=GPa)
#
#
# Indices 1 2 3 4 5 6 
#
# 1 88.5898 49.1340 31.0834 0.0000 -5.4286 0.0000
# 2 49.1340 79.3401 25.8031 0.0000 -13.6803 0.0000
# 3 31.0834 25.8031 90.1153 0.0000 -17.4200 0.0000
# 4 0.0000 0.0000 0.0000 38.2266 0.0000 -5.1180
# 5 -5.4286 -13.6803 -17.4200 0.0000 24.9125 0.0000
# 6 0.0000 0.0000 0.0000 -5.1180 0.0000 28.3085
#
#
#
# Elastic Compliance Matrix: (Units=1/GPa)
#
#
# Indices 1 2 3 4 5 6 
#
# 1 0.018544 -0.010964 -0.004209 0.000000 -0.004923 0.000000
# 2 -0.010964 0.021093 -0.000556 0.000000 0.008805 0.000000
# 3 -0.004209 -0.000556 0.014421 0.000000 0.008861 0.000000
# 4 0.000000 0.000000 0.000000 0.026809 0.000000 0.004847
# 5 -0.004923 0.008805 0.008861 0.000000 0.050099 0.000000
# 6 0.000000 0.000000 0.000000 0.004847 0.000000 0.036201
#
#
# Mechanical properties :
#
#
# Convention : Reuss Voigt Hill
#
# Bulk Modulus (GPa) = 44.24633 52.23181 48.23907
# Shear Modulus (GPa) = 24.25341 28.42450 26.33896
#
# Velocity S-wave (km/s) = 3.41200 3.69377 3.55568
# Velocity P-wave (km/s) = 6.06307 6.57750 6.32552
#
# Compressibility (1/GPa) = 0.02260075
#
# Stress axis : x y z
#
# Youngs Moduli (GPa) = 53.92615 47.40972 69.34512
#
# Poissons Ratio (x) = 0.51980 0.29184
# Poissons Ratio (y) = 0.59125 0.03853
# Poissons Ratio (z) = 0.22695 0.02634
#
# Static dielectric constant tensor:
#      x y z
#    x 3.539620 0.000000 0.021290 
#    y 0.000000 3.685660 0.000000 
#    z 0.021290 0.000000 4.287220 
# 
# 
# High freq. dielectric constant tensor:
#      x y z
#    x 1.804680 0.000000 -0.005350 
#    y 0.000000 1.806660 0.000000 
#    z -0.005350 0.000000 1.849370 
# 
# From -- ./inp_files/32978.got.cif
#   From: 2010.06.25/outbox.cif.g09.slc.cpg/sg9_17_cif.got.tgz:32978.got - 2010.06.27 21:40:51.
