data_PCOD8055709
_publ_section_title
;
Structure prediction by ZEFSAII (Michael W. Deem and Ramdas Pophale) SiO2 
 PCOD8055709
Probable space group: C C
;
_chemical_formula_sum "Si O2"
_cell_formula_units_Z 24
_cell_length_a 11.211851
_cell_length_b 10.635439
_cell_length_c 9.159210
_cell_angle_alpha 90.000000
_cell_angle_beta 73.188169
_cell_angle_gamma 90.000000
_cell_volume 1045.491663
_symmetry_space_group_name_H-M "C C"
_symmetry_group_IT_number 9
_symmetry_cell_setting 'monoclinic'
loop_
_space_group_symop_operation_xyz
x,y,z
x,-y,1/2+z
1/2+x,1/2+y,z
1/2+x,1/2-y,1/2+z
loop_
_atom_site_type_symbol
_atom_site_label
_atom_site_fract_x
_atom_site_fract_y
_atom_site_fract_z
Si Si1 0.222180 0.453294 0.987930
Si Si2 0.214595 0.150430 0.402638
Si Si3 0.404213 0.326688 0.457929
Si Si4 0.862566 0.256291 0.277687
Si Si5 0.153298 0.076282 0.736011
Si Si6 0.584610 0.884461 0.323328
O O1 0.287390 0.580543 0.017233
O O2 0.330320 0.363563 0.887589
O O3 0.114151 0.489756 0.907119
O O4 0.161220 0.385819 0.146593
O O5 0.354180 0.204853 0.383983
O O6 0.159702 0.073789 0.559329
O O7 0.121201 0.262772 0.401953
O O8 0.212218 0.055093 0.267894
O O9 0.444620 0.286274 0.607419
O O10 0.512417 0.399178 0.335448
O O11 0.731495 0.308348 0.270389
O O12 0.938103 0.364776 0.339062
#
# Coordination Sequence:
#
# PCOD8055709 Si02
#       6
#     4   4   4   4   4   4
#     4  11  23  45  72  98 135 185 226 282 343 400
#     4  10  26  45  66 105 130 182 230 275 346 403
#     4  10  23  45  70  99 138 178 232 282 335 410
#     4  11  24  42  68 102 134 183 226 280 345 399
#     4  11  25  44  69  97 141 177 229 280 341 407
#     4  11  25  45  71  99 138 175 233 279 342 407
#
# _framework density 22.955708999999999
#
# number of rings (size 3 to 8) (size 9 to 14) (size 15 to 20)
#    0.000    1.333    1.667    2.000    7.000    6.667 
#    0.000    0.000    0.000    0.000    0.000    0.000 
#    0.000    0.000    0.000    0.000    0.000    0.000 
#
# Total GULP energy -148818.700363 kJ/mol
# GULP energy per Si atom -12401.558364 kJ/mol
# Density = 2.290346 g / cm^3
# Si number density = 22.955709 Si / 1000 Ang^3
#
#
#
# Elastic Constant Matrix: (Units=GPa)
#
#
# Indices 1 2 3 4 5 6 
#
# 1 87.1810 23.8011 31.5603 0.0000 8.7422 0.0000
# 2 23.8011 79.0864 31.3584 0.0000 -3.2133 0.0000
# 3 31.5603 31.3584 92.6324 0.0000 13.6307 0.0000
# 4 0.0000 0.0000 0.0000 43.4883 0.0000 9.0253
# 5 8.7422 -3.2133 13.6307 0.0000 21.4909 0.0000
# 6 0.0000 0.0000 0.0000 9.0253 0.0000 42.0009
#
#
#
# Elastic Compliance Matrix: (Units=1/GPa)
#
#
# Indices 1 2 3 4 5 6 
#
# 1 0.013845 -0.003129 -0.003044 0.000000 -0.004169 0.000000
# 2 -0.003129 0.016015 -0.005399 0.000000 0.007092 0.000000
# 3 -0.003044 -0.005399 0.014996 0.000000 -0.009080 0.000000
# 4 0.000000 0.000000 0.000000 0.024068 0.000000 -0.005172
# 5 -0.004169 0.007092 -0.009080 0.000000 0.055047 0.000000
# 6 0.000000 0.000000 0.000000 -0.005172 0.000000 0.024920
#
#
# Mechanical properties :
#
#
# Convention : Reuss Voigt Hill
#
# Bulk Modulus (GPa) = 46.05800 48.03772 47.04786
# Shear Modulus (GPa) = 27.89046 32.87468 30.38257
#
# Velocity S-wave (km/s) = 3.48942 3.78840 3.64198
# Velocity P-wave (km/s) = 6.02845 6.33306 6.18263
#
# Compressibility (1/GPa) = 0.02171176
#
# Stress axis : x y z
#
# Youngs Moduli (GPa) = 72.22986 62.44187 66.68249
#
# Poissons Ratio (x) = 0.19537 0.20300
# Poissons Ratio (y) = 0.22600 0.36002
# Poissons Ratio (z) = 0.21989 0.33712
#
# Static dielectric constant tensor:
#      x y z
#    x 4.074230 0.000000 0.358310 
#    y 0.000000 4.120540 0.000000 
#    z 0.358310 0.000000 4.085010 
# 
# 
# High freq. dielectric constant tensor:
#      x y z
#    x 1.904260 0.000000 0.018110 
#    y 0.000000 1.913100 0.000000 
#    z 0.018110 0.000000 1.903050 
# 
# From -- ./inp_files/6726.got.cif
#   From: 2010.06.25/outbox.cif.g09.slc.cpg/sg9_4_cif.got.tgz:6726.got - 2010.06.27 21:40:51.
