data_PCOD8055950
_publ_section_title
;
Structure prediction by ZEFSAII (Michael W. Deem and Ramdas Pophale) SiO2 
 PCOD8055950
Probable space group: C C
;
_chemical_formula_sum "Si O2"
_cell_formula_units_Z 32
_cell_length_a 5.134290
_cell_length_b 21.808446
_cell_length_c 12.400582
_cell_angle_alpha 90.000000
_cell_angle_beta 83.982539
_cell_angle_gamma 90.000000
_cell_volume 1380.853490
_symmetry_space_group_name_H-M "C C"
_symmetry_group_IT_number 9
_symmetry_cell_setting 'monoclinic'
loop_
_space_group_symop_operation_xyz
x,y,z
x,-y,1/2+z
1/2+x,1/2+y,z
1/2+x,1/2-y,1/2+z
loop_
_atom_site_type_symbol
_atom_site_label
_atom_site_fract_x
_atom_site_fract_y
_atom_site_fract_z
Si Si1 0.958500 0.440207 0.686890
Si Si2 0.251838 0.823084 0.602894
Si Si3 0.397559 0.163979 0.600227
Si Si4 0.079263 0.955590 0.878976
Si Si5 0.837387 0.149118 0.289446
Si Si6 0.377014 0.704893 0.710800
Si Si7 0.548342 0.033761 0.508517
Si Si8 0.545074 0.255285 0.420867
O O1 0.888110 0.389099 0.600853
O O2 0.705963 0.472157 0.756512
O O3 0.095499 0.494445 0.614807
O O4 0.132938 0.406572 0.771610
O O5 0.428104 0.772757 0.658593
O O6 0.972054 0.828836 0.674016
O O7 0.215203 0.804801 0.479916
O O8 0.593058 0.182167 0.687682
O O9 0.527025 0.104896 0.540121
O O10 0.371528 0.217248 0.512383
O O11 0.106131 0.157616 0.662557
O O12 0.042467 0.881027 0.867491
O O13 0.273395 0.980323 0.962596
O O14 0.792608 0.982526 0.919448
O O15 0.730747 0.209567 0.348368
O O16 0.369079 0.708854 0.841243
#
# Coordination Sequence:
#
# PCOD8055950 Si02
#       8
#     4   4   4   4   4   4   4   4
#     4  11  25  48  74 104 150 184 245 303 359 433
#     4  10  25  41  70 107 138 185 235 296 354 430
#     4  11  25  43  66 103 131 184 239 285 357 426
#     4  11  24  46  72 105 128 195 240 291 357 425
#     4  11  22  47  71 103 140 189 242 281 363 435
#     4  11  24  43  65 100 144 174 231 292 357 423
#     4  12  26  46  76 102 142 188 248 297 356 435
#     4  11  21  42  70  96 141 183 228 289 353 433
#
# _framework density 23.174071999999999
#
# number of rings (size 3 to 8) (size 9 to 14) (size 15 to 20)
#    0.000    1.000    3.750    2.250    7.000    2.000 
#    2.250    0.000    0.000    0.000    0.000    0.000 
#    0.000    0.000    0.000    0.000    0.000    0.000 
#
# Total GULP energy -198270.865322 kJ/mol
# GULP energy per Si atom -12391.929083 kJ/mol
# Density = 2.312133 g / cm^3
# Si number density = 23.174072 Si / 1000 Ang^3
#
#
#
# Elastic Constant Matrix: (Units=GPa)
#
#
# Indices 1 2 3 4 5 6 
#
# 1 115.9990 17.1610 41.1980 0.0000 -9.3777 0.0000
# 2 17.1610 39.9457 15.1692 0.0000 -6.9624 0.0000
# 3 41.1980 15.1692 109.2599 0.0000 11.9809 0.0000
# 4 0.0000 0.0000 0.0000 45.6063 0.0000 -1.4296
# 5 -9.3777 -6.9624 11.9809 0.0000 37.1846 0.0000
# 6 0.0000 0.0000 0.0000 -1.4296 0.0000 24.4347
#
#
#
# Elastic Compliance Matrix: (Units=1/GPa)
#
#
# Indices 1 2 3 4 5 6 
#
# 1 0.010724 -0.002429 -0.004098 0.000000 0.003570 0.000000
# 2 -0.002429 0.028510 -0.003691 0.000000 0.005915 0.000000
# 3 -0.004098 -0.003691 0.011817 0.000000 -0.005532 0.000000
# 4 0.000000 0.000000 0.000000 0.021967 0.000000 0.001285
# 5 0.003570 0.005915 -0.005532 0.000000 0.030683 0.000000
# 6 0.000000 0.000000 0.000000 0.001285 0.000000 0.041001
#
#
# Mechanical properties :
#
#
# Convention : Reuss Voigt Hill
#
# Bulk Modulus (GPa) = 32.66332 45.80680 39.23506
# Shear Modulus (GPa) = 28.51568 34.22355 31.36962
#
# Velocity S-wave (km/s) = 3.51165 3.84709 3.68319
# Velocity P-wave (km/s) = 5.52880 6.28830 5.92074
#
# Compressibility (1/GPa) = 0.03061538
#
# Stress axis : x y z
#
# Youngs Moduli (GPa) = 93.24771 35.07548 84.62573
#
# Poissons Ratio (x) = 0.08519 0.34679
# Poissons Ratio (y) = 0.22647 0.31236
# Poissons Ratio (z) = 0.38213 0.12946
#
# Static dielectric constant tensor:
#      x y z
#    x 4.179940 0.000000 0.072210 
#    y 0.000000 3.936230 0.000000 
#    z 0.072210 0.000000 4.233780 
# 
# 
# High freq. dielectric constant tensor:
#      x y z
#    x 1.918260 0.000000 0.000630 
#    y 0.000000 1.885470 0.000000 
#    z 0.000630 0.000000 1.921050 
# 
# From -- ./inp_files/13507.got.cif
#   From: 2010.06.25/outbox.cif.g09.slc.cpg/sg9_7_cif.got.tgz:13507.got - 2010.06.27 21:40:51.
