data_PCOD8055764
_publ_section_title
;
Structure prediction by ZEFSAII (Michael W. Deem and Ramdas Pophale) SiO2 
 PCOD8055764
Probable space group: C C
;
_chemical_formula_sum "Si O2"
_cell_formula_units_Z 32
_cell_length_a 21.103766
_cell_length_b 9.525071
_cell_length_c 15.761858
_cell_angle_alpha 90.000000
_cell_angle_beta 26.079131
_cell_angle_gamma 90.000000
_cell_volume 1392.852675
_symmetry_space_group_name_H-M "C C"
_symmetry_group_IT_number 9
_symmetry_cell_setting 'monoclinic'
loop_
_space_group_symop_operation_xyz
x,y,z
x,-y,1/2+z
1/2+x,1/2+y,z
1/2+x,1/2-y,1/2+z
loop_
_atom_site_type_symbol
_atom_site_label
_atom_site_fract_x
_atom_site_fract_y
_atom_site_fract_z
Si Si1 0.129700 0.654180 0.630910
Si Si2 0.908665 0.514487 0.785148
Si Si3 0.219332 0.371119 0.573441
Si Si4 0.442506 0.306323 0.446241
Si Si5 0.886611 0.242740 0.722140
Si Si6 0.791301 0.310797 0.291306
Si Si7 0.184599 0.909819 0.842068
Si Si8 0.139275 0.064086 0.210029
O O1 0.220838 0.541520 0.576859
O O2 0.205545 0.701963 0.452954
O O3 0.086930 0.781875 0.743478
O O4 0.990032 0.568140 0.769896
O O5 0.961415 0.364947 0.688186
O O6 0.920161 0.625398 0.693843
O O7 0.741032 0.500031 0.014408
O O8 0.331061 0.301714 0.503382
O O9 0.265612 0.336822 0.421856
O O10 0.062807 0.309538 0.782929
O O11 0.359362 0.273022 0.632299
O O12 0.502965 0.463015 0.383082
O O13 0.801876 0.304834 0.742519
O O14 0.018601 0.141633 0.540263
O O15 0.689219 0.438518 0.382197
O O16 0.227147 0.926266 0.692453
#
# Coordination Sequence:
#
# PCOD8055764 Si02
#       8
#     4   4   4   4   4   4   4   4
#     4  11  27  45  73 107 148 192 242 302 369 434
#     4  10  23  47  72 103 152 188 247 296 371 429
#     4  12  27  46  79 106 147 193 248 298 369 435
#     4  12  27  50  78 109 145 195 252 296 365 437
#     4  11  24  46  74 108 144 197 239 303 367 434
#     4  10  27  46  73 106 144 198 243 307 358 438
#     4  11  26  45  76 106 151 186 250 300 364 434
#     4  11  27  45  73 105 149 195 237 308 359 435
#
# _framework density 22.974432
#
# number of rings (size 3 to 8) (size 9 to 14) (size 15 to 20)
#    0.000    1.000    1.250    3.000   15.750    1.000 
#    0.000    0.000    0.000    0.000    0.000    0.000 
#    0.000    0.000    0.000    0.000    0.000    0.000 
#
# Total GULP energy -198412.993338 kJ/mol
# GULP energy per Si atom -12400.812084 kJ/mol
# Density = 2.292214 g / cm^3
# Si number density = 22.974432 Si / 1000 Ang^3
#
#
#
# Elastic Constant Matrix: (Units=GPa)
#
#
# Indices 1 2 3 4 5 6 
#
# 1 115.5111 37.7778 37.0745 0.0000 7.4917 0.0000
# 2 37.7778 134.2154 50.2635 0.0000 3.1301 0.0000
# 3 37.0745 50.2635 92.1469 0.0000 1.9432 0.0000
# 4 0.0000 0.0000 0.0000 34.3694 0.0000 5.1779
# 5 7.4917 3.1301 1.9432 0.0000 34.0379 0.0000
# 6 0.0000 0.0000 0.0000 5.1779 0.0000 38.1513
#
#
#
# Elastic Compliance Matrix: (Units=1/GPa)
#
#
# Indices 1 2 3 4 5 6 
#
# 1 0.010361 -0.001665 -0.003219 0.000000 -0.001944 0.000000
# 2 -0.001665 0.009642 -0.004584 0.000000 -0.000258 0.000000
# 3 -0.003219 -0.004584 0.014642 0.000000 0.000294 0.000000
# 4 0.000000 0.000000 0.000000 0.029703 0.000000 -0.004031
# 5 -0.001944 -0.000258 0.000294 0.000000 0.029814 0.000000
# 6 0.000000 0.000000 0.000000 -0.004031 0.000000 0.026759
#
#
# Mechanical properties :
#
#
# Convention : Reuss Voigt Hill
#
# Bulk Modulus (GPa) = 63.66337 65.78945 64.72641
# Shear Modulus (GPa) = 34.46046 35.76223 35.11135
#
# Velocity S-wave (km/s) = 3.87712 3.94967 3.91356
# Velocity P-wave (km/s) = 6.91472 7.03548 6.97536
#
# Compressibility (1/GPa) = 0.01570762
#
# Stress axis : x y z
#
# Youngs Moduli (GPa) = 96.51414 103.71058 68.29787
#
# Poissons Ratio (x) = 0.17272 0.21987
# Poissons Ratio (y) = 0.16074 0.31308
# Poissons Ratio (z) = 0.31071 0.47541
#
# Static dielectric constant tensor:
#      x y z
#    x 4.248470 0.000000 0.142780 
#    y 0.000000 4.294130 0.000000 
#    z 0.142780 0.000000 3.850990 
# 
# 
# High freq. dielectric constant tensor:
#      x y z
#    x 1.918540 0.000000 0.009950 
#    y 0.000000 1.922060 0.000000 
#    z 0.009950 0.000000 1.895950 
# 
# From -- ./inp_files/27342.got.cif
#   From: 2010.06.25/outbox.cif.g09.slc.cpg/sg9_14_cif.got.tgz:27342.got - 2010.06.27 21:40:51.
