data_PCOD8055725
_publ_section_title
;
Structure prediction by ZEFSAII (Michael W. Deem and Ramdas Pophale) SiO2 
 PCOD8055725
Probable space group: C C
;
_chemical_formula_sum "Si O2"
_cell_formula_units_Z 20
_cell_length_a 6.951095
_cell_length_b 18.001613
_cell_length_c 10.158973
_cell_angle_alpha 90.000000
_cell_angle_beta 45.113772
_cell_angle_gamma 90.000000
_cell_volume 900.658433
_symmetry_space_group_name_H-M "C C"
_symmetry_group_IT_number 9
_symmetry_cell_setting 'monoclinic'
loop_
_space_group_symop_operation_xyz
x,y,z
x,-y,1/2+z
1/2+x,1/2+y,z
1/2+x,1/2-y,1/2+z
loop_
_atom_site_type_symbol
_atom_site_label
_atom_site_fract_x
_atom_site_fract_y
_atom_site_fract_z
Si Si1 0.493240 0.073261 0.163260
Si Si2 0.817515 0.508674 0.510419
Si Si3 0.970961 0.184170 0.011697
Si Si4 0.900135 0.345964 0.097114
Si Si5 0.996554 0.881681 0.765226
O O1 0.436565 0.012283 0.305238
O O2 0.223443 0.124378 0.269829
O O3 0.737549 0.127475 0.080208
O O4 0.541932 0.026124 0.004999
O O5 0.545139 0.458152 0.655488
O O6 0.743538 0.593257 0.585053
O O7 0.894061 0.269369 0.015934
O O8 0.251807 0.162122 0.807743
O O9 0.020470 0.183342 0.144938
O O10 0.204613 0.376313 0.974690
#
# Coordination Sequence:
#
# PCOD8055725 Si02
#       5
#     4   4   4   4   4
#     4  10  24  47  74 107 140 191 239 294 359 426
#     4  10  23  45  74 102 142 185 242 292 353 425
#     4  12  24  49  70 105 146 191 233 300 360 423
#     4  12  24  46  75 100 150 187 236 299 357 421
#     4  10  25  47  71 106 140 190 240 289 359 423
#
# _framework density 22.205978000000002
#
# number of rings (size 3 to 8) (size 9 to 14) (size 15 to 20)
#    1.200    0.000    4.000    1.200    2.800    0.000 
#   14.400    0.000    0.000    0.000    0.000    0.000 
#    0.000    0.000    0.000    0.000    0.000    0.000 
#
# Total GULP energy -123882.281722 kJ/mol
# GULP energy per Si atom -12388.228172 kJ/mol
# Density = 2.215544 g / cm^3
# Si number density = 22.205978 Si / 1000 Ang^3
#
#
#
# Elastic Constant Matrix: (Units=GPa)
#
#
# Indices 1 2 3 4 5 6 
#
# 1 102.6414 40.2607 59.7029 0.0000 6.1465 0.0000
# 2 40.2607 122.5796 30.5994 0.0000 -16.1520 0.0000
# 3 59.7029 30.5994 132.3839 0.0000 -26.0531 0.0000
# 4 0.0000 0.0000 0.0000 39.1738 0.0000 -7.4446
# 5 6.1465 -16.1520 -26.0531 0.0000 34.4784 0.0000
# 6 0.0000 0.0000 0.0000 -7.4446 0.0000 26.3279
#
#
#
# Elastic Compliance Matrix: (Units=1/GPa)
#
#
# Indices 1 2 3 4 5 6 
#
# 1 0.018085 -0.005270 -0.009466 0.000000 -0.012845 0.000000
# 2 -0.005270 0.010463 0.001301 0.000000 0.006824 0.000000
# 3 -0.009466 0.001301 0.014066 0.000000 0.012926 0.000000
# 4 0.000000 0.000000 0.000000 0.026977 0.000000 0.007628
# 5 -0.012845 0.006824 0.012926 0.000000 0.044257 0.000000
# 6 0.000000 0.000000 0.000000 0.007628 0.000000 0.040139
#
#
# Mechanical properties :
#
#
# Convention : Reuss Voigt Hill
#
# Bulk Modulus (GPa) = 63.51273 68.74787 66.13030
# Shear Modulus (GPa) = 26.86659 35.13216 30.99937
#
# Velocity S-wave (km/s) = 3.48211 3.98188 3.74035
# Velocity P-wave (km/s) = 6.69556 7.22267 6.96410
#
# Compressibility (1/GPa) = 0.01574487
#
# Stress axis : x y z
#
# Youngs Moduli (GPa) = 55.29511 95.57357 71.09452
#
# Poissons Ratio (x) = 0.50362 0.67297
# Poissons Ratio (y) = 0.29138 -0.09249
# Poissons Ratio (z) = 0.52342 -0.12434
#
# Static dielectric constant tensor:
#      x y z
#    x 3.682730 0.000000 0.068130 
#    y 0.000000 4.148200 0.000000 
#    z 0.068130 0.000000 4.001640 
# 
# 
# High freq. dielectric constant tensor:
#      x y z
#    x 1.845170 0.000000 0.002880 
#    y 0.000000 1.881980 0.000000 
#    z 0.002880 0.000000 1.878450 
# 
# From -- ./inp_files/14857.got.cif
#   From: 2010.06.25/outbox.cif.g09.slc.cpg/sg9_8_cif.got.tgz:14857.got - 2010.06.27 21:40:51.
