data_PCOD8055330
_publ_section_title
;
Structure prediction by ZEFSAII (Michael W. Deem and Ramdas Pophale) SiO2 
 PCOD8055330
Probable space group: C C
;
_chemical_formula_sum "Si O2"
_cell_formula_units_Z 28
_cell_length_a 10.977141
_cell_length_b 15.749600
_cell_length_c 10.423763
_cell_angle_alpha 90.000000
_cell_angle_beta 42.151910
_cell_angle_gamma 90.000000
_cell_volume 1209.399029
_symmetry_space_group_name_H-M "C C"
_symmetry_group_IT_number 9
_symmetry_cell_setting 'monoclinic'
loop_
_space_group_symop_operation_xyz
x,y,z
x,-y,1/2+z
1/2+x,1/2+y,z
1/2+x,1/2-y,1/2+z
loop_
_atom_site_type_symbol
_atom_site_label
_atom_site_fract_x
_atom_site_fract_y
_atom_site_fract_z
Si Si1 0.334830 0.563899 0.601570
Si Si2 0.473441 0.828517 0.401580
Si Si3 0.191257 0.682190 0.040520
Si Si4 0.689554 0.002397 0.452375
Si Si5 0.913142 0.351863 0.165911
Si Si6 0.160077 0.820719 0.842120
Si Si7 0.549465 0.280657 0.374983
O O1 0.315374 0.534746 0.470374
O O2 0.309099 0.490524 0.729025
O O3 0.536462 0.598809 0.477437
O O4 0.168706 0.627099 0.762811
O O5 0.373420 0.849889 0.348181
O O6 0.342861 0.848930 0.625287
O O7 0.519968 0.728809 0.358456
O O8 0.123140 0.593890 0.033060
O O9 0.207680 0.758038 0.923116
O O10 0.378855 0.662411 0.968949
O O11 0.055073 0.710622 0.257777
O O12 0.511718 0.058994 0.562713
O O13 0.719683 0.344956 0.245281
O O14 0.031188 0.271307 0.023307
#
# Coordination Sequence:
#
# PCOD8055330 Si02
#       7
#     4   4   4   4   4   4   4
#     4  11  25  44  70 100 144 188 232 295 364 418
#     4  11  21  39  68 102 131 176 237 288 336 421
#     4  11  22  41  70  98 137 181 239 285 355 418
#     4  11  23  45  66 101 144 184 223 303 363 411
#     4  10  23  41  68  98 142 181 232 288 361 416
#     4  12  22  42  73 103 131 187 241 285 339 431
#     4  10  22  42  67 100 131 189 234 286 340 443
#
# _framework density 23.151994999999999
#
# number of rings (size 3 to 8) (size 9 to 14) (size 15 to 20)
#    0.000    1.143    2.857    3.429    2.000    0.000 
#    5.143    1.429    0.000    0.000    0.000    0.000 
#    0.000    0.000    0.000    0.000    0.000    0.000 
#
# Total GULP energy -173456.713332 kJ/mol
# GULP energy per Si atom -12389.765238 kJ/mol
# Density = 2.309930 g / cm^3
# Si number density = 23.151995 Si / 1000 Ang^3
#
#
#
# Elastic Constant Matrix: (Units=GPa)
#
#
# Indices 1 2 3 4 5 6 
#
# 1 97.2829 51.4946 43.4039 -0.0036 2.2858 0.0022
# 2 51.4946 82.3338 38.1744 -0.0064 -4.3272 0.0046
# 3 43.4039 38.1744 128.7325 -0.0107 -2.9641 0.0080
# 4 -0.0036 -0.0064 -0.0107 35.0137 0.0044 1.7069
# 5 2.2858 -4.3272 -2.9641 0.0044 36.7104 -0.0028
# 6 0.0022 0.0046 0.0080 1.7069 -0.0028 38.4969
#
#
#
# Elastic Compliance Matrix: (Units=1/GPa)
#
#
# Indices 1 2 3 4 5 6 
#
# 1 0.016417 -0.009042 -0.002907 -0.000001 -0.002323 0.000001
# 2 -0.009042 0.019126 -0.002563 0.000002 0.002611 -0.000001
# 3 -0.002907 -0.002563 0.009523 0.000002 0.000648 -0.000002
# 4 -0.000001 0.000002 0.000002 0.028622 -0.000003 -0.001269
# 5 -0.002323 0.002611 0.000648 -0.000003 0.027745 0.000002
# 6 0.000001 -0.000001 -0.000002 -0.001269 0.000002 0.026032
#
#
# Mechanical properties :
#
#
# Convention : Reuss Voigt Hill
#
# Bulk Modulus (GPa) = 62.33625 63.83278 63.08452
# Shear Modulus (GPa) = 30.89498 33.72929 32.31213
#
# Velocity S-wave (km/s) = 3.65696 3.82103 3.73990
# Velocity P-wave (km/s) = 6.69436 6.86280 6.77910
#
# Compressibility (1/GPa) = 0.01604203
#
# Stress axis : x y z
#
# Youngs Moduli (GPa) = 60.91154 52.28371 105.00560
#
# Poissons Ratio (x) = 0.47275 0.30530
# Poissons Ratio (y) = 0.55076 0.26913
# Poissons Ratio (z) = 0.17710 0.13400
#
# Static dielectric constant tensor:
#      x y z
#    x 4.304980 0.000000 0.217250 
#    y 0.000000 4.041790 0.000000 
#    z 0.217250 0.000000 4.315940 
# 
# 
# High freq. dielectric constant tensor:
#      x y z
#    x 1.925810 0.000000 0.011310 
#    y 0.000000 1.890540 0.000000 
#    z 0.011310 0.000000 1.921450 
# 
# From -- ./inp_files/16992.got.cif
#   From: 2010.06.25/outbox.cif.g09.slc.cpg/sg9_9_cif.got.tgz:16992.got - 2010.06.27 21:40:51.
