data_PCOD8055520
_publ_section_title
;
Structure prediction by ZEFSAII (Michael W. Deem and Ramdas Pophale) SiO2 
 PCOD8055520
Probable space group: C C
;
_chemical_formula_sum "Si O2"
_cell_formula_units_Z 28
_cell_length_a 9.323784
_cell_length_b 23.796913
_cell_length_c 9.655515
_cell_angle_alpha 90.000000
_cell_angle_beta 134.954610
_cell_angle_gamma 90.000000
_cell_volume 1516.062305
_symmetry_space_group_name_H-M "C C"
_symmetry_group_IT_number 9
_symmetry_cell_setting 'monoclinic'
loop_
_space_group_symop_operation_xyz
x,y,z
x,-y,1/2+z
1/2+x,1/2+y,z
1/2+x,1/2-y,1/2+z
loop_
_atom_site_type_symbol
_atom_site_label
_atom_site_fract_x
_atom_site_fract_y
_atom_site_fract_z
Si Si1 0.509840 0.914987 0.108510
Si Si2 0.568968 0.403959 0.902571
Si Si3 0.126923 0.624168 0.399594
Si Si4 0.184155 0.376056 0.502619
Si Si5 0.454045 0.198221 0.047081
Si Si6 0.192040 0.463556 0.722625
Si Si7 0.041786 0.173927 0.636790
O O1 0.614372 0.876672 0.296748
O O2 0.637609 0.971693 0.181382
O O3 0.276697 0.928600 0.983967
O O4 0.516047 0.880400 0.970684
O O5 0.429994 0.376769 0.684895
O O6 0.437737 0.454740 0.883027
O O7 0.617199 0.355647 0.047139
O O8 0.106821 0.565089 0.304312
O O9 0.363359 0.637847 0.585194
O O10 0.026598 0.674518 0.244058
O O11 0.094461 0.430996 0.523414
O O12 0.101582 0.321003 0.523532
O O13 0.454354 0.265013 0.042564
O O14 0.226592 0.176341 0.869206
#
# Coordination Sequence:
#
# PCOD8055520 Si02
#       7
#     4   4   4   4   4   4   4
#     4  12  20  39  59  83 127 153 182 263 297 318
#     4   9  21  39  59  87 112 154 208 234 281 359
#     4  10  23  37  57  94 118 144 207 244 286 357
#     4   9  20  38  57  89 112 151 207 235 276 366
#     4  11  19  38  68  84 114 160 201 234 290 361
#     4   8  20  42  54  82 117 156 206 228 275 369
#     4  11  19  39  68  83 114 162 197 240 289 352
#
# _framework density 18.468899
#
# number of rings (size 3 to 8) (size 9 to 14) (size 15 to 20)
#    0.857    1.143    4.286    0.857    0.000    1.143 
#   10.286    1.429    0.000    0.000    0.000    0.000 
#    0.000    0.000    0.000    0.000    0.000    0.000 
#
# Total GULP energy -173527.840516 kJ/mol
# GULP energy per Si atom -12394.845751 kJ/mol
# Density = 1.842686 g / cm^3
# Si number density = 18.468899 Si / 1000 Ang^3
#
#
#
# Elastic Constant Matrix: (Units=GPa)
#
#
# Indices 1 2 3 4 5 6 
#
# 1 101.0153 33.2875 50.0611 0.0000 -5.4403 0.0000
# 2 33.2875 79.1702 16.5521 0.0000 -5.1549 0.0000
# 3 50.0611 16.5521 99.0032 0.0000 0.1082 0.0000
# 4 0.0000 0.0000 0.0000 21.2129 0.0000 6.4897
# 5 -5.4403 -5.1549 0.1082 0.0000 40.6738 0.0000
# 6 0.0000 0.0000 0.0000 6.4897 0.0000 14.1177
#
#
#
# Elastic Compliance Matrix: (Units=1/GPa)
#
#
# Indices 1 2 3 4 5 6 
#
# 1 0.014878 -0.004757 -0.006729 0.000000 0.001405 0.000000
# 2 -0.004757 0.014723 -0.000058 0.000000 0.001230 0.000000
# 3 -0.006729 -0.000058 0.013514 0.000000 -0.000943 0.000000
# 4 0.000000 0.000000 0.000000 0.054856 0.000000 -0.025217
# 5 0.001405 0.001230 -0.000943 0.000000 0.024932 0.000000
# 6 0.000000 0.000000 0.000000 -0.025217 0.000000 0.082425
#
#
# Mechanical properties :
#
#
# Convention : Reuss Voigt Hill
#
# Bulk Modulus (GPa) = 49.93136 53.22113 51.57625
# Shear Modulus (GPa) = 21.26843 27.15341 24.21092
#
# Velocity S-wave (km/s) = 3.39718 3.83851 3.62457
# Velocity P-wave (km/s) = 6.51781 6.96597 6.74561
#
# Compressibility (1/GPa) = 0.02002749
#
# Stress axis : x y z
#
# Youngs Moduli (GPa) = 67.21551 67.91994 73.99794
#
# Poissons Ratio (x) = 0.32310 0.49794
# Poissons Ratio (y) = 0.31974 0.00425
# Poissons Ratio (z) = 0.45230 0.00391
#
# Static dielectric constant tensor:
#      x y z
#    x 3.225590 0.000000 0.060300 
#    y 0.000000 3.143070 0.000000 
#    z 0.060300 0.000000 3.440700 
# 
# 
# High freq. dielectric constant tensor:
#      x y z
#    x 1.698190 0.000000 0.008920 
#    y 0.000000 1.702010 0.000000 
#    z 0.008920 0.000000 1.722570 
# 
# From -- ./inp_files/6125.got.cif
#   From: 2010.06.25/outbox.cif.g09.slc.cpg/sg9_4_cif.got.tgz:6125.got - 2010.06.27 21:40:51.
