data_PCOD8055982
_publ_section_title
;
Structure prediction by ZEFSAII (Michael W. Deem and Ramdas Pophale) SiO2 
 PCOD8055982
Probable space group: C C
;
_chemical_formula_sum "Si O2"
_cell_formula_units_Z 20
_cell_length_a 23.190106
_cell_length_b 4.780298
_cell_length_c 9.449042
_cell_angle_alpha 90.000000
_cell_angle_beta 132.315286
_cell_angle_gamma 90.000000
_cell_volume 774.560217
_symmetry_space_group_name_H-M "C C"
_symmetry_group_IT_number 9
_symmetry_cell_setting 'monoclinic'
loop_
_space_group_symop_operation_xyz
x,y,z
x,-y,1/2+z
1/2+x,1/2+y,z
1/2+x,1/2-y,1/2+z
loop_
_atom_site_type_symbol
_atom_site_label
_atom_site_fract_x
_atom_site_fract_y
_atom_site_fract_z
Si Si1 0.953840 0.279182 0.981190
Si Si2 0.718871 0.497667 0.492279
Si Si3 0.398992 0.277728 0.066576
Si Si4 0.261429 0.685011 0.820000
Si Si5 0.628417 0.020671 0.773894
O O1 0.929058 0.244377 0.777128
O O2 0.897554 0.478471 0.983592
O O3 0.037764 0.423662 0.122487
O O4 0.954215 0.982923 0.063354
O O5 0.773157 0.332802 0.689841
O O6 0.781960 0.579399 0.474015
O O7 0.675643 0.787324 0.470460
O O8 0.645979 0.304912 0.324152
O O9 0.312032 0.406423 0.919317
O O10 0.169205 0.613845 0.692346
#
# Coordination Sequence:
#
# PCOD8055982 Si02
#       5
#     4   4   4   4   4
#     4  12  29  50  83 115 166 204 266 317 416 454
#     4  10  25  45  79 111 151 200 260 325 373 463
#     4  12  30  53  77 118 162 212 255 333 393 483
#     4  10  28  47  80 113 158 200 268 313 396 454
#     4  10  26  45  81 113 155 200 263 322 382 474
#
# _framework density 25.821104999999999
#
# number of rings (size 3 to 8) (size 9 to 14) (size 15 to 20)
#    1.200    0.000    0.000    2.400   14.000    1.600 
#    0.000    0.000    0.000    0.000    0.000    0.000 
#    0.000    0.000    0.000    0.000    0.000    0.000 
#
# Total GULP energy -123890.068793 kJ/mol
# GULP energy per Si atom -12389.006879 kJ/mol
# Density = 2.576234 g / cm^3
# Si number density = 25.821105 Si / 1000 Ang^3
#
#
#
# Elastic Constant Matrix: (Units=GPa)
#
#
# Indices 1 2 3 4 5 6 
#
# 1 93.4989 13.8006 62.6178 0.0000 -7.2857 0.0000
# 2 13.8006 119.3237 25.0634 0.0000 -17.3719 0.0000
# 3 62.6178 25.0634 115.2234 0.0000 -20.5725 0.0000
# 4 0.0000 0.0000 0.0000 32.7725 0.0000 2.1789
# 5 -7.2857 -17.3719 -20.5725 0.0000 48.9816 0.0000
# 6 0.0000 0.0000 0.0000 2.1789 0.0000 53.9604
#
#
#
# Elastic Compliance Matrix: (Units=1/GPa)
#
#
# Indices 1 2 3 4 5 6 
#
# 1 0.016915 -0.000198 -0.009419 0.000000 -0.001510 0.000000
# 2 -0.000198 0.009077 -0.001403 0.000000 0.002601 0.000000
# 3 -0.009419 -0.001403 0.014879 0.000000 0.004351 0.000000
# 4 0.000000 0.000000 0.000000 0.030596 0.000000 -0.001235
# 5 -0.001510 0.002601 0.004351 0.000000 0.022941 0.000000
# 6 0.000000 0.000000 0.000000 -0.001235 0.000000 0.018582
#
#
# Mechanical properties :
#
#
# Convention : Reuss Voigt Hill
#
# Bulk Modulus (GPa) = 53.09996 59.00107 56.05051
# Shear Modulus (GPa) = 35.38437 42.24718 38.81577
#
# Velocity S-wave (km/s) = 3.70586 4.04932 3.88139
# Velocity P-wave (km/s) = 6.23862 6.69046 6.46849
#
# Compressibility (1/GPa) = 0.01883241
#
# Stress axis : x y z
#
# Youngs Moduli (GPa) = 59.11968 110.17272 67.20704
#
# Poissons Ratio (x) = 0.02179 0.63302
# Poissons Ratio (y) = 0.01169 0.09426
# Poissons Ratio (z) = 0.55684 0.15452
#
# Static dielectric constant tensor:
#      x y z
#    x 4.667250 0.000000 -0.183790 
#    y 0.000000 5.033740 0.000000 
#    z -0.183790 0.000000 4.303610 
# 
# 
# High freq. dielectric constant tensor:
#      x y z
#    x 2.047220 0.000000 -0.003100 
#    y 0.000000 2.064870 0.000000 
#    z -0.003100 0.000000 2.011200 
# 
# From -- ./inp_files/11897.got.cif
#   From: 2010.06.25/outbox.cif.g09.slc.cpg/sg9_6_cif.got.tgz:11897.got - 2010.06.27 21:40:51.
