data_PCOD8055216
_publ_section_title
;
Structure prediction by ZEFSAII (Michael W. Deem and Ramdas Pophale) SiO2 
 PCOD8055216
Probable space group: C C
;
_chemical_formula_sum "Si O2"
_cell_formula_units_Z 32
_cell_length_a 12.288502
_cell_length_b 22.073637
_cell_length_c 9.307632
_cell_angle_alpha 90.000000
_cell_angle_beta 143.972906
_cell_angle_gamma 90.000000
_cell_volume 1484.954873
_symmetry_space_group_name_H-M "C C"
_symmetry_group_IT_number 9
_symmetry_cell_setting 'monoclinic'
loop_
_space_group_symop_operation_xyz
x,y,z
x,-y,1/2+z
1/2+x,1/2+y,z
1/2+x,1/2-y,1/2+z
loop_
_atom_site_type_symbol
_atom_site_label
_atom_site_fract_x
_atom_site_fract_y
_atom_site_fract_z
Si Si1 0.670860 0.959875 0.565590
Si Si2 0.097101 0.562299 0.294495
Si Si3 0.992019 0.866878 0.594195
Si Si4 0.652805 0.835696 0.400062
Si Si5 0.004614 0.100257 0.789042
Si Si6 0.580973 0.468022 0.904528
Si Si7 0.753491 0.621173 0.805597
Si Si8 0.271701 0.792901 0.063331
O O1 0.635312 0.974569 0.691356
O O2 0.626913 0.889675 0.486997
O O3 0.883858 0.972611 0.768888
O O4 0.541682 0.007834 0.343121
O O5 0.283718 0.595820 0.542361
O O6 0.933638 0.610701 0.097561
O O7 0.069037 0.929277 0.745113
O O8 0.769390 0.860438 0.386741
O O9 0.039551 0.865124 0.476553
O O10 0.091286 0.811345 0.780206
O O11 0.445099 0.812735 0.147660
O O12 0.767769 0.779161 0.588205
O O13 0.083609 0.135577 0.733682
O O14 0.124860 0.037626 0.913841
O O15 0.721840 0.437526 0.168412
O O16 0.778636 0.678807 0.729961
#
# Coordination Sequence:
#
# PCOD8055216 Si02
#       8
#     4   4   4   4   4   4   4   4
#     4  10  22  40  61  93 130 163 211 259 324 382
#     4  11  24  38  61  97 130 171 203 260 327 386
#     4  10  23  39  65  93 122 168 207 266 311 372
#     4  11  22  41  70  91 121 165 222 267 307 380
#     4  11  23  39  61  92 139 162 202 258 325 385
#     4   9  20  38  61  91 126 168 206 247 312 387
#     4  11  23  39  63  97 128 167 212 260 319 381
#     4  11  23  42  70  92 118 166 227 265 309 373
#
# _framework density 21.549477
#
# number of rings (size 3 to 8) (size 9 to 14) (size 15 to 20)
#    0.000    1.500    3.750    0.750   10.500    2.000 
#    0.000    0.000    5.500    0.000    0.000    0.000 
#    0.000    0.000    0.000    0.000    0.000    0.000 
#
# Total GULP energy -198312.378349 kJ/mol
# GULP energy per Si atom -12394.523647 kJ/mol
# Density = 2.150043 g / cm^3
# Si number density = 21.549477 Si / 1000 Ang^3
#
#
#
# Elastic Constant Matrix: (Units=GPa)
#
#
# Indices 1 2 3 4 5 6 
#
# 1 84.8440 16.2891 24.2575 0.0000 -18.8231 0.0000
# 2 16.2891 71.7158 26.3430 0.0000 -5.1000 0.0000
# 3 24.2575 26.3430 92.3772 0.0000 -4.5454 0.0000
# 4 0.0000 0.0000 0.0000 15.9347 0.0000 4.7816
# 5 -18.8231 -5.1000 -4.5454 0.0000 33.6036 0.0000
# 6 0.0000 0.0000 0.0000 4.7816 0.0000 19.1652
#
#
#
# Elastic Compliance Matrix: (Units=1/GPa)
#
#
# Indices 1 2 3 4 5 6 
#
# 1 0.014638 -0.001690 -0.002991 0.000000 0.007539 0.000000
# 2 -0.001690 0.015876 -0.004039 0.000000 0.000917 0.000000
# 3 -0.002991 -0.004039 0.012734 0.000000 -0.000566 0.000000
# 4 0.000000 0.000000 0.000000 0.067835 0.000000 -0.016924
# 5 0.007539 0.000917 -0.000566 0.000000 0.034044 0.000000
# 6 0.000000 0.000000 0.000000 -0.016924 0.000000 0.056400
#
#
# Mechanical properties :
#
#
# Convention : Reuss Voigt Hill
#
# Bulk Modulus (GPa) = 38.74473 42.52402 40.63438
# Shear Modulus (GPa) = 21.97114 25.87720 23.92417
#
# Velocity S-wave (km/s) = 3.19653 3.46905 3.33558
# Velocity P-wave (km/s) = 5.62514 5.98513 5.80793
#
# Compressibility (1/GPa) = 0.02580996
#
# Stress axis : x y z
#
# Youngs Moduli (GPa) = 68.31312 62.98641 78.52734
#
# Poissons Ratio (x) = 0.10645 0.23488
# Poissons Ratio (y) = 0.11546 0.31714
# Poissons Ratio (z) = 0.20433 0.25437
#
# Static dielectric constant tensor:
#      x y z
#    x 3.998620 0.000000 0.134320 
#    y 0.000000 3.873970 0.000000 
#    z 0.134320 0.000000 3.840250 
# 
# 
# High freq. dielectric constant tensor:
#      x y z
#    x 1.853600 0.000000 0.015050 
#    y 0.000000 1.823330 0.000000 
#    z 0.015050 0.000000 1.835010 
# 
# From -- ./inp_files/8481.got.cif
#   From: 2010.06.25/outbox.cif.g09.slc.cpg/sg9_5_cif.got.tgz:8481.got - 2010.06.27 21:40:51.
