data_PCOD8055903
_publ_section_title
;
Structure prediction by ZEFSAII (Michael W. Deem and Ramdas Pophale) SiO2 
 PCOD8055903
Probable space group: C C
;
_chemical_formula_sum "Si O2"
_cell_formula_units_Z 32
_cell_length_a 11.705744
_cell_length_b 8.467775
_cell_length_c 14.117135
_cell_angle_alpha 90.000000
_cell_angle_beta 61.835695
_cell_angle_gamma 90.000000
_cell_volume 1233.631179
_symmetry_space_group_name_H-M "C C"
_symmetry_group_IT_number 9
_symmetry_cell_setting 'monoclinic'
loop_
_space_group_symop_operation_xyz
x,y,z
x,-y,1/2+z
1/2+x,1/2+y,z
1/2+x,1/2-y,1/2+z
loop_
_atom_site_type_symbol
_atom_site_label
_atom_site_fract_x
_atom_site_fract_y
_atom_site_fract_z
Si Si1 0.322690 0.257100 0.336130
Si Si2 0.419305 0.085970 0.754344
Si Si3 0.994682 0.129621 0.600360
Si Si4 0.450904 0.554666 0.939470
Si Si5 0.733552 0.571920 0.063084
Si Si6 0.603258 0.709839 0.289811
Si Si7 0.684701 0.233858 0.405021
Si Si8 0.004301 0.526510 0.021842
O O1 0.411945 0.352258 0.227254
O O2 0.336488 0.343980 0.433307
O O3 0.173880 0.261787 0.359355
O O4 0.360530 0.071926 0.324273
O O5 0.543806 0.133681 0.767370
O O6 0.314878 0.230230 0.794688
O O7 0.466403 0.072561 0.629132
O O8 0.026566 0.292463 0.536834
O O9 0.916981 0.012869 0.557893
O O10 0.136671 0.066465 0.571179
O O11 0.485942 0.408624 0.857818
O O12 0.574855 0.664748 0.897778
O O13 0.710035 0.629496 0.179952
O O14 0.881958 0.512108 0.997774
O O15 0.712329 0.719846 0.002828
O O16 0.634689 0.051924 0.425289
#
# Coordination Sequence:
#
# PCOD8055903 Si02
#       8
#     4   4   4   4   4   4   4   4
#     4  11  24  49  74 103 155 200 248 320 380 451
#     4  11  25  47  72 110 149 199 257 307 381 453
#     4  10  24  45  73 109 146 196 254 308 380 457
#     4  11  25  46  73 107 148 196 254 312 378 452
#     4  11  22  45  72 104 154 193 243 317 374 448
#     4  12  23  46  74 105 151 199 246 317 371 450
#     4  11  25  46  76 108 148 198 254 308 384 451
#     4  11  24  48  76 106 153 201 248 321 380 450
#
# _framework density 25.939681
#
# number of rings (size 3 to 8) (size 9 to 14) (size 15 to 20)
#    0.000    1.000    6.250    0.000    3.500    0.000 
#    6.750    5.000    0.000    0.000    0.000    0.000 
#    0.000    0.000    0.000    0.000    0.000    0.000 
#
# Total GULP energy -198395.953849 kJ/mol
# GULP energy per Si atom -12399.747116 kJ/mol
# Density = 2.588064 g / cm^3
# Si number density = 25.939681 Si / 1000 Ang^3
#
#
#
# Elastic Constant Matrix: (Units=GPa)
#
#
# Indices 1 2 3 4 5 6 
#
# 1 169.5664 61.5213 18.7692 0.0000 23.7589 0.0000
# 2 61.5213 117.7829 28.9296 0.0000 12.9918 0.0000
# 3 18.7692 28.9296 64.8901 0.0000 4.8049 0.0000
# 4 0.0000 0.0000 0.0000 31.6546 0.0000 6.0585
# 5 23.7589 12.9918 4.8049 0.0000 34.4275 0.0000
# 6 0.0000 0.0000 0.0000 6.0585 0.0000 47.4933
#
#
#
# Elastic Compliance Matrix: (Units=1/GPa)
#
#
# Indices 1 2 3 4 5 6 
#
# 1 0.007778 -0.003530 -0.000381 0.000000 -0.003983 0.000000
# 2 -0.003530 0.011461 -0.003990 0.000000 -0.001332 0.000000
# 3 -0.000381 -0.003990 0.017348 0.000000 -0.000652 0.000000
# 4 0.000000 0.000000 0.000000 0.032382 0.000000 -0.004131
# 5 -0.003983 -0.001332 -0.000652 0.000000 0.032389 0.000000
# 6 0.000000 0.000000 0.000000 -0.004131 0.000000 0.021583
#
#
# Mechanical properties :
#
#
# Convention : Reuss Voigt Hill
#
# Bulk Modulus (GPa) = 48.11118 63.40887 55.76002
# Shear Modulus (GPa) = 34.32400 38.91636 36.62018
#
# Velocity S-wave (km/s) = 3.64156 3.87753 3.76139
# Velocity P-wave (km/s) = 6.02236 6.67418 6.35664
#
# Compressibility (1/GPa) = 0.02078519
#
# Stress axis : x y z
#
# Youngs Moduli (GPa) = 128.56226 87.25332 57.64340
#
# Poissons Ratio (x) = 0.30800 0.02198
# Poissons Ratio (y) = 0.45381 0.22999
# Poissons Ratio (z) = 0.04901 0.34813
#
# Static dielectric constant tensor:
#      x y z
#    x 4.782320 0.000000 0.131400 
#    y 0.000000 4.786850 0.000000 
#    z 0.131400 0.000000 4.729140 
# 
# 
# High freq. dielectric constant tensor:
#      x y z
#    x 2.049270 0.000000 0.010390 
#    y 0.000000 2.042050 0.000000 
#    z 0.010390 0.000000 2.036830 
# 
# From -- ./inp_files/24351.got.cif
#   From: 2010.06.25/outbox.cif.g09.slc.cpg/sg9_13_cif.got.tgz:24351.got - 2010.06.27 21:40:51.
