data_PCOD8055534
_publ_section_title
;
Structure prediction by ZEFSAII (Michael W. Deem and Ramdas Pophale) SiO2 
 PCOD8055534
Probable space group: C C
;
_chemical_formula_sum "Si O2"
_cell_formula_units_Z 32
_cell_length_a 13.986510
_cell_length_b 10.381421
_cell_length_c 14.816885
_cell_angle_alpha 90.000000
_cell_angle_beta 136.636361
_cell_angle_gamma 90.000000
_cell_volume 1477.214261
_symmetry_space_group_name_H-M "C C"
_symmetry_group_IT_number 9
_symmetry_cell_setting 'monoclinic'
loop_
_space_group_symop_operation_xyz
x,y,z
x,-y,1/2+z
1/2+x,1/2+y,z
1/2+x,1/2-y,1/2+z
loop_
_atom_site_type_symbol
_atom_site_label
_atom_site_fract_x
_atom_site_fract_y
_atom_site_fract_z
Si Si1 0.726720 0.121885 0.140160
Si Si2 0.769951 0.949652 0.866827
Si Si3 0.752520 0.654583 0.535146
Si Si4 0.088765 0.632141 0.495632
Si Si5 0.974744 0.451667 0.736773
Si Si6 0.872916 0.801053 0.103128
Si Si7 0.939676 0.815475 0.534046
Si Si8 0.016996 0.041415 0.255720
O O1 0.749934 0.131621 0.262502
O O2 0.678299 0.256550 0.060927
O O3 0.869927 0.091372 0.189382
O O4 0.610452 0.013373 0.044932
O O5 0.625726 0.003003 0.810140
O O6 0.839522 0.847424 0.980370
O O7 0.868261 0.074692 0.922356
O O8 0.869123 0.570493 0.666153
O O9 0.818366 0.736685 0.499891
O O10 0.636831 0.563125 0.411003
O O11 0.236222 0.693813 0.571402
O O12 0.982449 0.620152 0.338900
O O13 0.026466 0.719773 0.531338
O O14 0.923870 0.345215 0.630260
O O15 0.999734 0.888074 0.229592
O O16 0.042127 0.882977 0.678095
#
# Coordination Sequence:
#
# PCOD8055534 Si02
#       8
#     4   4   4   4   4   4   4   4
#     4  10  23  40  66  92 131 171 209 281 326 387
#     4  10  23  44  66  95 129 173 220 272 338 385
#     4  11  24  39  67  98 131 178 215 273 331 402
#     4  10  23  41  67  94 127 168 225 271 329 386
#     4  11  24  41  66  94 136 170 217 273 333 393
#     4   9  22  43  65  93 130 173 210 282 327 385
#     4  10  23  41  70  94 126 175 223 275 321 405
#     4   9  22  41  65  94 128 168 225 265 329 389
#
# _framework density 21.662393999999999
#
# number of rings (size 3 to 8) (size 9 to 14) (size 15 to 20)
#    0.000    2.000    0.000    3.000   15.750    1.000 
#    2.250    2.500    0.000    0.000    0.000    0.000 
#    0.000    0.000    0.000    0.000    0.000    0.000 
#
# Total GULP energy -198405.893086 kJ/mol
# GULP energy per Si atom -12400.368318 kJ/mol
# Density = 2.161309 g / cm^3
# Si number density = 21.662394 Si / 1000 Ang^3
#
#
#
# Elastic Constant Matrix: (Units=GPa)
#
#
# Indices 1 2 3 4 5 6 
#
# 1 83.2268 44.8832 37.6142 0.0000 -20.1146 0.0000
# 2 44.8832 100.0412 43.8229 0.0000 -3.6550 0.0000
# 3 37.6142 43.8229 113.5929 0.0000 -6.0924 0.0000
# 4 0.0000 0.0000 0.0000 25.3701 0.0000 7.2411
# 5 -20.1146 -3.6550 -6.0924 0.0000 29.4641 0.0000
# 6 0.0000 0.0000 0.0000 7.2411 0.0000 37.6377
#
#
#
# Elastic Compliance Matrix: (Units=1/GPa)
#
#
# Indices 1 2 3 4 5 6 
#
# 1 0.020403 -0.007260 -0.003293 0.000000 0.012347 0.000000
# 2 -0.007260 0.014621 -0.003443 0.000000 -0.003855 0.000000
# 3 -0.003293 -0.003443 0.011203 0.000000 -0.000359 0.000000
# 4 0.000000 0.000000 0.000000 0.041707 0.000000 -0.008024
# 5 0.012347 -0.003855 -0.000359 0.000000 0.041817 0.000000
# 6 0.000000 0.000000 0.000000 -0.008024 0.000000 0.028113
#
#
# Mechanical properties :
#
#
# Convention : Reuss Voigt Hill
#
# Bulk Modulus (GPa) = 54.84278 61.05573 57.94925
# Shear Modulus (GPa) = 26.05073 29.86375 27.95724
#
# Velocity S-wave (km/s) = 3.47158 3.71698 3.59637
# Velocity P-wave (km/s) = 6.43748 6.83136 6.63735
#
# Compressibility (1/GPa) = 0.01823394
#
# Stress axis : x y z
#
# Youngs Moduli (GPa) = 49.01220 68.39675 89.26299
#
# Poissons Ratio (x) = 0.49657 0.29394
# Poissons Ratio (y) = 0.35584 0.30734
# Poissons Ratio (z) = 0.16140 0.23550
#
# Static dielectric constant tensor:
#      x y z
#    x 3.729720 0.000000 -0.154320 
#    y 0.000000 4.029780 0.000000 
#    z -0.154320 0.000000 4.112860 
# 
# 
# High freq. dielectric constant tensor:
#      x y z
#    x 1.832660 0.000000 -0.008660 
#    y 0.000000 1.854720 0.000000 
#    z -0.008660 0.000000 1.858150 
# 
# From -- ./inp_files/25859.got.cif
#   From: 2010.06.25/outbox.cif.g09.slc.cpg/sg9_13_cif.got.tgz:25859.got - 2010.06.27 21:40:51.
