data_PCOD8055014
_publ_section_title
;
Structure prediction by ZEFSAII (Michael W. Deem and Ramdas Pophale) SiO2 
 PCOD8055014
Probable space group: C C
;
_chemical_formula_sum "Si O2"
_cell_formula_units_Z 28
_cell_length_a 5.476710
_cell_length_b 30.191941
_cell_length_c 6.069464
_cell_angle_alpha 90.000000
_cell_angle_beta 76.105060
_cell_angle_gamma 90.000000
_cell_volume 974.233395
_symmetry_space_group_name_H-M "C C"
_symmetry_group_IT_number 9
_symmetry_cell_setting 'monoclinic'
loop_
_space_group_symop_operation_xyz
x,y,z
x,-y,1/2+z
1/2+x,1/2+y,z
1/2+x,1/2-y,1/2+z
loop_
_atom_site_type_symbol
_atom_site_label
_atom_site_fract_x
_atom_site_fract_y
_atom_site_fract_z
Si Si1 0.502640 0.033942 0.322680
Si Si2 0.500379 0.430931 0.814931
Si Si3 0.484325 0.196729 0.393809
Si Si4 0.987950 0.830896 0.876554
Si Si5 0.608379 0.937613 0.242967
Si Si6 0.570604 0.840682 0.399500
Si Si7 0.572547 0.298031 0.386670
O O1 0.780114 0.053679 0.185580
O O2 0.428865 0.059252 0.565216
O O3 0.262120 0.042535 0.215528
O O4 0.552830 0.982780 0.393661
O O5 0.559210 0.379218 0.774557
O O6 0.395137 0.438235 0.087170
O O7 0.490629 0.169582 0.165486
O O8 0.183094 0.189810 0.519030
O O9 0.553450 0.246769 0.326697
O O10 0.689430 0.172315 0.513685
O O11 0.000043 0.799308 0.660611
O O12 0.540279 0.893707 0.389772
O O13 0.365126 0.814495 0.288800
O O14 0.863416 0.826831 0.295972
#
# Coordination Sequence:
#
# PCOD8055014 Si02
#       7
#     4   4   4   4   4   4   4
#     4  10  25  42  71  96 137 171 219 277 327 408
#     4  10  24  44  65 102 131 171 224 268 339 391
#     4  10  21  42  64  98 126 177 218 272 328 389
#     4  10  21  42  65  94 130 173 217 278 321 394
#     4  10  26  45  68 101 134 173 225 269 340 393
#     4  10  23  42  66  95 132 172 216 280 322 396
#     4  10  22  41  65  94 130 173 223 268 333 385
#
# _framework density 28.740546999999999
#
# number of rings (size 3 to 8) (size 9 to 14) (size 15 to 20)
#    0.857    1.143    0.000    1.714    4.000    4.571 
#   15.429    0.000    0.000    0.000    0.000    0.000 
#    0.000    0.000    0.000    0.000    0.000    0.000 
#
# Total GULP energy -173548.218864 kJ/mol
# GULP energy per Si atom -12396.301347 kJ/mol
# Density = 2.867513 g / cm^3
# Si number density = 28.740547 Si / 1000 Ang^3
#
#
#
# Elastic Constant Matrix: (Units=GPa)
#
#
# Indices 1 2 3 4 5 6 
#
# 1 294.2301 83.2019 54.9620 0.0000 20.1631 0.0000
# 2 83.2019 176.4607 2.5036 0.0000 3.1431 0.0000
# 3 54.9620 2.5036 73.5629 0.0000 4.6640 0.0000
# 4 0.0000 0.0000 0.0000 39.9668 0.0000 3.3698
# 5 20.1631 3.1431 4.6640 0.0000 48.4355 0.0000
# 6 0.0000 0.0000 0.0000 3.3698 0.0000 47.6094
#
#
#
# Elastic Compliance Matrix: (Units=1/GPa)
#
#
# Indices 1 2 3 4 5 6 
#
# 1 0.004744 -0.002162 -0.003375 0.000000 -0.001510 0.000000
# 2 -0.002162 0.006661 0.001367 0.000000 0.000336 0.000000
# 3 -0.003375 0.001367 0.016084 0.000000 -0.000232 0.000000
# 4 0.000000 0.000000 0.000000 0.025171 0.000000 -0.001782
# 5 -0.001510 0.000336 -0.000232 0.000000 0.021275 0.000000
# 6 0.000000 0.000000 0.000000 -0.001782 0.000000 0.021130
#
#
# Mechanical properties :
#
#
# Convention : Reuss Voigt Hill
#
# Bulk Modulus (GPa) = 52.22193 91.73208 71.97700
# Shear Modulus (GPa) = 45.54240 54.10809 49.82525
#
# Velocity S-wave (km/s) = 3.98503 4.34365 4.16820
# Velocity P-wave (km/s) = 6.27563 7.55930 6.94717
#
# Compressibility (1/GPa) = 0.01914905
#
# Stress axis : x y z
#
# Youngs Moduli (GPa) = 210.79239 150.12741 62.17459
#
# Poissons Ratio (x) = 0.32458 0.20985
# Poissons Ratio (y) = 0.45574 -0.08501
# Poissons Ratio (z) = 0.71146 -0.20528
#
# Static dielectric constant tensor:
#      x y z
#    x 6.286630 0.000000 -0.060740 
#    y 0.000000 4.799920 0.000000 
#    z -0.060740 0.000000 5.255150 
# 
# 
# High freq. dielectric constant tensor:
#      x y z
#    x 2.205840 0.000000 -0.009760 
#    y 0.000000 2.149830 0.000000 
#    z -0.009760 0.000000 2.214740 
# 
# From -- ./inp_files/4156.got.cif
#   From: 2010.06.25/outbox.cif.g09.slc.cpg/sg9_3_cif.got.tgz:4156.got - 2010.06.27 21:40:51.
