data_PCOD8055792
_publ_section_title
;
Structure prediction by ZEFSAII (Michael W. Deem and Ramdas Pophale) SiO2 
 PCOD8055792
Probable space group: C C
;
_chemical_formula_sum "Si O2"
_cell_formula_units_Z 28
_cell_length_a 20.733743
_cell_length_b 5.107269
_cell_length_c 12.626767
_cell_angle_alpha 90.000000
_cell_angle_beta 70.085999
_cell_angle_gamma 90.000000
_cell_volume 1257.132723
_symmetry_space_group_name_H-M "C C"
_symmetry_group_IT_number 9
_symmetry_cell_setting 'monoclinic'
loop_
_space_group_symop_operation_xyz
x,y,z
x,-y,1/2+z
1/2+x,1/2+y,z
1/2+x,1/2-y,1/2+z
loop_
_atom_site_type_symbol
_atom_site_label
_atom_site_fract_x
_atom_site_fract_y
_atom_site_fract_z
Si Si1 0.906770 0.695591 0.450030
Si Si2 0.158256 0.856400 0.156586
Si Si3 0.715947 0.677450 0.845428
Si Si4 0.799955 0.172369 0.835084
Si Si5 0.134414 0.359036 0.066170
Si Si6 0.912189 0.196020 0.592690
Si Si7 0.516527 0.837951 0.709486
O O1 0.838238 0.752416 0.421965
O O2 0.896268 0.456599 0.535360
O O3 0.965495 0.608082 0.334493
O O4 0.924809 0.953139 0.507305
O O5 0.203533 0.770489 0.229861
O O6 0.174143 0.638656 0.056624
O O7 0.075618 0.854137 0.221625
O O8 0.176172 0.151703 0.115437
O O9 0.739579 0.381744 0.851201
O O10 0.771350 0.878546 0.861774
O O11 0.642754 0.743160 0.943315
O O12 0.848492 0.159987 0.705935
O O13 0.054757 0.394223 0.146490
O O14 0.980000 0.218582 0.626783
#
# Coordination Sequence:
#
# PCOD8055792 Si02
#       7
#     4   4   4   4   4   4   4
#     4  11  25  44  70  96 129 177 214 281 332 377
#     4  10  24  40  64  97 132 168 215 265 321 398
#     4  12  24  43  70  93 136 178 212 272 334 380
#     4  11  26  44  64 101 131 167 236 265 312 412
#     4  10  24  42  62  98 134 166 216 265 321 392
#     4  11  25  43  71  93 132 176 215 279 333 374
#     4   9  26  42  67 100 132 160 232 263 323 407
#
# _framework density 22.272908000000001
#
# number of rings (size 3 to 8) (size 9 to 14) (size 15 to 20)
#    0.857    0.571    0.000    3.429    6.000    9.143 
#    0.000    0.000    0.000    0.000    0.000    0.000 
#    0.000    0.000    0.000    0.000    0.000    0.000 
#
# Total GULP energy -173481.333875 kJ/mol
# GULP energy per Si atom -12391.523848 kJ/mol
# Density = 2.222221 g / cm^3
# Si number density = 22.272908 Si / 1000 Ang^3
#
#
#
# Elastic Constant Matrix: (Units=GPa)
#
#
# Indices 1 2 3 4 5 6 
#
# 1 69.2142 20.0573 20.5655 0.0000 14.3853 0.0000
# 2 20.0573 111.6678 23.0344 0.0000 -4.3483 0.0000
# 3 20.5655 23.0344 85.6542 0.0000 5.1767 0.0000
# 4 0.0000 0.0000 0.0000 35.5952 0.0000 3.2882
# 5 14.3853 -4.3483 5.1767 0.0000 30.3391 0.0000
# 6 0.0000 0.0000 0.0000 3.2882 0.0000 31.2157
#
#
#
# Elastic Compliance Matrix: (Units=1/GPa)
#
#
# Indices 1 2 3 4 5 6 
#
# 1 0.017940 -0.002929 -0.003011 0.000000 -0.008412 0.000000
# 2 -0.002929 0.010059 -0.002196 0.000000 0.003205 0.000000
# 3 -0.003011 -0.002196 0.013056 0.000000 -0.001115 0.000000
# 4 0.000000 0.000000 0.000000 0.028370 0.000000 -0.002988
# 5 -0.008412 0.003205 -0.001115 0.000000 0.037599 0.000000
# 6 0.000000 0.000000 0.000000 -0.002988 0.000000 0.032350
#
#
# Mechanical properties :
#
#
# Convention : Reuss Voigt Hill
#
# Bulk Modulus (GPa) = 40.35011 43.76117 42.05564
# Shear Modulus (GPa) = 30.50552 32.95527 31.73040
#
# Velocity S-wave (km/s) = 3.70486 3.85075 3.77851
# Velocity P-wave (km/s) = 6.03795 6.28183 6.16110
#
# Compressibility (1/GPa) = 0.02478308
#
# Stress axis : x y z
#
# Youngs Moduli (GPa) = 55.74251 99.41489 76.59509
#
# Poissons Ratio (x) = 0.29115 0.23065
# Poissons Ratio (y) = 0.16325 0.16817
# Poissons Ratio (z) = 0.16786 0.21827
#
# Static dielectric constant tensor:
#      x y z
#    x 3.915260 0.000000 -0.071690 
#    y 0.000000 3.973800 0.000000 
#    z -0.071690 0.000000 4.140740 
# 
# 
# High freq. dielectric constant tensor:
#      x y z
#    x 1.867750 0.000000 -0.000460 
#    y 0.000000 1.884930 0.000000 
#    z -0.000460 0.000000 1.887540 
# 
# From -- ./inp_files/19559.got.cif
#   From: 2010.06.25/outbox.cif.g09.slc.cpg/sg9_10_cif.got.tgz:19559.got - 2010.06.27 21:40:51.
