data_PCOD8055353
_publ_section_title
;
Structure prediction by ZEFSAII (Michael W. Deem and Ramdas Pophale) SiO2 
 PCOD8055353
Probable space group: C C
;
_chemical_formula_sum "Si O2"
_cell_formula_units_Z 28
_cell_length_a 5.084162
_cell_length_b 18.073692
_cell_length_c 14.774391
_cell_angle_alpha 90.000000
_cell_angle_beta 73.426494
_cell_angle_gamma 90.000000
_cell_volume 1301.209967
_symmetry_space_group_name_H-M "C C"
_symmetry_group_IT_number 9
_symmetry_cell_setting 'monoclinic'
loop_
_space_group_symop_operation_xyz
x,y,z
x,-y,1/2+z
1/2+x,1/2+y,z
1/2+x,1/2-y,1/2+z
loop_
_atom_site_type_symbol
_atom_site_label
_atom_site_fract_x
_atom_site_fract_y
_atom_site_fract_z
Si Si1 0.298460 0.990917 0.720840
Si Si2 0.814736 0.345385 0.400077
Si Si3 0.682725 0.523625 0.031943
Si Si4 0.856411 0.822498 0.941849
Si Si5 0.920330 0.110668 0.792765
Si Si6 0.254149 0.406597 0.121136
Si Si7 0.421048 0.095021 0.381996
O O1 0.277342 0.954288 0.624063
O O2 0.434750 0.934630 0.777852
O O3 0.473031 0.066551 0.694196
O O4 0.009994 0.022867 0.790220
O O5 0.642499 0.399570 0.482942
O O6 0.846205 0.265251 0.439536
O O7 0.636835 0.338394 0.325665
O O8 0.114550 0.380782 0.360154
O O9 0.397321 0.479411 0.064341
O O10 0.898595 0.470837 0.957930
O O11 0.701293 0.860019 0.872112
O O12 0.170019 0.847952 0.914788
O O13 0.700534 0.846123 0.049238
O O14 0.932678 0.131102 0.684285
#
# Coordination Sequence:
#
# PCOD8055353 Si02
#       7
#     4   4   4   4   4   4   4
#     4  11  22  40  72 104 127 171 236 279 327 383
#     4  12  25  45  66  97 137 178 216 271 340 405
#     4  10  23  38  71 100 124 173 225 276 325 394
#     4  11  26  45  64  97 140 175 213 270 348 391
#     4  11  23  41  70  95 128 177 223 269 329 394
#     4  10  22  42  70 100 128 171 222 279 324 393
#     4  11  23  43  69  93 134 175 221 276 323 400
#
# _framework density 21.518433000000002
#
# number of rings (size 3 to 8) (size 9 to 14) (size 15 to 20)
#    0.000    1.143    4.286    0.857    8.000    0.000 
#    5.143    0.000    0.000    0.000    0.000    0.000 
#    0.000    0.000    0.000    0.000    0.000    0.000 
#
# Total GULP energy -173571.690255 kJ/mol
# GULP energy per Si atom -12397.977875 kJ/mol
# Density = 2.146946 g / cm^3
# Si number density = 21.518433 Si / 1000 Ang^3
#
#
#
# Elastic Constant Matrix: (Units=GPa)
#
#
# Indices 1 2 3 4 5 6 
#
# 1 97.3839 30.0980 37.0335 0.0000 17.0730 0.0000
# 2 30.0980 120.9831 67.8332 0.0000 16.4719 0.0000
# 3 37.0335 67.8332 112.3554 0.0000 18.6224 0.0000
# 4 0.0000 0.0000 0.0000 22.1614 0.0000 5.1932
# 5 17.0730 16.4719 18.6224 0.0000 33.7113 0.0000
# 6 0.0000 0.0000 0.0000 5.1932 0.0000 28.2522
#
#
#
# Elastic Compliance Matrix: (Units=1/GPa)
#
#
# Indices 1 2 3 4 5 6 
#
# 1 0.012371 -0.000918 -0.002817 0.000000 -0.004260 0.000000
# 2 -0.000918 0.012704 -0.007062 0.000000 -0.001841 0.000000
# 3 -0.002817 -0.007062 0.014623 0.000000 -0.003200 0.000000
# 4 0.000000 0.000000 0.000000 0.047155 0.000000 -0.008668
# 5 -0.004260 -0.001841 -0.003200 0.000000 0.034489 0.000000
# 6 0.000000 0.000000 0.000000 -0.008668 0.000000 0.036989
#
#
# Mechanical properties :
#
#
# Convention : Reuss Voigt Hill
#
# Bulk Modulus (GPa) = 55.23881 66.73910 60.98896
# Shear Modulus (GPa) = 26.88749 29.87547 28.38148
#
# Velocity S-wave (km/s) = 3.53868 3.73012 3.63566
# Velocity P-wave (km/s) = 6.51326 7.04513 6.78441
#
# Compressibility (1/GPa) = 0.01810321
#
# Stress axis : x y z
#
# Youngs Moduli (GPa) = 80.83710 78.71244 68.38463
#
# Poissons Ratio (x) = 0.07226 0.19265
# Poissons Ratio (y) = 0.07421 0.48296
# Poissons Ratio (z) = 0.22773 0.55590
#
# Static dielectric constant tensor:
#      x y z
#    x 4.042510 0.000000 0.188170 
#    y 0.000000 3.519010 0.000000 
#    z 0.188170 0.000000 4.015140 
# 
# 
# High freq. dielectric constant tensor:
#      x y z
#    x 1.858670 0.000000 0.013410 
#    y 0.000000 1.806160 0.000000 
#    z 0.013410 0.000000 1.850230 
# 
# From -- ./inp_files/21757.got.cif
#   From: 2010.06.25/outbox.cif.g09.slc.cpg/sg9_11_cif.got.tgz:21757.got - 2010.06.27 21:40:51.
