data_PCOD8055356
_publ_section_title
;
Structure prediction by ZEFSAII (Michael W. Deem and Ramdas Pophale) SiO2 
 PCOD8055356
Probable space group: C C
;
_chemical_formula_sum "Si O2"
_cell_formula_units_Z 32
_cell_length_a 8.980011
_cell_length_b 14.451982
_cell_length_c 10.909435
_cell_angle_alpha 90.000000
_cell_angle_beta 90.074302
_cell_angle_gamma 90.000000
_cell_volume 1415.813909
_symmetry_space_group_name_H-M "C C"
_symmetry_group_IT_number 9
_symmetry_cell_setting 'monoclinic'
loop_
_space_group_symop_operation_xyz
x,y,z
x,-y,1/2+z
1/2+x,1/2+y,z
1/2+x,1/2-y,1/2+z
loop_
_atom_site_type_symbol
_atom_site_label
_atom_site_fract_x
_atom_site_fract_y
_atom_site_fract_z
Si Si1 0.554110 0.843631 0.840240
Si Si2 0.414539 0.306985 0.488333
Si Si3 0.893145 0.718359 0.124649
Si Si4 0.597532 0.359112 0.722443
Si Si5 0.126144 0.531152 0.739349
Si Si6 0.947059 0.016179 0.854588
Si Si7 0.778246 0.102081 0.524879
Si Si8 0.087966 0.696714 0.903088
O O1 0.445630 0.798695 0.943638
O O2 0.531898 0.780364 0.719812
O O3 0.521208 0.947412 0.787311
O O4 0.716438 0.844793 0.903152
O O5 0.473644 0.323675 0.625639
O O6 0.496770 0.380685 0.396166
O O7 0.237760 0.324425 0.480903
O O8 0.762900 0.648000 0.165980
O O9 0.831923 0.823102 0.124657
O O10 0.947591 0.688154 0.992019
O O11 0.568852 0.464294 0.769427
O O12 0.590171 0.297833 0.844680
O O13 0.294919 0.515590 0.780015
O O14 0.143602 0.542871 0.590509
O O15 0.058764 0.623774 0.795834
O O16 0.915428 0.961624 0.983007
#
# Coordination Sequence:
#
# PCOD8055356 Si02
#       8
#     4   4   4   4   4   4   4   4
#     4  11  24  39  69  99 135 174 226 275 332 388
#     4  11  23  45  71  99 135 180 229 271 330 409
#     4  12  24  41  67  98 142 169 220 281 338 389
#     4  12  23  46  70  98 140 174 218 288 334 389
#     4  10  22  42  70  96 132 178 234 267 323 411
#     4  10  23  39  72  99 129 180 229 263 337 406
#     4  11  21  43  67 101 132 178 227 275 325 409
#     4  11  24  43  70  98 131 183 223 272 337 401
#
# _framework density 22.601839999999999
#
# number of rings (size 3 to 8) (size 9 to 14) (size 15 to 20)
#    0.000    1.000    5.000    1.500    8.750    0.000 
#    2.250    0.000    0.000    0.000    0.000    0.000 
#    0.000    0.000    0.000    0.000    0.000    0.000 
#
# Total GULP energy -198241.178916 kJ/mol
# GULP energy per Si atom -12390.073682 kJ/mol
# Density = 2.255040 g / cm^3
# Si number density = 22.601840 Si / 1000 Ang^3
#
#
#
# Elastic Constant Matrix: (Units=GPa)
#
#
# Indices 1 2 3 4 5 6 
#
# 1 62.7402 34.9242 41.7719 0.0000 -15.6129 0.0000
# 2 34.9242 96.1392 27.6573 0.0000 -9.6108 0.0000
# 3 41.7719 27.6573 113.8212 0.0000 -6.4009 0.0000
# 4 0.0000 0.0000 0.0000 33.4963 0.0000 -9.1638
# 5 -15.6129 -9.6108 -6.4009 0.0000 53.5061 0.0000
# 6 0.0000 0.0000 0.0000 -9.1638 0.0000 32.7790
#
#
#
# Elastic Compliance Matrix: (Units=1/GPa)
#
#
# Indices 1 2 3 4 5 6 
#
# 1 0.026161 -0.006752 -0.007651 0.000000 0.005506 0.000000
# 2 -0.006752 0.013081 -0.000684 0.000000 0.000298 0.000000
# 3 -0.007651 -0.000684 0.011706 0.000000 -0.000955 0.000000
# 4 0.000000 0.000000 0.000000 0.032327 0.000000 0.009037
# 5 0.005506 0.000298 -0.000955 0.000000 0.020235 0.000000
# 6 0.000000 0.000000 0.000000 0.009037 0.000000 0.033034
#
#
# Mechanical properties :
#
#
# Convention : Reuss Voigt Hill
#
# Bulk Modulus (GPa) = 48.13544 53.48970 50.81257
# Shear Modulus (GPa) = 28.79491 35.17942 31.98717
#
# Velocity S-wave (km/s) = 3.57320 3.94951 3.76606
# Velocity P-wave (km/s) = 6.19411 6.67200 6.43749
#
# Compressibility (1/GPa) = 0.02077471
#
# Stress axis : x y z
#
# Youngs Moduli (GPa) = 38.22453 76.44748 85.42669
#
# Poissons Ratio (x) = 0.51619 0.65358
# Poissons Ratio (y) = 0.25810 0.05841
# Poissons Ratio (z) = 0.29245 0.05227
#
# Static dielectric constant tensor:
#      x y z
#    x 3.793630 0.000000 -0.003310 
#    y 0.000000 4.371010 0.000000 
#    z -0.003310 0.000000 4.349840 
# 
# 
# High freq. dielectric constant tensor:
#      x y z
#    x 1.848700 0.000000 0.002350 
#    y 0.000000 1.892940 0.000000 
#    z 0.002350 0.000000 1.907680 
# 
# From -- ./inp_files/14617.got.cif
#   From: 2010.06.25/outbox.cif.g09.slc.cpg/sg9_8_cif.got.tgz:14617.got - 2010.06.27 21:40:51.
