data_PCOD8055757
_publ_section_title
;
Structure prediction by ZEFSAII (Michael W. Deem and Ramdas Pophale) SiO2 
 PCOD8055757
Probable space group: C C
;
_chemical_formula_sum "Si O2"
_cell_formula_units_Z 28
_cell_length_a 19.485085
_cell_length_b 8.279706
_cell_length_c 13.946464
_cell_angle_alpha 90.000000
_cell_angle_beta 34.475225
_cell_angle_gamma 90.000000
_cell_volume 1273.608630
_symmetry_space_group_name_H-M "C C"
_symmetry_group_IT_number 9
_symmetry_cell_setting 'monoclinic'
loop_
_space_group_symop_operation_xyz
x,y,z
x,-y,1/2+z
1/2+x,1/2+y,z
1/2+x,1/2-y,1/2+z
loop_
_atom_site_type_symbol
_atom_site_label
_atom_site_fract_x
_atom_site_fract_y
_atom_site_fract_z
Si Si1 0.568900 0.306642 0.878140
Si Si2 0.460982 0.053330 0.129600
Si Si3 0.179430 0.678272 0.403120
Si Si4 0.550211 0.224241 0.209784
Si Si5 0.202778 0.423117 0.086940
Si Si6 0.883834 0.064793 0.020616
Si Si7 0.686939 0.537868 0.417957
O O1 0.634203 0.233030 0.709564
O O2 0.668227 0.349756 0.845807
O O3 0.479545 0.169713 0.018605
O O4 0.487363 0.461659 0.952786
O O5 0.472771 0.149017 0.214273
O O6 0.325398 0.990248 0.278372
O O7 0.556677 0.910038 0.014409
O O8 0.233245 0.618236 0.442353
O O9 0.282605 0.635414 0.207825
O O10 0.131464 0.861862 0.462239
O O11 0.451418 0.282624 0.398885
O O12 0.628586 0.090614 0.175113
O O13 0.631955 0.371944 0.074491
O O14 0.325110 0.452868 0.005689
#
# Coordination Sequence:
#
# PCOD8055757 Si02
#       7
#     4   4   4   4   4   4   4
#     4  11  25  42  71 103 139 188 230 284 356 420
#     4  10  23  47  68  99 139 181 231 294 344 419
#     4  11  27  44  73 105 138 189 238 291 358 417
#     4  10  25  44  71 102 136 184 236 286 360 418
#     4  11  25  48  68 103 146 185 236 285 360 419
#     4  12  26  44  72 105 143 178 238 296 349 426
#     4  11  25  45  73 101 143 185 239 290 355 417
#
# _framework density 21.984776
#
# number of rings (size 3 to 8) (size 9 to 14) (size 15 to 20)
#    0.000    1.143    1.429    2.571   14.000    2.286 
#    2.571    0.000    0.000    0.000    0.000    0.000 
#    0.000    0.000    0.000    0.000    0.000    0.000 
#
# Total GULP energy -173627.969640 kJ/mol
# GULP energy per Si atom -12401.997831 kJ/mol
# Density = 2.193474 g / cm^3
# Si number density = 21.984776 Si / 1000 Ang^3
#
#
#
# Elastic Constant Matrix: (Units=GPa)
#
#
# Indices 1 2 3 4 5 6 
#
# 1 80.2272 14.6563 53.2424 0.0001 -3.3690 0.0000
# 2 14.6563 123.4182 58.5214 0.0004 1.6590 0.0002
# 3 53.2424 58.5214 132.6016 -0.0002 7.7147 0.0002
# 4 0.0001 0.0004 -0.0002 36.9313 0.0001 12.0628
# 5 -3.3690 1.6590 7.7147 0.0001 29.0037 -0.0001
# 6 0.0000 0.0002 0.0002 12.0628 -0.0001 15.6020
#
#
#
# Elastic Compliance Matrix: (Units=1/GPa)
#
#
# Indices 1 2 3 4 5 6 
#
# 1 0.017696 0.001677 -0.008084 0.000000 0.004110 0.000000
# 2 0.001677 0.010417 -0.005330 0.000000 0.001017 0.000000
# 3 -0.008084 -0.005330 0.013384 0.000000 -0.004194 0.000000
# 4 0.000000 0.000000 0.000000 0.036226 0.000000 -0.028008
# 5 0.004110 0.001017 -0.004194 0.000000 0.036013 0.000001
# 6 0.000000 0.000000 0.000000 -0.028008 0.000001 0.085749
#
#
# Mechanical properties :
#
#
# Convention : Reuss Voigt Hill
#
# Bulk Modulus (GPa) = 55.48846 65.45414 60.47130
# Shear Modulus (GPa) = 21.83721 30.29586 26.06653
#
# Velocity S-wave (km/s) = 3.15507 3.71622 3.44708
# Velocity P-wave (km/s) = 6.21022 6.94628 6.58854
#
# Compressibility (1/GPa) = 0.01802176
#
# Stress axis : x y z
#
# Youngs Moduli (GPa) = 56.50960 95.99741 74.71796
#
# Poissons Ratio (x) = -0.16096 0.60406
# Poissons Ratio (y) = -0.09475 0.39823
# Poissons Ratio (z) = 0.45685 0.51164
#
# Static dielectric constant tensor:
#      x y z
#    x 4.038390 0.000000 0.111370 
#    y 0.000000 4.054750 0.000000 
#    z 0.111370 0.000000 3.848810 
# 
# 
# High freq. dielectric constant tensor:
#      x y z
#    x 1.876140 0.000000 0.004660 
#    y 0.000000 1.877620 0.000000 
#    z 0.004660 0.000000 1.861780 
# 
# From -- ./inp_files/19981.got.cif
#   From: 2010.06.25/outbox.cif.g09.slc.cpg/sg9_10_cif.got.tgz:19981.got - 2010.06.27 21:40:51.
