data_PCOD8055971
_publ_section_title
;
Structure prediction by ZEFSAII (Michael W. Deem and Ramdas Pophale) SiO2 
 PCOD8055971
Probable space group: C C
;
_chemical_formula_sum "Si O2"
_cell_formula_units_Z 32
_cell_length_a 13.585082
_cell_length_b 19.372764
_cell_length_c 10.571025
_cell_angle_alpha 90.000000
_cell_angle_beta 149.529250
_cell_angle_gamma 90.000000
_cell_volume 1410.792739
_symmetry_space_group_name_H-M "C C"
_symmetry_group_IT_number 9
_symmetry_cell_setting 'monoclinic'
loop_
_space_group_symop_operation_xyz
x,y,z
x,-y,1/2+z
1/2+x,1/2+y,z
1/2+x,1/2-y,1/2+z
loop_
_atom_site_type_symbol
_atom_site_label
_atom_site_fract_x
_atom_site_fract_y
_atom_site_fract_z
Si Si1 0.786610 0.111373 0.041070
Si Si2 0.536556 0.165728 0.545023
Si Si3 0.046501 0.006497 0.767108
Si Si4 0.686357 0.566485 0.179954
Si Si5 0.565201 0.161516 0.011709
Si Si6 0.124047 0.188825 0.543544
Si Si7 0.903543 0.188925 0.823503
Si Si8 0.912518 0.843308 0.058337
O O1 0.994570 0.144918 0.305368
O O2 0.677384 0.159821 0.820986
O O3 0.646640 0.101871 0.008299
O O4 0.845145 0.036240 0.053866
O O5 0.394782 0.100471 0.384493
O O6 0.679041 0.164944 0.581813
O O7 0.423294 0.238853 0.421097
O O8 0.988860 0.079919 0.650954
O O9 0.188783 0.973839 0.817213
O O10 0.142722 0.014862 0.013662
O O11 0.532336 0.628217 0.026066
O O12 0.336864 0.154579 0.781536
O O13 0.629406 0.231415 0.007165
O O14 0.682209 0.156722 0.273080
O O15 0.033827 0.194146 0.583693
O O16 0.955716 0.198714 0.734083
#
# Coordination Sequence:
#
# PCOD8055971 Si02
#       8
#     4   4   4   4   4   4   4   4
#     4  11  26  44  69 101 143 182 231 293 345 425
#     4  12  26  44  72 106 139 185 235 292 365 419
#     4  11  25  53  68  99 151 188 246 285 349 426
#     4  11  25  49  73 102 143 194 235 301 350 426
#     4  11  23  41  72 106 138 177 230 293 362 419
#     4  11  23  43  69 108 139 176 230 294 365 417
#     4  11  25  43  72 106 145 178 235 299 362 425
#     4  10  25  45  69 100 144 188 226 297 346 427
#
# _framework density 22.682283000000002
#
# number of rings (size 3 to 8) (size 9 to 14) (size 15 to 20)
#    0.000    1.000    5.000    1.500    5.250    2.000 
#    9.000    0.000    0.000    0.000    0.000    0.000 
#    0.000    0.000    0.000    0.000    0.000    0.000 
#
# Total GULP energy -198374.583212 kJ/mol
# GULP energy per Si atom -12398.411451 kJ/mol
# Density = 2.263066 g / cm^3
# Si number density = 22.682283 Si / 1000 Ang^3
#
#
#
# Elastic Constant Matrix: (Units=GPa)
#
#
# Indices 1 2 3 4 5 6 
#
# 1 107.7316 42.8955 59.8335 0.0000 3.5678 0.0000
# 2 42.8955 78.4170 34.1109 0.0000 -8.7105 0.0000
# 3 59.8335 34.1109 124.8049 0.0000 14.5233 0.0000
# 4 0.0000 0.0000 0.0000 34.8891 0.0000 2.7551
# 5 3.5678 -8.7105 14.5233 0.0000 42.9729 0.0000
# 6 0.0000 0.0000 0.0000 2.7551 0.0000 30.3658
#
#
#
# Elastic Compliance Matrix: (Units=1/GPa)
#
#
# Indices 1 2 3 4 5 6 
#
# 1 0.014536 -0.005685 -0.005351 0.000000 -0.000551 0.000000
# 2 -0.005685 0.017561 -0.002647 0.000000 0.004926 0.000000
# 3 -0.005351 -0.002647 0.011775 0.000000 -0.004072 0.000000
# 4 0.000000 0.000000 0.000000 0.028869 0.000000 -0.002619
# 5 -0.000551 0.004926 -0.004072 0.000000 0.025691 0.000000
# 6 0.000000 0.000000 0.000000 -0.002619 0.000000 0.033169
#
#
# Mechanical properties :
#
#
# Convention : Reuss Voigt Hill
#
# Bulk Modulus (GPa) = 60.58586 64.95928 62.77257
# Shear Modulus (GPa) = 30.40060 33.25312 31.82686
#
# Velocity S-wave (km/s) = 3.66495 3.83304 3.74994
# Velocity P-wave (km/s) = 6.68415 6.94914 6.81793
#
# Compressibility (1/GPa) = 0.01650550
#
# Stress axis : x y z
#
# Youngs Moduli (GPa) = 68.79441 56.94437 84.92380
#
# Poissons Ratio (x) = 0.32373 0.45442
# Poissons Ratio (y) = 0.39110 0.22483
# Poissons Ratio (z) = 0.36811 0.15076
#
# Static dielectric constant tensor:
#      x y z
#    x 4.156870 0.000000 -0.021430 
#    y 0.000000 3.988640 0.000000 
#    z -0.021430 0.000000 4.110970 
# 
# 
# High freq. dielectric constant tensor:
#      x y z
#    x 1.900790 0.000000 0.000940 
#    y 0.000000 1.890490 0.000000 
#    z 0.000940 0.000000 1.894730 
# 
# From -- ./inp_files/18577.got.cif
#   From: 2010.06.25/outbox.cif.g09.slc.cpg/sg9_10_cif.got.tgz:18577.got - 2010.06.27 21:40:51.
