data_PCOD8055036
_publ_section_title
;
Structure prediction by ZEFSAII (Michael W. Deem and Ramdas Pophale) SiO2 
 PCOD8055036
Probable space group: C C
;
_chemical_formula_sum "Si O2"
_cell_formula_units_Z 32
_cell_length_a 13.606276
_cell_length_b 4.898849
_cell_length_c 22.331857
_cell_angle_alpha 90.000000
_cell_angle_beta 73.812840
_cell_angle_gamma 90.000000
_cell_volume 1429.520885
_symmetry_space_group_name_H-M "C C"
_symmetry_group_IT_number 9
_symmetry_cell_setting 'monoclinic'
loop_
_space_group_symop_operation_xyz
x,y,z
x,-y,1/2+z
1/2+x,1/2+y,z
1/2+x,1/2-y,1/2+z
loop_
_atom_site_type_symbol
_atom_site_label
_atom_site_fract_x
_atom_site_fract_y
_atom_site_fract_z
Si Si1 0.584180 0.351152 0.363670
Si Si2 0.213285 0.390449 0.360297
Si Si3 0.333437 0.169386 0.611854
Si Si4 0.908475 0.678715 0.471339
Si Si5 0.204012 0.683377 0.607626
Si Si6 0.779068 0.180951 0.467401
Si Si7 0.941369 0.174524 0.778762
Si Si8 0.482390 0.172176 0.695157
O O1 0.644563 0.617403 0.377218
O O2 0.524060 0.191525 0.427453
O O3 0.505835 0.430343 0.324630
O O4 0.661271 0.117158 0.325602
O O5 0.218846 0.558205 0.421646
O O6 0.322768 0.322113 0.315377
O O7 0.404034 0.096416 0.542015
O O8 0.289679 0.473630 0.616471
O O9 0.398086 0.112036 0.659669
O O10 0.234906 0.974152 0.629736
O O11 0.833916 0.474926 0.445530
O O12 0.871164 0.986066 0.470151
O O13 0.199823 0.701259 0.536085
O O14 0.092490 0.609022 0.649237
O O15 0.967234 0.481694 0.755475
O O16 0.968454 0.982496 0.718384
#
# Coordination Sequence:
#
# PCOD8055036 Si02
#       8
#     4   4   4   4   4   4   4   4
#     4  12  26  43  69 101 131 182 224 275 339 400
#     4  12  26  43  69 101 131 182 224 275 339 400
#     4  10  23  43  67 100 132 170 218 276 333 393
#     4  10  21  42  69  98 140 170 213 285 340 398
#     4  10  23  43  67 100 132 170 218 276 333 393
#     4  10  21  42  69  98 140 170 213 285 340 398
#     4  12  28  46  64  96 140 172 229 280 325 398
#     4  12  26  44  70  94 130 184 221 272 331 408
#
# _framework density 22.385123
#
# number of rings (size 3 to 8) (size 9 to 14) (size 15 to 20)
#    0.000    1.000    1.250    4.500    3.500    6.000 
#    2.250    0.000    0.000    0.000    0.000    0.000 
#    0.000    0.000    0.000    0.000    0.000    0.000 
#
# Total GULP energy -198417.631118 kJ/mol
# GULP energy per Si atom -12401.101945 kJ/mol
# Density = 2.233417 g / cm^3
# Si number density = 22.385123 Si / 1000 Ang^3
#
#
#
# Elastic Constant Matrix: (Units=GPa)
#
#
# Indices 1 2 3 4 5 6 
#
# 1 106.8091 34.6367 52.5124 -0.0007 -20.6990 -0.0017
# 2 34.6367 110.3775 31.3207 -0.0021 -10.2944 -0.0032
# 3 52.5124 31.3207 91.1380 -0.0002 -16.3369 -0.0007
# 4 -0.0007 -0.0021 -0.0002 31.7470 -0.0004 -2.3886
# 5 -20.6990 -10.2944 -16.3369 -0.0004 26.6852 -0.0007
# 6 -0.0017 -0.0032 -0.0007 -2.3886 -0.0007 37.0194
#
#
#
# Elastic Compliance Matrix: (Units=1/GPa)
#
#
# Indices 1 2 3 4 5 6 
#
# 1 0.014472 -0.002107 -0.006457 0.000000 0.006460 0.000000
# 2 -0.002107 0.010439 -0.002184 0.000001 0.001056 0.000001
# 3 -0.006457 -0.002184 0.016169 0.000000 0.004048 0.000000
# 4 0.000000 0.000001 0.000000 0.031653 0.000001 0.002042
# 5 0.006460 0.001056 0.004048 0.000001 0.045370 0.000001
# 6 0.000000 0.000001 0.000000 0.002042 0.000001 0.027145
#
#
# Mechanical properties :
#
#
# Convention : Reuss Voigt Hill
#
# Bulk Modulus (GPa) = 51.06063 60.58492 55.82277
# Shear Modulus (GPa) = 28.85650 31.74731 30.30191
#
# Velocity S-wave (km/s) = 3.59429 3.77003 3.68321
# Velocity P-wave (km/s) = 6.33126 6.78781 6.56350
#
# Compressibility (1/GPa) = 0.01958456
#
# Stress axis : x y z
#
# Youngs Moduli (GPa) = 69.09927 95.79248 61.84733
#
# Poissons Ratio (x) = 0.20181 0.39932
# Poissons Ratio (y) = 0.14557 0.13510
# Poissons Ratio (z) = 0.44614 0.20926
#
# Static dielectric constant tensor:
#      x y z
#    x 3.935160 0.000010 -0.038310 
#    y 0.000010 4.442140 0.000010 
#    z -0.038310 0.000010 4.055660 
# 
# 
# High freq. dielectric constant tensor:
#      x y z
#    x 1.883070 0.000000 -0.004680 
#    y 0.000000 1.899200 0.000000 
#    z -0.004680 0.000000 1.878230 
# 
# From -- ./inp_files/35199.got.cif
#   From: 2010.06.25/outbox.cif.g09.slc.cpg/sg9_18_cif.got.tgz:35199.got - 2010.06.27 21:40:51.
