data_PCOD8055704
_publ_section_title
;
Structure prediction by ZEFSAII (Michael W. Deem and Ramdas Pophale) SiO2 
 PCOD8055704
Probable space group: C C
;
_chemical_formula_sum "Si O2"
_cell_formula_units_Z 32
_cell_length_a 8.678999
_cell_length_b 10.918086
_cell_length_c 15.999748
_cell_angle_alpha 90.000000
_cell_angle_beta 63.542315
_cell_angle_gamma 90.000000
_cell_volume 1357.313733
_symmetry_space_group_name_H-M "C C"
_symmetry_group_IT_number 9
_symmetry_cell_setting 'monoclinic'
loop_
_space_group_symop_operation_xyz
x,y,z
x,-y,1/2+z
1/2+x,1/2+y,z
1/2+x,1/2-y,1/2+z
loop_
_atom_site_type_symbol
_atom_site_label
_atom_site_fract_x
_atom_site_fract_y
_atom_site_fract_z
Si Si1 0.648430 0.602264 0.971010
Si Si2 0.999861 0.660576 0.428925
Si Si3 0.399119 0.233766 0.272375
Si Si4 0.819060 0.001807 0.609389
Si Si5 0.604452 0.432650 0.829358
Si Si6 0.667078 0.241074 0.070525
Si Si7 0.901577 0.235405 0.498254
Si Si8 0.283761 0.513437 0.809328
O O1 0.573487 0.733597 0.967672
O O2 0.680240 0.534266 0.875239
O O3 0.525784 0.516292 0.056919
O O4 0.813225 0.638528 0.986832
O O5 0.989763 0.686606 0.333364
O O6 0.805670 0.649665 0.514218
O O7 0.134462 0.547852 0.402496
O O8 0.280340 0.131830 0.254424
O O9 0.546727 0.285613 0.175560
O O10 0.267662 0.342121 0.328591
O O11 0.745328 0.892694 0.570365
O O12 0.750234 0.985347 0.719714
O O13 0.780188 0.137970 0.580666
O O14 0.483546 0.483236 0.784862
O O15 0.477240 0.336786 0.902287
O O16 0.554845 0.215267 0.017140
#
# Coordination Sequence:
#
# PCOD8055704 Si02
#       8
#     4   4   4   4   4   4   4   4
#     4  10  23  45  70 101 142 186 240 294 360 432
#     4  11  23  46  72 100 143 194 236 300 368 428
#     4  12  25  46  70 104 148 184 245 303 361 438
#     4  10  24  42  68 101 141 188 238 294 364 428
#     4  11  25  43  69 103 139 191 239 295 362 429
#     4  11  24  46  68 104 149 186 242 305 362 438
#     4  11  22  45  66 100 144 185 232 299 360 431
#     4  12  24  45  71 103 146 188 238 310 357 432
#
# _framework density 23.575977999999999
#
# number of rings (size 3 to 8) (size 9 to 14) (size 15 to 20)
#    0.000    1.000    6.250    0.000    1.750    1.000 
#    2.250    5.000    0.000    0.000    0.000    0.000 
#    0.000    0.000    0.000    0.000    0.000    0.000 
#
# Total GULP energy -198220.397631 kJ/mol
# GULP energy per Si atom -12388.774852 kJ/mol
# Density = 2.352232 g / cm^3
# Si number density = 23.575978 Si / 1000 Ang^3
#
#
#
# Elastic Constant Matrix: (Units=GPa)
#
#
# Indices 1 2 3 4 5 6 
#
# 1 113.4276 31.8384 27.7863 0.0000 -3.6093 0.0000
# 2 31.8384 73.7775 18.1520 0.0000 -10.1868 0.0000
# 3 27.7863 18.1520 95.6239 0.0000 -16.6539 0.0000
# 4 0.0000 0.0000 0.0000 20.1598 0.0000 -4.6515
# 5 -3.6093 -10.1868 -16.6539 0.0000 31.9806 0.0000
# 6 0.0000 0.0000 0.0000 -4.6515 0.0000 33.6285
#
#
#
# Elastic Compliance Matrix: (Units=1/GPa)
#
#
# Indices 1 2 3 4 5 6 
#
# 1 0.010550 -0.004129 -0.002533 0.000000 -0.001444 0.000000
# 2 -0.004129 0.016186 -0.001161 0.000000 0.004085 0.000000
# 3 -0.002533 -0.001161 0.012427 0.000000 0.005816 0.000000
# 4 0.000000 0.000000 0.000000 0.051239 0.000000 0.007087
# 5 -0.001444 0.004085 0.005816 0.000000 0.035436 0.000000
# 6 0.000000 0.000000 0.000000 0.007087 0.000000 0.030717
#
#
# Mechanical properties :
#
#
# Convention : Reuss Voigt Hill
#
# Bulk Modulus (GPa) = 42.52439 48.70917 45.61678
# Shear Modulus (GPa) = 27.77171 30.82396 29.29783
#
# Velocity S-wave (km/s) = 3.43588 3.61976 3.52902
# Velocity P-wave (km/s) = 5.81521 6.17864 5.99968
#
# Compressibility (1/GPa) = 0.02351592
#
# Stress axis : x y z
#
# Youngs Moduli (GPa) = 94.78903 61.78266 80.46976
#
# Poissons Ratio (x) = 0.25509 0.20385
# Poissons Ratio (y) = 0.39136 0.09345
# Poissons Ratio (z) = 0.24012 0.07175
#
# Static dielectric constant tensor:
#      x y z
#    x 4.554200 0.000000 -0.145820 
#    y 0.000000 4.373960 0.000000 
#    z -0.145820 0.000000 4.101800 
# 
# 
# High freq. dielectric constant tensor:
#      x y z
#    x 1.940250 0.000000 0.003110 
#    y 0.000000 1.938750 0.000000 
#    z 0.003110 0.000000 1.917690 
# 
# From -- ./inp_files/29250.got.cif
#   From: 2010.06.25/outbox.cif.g09.slc.cpg/sg9_15_cif.got.tgz:29250.got - 2010.06.27 21:40:51.
