data_PCOD8055837
_publ_section_title
;
Structure prediction by ZEFSAII (Michael W. Deem and Ramdas Pophale) SiO2 
 PCOD8055837
Probable space group: C C
;
_chemical_formula_sum "Si O2"
_cell_formula_units_Z 28
_cell_length_a 16.994593
_cell_length_b 7.701243
_cell_length_c 22.552586
_cell_angle_alpha 90.000000
_cell_angle_beta 21.731725
_cell_angle_gamma 90.000000
_cell_volume 1092.889134
_symmetry_space_group_name_H-M "C C"
_symmetry_group_IT_number 9
_symmetry_cell_setting 'monoclinic'
loop_
_space_group_symop_operation_xyz
x,y,z
x,-y,1/2+z
1/2+x,1/2+y,z
1/2+x,1/2-y,1/2+z
loop_
_atom_site_type_symbol
_atom_site_label
_atom_site_fract_x
_atom_site_fract_y
_atom_site_fract_z
Si Si1 0.922830 0.619064 0.831200
Si Si2 0.309162 0.238554 0.602155
Si Si3 0.620448 0.911416 0.070956
Si Si4 0.209796 0.589904 0.736253
Si Si5 0.864814 0.762432 0.354295
Si Si6 0.111881 0.738590 0.917248
Si Si7 0.708459 0.421875 0.285917
O O1 0.803597 0.433075 0.917073
O O2 0.102990 0.621598 0.653644
O O3 0.031277 0.662403 0.817440
O O4 0.752420 0.770223 0.941607
O O5 0.286761 0.403824 0.661056
O O6 0.527733 0.268781 0.413432
O O7 0.311350 0.077955 0.647575
O O8 0.116653 0.210599 0.690307
O O9 0.383180 0.891706 0.213659
O O10 0.723728 0.100434 0.989273
O O11 0.116349 0.573389 0.869108
O O12 0.402443 0.732824 0.603655
O O13 0.815325 0.776097 0.318543
O O14 0.108199 0.893197 0.871024
#
# Coordination Sequence:
#
# PCOD8055837 Si02
#       7
#     4   4   4   4   4   4   4
#     4  11  26  49  75 117 153 202 263 321 391 471
#     4  10  26  45  74 102 152 193 254 314 383 458
#     4  12  26  48  81 110 160 203 259 326 396 463
#     4  10  24  43  69 105 146 188 245 309 375 456
#     4  11  27  48  76 112 153 203 255 321 389 469
#     4  11  23  44  72 102 148 189 249 306 383 452
#     4  11  24  45  71 108 144 198 253 315 379 465
#
# _framework density 25.620163999999999
#
# number of rings (size 3 to 8) (size 9 to 14) (size 15 to 20)
#    0.000    1.143    1.429    2.571   10.000    4.571 
#    2.571    0.000    0.000    0.000    0.000    0.000 
#    0.000    0.000    0.000    0.000    0.000    0.000 
#
# Total GULP energy -173577.231715 kJ/mol
# GULP energy per Si atom -12398.373694 kJ/mol
# Density = 2.556185 g / cm^3
# Si number density = 25.620164 Si / 1000 Ang^3
#
#
#
# Elastic Constant Matrix: (Units=GPa)
#
#
# Indices 1 2 3 4 5 6 
#
# 1 152.5121 13.7570 37.8525 0.0312 -2.9247 0.0108
# 2 13.7570 84.8498 29.1734 0.0742 9.6486 0.0039
# 3 37.8525 29.1734 122.6517 0.2031 8.5187 0.0012
# 4 0.0312 0.0742 0.2031 28.5725 -0.0139 10.6721
# 5 -2.9247 9.6486 8.5187 -0.0139 47.0192 -0.0023
# 6 0.0108 0.0039 0.0012 10.6721 -0.0023 32.4014
#
#
#
# Elastic Compliance Matrix: (Units=1/GPa)
#
#
# Indices 1 2 3 4 5 6 
#
# 1 0.007156 -0.000529 -0.002148 0.000012 0.000943 -0.000006
# 2 -0.000529 0.013084 -0.002795 -0.000016 -0.002211 0.000004
# 3 -0.002148 -0.002795 0.009571 -0.000068 -0.001294 0.000023
# 4 0.000012 -0.000016 -0.000068 0.039909 0.000027 -0.013145
# 5 0.000943 -0.002211 -0.001294 0.000027 0.022015 -0.000007
# 6 -0.000006 0.000004 0.000023 -0.013145 -0.000007 0.035192
#
#
# Mechanical properties :
#
#
# Convention : Reuss Voigt Hill
#
# Bulk Modulus (GPa) = 53.00487 57.95326 55.47907
# Shear Modulus (GPa) = 34.68373 40.21400 37.44887
#
# Velocity S-wave (km/s) = 3.68335 3.96615 3.82736
# Velocity P-wave (km/s) = 6.23082 6.60629 6.42130
#
# Compressibility (1/GPa) = 0.01886619
#
# Stress axis : x y z
#
# Youngs Moduli (GPa) = 139.74710 76.43031 104.48266
#
# Poissons Ratio (x) = 0.04042 0.22444
# Poissons Ratio (y) = 0.07390 0.29205
# Poissons Ratio (z) = 0.30019 0.21364
#
# Static dielectric constant tensor:
#      x y z
#    x 4.545130 0.000030 0.050590 
#    y 0.000030 4.647610 0.000060 
#    z 0.050590 0.000060 4.722470 
# 
# 
# High freq. dielectric constant tensor:
#      x y z
#    x 2.030330 0.000000 0.004580 
#    y 0.000000 2.027310 0.000000 
#    z 0.004580 0.000000 2.023450 
# 
# From -- ./inp_files/35809.got.cif
#   From: 2010.06.25/outbox.cif.g09.slc.cpg/sg9_18_cif.got.tgz:35809.got - 2010.06.27 21:40:51.
