data_PCOD8055681
_publ_section_title
;
Structure prediction by ZEFSAII (Michael W. Deem and Ramdas Pophale) SiO2 
 PCOD8055681
Probable space group: C C
;
_chemical_formula_sum "Si O2"
_cell_formula_units_Z 28
_cell_length_a 12.020509
_cell_length_b 19.406402
_cell_length_c 5.494000
_cell_angle_alpha 90.000000
_cell_angle_beta 72.887762
_cell_angle_gamma 90.000000
_cell_volume 1224.875197
_symmetry_space_group_name_H-M "C C"
_symmetry_group_IT_number 9
_symmetry_cell_setting 'monoclinic'
loop_
_space_group_symop_operation_xyz
x,y,z
x,-y,1/2+z
1/2+x,1/2+y,z
1/2+x,1/2-y,1/2+z
loop_
_atom_site_type_symbol
_atom_site_label
_atom_site_fract_x
_atom_site_fract_y
_atom_site_fract_z
Si Si1 0.598960 0.957512 0.620440
Si Si2 0.216694 0.836473 0.387330
Si Si3 0.663726 0.805346 0.143527
Si Si4 0.823848 0.251992 0.932604
Si Si5 0.806816 0.882672 0.682583
Si Si6 0.540762 0.540289 0.041882
Si Si7 0.941728 0.347040 0.534766
O O1 0.715448 0.910701 0.539014
O O2 0.485050 0.908907 0.679811
O O3 0.596719 0.003435 0.378876
O O4 0.160431 0.761923 0.477225
O O5 0.116480 0.892256 0.445976
O O6 0.313601 0.863509 0.514594
O O7 0.280717 0.822672 0.089614
O O8 0.715509 0.782612 0.366115
O O9 0.533182 0.833987 0.258965
O O10 0.738086 0.868126 0.978420
O O11 0.929987 0.275239 0.691698
O O12 0.868632 0.190237 0.075450
O O13 0.905335 0.940075 0.647341
O O14 0.568865 0.506762 0.287050
#
# Coordination Sequence:
#
# PCOD8055681 Si02
#       7
#     4   4   4   4   4   4   4
#     4  12  27  45  72 105 147 196 243 302 362 447
#     4  10  27  45  72 110 151 194 255 303 386 454
#     4  10  23  44  74 113 142 188 241 334 380 438
#     4  10  24  42  74 109 141 186 241 324 375 444
#     4  11  25  46  75 110 145 189 258 317 380 432
#     4  12  31  50  77 105 156 213 250 302 364 466
#     4  11  25  44  74 108 148 188 250 306 391 439
#
# _framework density 22.859473000000001
#
# number of rings (size 3 to 8) (size 9 to 14) (size 15 to 20)
#    0.000    1.143    1.429    1.714   18.000    1.143 
#    0.000    0.000    0.000    0.000    0.000    0.000 
#    0.000    0.000    0.000    0.000    0.000    0.000 
#
# Total GULP energy -173528.585079 kJ/mol
# GULP energy per Si atom -12394.898934 kJ/mol
# Density = 2.280744 g / cm^3
# Si number density = 22.859473 Si / 1000 Ang^3
#
#
#
# Elastic Constant Matrix: (Units=GPa)
#
#
# Indices 1 2 3 4 5 6 
#
# 1 83.0520 38.0678 25.8057 0.0000 3.7737 0.0000
# 2 38.0678 82.8144 25.4764 0.0000 8.4347 0.0000
# 3 25.8057 25.4764 100.2948 0.0000 13.4284 0.0000
# 4 0.0000 0.0000 0.0000 47.2036 0.0000 -2.3552
# 5 3.7737 8.4347 13.4284 0.0000 30.6225 0.0000
# 6 0.0000 0.0000 0.0000 -2.3552 0.0000 50.8983
#
#
#
# Elastic Compliance Matrix: (Units=1/GPa)
#
#
# Indices 1 2 3 4 5 6 
#
# 1 0.015799 -0.006585 -0.002522 0.000000 0.000973 0.000000
# 2 -0.006585 0.015996 -0.002005 0.000000 -0.002715 0.000000
# 3 -0.002522 -0.002005 0.011700 0.000000 -0.004268 0.000000
# 4 0.000000 0.000000 0.000000 0.021234 0.000000 0.000983
# 5 0.000973 -0.002715 -0.004268 0.000000 0.035155 0.000000
# 6 0.000000 0.000000 0.000000 0.000983 0.000000 0.019693
#
#
# Mechanical properties :
#
#
# Convention : Reuss Voigt Hill
#
# Bulk Modulus (GPa) = 47.01765 49.42898 48.22332
# Shear Modulus (GPa) = 33.58139 37.53230 35.55684
#
# Velocity S-wave (km/s) = 3.83696 4.05640 3.94820
# Velocity P-wave (km/s) = 6.34369 6.60371 6.47501
#
# Compressibility (1/GPa) = 0.02126861
#
# Stress axis : x y z
#
# Youngs Moduli (GPa) = 63.29630 62.51662 85.46723
#
# Poissons Ratio (x) = 0.41170 0.21559
# Poissons Ratio (y) = 0.41683 0.17138
# Poissons Ratio (z) = 0.15966 0.12536
#
# Static dielectric constant tensor:
#      x y z
#    x 4.019180 0.000000 0.042910 
#    y 0.000000 4.274170 0.000000 
#    z 0.042910 0.000000 4.182770 
# 
# 
# High freq. dielectric constant tensor:
#      x y z
#    x 1.894610 0.000000 0.002280 
#    y 0.000000 1.907650 0.000000 
#    z 0.002280 0.000000 1.911660 
# 
# From -- ./inp_files/1626.got.cif
#   From: 2010.06.25/outbox.cif.g09.slc.cpg/sg9_1_cif.got.tgz:1626.got - 2010.06.27 21:40:51.
