data_PCOD8055991
_publ_section_title
;
Structure prediction by ZEFSAII (Michael W. Deem and Ramdas Pophale) SiO2 
 PCOD8055991
Probable space group: C C
;
_chemical_formula_sum "Si O2"
_cell_formula_units_Z 28
_cell_length_a 11.637185
_cell_length_b 9.253344
_cell_length_c 11.370106
_cell_angle_alpha 90.000000
_cell_angle_beta 81.518350
_cell_angle_gamma 90.000000
_cell_volume 1210.975012
_symmetry_space_group_name_H-M "C C"
_symmetry_group_IT_number 9
_symmetry_cell_setting 'monoclinic'
loop_
_space_group_symop_operation_xyz
x,y,z
x,-y,1/2+z
1/2+x,1/2+y,z
1/2+x,1/2-y,1/2+z
loop_
_atom_site_type_symbol
_atom_site_label
_atom_site_fract_x
_atom_site_fract_y
_atom_site_fract_z
Si Si1 0.084630 0.906275 0.432910
Si Si2 0.378819 0.789786 0.017156
Si Si3 0.982151 0.567496 0.079525
Si Si4 0.274000 0.238189 0.034624
Si Si5 0.761640 0.230762 0.280031
Si Si6 0.644619 0.273377 0.918447
Si Si7 0.156004 0.443127 0.214338
O O1 0.161107 0.866049 0.537325
O O2 0.146202 0.832483 0.309037
O O3 0.954339 0.848388 0.469663
O O4 0.074106 0.077665 0.419622
O O5 0.337564 0.782734 0.159065
O O6 0.456476 0.935029 0.993981
O O7 0.274582 0.804892 0.941609
O O8 0.865970 0.664160 0.109816
O O9 0.028677 0.503034 0.195854
O O10 0.087217 0.665581 0.019415
O O11 0.231460 0.393417 0.089384
O O12 0.331126 0.259540 0.894910
O O13 0.725968 0.064449 0.272782
O O14 0.642344 0.201605 0.791501
#
# Coordination Sequence:
#
# PCOD8055991 Si02
#       7
#     4   4   4   4   4   4   4
#     4  10  25  49  74 115 149 195 262 314 377 462
#     4  12  24  51  79 102 161 201 245 328 382 449
#     4  12  26  47  76 107 153 200 250 313 382 453
#     4  10  25  46  73 111 150 194 261 308 380 453
#     4  10  25  48  77 108 155 195 260 311 381 459
#     4  12  28  46  77 115 149 202 261 309 392 458
#     4  12  25  47  76 110 155 201 251 317 382 452
#
# _framework density 23.121863999999999
#
# number of rings (size 3 to 8) (size 9 to 14) (size 15 to 20)
#    0.857    0.000    4.286    1.714    6.000    2.286 
#    0.000    0.000    0.000    0.000    0.000    0.000 
#    0.000    0.000    0.000    0.000    0.000    0.000 
#
# Total GULP energy -173581.278887 kJ/mol
# GULP energy per Si atom -12398.662778 kJ/mol
# Density = 2.306924 g / cm^3
# Si number density = 23.121864 Si / 1000 Ang^3
#
#
#
# Elastic Constant Matrix: (Units=GPa)
#
#
# Indices 1 2 3 4 5 6 
#
# 1 85.2768 46.2086 14.8573 0.0000 2.9258 0.0000
# 2 46.2086 164.5572 42.0127 0.0000 3.6278 0.0000
# 3 14.8573 42.0127 81.5780 0.0000 -7.4002 0.0000
# 4 0.0000 0.0000 0.0000 37.5107 0.0000 5.3741
# 5 2.9258 3.6278 -7.4002 0.0000 33.8951 0.0000
# 6 0.0000 0.0000 0.0000 5.3741 0.0000 45.3717
#
#
#
# Elastic Compliance Matrix: (Units=1/GPa)
#
#
# Indices 1 2 3 4 5 6 
#
# 1 0.013886 -0.003696 -0.000712 0.000000 -0.000959 0.000000
# 2 -0.003696 0.008063 -0.003600 0.000000 -0.001330 0.000000
# 3 -0.000712 -0.003600 0.014571 0.000000 0.003628 0.000000
# 4 0.000000 0.000000 0.000000 0.027119 0.000000 -0.003212
# 5 -0.000959 -0.001330 0.003628 0.000000 0.030520 0.000000
# 6 0.000000 0.000000 0.000000 -0.003212 0.000000 0.022421
#
#
# Mechanical properties :
#
#
# Convention : Reuss Voigt Hill
#
# Bulk Modulus (GPa) = 48.77278 59.72993 54.25135
# Shear Modulus (GPa) = 35.85955 38.57771 37.21863
#
# Velocity S-wave (km/s) = 3.94241 4.08910 4.01643
# Velocity P-wave (km/s) = 6.47017 6.94140 6.70992
#
# Compressibility (1/GPa) = 0.02050324
#
# Stress axis : x y z
#
# Youngs Moduli (GPa) = 72.01257 124.01833 68.62903
#
# Poissons Ratio (x) = 0.45842 0.04889
# Poissons Ratio (y) = 0.26619 0.24707
# Poissons Ratio (z) = 0.05130 0.44647
#
# Static dielectric constant tensor:
#      x y z
#    x 4.022890 0.000000 0.013770 
#    y 0.000000 4.154820 0.000000 
#    z 0.013770 0.000000 3.908710 
# 
# 
# High freq. dielectric constant tensor:
#      x y z
#    x 1.908630 0.000000 0.006830 
#    y 0.000000 1.927850 0.000000 
#    z 0.006830 0.000000 1.896290 
# 
# From -- ./inp_files/15935.got.cif
#   From: 2010.06.25/outbox.cif.g09.slc.cpg/sg9_8_cif.got.tgz:15935.got - 2010.06.27 21:40:51.
