data_PCOD8055148
_publ_section_title
;
Structure prediction by ZEFSAII (Michael W. Deem and Ramdas Pophale) SiO2 
 PCOD8055148
Probable space group: C C
;
_chemical_formula_sum "Si O2"
_cell_formula_units_Z 24
_cell_length_a 5.417985
_cell_length_b 23.896565
_cell_length_c 8.535996
_cell_angle_alpha 90.000000
_cell_angle_beta 91.625627
_cell_angle_gamma 90.000000
_cell_volume 1104.721107
_symmetry_space_group_name_H-M "C C"
_symmetry_group_IT_number 9
_symmetry_cell_setting 'monoclinic'
loop_
_space_group_symop_operation_xyz
x,y,z
x,-y,1/2+z
1/2+x,1/2+y,z
1/2+x,1/2-y,1/2+z
loop_
_atom_site_type_symbol
_atom_site_label
_atom_site_fract_x
_atom_site_fract_y
_atom_site_fract_z
Si Si1 0.898320 0.865681 0.530870
Si Si2 0.635200 0.039034 0.853714
Si Si3 0.315076 0.978415 0.072369
Si Si4 0.654716 0.754620 0.530928
Si Si5 0.643955 0.269574 0.383107
Si Si6 0.006083 0.051220 0.292264
O O1 0.828070 0.913345 0.404284
O O2 0.672930 0.822114 0.553648
O O3 0.129620 0.831769 0.460123
O O4 0.964689 0.890607 0.702065
O O5 0.509797 0.055029 0.684991
O O6 0.435355 0.032357 0.988544
O O7 0.752809 0.976543 0.847981
O O8 0.191976 0.937304 0.941010
O O9 0.104569 0.003909 0.177072
O O10 0.644790 0.723706 0.696704
O O11 0.399871 0.739793 0.437401
O O12 0.899209 0.734720 0.436778
#
# Coordination Sequence:
#
# PCOD8055148 Si02
#       6
#     4   4   4   4   4   4
#     4  10  24  36  70  87 138 169 222 262 344 378
#     4  11  20  39  56  93 126 174 208 265 309 394
#     4  10  22  32  66  81 140 169 218 254 322 370
#     4  10  23  44  73  97 131 172 224 284 339 394
#     4  10  23  44  73  97 131 172 224 284 339 394
#     4  11  20  39  56  93 126 174 208 265 309 394
#
# _framework density 21.724938000000002
#
# number of rings (size 3 to 8) (size 9 to 14) (size 15 to 20)
#    1.000    0.667    3.333    1.000    2.333    0.000 
#    0.000    6.667    3.667    0.000    0.000    0.000 
#    0.000    0.000    0.000    0.000    0.000    0.000 
#
# Total GULP energy -148718.156533 kJ/mol
# GULP energy per Si atom -12393.179711 kJ/mol
# Density = 2.167549 g / cm^3
# Si number density = 21.724938 Si / 1000 Ang^3
#
#
#
# Elastic Constant Matrix: (Units=GPa)
#
#
# Indices 1 2 3 4 5 6 
#
# 1 116.1528 -5.0811 30.7269 0.0000 15.3032 0.0000
# 2 -5.0811 29.2137 -3.6009 0.0000 3.0190 0.0000
# 3 30.7269 -3.6009 108.5324 0.0000 21.5243 0.0000
# 4 0.0000 0.0000 0.0000 37.0476 0.0000 -1.1410
# 5 15.3032 3.0190 21.5243 0.0000 42.2049 0.0000
# 6 0.0000 0.0000 0.0000 -1.1410 0.0000 16.2940
#
#
#
# Elastic Compliance Matrix: (Units=1/GPa)
#
#
# Indices 1 2 3 4 5 6 
#
# 1 0.009582 0.001657 -0.002164 0.000000 -0.002489 0.000000
# 2 0.001657 0.035097 0.001460 0.000000 -0.003856 0.000000
# 3 -0.002164 0.001460 0.010836 0.000000 -0.004846 0.000000
# 4 0.000000 0.000000 0.000000 0.027051 0.000000 0.001894
# 5 -0.002489 -0.003856 -0.004846 0.000000 0.027344 0.000000
# 6 0.000000 0.000000 0.000000 0.001894 0.000000 0.061505
#
#
# Mechanical properties :
#
#
# Convention : Reuss Voigt Hill
#
# Bulk Modulus (GPa) = 17.41510 33.10986 25.26248
# Shear Modulus (GPa) = 26.50415 34.56622 30.53518
#
# Velocity S-wave (km/s) = 3.49662 3.99317 3.75312
# Velocity P-wave (km/s) = 4.93309 6.04434 5.51677
#
# Compressibility (1/GPa) = 0.05742144
#
# Stress axis : x y z
#
# Youngs Moduli (GPa) = 104.35880 28.49233 92.28433
#
# Poissons Ratio (x) = -0.04722 0.19972
# Poissons Ratio (y) = -0.17294 -0.13474
# Poissons Ratio (z) = 0.22586 -0.04160
#
# Static dielectric constant tensor:
#      x y z
#    x 4.005790 0.000000 0.081890 
#    y 0.000000 3.328140 0.000000 
#    z 0.081890 0.000000 4.028840 
# 
# 
# High freq. dielectric constant tensor:
#      x y z
#    x 1.864140 0.000000 0.002830 
#    y 0.000000 1.795820 0.000000 
#    z 0.002830 0.000000 1.868220 
# 
# From -- ./inp_files/3966.got.cif
#   From: 2010.06.25/outbox.cif.g09.slc.cpg/sg9_2_cif.got.tgz:3966.got - 2010.06.27 21:40:51.
