data_PCOD8055772
_publ_section_title
;
Structure prediction by ZEFSAII (Michael W. Deem and Ramdas Pophale) SiO2 
 PCOD8055772
Probable space group: C C
;
_chemical_formula_sum "Si O2"
_cell_formula_units_Z 32
_cell_length_a 14.006484
_cell_length_b 8.801656
_cell_length_c 11.054240
_cell_angle_alpha 90.000000
_cell_angle_beta 115.392209
_cell_angle_gamma 90.000000
_cell_volume 1231.117272
_symmetry_space_group_name_H-M "C C"
_symmetry_group_IT_number 9
_symmetry_cell_setting 'monoclinic'
loop_
_space_group_symop_operation_xyz
x,y,z
x,-y,1/2+z
1/2+x,1/2+y,z
1/2+x,1/2-y,1/2+z
loop_
_atom_site_type_symbol
_atom_site_label
_atom_site_fract_x
_atom_site_fract_y
_atom_site_fract_z
Si Si1 0.212060 0.264623 0.360760
Si Si2 0.058214 0.786199 0.372279
Si Si3 0.675012 0.090555 0.262666
Si Si4 0.875150 0.656678 0.640157
Si Si5 0.504201 0.391619 0.849319
Si Si6 0.508374 0.972586 0.021916
Si Si7 0.267494 0.148701 0.126004
Si Si8 0.380537 0.259103 0.961735
O O1 0.189055 0.443882 0.356448
O O2 0.312464 0.228630 0.495059
O O3 0.115183 0.166890 0.359844
O O4 0.242412 0.226711 0.239026
O O5 0.083277 0.701189 0.262152
O O6 0.999442 0.663468 0.422818
O O7 0.160315 0.858494 0.491655
O O8 0.984751 0.932003 0.305830
O O9 0.781957 0.187460 0.323813
O O10 0.628422 0.042923 0.103633
O O11 0.808450 0.522670 0.668395
O O12 0.906719 0.793072 0.744741
O O13 0.983639 0.589697 0.643133
O O14 0.481134 0.369916 0.982982
O O15 0.418751 0.092889 0.934246
O O16 0.351019 0.248081 0.088841
#
# Coordination Sequence:
#
# PCOD8055772 Si02
#       8
#     4   4   4   4   4   4   4   4
#     4  12  25  50  81 112 165 211 274 340 412 491
#     4  11  24  48  80 111 159 213 270 326 409 488
#     4  11  25  48  75 113 153 207 262 333 400 491
#     4  11  26  44  80 117 157 209 269 344 413 489
#     4  12  26  49  75 121 159 213 273 337 413 496
#     4  11  24  49  78 111 156 212 263 331 411 480
#     4  10  23  49  80 115 154 216 269 339 408 483
#     4  10  27  47  75 118 157 207 272 338 410 484
#
# _framework density 25.992649
#
# number of rings (size 3 to 8) (size 9 to 14) (size 15 to 20)
#    0.000    1.000    3.750    0.750    5.250    4.000 
#    2.250    0.000    0.000    0.000    0.000    0.000 
#    0.000    0.000    0.000    0.000    0.000    0.000 
#
# Total GULP energy -198260.603092 kJ/mol
# GULP energy per Si atom -12391.287693 kJ/mol
# Density = 2.593349 g / cm^3
# Si number density = 25.992649 Si / 1000 Ang^3
#
#
#
# Elastic Constant Matrix: (Units=GPa)
#
#
# Indices 1 2 3 4 5 6 
#
# 1 145.4662 66.8684 29.1782 0.0000 -22.6129 0.0000
# 2 66.8684 192.9803 41.7651 0.0000 -5.4730 0.0000
# 3 29.1782 41.7651 78.3569 0.0000 2.6053 0.0000
# 4 0.0000 0.0000 0.0000 47.7651 0.0000 6.4035
# 5 -22.6129 -5.4730 2.6053 0.0000 34.4067 0.0000
# 6 0.0000 0.0000 0.0000 6.4035 0.0000 42.1314
#
#
#
# Elastic Compliance Matrix: (Units=1/GPa)
#
#
# Indices 1 2 3 4 5 6 
#
# 1 0.009472 -0.002607 -0.002337 0.000000 0.005988 0.000000
# 2 -0.002607 0.006622 -0.002544 0.000000 -0.000467 0.000000
# 3 -0.002337 -0.002544 0.015091 0.000000 -0.003083 0.000000
# 4 0.000000 0.000000 0.000000 0.021371 0.000000 -0.003248
# 5 0.005988 -0.000467 -0.003083 0.000000 0.033159 0.000000
# 6 0.000000 0.000000 0.000000 -0.003248 0.000000 0.024229
#
#
# Mechanical properties :
#
#
# Convention : Reuss Voigt Hill
#
# Bulk Modulus (GPa) = 61.68710 76.93630 69.31170
# Shear Modulus (GPa) = 38.36656 43.46009 40.91333
#
# Velocity S-wave (km/s) = 3.84611 4.09346 3.97171
# Velocity P-wave (km/s) = 6.59602 7.21148 6.91061
#
# Compressibility (1/GPa) = 0.01621084
#
# Stress axis : x y z
#
# Youngs Moduli (GPa) = 105.57207 151.00480 66.26619
#
# Poissons Ratio (x) = 0.39360 0.15486
# Poissons Ratio (y) = 0.27518 0.16856
# Poissons Ratio (z) = 0.24672 0.38410
#
# Static dielectric constant tensor:
#      x y z
#    x 5.015520 0.000000 -0.110010 
#    y 0.000000 4.901880 0.000000 
#    z -0.110010 0.000000 4.539400 
# 
# 
# High freq. dielectric constant tensor:
#      x y z
#    x 2.055780 0.000000 0.002150 
#    y 0.000000 2.048670 0.000000 
#    z 0.002150 0.000000 2.030870 
# 
# From -- ./inp_files/17986.got.cif
#   From: 2010.06.25/outbox.cif.g09.slc.cpg/sg9_9_cif.got.tgz:17986.got - 2010.06.27 21:40:51.
