data_PCOD8055472
_publ_section_title
;
Structure prediction by ZEFSAII (Michael W. Deem and Ramdas Pophale) SiO2 
 PCOD8055472
Probable space group: C C
;
_chemical_formula_sum "Si O2"
_cell_formula_units_Z 28
_cell_length_a 5.144234
_cell_length_b 17.783558
_cell_length_c 15.927842
_cell_angle_alpha 90.000000
_cell_angle_beta 63.989125
_cell_angle_gamma 90.000000
_cell_volume 1309.532506
_symmetry_space_group_name_H-M "C C"
_symmetry_group_IT_number 9
_symmetry_cell_setting 'monoclinic'
loop_
_space_group_symop_operation_xyz
x,y,z
x,-y,1/2+z
1/2+x,1/2+y,z
1/2+x,1/2-y,1/2+z
loop_
_atom_site_type_symbol
_atom_site_label
_atom_site_fract_x
_atom_site_fract_y
_atom_site_fract_z
Si Si1 0.017330 0.907290 0.613670
Si Si2 0.854807 0.100113 0.471683
Si Si3 0.787211 0.516499 0.838893
Si Si4 0.711851 0.675929 0.930987
Si Si5 0.233423 0.228773 0.406392
Si Si6 0.176548 0.616798 0.315059
Si Si7 0.975503 0.498401 0.130172
O O1 0.134510 0.840763 0.538618
O O2 0.269921 0.969167 0.586207
O O3 0.953867 0.873483 0.715418
O O4 0.727319 0.942611 0.616153
O O5 0.734141 0.138500 0.403600
O O6 0.058075 0.164443 0.485271
O O7 0.610427 0.078398 0.573659
O O8 0.012810 0.023926 0.419517
O O9 0.792187 0.600709 0.870476
O O10 0.072308 0.469987 0.824909
O O11 0.776797 0.519606 0.739030
O O12 0.429141 0.715927 0.933583
O O13 0.003946 0.724564 0.884146
O O14 0.435624 0.177049 0.316898
#
# Coordination Sequence:
#
# PCOD8055472 Si02
#       7
#     4   4   4   4   4   4   4
#     4  11  23  40  69  99 127 167 223 266 322 389
#     4  11  21  45  68  92 134 174 212 268 325 387
#     4  10  23  40  71  99 123 169 221 278 315 377
#     4  12  24  44  64  99 133 169 214 276 319 377
#     4  11  26  43  63  90 139 176 211 257 334 390
#     4  10  22  45  70  93 127 180 215 262 328 396
#     4  11  23  39  69 104 123 165 224 275 321 374
#
# _framework density 21.381675999999999
#
# number of rings (size 3 to 8) (size 9 to 14) (size 15 to 20)
#    0.000    1.143    4.286    1.714    4.000    0.000 
#    5.143    0.000    0.000    0.000    0.000    0.000 
#    0.000    0.000    0.000    0.000    0.000    0.000 
#
# Total GULP energy -173533.013445 kJ/mol
# GULP energy per Si atom -12395.215246 kJ/mol
# Density = 2.133301 g / cm^3
# Si number density = 21.381676 Si / 1000 Ang^3
#
#
#
# Elastic Constant Matrix: (Units=GPa)
#
#
# Indices 1 2 3 4 5 6 
#
# 1 102.3746 49.4654 20.3770 0.0000 -8.2524 0.0000
# 2 49.4654 141.2991 39.9732 0.0000 -6.9126 0.0000
# 3 20.3770 39.9732 85.8657 0.0000 -0.0925 0.0000
# 4 0.0000 0.0000 0.0000 14.1399 0.0000 -1.3283
# 5 -8.2524 -6.9126 -0.0925 0.0000 25.3433 0.0000
# 6 0.0000 0.0000 0.0000 -1.3283 0.0000 44.9724
#
#
#
# Elastic Compliance Matrix: (Units=1/GPa)
#
#
# Indices 1 2 3 4 5 6 
#
# 1 0.012038 -0.003761 -0.001103 0.000000 0.002890 0.000000
# 2 -0.003761 0.009451 -0.003506 0.000000 0.001340 0.000000
# 3 -0.001103 -0.003506 0.013539 0.000000 -0.001266 0.000000
# 4 0.000000 0.000000 0.000000 0.070919 0.000000 0.002095
# 5 0.002890 0.001340 -0.001266 0.000000 0.040760 0.000000
# 6 0.000000 0.000000 0.000000 0.002095 0.000000 0.022298
#
#
# Mechanical properties :
#
#
# Convention : Reuss Voigt Hill
#
# Bulk Modulus (GPa) = 54.67940 61.01895 57.84918
# Shear Modulus (GPa) = 26.06355 31.53937 28.80146
#
# Velocity S-wave (km/s) = 3.49516 3.84482 3.67415
# Velocity P-wave (km/s) = 6.47431 6.95055 6.71665
#
# Compressibility (1/GPa) = 0.01828842
#
# Stress axis : x y z
#
# Youngs Moduli (GPa) = 83.07294 105.80774 73.86313
#
# Poissons Ratio (x) = 0.39791 0.08146
# Poissons Ratio (y) = 0.31241 0.25896
# Poissons Ratio (z) = 0.09162 0.37095
#
# Static dielectric constant tensor:
#      x y z
#    x 3.977120 0.000000 -0.122320 
#    y 0.000000 3.842700 0.000000 
#    z -0.122320 0.000000 3.878450 
# 
# 
# High freq. dielectric constant tensor:
#      x y z
#    x 1.848200 0.000000 -0.013100 
#    y 0.000000 1.835690 0.000000 
#    z -0.013100 0.000000 1.824200 
# 
# From -- ./inp_files/21777.got.cif
#   From: 2010.06.25/outbox.cif.g09.slc.cpg/sg9_11_cif.got.tgz:21777.got - 2010.06.27 21:40:51.
