data_PCOD8055578
_publ_section_title
;
Structure prediction by ZEFSAII (Michael W. Deem and Ramdas Pophale) SiO2 
 PCOD8055578
Probable space group: C C
;
_chemical_formula_sum "Si O2"
_cell_formula_units_Z 24
_cell_length_a 8.441512
_cell_length_b 18.034365
_cell_length_c 13.542187
_cell_angle_alpha 90.000000
_cell_angle_beta 34.645954
_cell_angle_gamma 90.000000
_cell_volume 1172.042185
_symmetry_space_group_name_H-M "C C"
_symmetry_group_IT_number 9
_symmetry_cell_setting 'monoclinic'
loop_
_space_group_symop_operation_xyz
x,y,z
x,-y,1/2+z
1/2+x,1/2+y,z
1/2+x,1/2-y,1/2+z
loop_
_atom_site_type_symbol
_atom_site_label
_atom_site_fract_x
_atom_site_fract_y
_atom_site_fract_z
Si Si1 0.879480 0.921697 0.957470
Si Si2 0.373866 0.151309 0.612290
Si Si3 0.394095 0.150368 0.297552
Si Si4 0.612968 0.492065 0.156371
Si Si5 0.100053 0.502758 0.279783
Si Si6 0.880584 0.777255 0.455902
O O1 0.097164 0.875387 0.909403
O O2 0.672319 0.869717 0.003388
O O3 0.685073 0.969384 0.130577
O O4 0.065602 0.969878 0.786580
O O5 0.248841 0.088307 0.605173
O O6 0.424857 0.227656 0.529294
O O7 0.148060 0.168759 0.812638
O O8 0.336703 0.226586 0.383287
O O9 0.537749 0.089615 0.294683
O O10 0.610453 0.169551 0.099575
O O11 0.324388 0.487170 0.248380
O O12 0.823412 0.534081 0.971923
#
# Coordination Sequence:
#
# PCOD8055578 Si02
#       6
#     4   4   4   4   4   4
#     4  12  25  42  66 100 129 164 214 268 326 376
#     4  11  23  43  63  95 126 170 215 258 320 377
#     4  11  23  43  63  95 126 170 215 258 320 377
#     4  12  24  42  67  98 131 164 211 269 325 377
#     4  12  24  42  67  98 131 164 211 269 325 377
#     4  10  23  42  66  84 129 176 212 260 306 382
#
# _framework density 20.477079
#
# number of rings (size 3 to 8) (size 9 to 14) (size 15 to 20)
#    0.000    0.667    5.000    2.000    4.667    1.333 
#    0.000    0.000    0.000    0.000    0.000    0.000 
#    0.000    0.000    0.000    0.000    0.000    0.000 
#
# Total GULP energy -148770.818764 kJ/mol
# GULP energy per Si atom -12397.568230 kJ/mol
# Density = 2.043047 g / cm^3
# Si number density = 20.477079 Si / 1000 Ang^3
#
#
#
# Elastic Constant Matrix: (Units=GPa)
#
#
# Indices 1 2 3 4 5 6 
#
# 1 76.0471 30.2475 20.4935 0.0031 -10.1179 -0.0304
# 2 30.2475 67.3927 43.9469 0.0077 -6.3871 0.0180
# 3 20.4935 43.9469 161.5341 0.2063 16.8816 0.1755
# 4 0.0031 0.0077 0.2063 36.6305 -0.0237 2.1854
# 5 -10.1179 -6.3871 16.8816 -0.0237 42.5301 -0.0209
# 6 -0.0304 0.0180 0.1755 2.1854 -0.0209 10.0551
#
#
#
# Elastic Compliance Matrix: (Units=1/GPa)
#
#
# Indices 1 2 3 4 5 6 
#
# 1 0.016378 -0.006669 -0.000591 0.000001 0.003129 0.000078
# 2 -0.006669 0.021771 -0.005480 0.000027 0.003858 0.000039
# 3 -0.000591 -0.005480 0.008197 -0.000040 -0.004217 -0.000135
# 4 0.000001 0.000027 -0.000040 0.027658 0.000032 -0.006011
# 5 0.003129 0.003858 -0.004217 0.000032 0.026511 0.000124
# 6 0.000078 0.000039 -0.000135 -0.006011 0.000124 0.100761
#
#
# Mechanical properties :
#
#
# Convention : Reuss Voigt Hill
#
# Bulk Modulus (GPa) = 47.92359 54.92774 51.42567
# Shear Modulus (GPa) = 21.39384 31.86221 26.62802
#
# Velocity S-wave (km/s) = 3.23580 3.94889 3.60999
# Velocity P-wave (km/s) = 6.11677 6.90463 6.52260
#
# Compressibility (1/GPa) = 0.02086655
#
# Stress axis : x y z
#
# Youngs Moduli (GPa) = 61.05799 45.93271 121.98911
#
# Poissons Ratio (x) = 0.30633 0.07204
# Poissons Ratio (y) = 0.40720 0.66852
# Poissons Ratio (z) = 0.03606 0.25172
#
# Static dielectric constant tensor:
#      x y z
#    x 3.539850 0.000010 0.170550 
#    y 0.000010 3.685780 0.000050 
#    z 0.170550 0.000050 4.339120 
# 
# 
# High freq. dielectric constant tensor:
#      x y z
#    x 1.794730 0.000000 0.008700 
#    y 0.000000 1.787610 0.000000 
#    z 0.008700 0.000000 1.835960 
# 
# From -- ./inp_files/5028.got.cif
#   From: 2010.06.25/outbox.cif.g09.slc.cpg/sg9_3_cif.got.tgz:5028.got - 2010.06.27 21:40:51.
