data_PCOD8055225
_publ_section_title
;
Structure prediction by ZEFSAII (Michael W. Deem and Ramdas Pophale) SiO2 
 PCOD8055225
Probable space group: C C
;
_chemical_formula_sum "Si O2"
_cell_formula_units_Z 32
_cell_length_a 6.922216
_cell_length_b 24.818839
_cell_length_c 11.394952
_cell_angle_alpha 90.000000
_cell_angle_beta 123.008526
_cell_angle_gamma 90.000000
_cell_volume 1641.680107
_symmetry_space_group_name_H-M "C C"
_symmetry_group_IT_number 9
_symmetry_cell_setting 'monoclinic'
loop_
_space_group_symop_operation_xyz
x,y,z
x,-y,1/2+z
1/2+x,1/2+y,z
1/2+x,1/2-y,1/2+z
loop_
_atom_site_type_symbol
_atom_site_label
_atom_site_fract_x
_atom_site_fract_y
_atom_site_fract_z
Si Si1 0.824210 0.868087 0.485400
Si Si2 0.852794 0.596244 0.817902
Si Si3 0.428593 0.316341 0.754213
Si Si4 0.693413 0.891854 0.847284
Si Si5 0.502037 0.807084 0.236329
Si Si6 0.401984 0.862824 0.972567
Si Si7 0.157180 0.952505 0.037299
Si Si8 0.766163 0.575123 0.050635
O O1 0.630206 0.915582 0.412430
O O2 0.790240 0.840342 0.599601
O O3 0.761002 0.822207 0.367114
O O4 0.076673 0.891797 0.559283
O O5 0.816834 0.654463 0.742573
O O6 0.718314 0.552091 0.696127
O O7 0.760113 0.599019 0.918442
O O8 0.299338 0.336695 0.828850
O O9 0.427384 0.252401 0.746003
O O10 0.688277 0.337646 0.833231
O O11 0.597033 0.877686 0.943300
O O12 0.505227 0.917801 0.698131
O O13 0.893843 0.936109 0.926705
O O14 0.494993 0.817840 0.094442
O O15 0.333174 0.916948 0.018918
O O16 0.194862 0.013538 0.013383
#
# Coordination Sequence:
#
# PCOD8055225 Si02
#       8
#     4   4   4   4   4   4   4   4
#     4  10  22  40  63  91 129 160 210 266 303 377
#     4   9  23  45  59  94 128 165 213 262 308 383
#     4  11  20  43  64  92 129 169 202 266 320 365
#     4  11  24  42  64  98 126 162 219 261 306 391
#     4   9  21  42  66  86 132 168 200 265 315 368
#     4  10  22  42  59  95 128 161 215 256 311 382
#     4  10  26  39  65  90 131 171 205 266 321 365
#     4  12  24  41  66  94 127 170 212 260 320 373
#
# _framework density 19.492227
#
# number of rings (size 3 to 8) (size 9 to 14) (size 15 to 20)
#    0.750    1.000    2.500    0.750    5.250    0.000 
#    4.500    0.000    0.000    0.000    0.000    0.000 
#    0.000    0.000    0.000    0.000    0.000    0.000 
#
# Total GULP energy -198327.077225 kJ/mol
# GULP energy per Si atom -12395.442327 kJ/mol
# Density = 1.944786 g / cm^3
# Si number density = 19.492227 Si / 1000 Ang^3
#
#
#
# Elastic Constant Matrix: (Units=GPa)
#
#
# Indices 1 2 3 4 5 6 
#
# 1 96.8066 46.5749 29.7981 0.0000 -4.4669 0.0000
# 2 46.5749 110.7678 38.2161 0.0000 -5.3506 0.0000
# 3 29.7981 38.2161 111.7022 0.0000 0.3988 0.0000
# 4 0.0000 0.0000 0.0000 17.1265 0.0000 -1.9547
# 5 -4.4669 -5.3506 0.3988 0.0000 37.2030 0.0000
# 6 0.0000 0.0000 0.0000 -1.9547 0.0000 16.6777
#
#
#
# Elastic Compliance Matrix: (Units=1/GPa)
#
#
# Indices 1 2 3 4 5 6 
#
# 1 0.013309 -0.004905 -0.001876 0.000000 0.000913 0.000000
# 2 -0.004905 0.012129 -0.002846 0.000000 0.001186 0.000000
# 3 -0.001876 -0.002846 0.010429 0.000000 -0.000746 0.000000
# 4 0.000000 0.000000 0.000000 0.059181 0.000000 0.006936
# 5 0.000913 0.001186 -0.000746 0.000000 0.027168 0.000000
# 6 0.000000 0.000000 0.000000 0.006936 0.000000 0.060773
#
#
# Mechanical properties :
#
#
# Convention : Reuss Voigt Hill
#
# Bulk Modulus (GPa) = 60.18545 60.93942 60.56244
# Shear Modulus (GPa) = 24.06395 27.84725 25.95560
#
# Velocity S-wave (km/s) = 3.51741 3.78383 3.65305
# Velocity P-wave (km/s) = 6.88767 7.10078 6.99504
#
# Compressibility (1/GPa) = 0.01661531
#
# Stress axis : x y z
#
# Youngs Moduli (GPa) = 75.13635 82.44477 95.88747
#
# Poissons Ratio (x) = 0.40439 0.17984
# Poissons Ratio (y) = 0.36854 0.27285
# Poissons Ratio (z) = 0.14092 0.23460
#
# Static dielectric constant tensor:
#      x y z
#    x 3.360040 0.000000 0.048800 
#    y 0.000000 3.337740 0.000000 
#    z 0.048800 0.000000 3.765510 
# 
# 
# High freq. dielectric constant tensor:
#      x y z
#    x 1.744540 0.000000 0.000860 
#    y 0.000000 1.743050 0.000000 
#    z 0.000860 0.000000 1.783790 
# 
# From -- ./inp_files/13768.got.cif
#   From: 2010.06.25/outbox.cif.g09.slc.cpg/sg9_7_cif.got.tgz:13768.got - 2010.06.27 21:40:51.
