data_PCOD8055323
_publ_section_title
;
Structure prediction by ZEFSAII (Michael W. Deem and Ramdas Pophale) SiO2 
 PCOD8055323
Probable space group: C C
;
_chemical_formula_sum "Si O2"
_cell_formula_units_Z 32
_cell_length_a 9.072441
_cell_length_b 15.367684
_cell_length_c 12.159125
_cell_angle_alpha 90.000000
_cell_angle_beta 67.105179
_cell_angle_gamma 90.000000
_cell_volume 1561.703295
_symmetry_space_group_name_H-M "C C"
_symmetry_group_IT_number 9
_symmetry_cell_setting 'monoclinic'
loop_
_space_group_symop_operation_xyz
x,y,z
x,-y,1/2+z
1/2+x,1/2+y,z
1/2+x,1/2-y,1/2+z
loop_
_atom_site_type_symbol
_atom_site_label
_atom_site_fract_x
_atom_site_fract_y
_atom_site_fract_z
Si Si1 0.463810 0.361544 0.579160
Si Si2 0.441768 0.662077 0.329603
Si Si3 0.847185 0.655827 0.390147
Si Si4 0.604967 0.104195 0.138356
Si Si5 0.128971 0.689628 0.900996
Si Si6 0.529171 0.550767 0.488055
Si Si7 0.096121 0.311497 0.985920
Si Si8 0.696472 0.908577 0.164830
O O1 0.520538 0.345271 0.687817
O O2 0.271947 0.352285 0.627149
O O3 0.535102 0.449196 0.509025
O O4 0.554827 0.289387 0.483444
O O5 0.501755 0.741509 0.388932
O O6 0.481185 0.569730 0.375635
O O7 0.252667 0.669667 0.369482
O O8 0.786619 0.755032 0.388496
O O9 0.701373 0.591733 0.458365
O O10 0.951921 0.632678 0.253053
O O11 0.950779 0.639366 0.469130
O O12 0.626390 0.000795 0.145596
O O13 0.566393 0.135852 0.024970
O O14 0.158546 0.615551 0.801078
O O15 0.389573 0.594296 0.602638
O O16 0.115232 0.338381 0.107502
#
# Coordination Sequence:
#
# PCOD8055323 Si02
#       8
#     4   4   4   4   4   4   4   4
#     4  11  21  43  65  98 128 173 214 267 332 378
#     4  10  22  42  65  95 132 171 216 268 326 393
#     4  11  24  43  66  99 131 167 223 269 323 394
#     4  11  25  41  68  97 134 172 216 273 326 388
#     4  11  24  42  68  97 130 175 222 266 329 392
#     4   9  24  42  64  94 130 169 213 270 327 382
#     4  11  22  42  66  94 131 169 217 268 322 388
#     4  10  24  43  68  92 130 176 215 269 331 387
#
# _framework density 20.490449000000002
#
# number of rings (size 3 to 8) (size 9 to 14) (size 15 to 20)
#    0.000    1.500    3.750    0.000    7.000    4.000 
#    4.500    0.000    0.000    0.000    0.000    0.000 
#    0.000    0.000    0.000    0.000    0.000    0.000 
#
# Total GULP energy -198305.646184 kJ/mol
# GULP energy per Si atom -12394.102887 kJ/mol
# Density = 2.044381 g / cm^3
# Si number density = 20.490449 Si / 1000 Ang^3
#
#
#
# Elastic Constant Matrix: (Units=GPa)
#
#
# Indices 1 2 3 4 5 6 
#
# 1 126.0916 58.9441 46.9186 0.0000 -3.8005 0.0000
# 2 58.9441 121.0565 52.0683 0.0000 -1.4559 0.0000
# 3 46.9186 52.0683 113.7513 0.0000 5.1534 0.0000
# 4 0.0000 0.0000 0.0000 32.3749 0.0000 5.2680
# 5 -3.8005 -1.4559 5.1534 0.0000 26.3923 0.0000
# 6 0.0000 0.0000 0.0000 5.2680 0.0000 28.8543
#
#
#
# Elastic Compliance Matrix: (Units=1/GPa)
#
#
# Indices 1 2 3 4 5 6 
#
# 1 0.010925 -0.004137 -0.002697 0.000000 0.001872 0.000000
# 2 -0.004137 0.011911 -0.003782 0.000000 0.000800 0.000000
# 3 -0.002697 -0.003782 0.011766 0.000000 -0.002895 0.000000
# 4 0.000000 0.000000 0.000000 0.031834 0.000000 -0.005812
# 5 0.001872 0.000800 -0.002895 0.000000 0.038769 0.000000
# 6 0.000000 0.000000 0.000000 -0.005812 0.000000 0.035718
#
#
# Mechanical properties :
#
#
# Convention : Reuss Voigt Hill
#
# Bulk Modulus (GPa) = 74.79730 75.19573 74.99651
# Shear Modulus (GPa) = 30.00999 31.05554 30.53277
#
# Velocity S-wave (km/s) = 3.83114 3.89731 3.86437
# Velocity P-wave (km/s) = 7.49353 7.55180 7.52272
#
# Compressibility (1/GPa) = 0.01336947
#
# Stress axis : x y z
#
# Youngs Moduli (GPa) = 91.53660 83.95445 84.99025
#
# Poissons Ratio (x) = 0.34729 0.22925
# Poissons Ratio (y) = 0.37866 0.32145
# Poissons Ratio (z) = 0.24690 0.31753
#
# Static dielectric constant tensor:
#      x y z
#    x 3.825080 0.000000 0.058040 
#    y 0.000000 3.682660 0.000000 
#    z 0.058040 0.000000 3.696780 
# 
# 
# High freq. dielectric constant tensor:
#      x y z
#    x 1.807360 0.000000 0.005890 
#    y 0.000000 1.800140 0.000000 
#    z 0.005890 0.000000 1.801140 
# 
# From -- ./inp_files/14667.got.cif
#   From: 2010.06.25/outbox.cif.g09.slc.cpg/sg9_8_cif.got.tgz:14667.got - 2010.06.27 21:40:51.
