data_PCOD8055853
_publ_section_title
;
Structure prediction by ZEFSAII (Michael W. Deem and Ramdas Pophale) SiO2 
 PCOD8055853
Probable space group: C C
;
_chemical_formula_sum "Si O2"
_cell_formula_units_Z 24
_cell_length_a 9.117222
_cell_length_b 24.514854
_cell_length_c 5.258749
_cell_angle_alpha 90.000000
_cell_angle_beta 57.142385
_cell_angle_gamma 90.000000
_cell_volume 987.335291
_symmetry_space_group_name_H-M "C C"
_symmetry_group_IT_number 9
_symmetry_cell_setting 'monoclinic'
loop_
_space_group_symop_operation_xyz
x,y,z
x,-y,1/2+z
1/2+x,1/2+y,z
1/2+x,1/2-y,1/2+z
loop_
_atom_site_type_symbol
_atom_site_label
_atom_site_fract_x
_atom_site_fract_y
_atom_site_fract_z
Si Si1 0.688310 0.028966 0.008140
Si Si2 0.679048 0.146554 0.846285
Si Si3 0.285815 0.852309 0.742755
Si Si4 0.274767 0.971053 0.899888
Si Si5 0.855539 0.756450 0.394633
Si Si6 0.973041 0.195854 0.290635
O O1 0.743246 0.092043 0.929000
O O2 0.481368 0.022444 0.207355
O O3 0.766512 0.005171 0.196492
O O4 0.479314 0.139644 0.942887
O O5 0.701744 0.197428 0.022313
O O6 0.803776 0.156381 0.482559
O O7 0.219779 0.907582 0.938125
O O8 0.283143 0.805319 0.963656
O O9 0.155166 0.837161 0.634423
O O10 0.195474 0.003151 0.731391
O O11 0.975538 0.761903 0.026996
O O12 0.969545 0.768662 0.538263
#
# Coordination Sequence:
#
# PCOD8055853 Si02
#       6
#     4   4   4   4   4   4
#     4   9  18  33  61  90 123 165 215 266 320 379
#     4   9  23  43  66  97 130 174 221 267 327 394
#     4  11  22  46  71  96 130 188 209 270 346 379
#     4   9  20  38  60  95 126 162 223 271 309 391
#     4  10  24  44  63  97 138 164 219 275 321 396
#     4  10  25  44  61  99 137 161 223 273 313 397
#
# _framework density 24.307852
#
# number of rings (size 3 to 8) (size 9 to 14) (size 15 to 20)
#    1.000    1.333    0.000    1.000    2.333    5.333 
#    6.000    1.667    0.000    0.000    0.000    0.000 
#    0.000    0.000    0.000    0.000    0.000    0.000 
#
# Total GULP energy -148716.411875 kJ/mol
# GULP energy per Si atom -12393.034323 kJ/mol
# Density = 2.425253 g / cm^3
# Si number density = 24.307852 Si / 1000 Ang^3
#
#
#
# Elastic Constant Matrix: (Units=GPa)
#
#
# Indices 1 2 3 4 5 6 
#
# 1 93.5960 30.2807 33.7385 0.0000 3.9889 0.0000
# 2 30.2807 187.0029 31.9452 0.0000 16.9619 0.0000
# 3 33.7385 31.9452 85.9919 0.0000 32.4315 0.0000
# 4 0.0000 0.0000 0.0000 18.1961 0.0000 6.8229
# 5 3.9889 16.9619 32.4315 0.0000 40.8275 0.0000
# 6 0.0000 0.0000 0.0000 6.8229 0.0000 20.5631
#
#
#
# Elastic Compliance Matrix: (Units=1/GPa)
#
#
# Indices 1 2 3 4 5 6 
#
# 1 0.013234 -0.001461 -0.006269 0.000000 0.004294 0.000000
# 2 -0.001461 0.005899 -0.001067 0.000000 -0.001460 0.000000
# 3 -0.006269 -0.001067 0.020112 0.000000 -0.014920 0.000000
# 4 0.000000 0.000000 0.000000 0.062766 0.000000 -0.020826
# 5 0.004294 -0.001460 -0.014920 0.000000 0.036532 0.000000
# 6 0.000000 0.000000 0.000000 -0.020826 0.000000 0.055541
#
#
# Mechanical properties :
#
#
# Convention : Reuss Voigt Hill
#
# Bulk Modulus (GPa) = 46.18964 62.05772 54.12368
# Shear Modulus (GPa) = 22.84198 33.95910 28.40054
#
# Velocity S-wave (km/s) = 3.06877 3.74176 3.42185
# Velocity P-wave (km/s) = 5.62136 6.65229 6.15844
#
# Compressibility (1/GPa) = 0.02164987
#
# Stress axis : x y z
#
# Youngs Moduli (GPa) = 75.56467 169.52232 49.72138
#
# Poissons Ratio (x) = 0.24776 0.31168
# Poissons Ratio (y) = 0.11044 0.05307
# Poissons Ratio (z) = 0.47368 0.18093
#
# Static dielectric constant tensor:
#      x y z
#    x 4.049450 0.000000 0.069210 
#    y 0.000000 4.500730 0.000000 
#    z 0.069210 0.000000 4.034180 
# 
# 
# High freq. dielectric constant tensor:
#      x y z
#    x 1.949850 0.000000 -0.000350 
#    y 0.000000 1.972930 0.000000 
#    z -0.000350 0.000000 1.935320 
# 
# From -- ./inp_files/783.got.cif
#   From: 2010.06.25/outbox.cif.g09.slc.cpg/sg9_1_cif.got.tgz:783.got - 2010.06.27 21:40:51.
