data_PCOD8055914
_publ_section_title
;
Structure prediction by ZEFSAII (Michael W. Deem and Ramdas Pophale) SiO2 
 PCOD8055914
Probable space group: C C
;
_chemical_formula_sum "Si O2"
_cell_formula_units_Z 32
_cell_length_a 11.315042
_cell_length_b 8.744553
_cell_length_c 14.204229
_cell_angle_alpha 90.000000
_cell_angle_beta 114.427735
_cell_angle_gamma 90.000000
_cell_volume 1279.627515
_symmetry_space_group_name_H-M "C C"
_symmetry_group_IT_number 9
_symmetry_cell_setting 'monoclinic'
loop_
_space_group_symop_operation_xyz
x,y,z
x,-y,1/2+z
1/2+x,1/2+y,z
1/2+x,1/2-y,1/2+z
loop_
_atom_site_type_symbol
_atom_site_label
_atom_site_fract_x
_atom_site_fract_y
_atom_site_fract_z
Si Si1 0.175860 0.296902 0.552430
Si Si2 0.166657 0.970065 0.492396
Si Si3 0.610791 0.479014 0.687144
Si Si4 0.449932 0.777645 0.205998
Si Si5 0.954303 0.509308 0.540443
Si Si6 0.576949 0.744284 0.797838
Si Si7 0.675189 0.065846 0.867061
Si Si8 0.849402 0.684794 0.334687
O O1 0.292123 0.232193 0.659656
O O2 0.224116 0.422718 0.491825
O O3 0.056854 0.370309 0.569797
O O4 0.135694 0.151674 0.473523
O O5 0.117921 0.928212 0.581272
O O6 0.090588 0.873942 0.389741
O O7 0.318026 0.935422 0.525886
O O8 0.494103 0.394902 0.701855
O O9 0.590394 0.660784 0.700579
O O10 0.743471 0.444564 0.784538
O O11 0.503880 0.879353 0.137865
O O12 0.527998 0.858388 0.317675
O O13 0.945656 0.615455 0.445089
O O14 0.429035 0.799989 0.763460
O O15 0.675001 0.888333 0.835280
O O16 0.779311 0.155187 0.837181
#
# Coordination Sequence:
#
# PCOD8055914 Si02
#       8
#     4   4   4   4   4   4   4   4
#     4  11  24  44  77 104 147 197 249 306 390 445
#     4  11  25  45  71 107 154 191 255 315 377 451
#     4  11  26  47  70 109 148 193 251 316 373 457
#     4  10  24  46  70 103 151 189 253 310 377 449
#     4  11  22  44  73 105 147 201 242 312 376 451
#     4  12  26  47  75 109 149 201 256 312 386 455
#     4  11  24  45  75 106 149 201 249 316 379 449
#     4  11  23  48  71 105 155 191 247 313 374 447
#
# _framework density 25.007276000000001
#
# number of rings (size 3 to 8) (size 9 to 14) (size 15 to 20)
#    0.000    1.000    5.000    1.500    5.250    3.000 
#    2.250    0.000    0.000    0.000    0.000    0.000 
#    0.000    0.000    0.000    0.000    0.000    0.000 
#
# Total GULP energy -198290.575333 kJ/mol
# GULP energy per Si atom -12393.160958 kJ/mol
# Density = 2.495036 g / cm^3
# Si number density = 25.007276 Si / 1000 Ang^3
#
#
#
# Elastic Constant Matrix: (Units=GPa)
#
#
# Indices 1 2 3 4 5 6 
#
# 1 114.6548 36.0063 6.4048 0.0000 0.5023 0.0000
# 2 36.0063 125.9705 14.7585 0.0000 7.6350 0.0000
# 3 6.4048 14.7585 55.1509 0.0000 9.9703 0.0000
# 4 0.0000 0.0000 0.0000 42.9227 0.0000 -9.8997
# 5 0.5023 7.6350 9.9703 0.0000 27.1105 0.0000
# 6 0.0000 0.0000 0.0000 -9.8997 0.0000 37.4656
#
#
#
# Elastic Compliance Matrix: (Units=1/GPa)
#
#
# Indices 1 2 3 4 5 6 
#
# 1 0.009606 -0.002731 -0.000526 0.000000 0.000785 0.000000
# 2 -0.002731 0.009038 -0.001768 0.000000 -0.001845 0.000000
# 3 -0.000526 -0.001768 0.019897 0.000000 -0.006810 0.000000
# 4 0.000000 0.000000 0.000000 0.024810 0.000000 0.006556
# 5 0.000785 -0.001845 -0.006810 0.000000 0.039895 0.000000
# 6 0.000000 0.000000 0.000000 0.006556 0.000000 0.028423
#
#
# Mechanical properties :
#
#
# Convention : Reuss Voigt Hill
#
# Bulk Modulus (GPa) = 35.10085 45.56835 40.33460
# Shear Modulus (GPa) = 33.06493 37.40688 35.23591
#
# Velocity S-wave (km/s) = 3.64017 3.87180 3.75777
# Velocity P-wave (km/s) = 5.63334 6.18461 5.91540
#
# Compressibility (1/GPa) = 0.02848934
#
# Stress axis : x y z
#
# Youngs Moduli (GPa) = 104.10592 110.64354 50.25776
#
# Poissons Ratio (x) = 0.30222 0.02646
# Poissons Ratio (y) = 0.28436 0.08885
# Poissons Ratio (z) = 0.05481 0.19561
#
# Static dielectric constant tensor:
#      x y z
#    x 4.342380 0.000000 -0.023630 
#    y 0.000000 4.685800 0.000000 
#    z -0.023630 0.000000 4.497330 
# 
# 
# High freq. dielectric constant tensor:
#      x y z
#    x 1.987820 0.000000 -0.006880 
#    y 0.000000 2.004600 0.000000 
#    z -0.006880 0.000000 1.992500 
# 
# From -- ./inp_files/24355.got.cif
#   From: 2010.06.25/outbox.cif.g09.slc.cpg/sg9_13_cif.got.tgz:24355.got - 2010.06.27 21:40:51.
