data_PCOD8055062
_publ_section_title
;
Structure prediction by ZEFSAII (Michael W. Deem and Ramdas Pophale) SiO2 
 PCOD8055062
Probable space group: C C
;
_chemical_formula_sum "Si O2"
_cell_formula_units_Z 32
_cell_length_a 11.199032
_cell_length_b 9.487703
_cell_length_c 27.782191
_cell_angle_alpha 90.000000
_cell_angle_beta 31.088247
_cell_angle_gamma 90.000000
_cell_volume 1524.258743
_symmetry_space_group_name_H-M "C C"
_symmetry_group_IT_number 9
_symmetry_cell_setting 'monoclinic'
loop_
_space_group_symop_operation_xyz
x,y,z
x,-y,1/2+z
1/2+x,1/2+y,z
1/2+x,1/2-y,1/2+z
loop_
_atom_site_type_symbol
_atom_site_label
_atom_site_fract_x
_atom_site_fract_y
_atom_site_fract_z
Si Si1 0.068140 0.312882 0.155260
Si Si2 0.341719 0.838238 0.137513
Si Si3 0.721181 0.064126 0.277068
Si Si4 0.858124 0.052133 0.824130
Si Si5 0.007913 0.783355 0.949491
Si Si6 0.825607 0.991450 0.640394
Si Si7 0.777886 0.183846 0.427806
Si Si8 0.225280 0.003367 0.931845
O O1 0.133243 0.420728 0.176189
O O2 0.961910 0.392067 0.145486
O O3 0.872400 0.201657 0.238503
O O4 0.295158 0.231296 0.056744
O O5 0.263835 0.674723 0.164094
O O6 0.109370 0.927685 0.213424
O O7 0.520420 0.865962 0.032409
O O8 0.826111 0.967624 0.197071
O O9 0.454298 0.093298 0.355627
O O10 0.694169 0.982913 0.336118
O O11 0.730374 0.190546 0.888021
O O12 0.880697 0.933275 0.857095
O O13 0.945323 0.788681 0.915147
O O14 0.067190 0.944113 0.943447
O O15 0.082779 0.011288 0.531073
O O16 0.770353 0.333608 0.403117
#
# Coordination Sequence:
#
# PCOD8055062 Si02
#       8
#     4   4   4   4   4   4   4   4
#     4   9  20  39  65  89 120 166 209 259 309 369
#     4   9  21  41  62  89 123 165 207 258 317 364
#     4  11  23  35  62  94 127 160 208 252 313 374
#     4  12  25  37  62  96 128 167 203 262 313 377
#     4  10  21  43  66  90 125 164 210 259 314 362
#     4   9  20  41  67  86 124 166 210 260 307 370
#     4  10  23  44  63  89 131 160 210 264 306 375
#     4  10  21  44  67  91 122 172 209 256 317 363
#
# _framework density 20.993811999999998
#
# number of rings (size 3 to 8) (size 9 to 14) (size 15 to 20)
#    0.000    2.000    1.250    2.250    3.500    2.000 
#    4.500    0.000    5.500    0.000    0.000    0.000 
#    0.000    0.000    0.000    0.000    0.000    0.000 
#
# Total GULP energy -198234.438858 kJ/mol
# GULP energy per Si atom -12389.652429 kJ/mol
# Density = 2.094603 g / cm^3
# Si number density = 20.993812 Si / 1000 Ang^3
#
#
#
# Elastic Constant Matrix: (Units=GPa)
#
#
# Indices 1 2 3 4 5 6 
#
# 1 68.7247 45.1536 22.7812 -0.0023 1.6436 0.0020
# 2 45.1536 93.5576 43.6304 -0.0010 -0.2556 0.0004
# 3 22.7812 43.6304 112.7481 0.0263 -15.4585 -0.0014
# 4 -0.0023 -0.0010 0.0263 31.2252 -0.0058 -4.3580
# 5 1.6436 -0.2556 -15.4585 -0.0058 33.9746 -0.0008
# 6 0.0020 0.0004 -0.0014 -4.3580 -0.0008 35.2326
#
#
#
# Elastic Compliance Matrix: (Units=1/GPa)
#
#
# Indices 1 2 3 4 5 6 
#
# 1 0.021383 -0.010030 -0.000631 0.000001 -0.001397 -0.000001
# 2 -0.010030 0.017924 -0.005146 0.000004 -0.001721 0.000001
# 3 -0.000631 -0.005146 0.011718 -0.000009 0.005323 0.000000
# 4 0.000001 0.000004 -0.000009 0.032588 0.000001 0.004031
# 5 -0.001397 -0.001721 0.005323 0.000001 0.031911 0.000001
# 6 -0.000001 0.000001 0.000000 0.004031 0.000001 0.028881
#
#
# Mechanical properties :
#
#
# Convention : Reuss Voigt Hill
#
# Bulk Modulus (GPa) = 51.51237 55.35119 53.43178
# Shear Modulus (GPa) = 27.39902 30.98417 29.19160
#
# Velocity S-wave (km/s) = 3.61654 3.84588 3.73297
# Velocity P-wave (km/s) = 6.48300 6.79292 6.63977
#
# Compressibility (1/GPa) = 0.01941281
#
# Stress axis : x y z
#
# Youngs Moduli (GPa) = 46.76596 55.79059 85.33958
#
# Poissons Ratio (x) = 0.55956 0.05384
# Poissons Ratio (y) = 0.46905 0.43912
# Poissons Ratio (z) = 0.02950 0.28708
#
# Static dielectric constant tensor:
#      x y z
#    x 3.797030 -0.000010 0.040940 
#    y -0.000010 3.553300 0.000030 
#    z 0.040940 0.000030 3.962860 
# 
# 
# High freq. dielectric constant tensor:
#      x y z
#    x 1.818920 0.000000 -0.002950 
#    y 0.000000 1.797080 0.000000 
#    z -0.002950 0.000000 1.838420 
# 
# From -- ./inp_files/24233.got.cif
#   From: 2010.06.25/outbox.cif.g09.slc.cpg/sg9_13_cif.got.tgz:24233.got - 2010.06.27 21:40:51.
