data_PCOD8055452
_publ_section_title
;
Structure prediction by ZEFSAII (Michael W. Deem and Ramdas Pophale) SiO2 
 PCOD8055452
Probable space group: C C
;
_chemical_formula_sum "Si O2"
_cell_formula_units_Z 32
_cell_length_a 7.912237
_cell_length_b 12.696316
_cell_length_c 22.734558
_cell_angle_alpha 90.000000
_cell_angle_beta 40.598153
_cell_angle_gamma 90.000000
_cell_volume 1486.200933
_symmetry_space_group_name_H-M "C C"
_symmetry_group_IT_number 9
_symmetry_cell_setting 'monoclinic'
loop_
_space_group_symop_operation_xyz
x,y,z
x,-y,1/2+z
1/2+x,1/2+y,z
1/2+x,1/2-y,1/2+z
loop_
_atom_site_type_symbol
_atom_site_label
_atom_site_fract_x
_atom_site_fract_y
_atom_site_fract_z
Si Si1 0.655810 0.731836 0.538350
Si Si2 0.842971 0.448046 0.355641
Si Si3 0.060773 0.561857 0.403599
Si Si4 0.446415 0.372022 0.548845
Si Si5 0.416819 0.928785 0.722345
Si Si6 0.810222 0.812796 0.228004
Si Si7 0.559046 0.491063 0.721998
Si Si8 0.331866 0.111818 0.045477
O O1 0.787078 0.778046 0.562403
O O2 0.419207 0.669961 0.632075
O O3 0.544187 0.811025 0.518532
O O4 0.881770 0.664661 0.448878
O O5 0.569931 0.433731 0.460960
O O6 0.787881 0.511990 0.311154
O O7 0.031642 0.513842 0.346804
O O8 0.002426 0.339382 0.303369
O O9 0.372055 0.575359 0.317346
O O10 0.983400 0.488482 0.478861
O O11 0.673883 0.333378 0.533277
O O12 0.231929 0.441783 0.640165
O O13 0.332765 0.806198 0.745485
O O14 0.329025 0.990571 0.686537
O O15 0.962212 0.890608 0.233222
O O16 0.612930 0.425571 0.648646
#
# Coordination Sequence:
#
# PCOD8055452 Si02
#       8
#     4   4   4   4   4   4   4   4
#     4  11  23  42  67  99 133 174 221 273 337 402
#     4  10  24  43  66  93 135 173 222 277 328 403
#     4  10  24  41  67  94 133 177 217 281 331 393
#     4  10  23  42  66 100 130 172 226 275 322 409
#     4  11  24  44  67 100 137 177 226 272 340 400
#     4  10  22  45  64  97 135 171 224 278 328 397
#     4  11  22  42  72  95 134 182 218 281 333 393
#     4  11  22  45  67  94 137 174 220 279 335 391
#
# _framework density 21.531409
#
# number of rings (size 3 to 8) (size 9 to 14) (size 15 to 20)
#    0.000    1.500    3.750    1.500    5.250    3.000 
#    4.500    0.000    0.000    0.000    0.000    0.000 
#    0.000    0.000    0.000    0.000    0.000    0.000 
#
# Total GULP energy -198222.730971 kJ/mol
# GULP energy per Si atom -12388.920686 kJ/mol
# Density = 2.148240 g / cm^3
# Si number density = 21.531409 Si / 1000 Ang^3
#
#
#
# Elastic Constant Matrix: (Units=GPa)
#
#
# Indices 1 2 3 4 5 6 
#
# 1 97.8066 51.4308 37.7647 -0.0006 9.1944 0.0003
# 2 51.4308 96.6686 38.7978 -0.0010 4.6376 0.0016
# 3 37.7647 38.7978 140.6985 -0.0003 6.8073 0.0002
# 4 -0.0006 -0.0010 -0.0003 23.1968 0.0001 -1.0162
# 5 9.1944 4.6376 6.8073 0.0001 29.3158 -0.0007
# 6 0.0003 0.0016 0.0002 -1.0162 -0.0007 30.2530
#
#
#
# Elastic Compliance Matrix: (Units=1/GPa)
#
#
# Indices 1 2 3 4 5 6 
#
# 1 0.014962 -0.007038 -0.001924 0.000000 -0.003133 0.000000
# 2 -0.007038 0.014978 -0.002259 0.000000 0.000362 -0.000001
# 3 -0.001924 -0.002259 0.008293 0.000000 -0.000965 0.000000
# 4 0.000000 0.000000 0.000000 0.043173 0.000000 0.001450
# 5 -0.003133 0.000362 -0.000965 0.000000 0.035261 0.000001
# 6 0.000000 -0.000001 0.000000 0.001450 0.000001 0.033103
#
#
# Mechanical properties :
#
#
# Convention : Reuss Voigt Hill
#
# Bulk Modulus (GPa) = 63.31969 65.68447 64.50208
# Shear Modulus (GPa) = 28.17278 30.36514 29.26896
#
# Velocity S-wave (km/s) = 3.62118 3.75943 3.69095
# Velocity P-wave (km/s) = 6.85243 7.02972 6.94164
#
# Compressibility (1/GPa) = 0.01579288
#
# Stress axis : x y z
#
# Youngs Moduli (GPa) = 66.83386 66.76331 120.57958
#
# Poissons Ratio (x) = 0.46989 0.23196
# Poissons Ratio (y) = 0.47039 0.27236
# Poissons Ratio (z) = 0.12857 0.15080
#
# Static dielectric constant tensor:
#      x y z
#    x 4.022960 -0.000010 -0.342480 
#    y -0.000010 3.685560 0.000020 
#    z -0.342480 0.000020 4.590220 
# 
# 
# High freq. dielectric constant tensor:
#      x y z
#    x 1.844800 0.000000 -0.005000 
#    y 0.000000 1.818900 0.000000 
#    z -0.005000 0.000000 1.870050 
# 
# From -- ./inp_files/23261.got.cif
#   From: 2010.06.25/outbox.cif.g09.slc.cpg/sg9_12_cif.got.tgz:23261.got - 2010.06.27 21:40:51.
