data_PCOD8055308
_publ_section_title
;
Structure prediction by ZEFSAII (Michael W. Deem and Ramdas Pophale) SiO2 
 PCOD8055308
Probable space group: C C
;
_chemical_formula_sum "Si O2"
_cell_formula_units_Z 32
_cell_length_a 12.252602
_cell_length_b 13.172281
_cell_length_c 10.643648
_cell_angle_alpha 90.000000
_cell_angle_beta 127.752003
_cell_angle_gamma 90.000000
_cell_volume 1358.232359
_symmetry_space_group_name_H-M "C C"
_symmetry_group_IT_number 9
_symmetry_cell_setting 'monoclinic'
loop_
_space_group_symop_operation_xyz
x,y,z
x,-y,1/2+z
1/2+x,1/2+y,z
1/2+x,1/2-y,1/2+z
loop_
_atom_site_type_symbol
_atom_site_label
_atom_site_fract_x
_atom_site_fract_y
_atom_site_fract_z
Si Si1 0.029930 0.771626 0.320930
Si Si2 0.886644 0.712274 0.753833
Si Si3 0.565780 0.612636 0.084134
Si Si4 0.818350 0.095285 0.071660
Si Si5 0.082877 0.440191 0.981392
Si Si6 0.134672 0.315123 0.250287
Si Si7 0.817772 0.495906 0.162902
Si Si8 0.331768 0.176003 0.993374
O O1 0.984743 0.849929 0.400232
O O2 0.077164 0.661789 0.399051
O O3 0.168898 0.811915 0.352766
O O4 0.899011 0.759641 0.135547
O O5 0.821782 0.824324 0.688790
O O6 0.795684 0.624128 0.619913
O O7 0.908281 0.689678 0.915865
O O8 0.034356 0.707434 0.794437
O O9 0.653938 0.712128 0.185810
O O10 0.677896 0.528676 0.131967
O O11 0.472062 0.564566 0.130301
O O12 0.776334 0.154485 0.915246
O O13 0.722355 0.001596 0.042088
O O14 0.946164 0.503935 0.852209
O O15 0.084735 0.410508 0.129992
O O16 0.853168 0.562736 0.065328
#
# Coordination Sequence:
#
# PCOD8055308 Si02
#       8
#     4   4   4   4   4   4   4   4
#     4   9  21  42  70  98 131 179 221 277 334 411
#     4  11  25  40  65 100 132 177 221 286 330 397
#     4   9  22  41  69 101 131 175 221 274 337 404
#     4  11  24  42  65 102 136 170 224 282 339 392
#     4  10  22  41  72  96 128 176 232 269 332 410
#     4  10  23  40  68  95 132 175 222 276 331 403
#     4  10  22  43  68  99 126 180 222 273 335 410
#     4  10  23  41  69  97 136 174 227 275 340 399
#
# _framework density 23.560034000000002
#
# number of rings (size 3 to 8) (size 9 to 14) (size 15 to 20)
#    0.000    2.000    1.250    0.000   14.000    1.000 
#    2.250    2.500    0.000    0.000    0.000    0.000 
#    0.000    0.000    0.000    0.000    0.000    0.000 
#
# Total GULP energy -198270.191806 kJ/mol
# GULP energy per Si atom -12391.886988 kJ/mol
# Density = 2.350641 g / cm^3
# Si number density = 23.560034 Si / 1000 Ang^3
#
#
#
# Elastic Constant Matrix: (Units=GPa)
#
#
# Indices 1 2 3 4 5 6 
#
# 1 94.8235 35.6851 25.8401 0.0000 -4.9101 0.0000
# 2 35.6851 59.9876 1.5984 0.0000 9.4704 0.0000
# 3 25.8401 1.5984 65.2948 0.0000 -10.8885 0.0000
# 4 0.0000 0.0000 0.0000 19.9235 0.0000 8.5854
# 5 -4.9101 9.4704 -10.8885 0.0000 32.9543 0.0000
# 6 0.0000 0.0000 0.0000 8.5854 0.0000 30.8602
#
#
#
# Elastic Compliance Matrix: (Units=1/GPa)
#
#
# Indices 1 2 3 4 5 6 
#
# 1 0.015933 -0.009868 -0.005498 0.000000 0.003393 0.000000
# 2 -0.009868 0.023684 0.002058 0.000000 -0.007597 0.000000
# 3 -0.005498 0.002058 0.018209 0.000000 0.004606 0.000000
# 4 0.000000 0.000000 0.000000 0.057029 0.000000 -0.015866
# 5 0.003393 -0.007597 0.004606 0.000000 0.034555 0.000000
# 6 0.000000 0.000000 0.000000 -0.015866 0.000000 0.036818
#
#
# Mechanical properties :
#
#
# Convention : Reuss Voigt Hill
#
# Bulk Modulus (GPa) = 32.03894 38.48367 35.26130
# Shear Modulus (GPa) = 22.39670 27.21309 24.80490
#
# Velocity S-wave (km/s) = 3.08656 3.40229 3.24827
# Velocity P-wave (km/s) = 5.13136 5.63950 5.39142
#
# Compressibility (1/GPa) = 0.03121202
#
# Stress axis : x y z
#
# Youngs Moduli (GPa) = 62.76139 42.22175 54.91895
#
# Poissons Ratio (x) = 0.41662 0.30195
# Poissons Ratio (y) = 0.61930 -0.11305
# Poissons Ratio (z) = 0.34507 -0.08691
#
# Static dielectric constant tensor:
#      x y z
#    x 4.003420 0.000000 -0.058820 
#    y 0.000000 4.351670 0.000000 
#    z -0.058820 0.000000 4.391870 
# 
# 
# High freq. dielectric constant tensor:
#      x y z
#    x 1.938040 0.000000 -0.000260 
#    y 0.000000 1.929640 0.000000 
#    z -0.000260 0.000000 1.919520 
# 
# From -- ./inp_files/16891.got.cif
#   From: 2010.06.25/outbox.cif.g09.slc.cpg/sg9_9_cif.got.tgz:16891.got - 2010.06.27 21:40:51.
