data_PCOD8055944
_publ_section_title
;
Structure prediction by ZEFSAII (Michael W. Deem and Ramdas Pophale) SiO2 
 PCOD8055944
Probable space group: C C
;
_chemical_formula_sum "Si O2"
_cell_formula_units_Z 28
_cell_length_a 11.758575
_cell_length_b 8.510836
_cell_length_c 17.035931
_cell_angle_alpha 90.000000
_cell_angle_beta 37.184163
_cell_angle_gamma 90.000000
_cell_volume 1030.391102
_symmetry_space_group_name_H-M "C C"
_symmetry_group_IT_number 9
_symmetry_cell_setting 'monoclinic'
loop_
_space_group_symop_operation_xyz
x,y,z
x,-y,1/2+z
1/2+x,1/2+y,z
1/2+x,1/2-y,1/2+z
loop_
_atom_site_type_symbol
_atom_site_label
_atom_site_fract_x
_atom_site_fract_y
_atom_site_fract_z
Si Si1 0.269920 0.507020 0.387020
Si Si2 0.900492 0.677433 0.329280
Si Si3 0.216707 0.323994 0.212858
Si Si4 0.317005 0.759803 0.481109
Si Si5 0.653712 0.261205 0.333614
Si Si6 0.552996 0.534195 0.031809
Si Si7 0.906593 0.462487 0.670468
O O1 0.399961 0.357034 0.296464
O O2 0.345516 0.591345 0.424077
O O3 0.266353 0.626084 0.317201
O O4 0.061998 0.440908 0.518713
O O5 0.687671 0.618262 0.460398
O O6 0.991132 0.558927 0.213588
O O7 0.018239 0.679448 0.344850
O O8 0.253815 0.176414 0.249456
O O9 0.997916 0.365318 0.353256
O O10 0.278932 0.265059 0.093030
O O11 0.127119 0.842988 0.555514
O O12 0.543745 0.377766 0.453032
O O13 0.815213 0.367225 0.204370
O O14 0.840818 0.976616 0.167422
#
# Coordination Sequence:
#
# PCOD8055944 Si02
#       7
#     4   4   4   4   4   4   4
#     4  11  25  49  72 112 154 199 270 327 385 490
#     4  11  23  46  75 105 149 203 255 322 395 461
#     4  12  25  51  80 111 167 204 264 337 403 471
#     4  11  28  48  80 114 159 216 260 329 415 469
#     4  10  25  48  71 108 155 202 258 323 399 465
#     4  10  24  48  74 115 149 204 266 319 387 488
#     4  11  26  46  72 111 155 198 269 327 388 486
#
# _framework density 27.174147999999999
#
# number of rings (size 3 to 8) (size 9 to 14) (size 15 to 20)
#    0.000    1.143    1.429    3.429    8.000    3.429 
#    7.714    0.000    0.000    0.000    0.000    0.000 
#    0.000    0.000    0.000    0.000    0.000    0.000 
#
# Total GULP energy -173570.304990 kJ/mol
# GULP energy per Si atom -12397.878928 kJ/mol
# Density = 2.711230 g / cm^3
# Si number density = 27.174148 Si / 1000 Ang^3
#
#
#
# Elastic Constant Matrix: (Units=GPa)
#
#
# Indices 1 2 3 4 5 6 
#
# 1 128.2831 18.7827 43.5692 0.0001 9.0209 0.0000
# 2 18.7827 62.9284 21.1770 0.0002 0.2981 0.0000
# 3 43.5692 21.1770 124.0033 0.0002 -5.5219 -0.0001
# 4 0.0001 0.0002 0.0002 47.3351 0.0000 -1.9320
# 5 9.0209 0.2981 -5.5219 0.0000 39.8603 0.0000
# 6 0.0000 0.0000 -0.0001 -1.9320 0.0000 50.1860
#
#
#
# Elastic Compliance Matrix: (Units=1/GPa)
#
#
# Indices 1 2 3 4 5 6 
#
# 1 0.009268 -0.001720 -0.003074 0.000000 -0.002510 0.000000
# 2 -0.001720 0.017190 -0.002334 0.000000 -0.000063 0.000000
# 3 -0.003074 -0.002334 0.009634 0.000000 0.002048 0.000000
# 4 0.000000 0.000000 0.000000 0.021159 0.000000 0.000815
# 5 -0.002510 -0.000063 0.002048 0.000000 0.025940 0.000000
# 6 0.000000 0.000000 0.000000 0.000815 0.000000 0.019957
#
#
# Mechanical properties :
#
#
# Convention : Reuss Voigt Hill
#
# Bulk Modulus (GPa) = 45.79683 53.58584 49.69134
# Shear Modulus (GPa) = 40.10141 42.92200 41.51171
#
# Velocity S-wave (km/s) = 3.84568 3.97862 3.91272
# Velocity P-wave (km/s) = 6.05051 6.39282 6.22402
#
# Compressibility (1/GPa) = 0.02183557
#
# Stress axis : x y z
#
# Youngs Moduli (GPa) = 107.90106 58.17270 103.79548
#
# Poissons Ratio (x) = 0.10004 0.31911
# Poissons Ratio (y) = 0.18556 0.24229
# Poissons Ratio (z) = 0.33173 0.13579
#
# Static dielectric constant tensor:
#      x y z
#    x 4.996770 0.000000 0.052720 
#    y 0.000000 5.197410 0.000000 
#    z 0.052720 0.000000 4.633270 
# 
# 
# High freq. dielectric constant tensor:
#      x y z
#    x 2.095900 0.000000 0.011290 
#    y 0.000000 2.120250 0.000000 
#    z 0.011290 0.000000 2.085640 
# 
# From -- ./inp_files/33696.got.cif
#   From: 2010.06.25/outbox.cif.g09.slc.cpg/sg9_17_cif.got.tgz:33696.got - 2010.06.27 21:40:51.
