data_PCOD8055506
_publ_section_title
;
Structure prediction by ZEFSAII (Michael W. Deem and Ramdas Pophale) SiO2 
 PCOD8055506
Probable space group: C C
;
_chemical_formula_sum "Si O2"
_cell_formula_units_Z 28
_cell_length_a 11.217686
_cell_length_b 8.073023
_cell_length_c 20.348060
_cell_angle_alpha 90.000000
_cell_angle_beta 138.889633
_cell_angle_gamma 90.000000
_cell_volume 1211.618475
_symmetry_space_group_name_H-M "C C"
_symmetry_group_IT_number 9
_symmetry_cell_setting 'monoclinic'
loop_
_space_group_symop_operation_xyz
x,y,z
x,-y,1/2+z
1/2+x,1/2+y,z
1/2+x,1/2-y,1/2+z
loop_
_atom_site_type_symbol
_atom_site_label
_atom_site_fract_x
_atom_site_fract_y
_atom_site_fract_z
Si Si1 0.290660 0.789553 0.555410
Si Si2 0.201810 0.217833 0.261875
Si Si3 0.837670 0.511769 0.204315
Si Si4 0.024498 0.212713 0.535201
Si Si5 0.625219 0.248047 0.866646
Si Si6 0.441108 0.500119 0.883888
Si Si7 0.305903 0.399392 0.563863
O O1 0.373820 0.881930 0.653343
O O2 0.406752 0.822216 0.537102
O O3 0.088995 0.857168 0.460633
O O4 0.303263 0.594469 0.573198
O O5 0.338500 0.122370 0.270443
O O6 0.233888 0.162883 0.351724
O O7 0.257482 0.412714 0.282606
O O8 0.994085 0.191334 0.156205
O O9 0.641786 0.423218 0.123105
O O10 0.996682 0.380740 0.275835
O O11 0.155887 0.333218 0.550786
O O12 0.899901 0.112128 0.431110
O O13 0.507622 0.384581 0.853388
O O14 0.761049 0.150602 0.970508
#
# Coordination Sequence:
#
# PCOD8055506 Si02
#       7
#     4   4   4   4   4   4   4
#     4  11  24  45  74 103 142 190 241 295 354 429
#     4  12  25  44  73 105 144 184 236 299 352 436
#     4  11  25  42  68 105 139 186 245 282 362 426
#     4  10  22  48  70 101 142 186 239 297 349 429
#     4  11  26  48  67 106 147 189 237 297 355 428
#     4  10  26  44  71 106 140 192 243 287 368 419
#     4  11  24  47  73 104 146 189 237 295 366 415
#
# _framework density 23.109583000000001
#
# number of rings (size 3 to 8) (size 9 to 14) (size 15 to 20)
#    0.000    1.143    2.857    1.714    4.000    5.714 
#    0.000    0.000    0.000    0.000    0.000    0.000 
#    0.000    0.000    0.000    0.000    0.000    0.000 
#
# Total GULP energy -173566.261393 kJ/mol
# GULP energy per Si atom -12397.590100 kJ/mol
# Density = 2.305698 g / cm^3
# Si number density = 23.109583 Si / 1000 Ang^3
#
#
#
# Elastic Constant Matrix: (Units=GPa)
#
#
# Indices 1 2 3 4 5 6 
#
# 1 143.6712 46.4123 42.2323 0.0000 -30.8408 0.0000
# 2 46.4123 115.3937 72.6405 0.0000 -5.9201 0.0000
# 3 42.2323 72.6405 105.8772 0.0000 -17.7352 0.0000
# 4 0.0000 0.0000 0.0000 42.3475 0.0000 -4.8152
# 5 -30.8408 -5.9201 -17.7352 0.0000 40.5856 0.0000
# 6 0.0000 0.0000 0.0000 -4.8152 0.0000 31.9741
#
#
#
# Elastic Compliance Matrix: (Units=1/GPa)
#
#
# Indices 1 2 3 4 5 6 
#
# 1 0.009549 -0.003165 -0.000539 0.000000 0.006559 0.000000
# 2 -0.003165 0.016549 -0.010887 0.000000 -0.004749 0.000000
# 3 -0.000539 -0.010887 0.018121 0.000000 0.005921 0.000000
# 4 0.000000 0.000000 0.000000 0.024026 0.000000 0.003618
# 5 0.006559 -0.004749 0.005921 0.000000 0.031518 0.000000
# 6 0.000000 0.000000 0.000000 0.003618 0.000000 0.031820
#
#
# Mechanical properties :
#
#
# Convention : Reuss Voigt Hill
#
# Bulk Modulus (GPa) = 66.49993 76.39025 71.44509
# Shear Modulus (GPa) = 30.16119 36.55856 33.35988
#
# Velocity S-wave (km/s) = 3.61659 3.98171 3.80353
# Velocity P-wave (km/s) = 6.80279 7.36655 7.09028
#
# Compressibility (1/GPa) = 0.01503761
#
# Stress axis : x y z
#
# Youngs Moduli (GPa) = 104.72068 60.42842 55.18552
#
# Poissons Ratio (x) = 0.19126 0.02973
# Poissons Ratio (y) = 0.33145 0.60078
# Poissons Ratio (z) = 0.05642 0.65786
#
# Static dielectric constant tensor:
#      x y z
#    x 4.375790 0.000000 -0.279800 
#    y 0.000000 4.178950 0.000000 
#    z -0.279800 0.000000 4.212080 
# 
# 
# High freq. dielectric constant tensor:
#      x y z
#    x 1.934590 0.000000 -0.014460 
#    y 0.000000 1.913690 0.000000 
#    z -0.014460 0.000000 1.910620 
# 
# From -- ./inp_files/33237.got.cif
#   From: 2010.06.25/outbox.cif.g09.slc.cpg/sg9_17_cif.got.tgz:33237.got - 2010.06.27 21:40:51.
