data_PCOD8055418
_publ_section_title
;
Structure prediction by ZEFSAII (Michael W. Deem and Ramdas Pophale) SiO2 
 PCOD8055418
Probable space group: C C
;
_chemical_formula_sum "Si O2"
_cell_formula_units_Z 28
_cell_length_a 6.819159
_cell_length_b 18.346768
_cell_length_c 10.642550
_cell_angle_alpha 90.000000
_cell_angle_beta 68.496447
_cell_angle_gamma 90.000000
_cell_volume 1238.806222
_symmetry_space_group_name_H-M "C C"
_symmetry_group_IT_number 9
_symmetry_cell_setting 'monoclinic'
loop_
_space_group_symop_operation_xyz
x,y,z
x,-y,1/2+z
1/2+x,1/2+y,z
1/2+x,1/2-y,1/2+z
loop_
_atom_site_type_symbol
_atom_site_label
_atom_site_fract_x
_atom_site_fract_y
_atom_site_fract_z
Si Si1 0.609650 0.929928 0.961520
Si Si2 0.814713 0.331113 0.613957
Si Si3 0.272696 0.662794 0.911127
Si Si4 0.004318 0.980935 0.346740
Si Si5 0.722302 0.480752 0.549993
Si Si6 0.317515 0.668283 0.610554
Si Si7 0.786510 0.325606 0.911005
O O1 0.483049 0.875413 0.902025
O O2 0.824994 0.960493 0.853241
O O3 0.669649 0.889107 0.075236
O O4 0.468621 0.001946 0.012939
O O5 0.685219 0.393732 0.570702
O O6 0.763616 0.250240 0.574006
O O7 0.743603 0.337317 0.774506
O O8 0.060318 0.347660 0.539216
O O9 0.428926 0.598018 0.913040
O O10 0.238669 0.658356 0.770124
O O11 0.362649 0.743017 0.922352
O O12 0.144116 0.009963 0.431957
O O13 0.121010 0.972682 0.187110
O O14 0.569517 0.654825 0.535544
#
# Coordination Sequence:
#
# PCOD8055418 Si02
#       7
#     4   4   4   4   4   4   4
#     4  12  24  42  70  96 136 180 212 282 346 384
#     4  10  22  44  67  97 134 175 226 280 329 405
#     4  10  22  44  67  97 134 175 226 280 329 405
#     4  12  27  43  67 101 138 178 231 277 335 409
#     4  12  27  43  67 101 138 178 231 277 335 409
#     4  10  23  44  67  98 136 174 224 279 338 403
#     4  10  23  44  67  98 136 174 224 279 338 403
#
# _framework density 22.602405999999998
#
# number of rings (size 3 to 8) (size 9 to 14) (size 15 to 20)
#    0.000    1.143    1.429    4.286    6.000    2.286 
#    0.000    5.714    0.000    0.000    0.000    0.000 
#    0.000    0.000    0.000    0.000    0.000    0.000 
#
# Total GULP energy -173528.780496 kJ/mol
# GULP energy per Si atom -12394.912893 kJ/mol
# Density = 2.255096 g / cm^3
# Si number density = 22.602406 Si / 1000 Ang^3
#
#
#
# Elastic Constant Matrix: (Units=GPa)
#
#
# Indices 1 2 3 4 5 6 
#
# 1 91.4811 31.6377 15.4262 0.0000 10.0275 0.0000
# 2 31.6377 102.4278 -0.2583 0.0000 10.2755 0.0000
# 3 15.4262 -0.2583 90.3283 0.0000 1.7099 0.0000
# 4 0.0000 0.0000 0.0000 31.1312 0.0000 5.4209
# 5 10.0275 10.2755 1.7099 0.0000 22.9008 0.0000
# 6 0.0000 0.0000 0.0000 5.4209 0.0000 37.6783
#
#
#
# Elastic Compliance Matrix: (Units=1/GPa)
#
#
# Indices 1 2 3 4 5 6 
#
# 1 0.012974 -0.003622 -0.002152 0.000000 -0.003895 0.000000
# 2 -0.003622 0.011236 0.000717 0.000000 -0.003509 0.000000
# 3 -0.002152 0.000717 0.011445 0.000000 -0.000234 0.000000
# 4 0.000000 0.000000 0.000000 0.032948 0.000000 -0.004740
# 5 -0.003895 -0.003509 -0.000234 0.000000 0.046964 0.000000
# 6 0.000000 0.000000 0.000000 -0.004740 0.000000 0.027222
#
#
# Mechanical properties :
#
#
# Convention : Reuss Voigt Hill
#
# Bulk Modulus (GPa) = 39.15467 41.98315 40.56891
# Shear Modulus (GPa) = 30.97597 34.17084 32.57341
#
# Velocity S-wave (km/s) = 3.70601 3.89244 3.80036
# Velocity P-wave (km/s) = 5.97273 6.23028 6.10286
#
# Compressibility (1/GPa) = 0.02553974
#
# Stress axis : x y z
#
# Youngs Moduli (GPa) = 77.07900 89.00322 87.37621
#
# Poissons Ratio (x) = 0.32237 0.18806
# Poissons Ratio (y) = 0.27918 -0.06266
# Poissons Ratio (z) = 0.16589 -0.06383
#
# Static dielectric constant tensor:
#      x y z
#    x 3.783320 0.000000 -0.162590 
#    y 0.000000 4.582880 0.000000 
#    z -0.162590 0.000000 3.930550 
# 
# 
# High freq. dielectric constant tensor:
#      x y z
#    x 1.864930 0.000000 -0.009960 
#    y 0.000000 1.924830 0.000000 
#    z -0.009960 0.000000 1.890460 
# 
# From -- ./inp_files/13284.got.cif
#   From: 2010.06.25/outbox.cif.g09.slc.cpg/sg9_7_cif.got.tgz:13284.got - 2010.06.27 21:40:51.
