data_PCOD8055059
_publ_section_title
;
Structure prediction by ZEFSAII (Michael W. Deem and Ramdas Pophale) SiO2 
 PCOD8055059
Probable space group: C C
;
_chemical_formula_sum "Si O2"
_cell_formula_units_Z 32
_cell_length_a 17.591921
_cell_length_b 8.723127
_cell_length_c 28.535481
_cell_angle_alpha 90.000000
_cell_angle_beta 20.730040
_cell_angle_gamma 90.000000
_cell_volume 1549.998513
_symmetry_space_group_name_H-M "C C"
_symmetry_group_IT_number 9
_symmetry_cell_setting 'monoclinic'
loop_
_space_group_symop_operation_xyz
x,y,z
x,-y,1/2+z
1/2+x,1/2+y,z
1/2+x,1/2-y,1/2+z
loop_
_atom_site_type_symbol
_atom_site_label
_atom_site_fract_x
_atom_site_fract_y
_atom_site_fract_z
Si Si1 0.450810 0.859219 0.982020
Si Si2 0.184617 0.933126 0.219984
Si Si3 0.383864 0.082871 0.196399
Si Si4 0.296991 0.774277 0.975451
Si Si5 0.904214 0.738567 0.720219
Si Si6 0.060584 0.789534 0.729257
Si Si7 0.989908 0.294717 0.438358
Si Si8 0.293986 0.119053 0.954456
O O1 0.277074 0.809219 0.042697
O O2 0.652950 0.752234 0.855920
O O3 0.537118 0.032345 0.926793
O O4 0.347401 0.837180 0.092953
O O5 0.013993 0.818523 0.340556
O O6 0.320372 0.017194 0.182156
O O7 0.060304 0.054682 0.259120
O O8 0.194525 0.186732 0.326915
O O9 0.444503 0.944441 0.196632
O O10 0.594589 0.186227 0.070981
O O11 0.306371 0.937340 0.945034
O O12 0.960512 0.823127 0.736158
O O13 0.047152 0.821102 0.597381
O O14 0.302723 0.728004 0.580244
O O15 0.913913 0.663838 0.837953
O O16 0.916328 0.297291 0.426735
#
# Coordination Sequence:
#
# PCOD8055059 Si02
#       8
#     4   4   4   4   4   4   4   4
#     4  10  23  44  63  96 132 175 219 270 335 393
#     4  11  24  44  70  98 130 176 224 278 334 403
#     4  12  24  43  69 100 131 173 225 276 337 393
#     4  11  25  43  67  94 133 178 220 279 329 401
#     4  11  24  38  68  96 132 173 216 275 334 392
#     4  10  22  42  65  94 132 174 213 270 336 396
#     4   9  21  41  66  91 131 172 212 274 326 393
#     4  10  21  43  64  95 133 173 219 270 333 391
#
# _framework density 20.64518
#
# number of rings (size 3 to 8) (size 9 to 14) (size 15 to 20)
#    0.000    1.500    2.500    2.250    5.250    2.000 
#    6.750    0.000    0.000    0.000    0.000    0.000 
#    0.000    0.000    0.000    0.000    0.000    0.000 
#
# Total GULP energy -198390.252732 kJ/mol
# GULP energy per Si atom -12399.390796 kJ/mol
# Density = 2.059819 g / cm^3
# Si number density = 20.645180 Si / 1000 Ang^3
#
#
#
# Elastic Constant Matrix: (Units=GPa)
#
#
# Indices 1 2 3 4 5 6 
#
# 1 67.4699 47.9852 42.6447 0.0572 8.8118 0.0871
# 2 47.9852 108.8594 61.4892 -0.0281 0.0536 -0.0259
# 3 42.6447 61.4892 143.7844 -0.0869 10.4981 0.0719
# 4 0.0572 -0.0281 -0.0869 39.4677 -0.0326 -5.0735
# 5 8.8118 0.0536 10.4981 -0.0326 32.6603 0.0895
# 6 0.0871 -0.0259 0.0719 -5.0735 0.0895 32.1886
#
#
#
# Elastic Compliance Matrix: (Units=1/GPa)
#
#
# Indices 1 2 3 4 5 6 
#
# 1 0.023573 -0.008785 -0.002838 -0.000059 -0.005433 -0.000059
# 2 -0.008785 0.015477 -0.004285 0.000022 0.003722 0.000039
# 3 -0.002838 -0.004285 0.009803 0.000020 -0.002378 -0.000008
# 4 -0.000059 0.000022 0.000020 0.025861 0.000024 0.004076
# 5 -0.005433 0.003722 -0.002378 0.000024 0.032843 -0.000065
# 6 -0.000059 0.000039 -0.000008 0.004076 -0.000065 0.031710
#
#
# Mechanical properties :
#
#
# Convention : Reuss Voigt Hill
#
# Bulk Modulus (GPa) = 58.69673 69.37242 64.03458
# Shear Modulus (GPa) = 28.28664 32.06296 30.17480
#
# Velocity S-wave (km/s) = 3.70555 3.94515 3.82722
# Velocity P-wave (km/s) = 6.84113 7.37750 7.11437
#
# Compressibility (1/GPa) = 0.01703672
#
# Stress axis : x y z
#
# Youngs Moduli (GPa) = 42.42137 64.61062 102.01380
#
# Poissons Ratio (x) = 0.56763 0.28948
# Poissons Ratio (y) = 0.37269 0.43713
# Poissons Ratio (z) = 0.12038 0.27685
#
# Static dielectric constant tensor:
#      x y z
#    x 3.680900 0.000030 0.060810 
#    y 0.000030 3.664240 0.000090 
#    z 0.060810 0.000090 3.859890 
# 
# 
# High freq. dielectric constant tensor:
#      x y z
#    x 1.800130 0.000000 0.004440 
#    y 0.000000 1.807300 0.000010 
#    z 0.004440 0.000010 1.816140 
# 
# From -- ./inp_files/26668.got.cif
#   From: 2010.06.25/outbox.cif.g09.slc.cpg/sg9_14_cif.got.tgz:26668.got - 2010.06.27 21:40:51.
