data_PCOD8055557
_publ_section_title
;
Structure prediction by ZEFSAII (Michael W. Deem and Ramdas Pophale) SiO2 
 PCOD8055557
Probable space group: C C
;
_chemical_formula_sum "Si O2"
_cell_formula_units_Z 28
_cell_length_a 10.488161
_cell_length_b 8.626049
_cell_length_c 19.540690
_cell_angle_alpha 90.000000
_cell_angle_beta 43.928027
_cell_angle_gamma 90.000000
_cell_volume 1226.469618
_symmetry_space_group_name_H-M "C C"
_symmetry_group_IT_number 9
_symmetry_cell_setting 'monoclinic'
loop_
_space_group_symop_operation_xyz
x,y,z
x,-y,1/2+z
1/2+x,1/2+y,z
1/2+x,1/2-y,1/2+z
loop_
_atom_site_type_symbol
_atom_site_label
_atom_site_fract_x
_atom_site_fract_y
_atom_site_fract_z
Si Si1 0.537750 0.096223 0.669760
Si Si2 0.653736 0.348300 0.715524
Si Si3 0.553202 0.870331 0.880768
Si Si4 0.297385 0.467699 0.182286
Si Si5 0.529803 0.029597 0.031710
Si Si6 0.154223 0.124735 0.484743
Si Si7 0.126879 0.019076 0.852749
O O1 0.527986 0.273309 0.703712
O O2 0.694297 0.998820 0.649709
O O3 0.344127 0.015338 0.756129
O O4 0.589043 0.088768 0.569596
O O5 0.745271 0.208176 0.724523
O O6 0.538711 0.447740 0.816363
O O7 0.809482 0.449927 0.617821
O O8 0.362411 0.927628 0.920122
O O9 0.543799 0.687700 0.897074
O O10 0.725992 0.909443 0.765329
O O11 0.589729 0.954570 0.937767
O O12 0.518161 0.473170 0.087390
O O13 0.632673 0.191957 0.003496
O O14 0.089581 0.087006 0.432675
#
# Coordination Sequence:
#
# PCOD8055557 Si02
#       7
#     4   4   4   4   4   4   4
#     4   9  20  46  68  92 133 176 225 274 324 405
#     4   8  19  42  69  88 129 180 214 264 340 389
#     4  12  26  41  67 107 131 173 231 275 333 403
#     4   9  21  46  69  91 135 182 214 278 334 387
#     4  10  23  41  67  98 130 175 225 271 334 395
#     4  11  24  44  68  96 139 175 219 282 326 406
#     4  11  23  40  66 102 133 171 222 278 331 395
#
# _framework density 22.829753
#
# number of rings (size 3 to 8) (size 9 to 14) (size 15 to 20)
#    0.857    1.143    1.429    0.857    2.000    5.714 
#    0.000    0.000    0.000    0.000    0.000    0.000 
#    0.000    0.000    0.000    0.000    0.000    0.000 
#
# Total GULP energy -173510.903860 kJ/mol
# GULP energy per Si atom -12393.635990 kJ/mol
# Density = 2.277779 g / cm^3
# Si number density = 22.829753 Si / 1000 Ang^3
#
#
#
# Elastic Constant Matrix: (Units=GPa)
#
#
# Indices 1 2 3 4 5 6 
#
# 1 96.1420 40.6374 53.0544 0.0000 24.1937 0.0000
# 2 40.6374 77.4724 36.0692 0.0000 16.2852 0.0000
# 3 53.0544 36.0692 113.4565 0.0000 17.8360 0.0000
# 4 0.0000 0.0000 0.0000 21.8437 0.0000 5.3999
# 5 24.1937 16.2852 17.8360 0.0000 38.3471 0.0000
# 6 0.0000 0.0000 0.0000 5.3999 0.0000 34.2205
#
#
#
# Elastic Compliance Matrix: (Units=1/GPa)
#
#
# Indices 1 2 3 4 5 6 
#
# 1 0.017096 -0.005179 -0.005392 0.000000 -0.006078 0.000000
# 2 -0.005179 0.017484 -0.002679 0.000000 -0.002911 0.000000
# 3 -0.005392 -0.002679 0.012378 0.000000 -0.001218 0.000000
# 4 0.000000 0.000000 0.000000 0.047638 0.000000 -0.007517
# 5 -0.006078 -0.002911 -0.001218 0.000000 0.031715 0.000000
# 6 0.000000 0.000000 0.000000 -0.007517 0.000000 0.030408
#
#
# Mechanical properties :
#
#
# Convention : Reuss Voigt Hill
#
# Bulk Modulus (GPa) = 48.88141 60.73253 54.80697
# Shear Modulus (GPa) = 26.31044 29.36960 27.84002
#
# Velocity S-wave (km/s) = 3.39848 3.59062 3.49587
# Velocity P-wave (km/s) = 6.07102 6.62195 6.35246
#
# Compressibility (1/GPa) = 0.02045768
#
# Stress axis : x y z
#
# Youngs Moduli (GPa) = 58.49476 57.19632 80.78547
#
# Poissons Ratio (x) = 0.29623 0.43561
# Poissons Ratio (y) = 0.30295 0.21640
# Poissons Ratio (z) = 0.31541 0.15321
#
# Static dielectric constant tensor:
#      x y z
#    x 3.942220 0.000000 0.054260 
#    y 0.000000 3.871100 0.000000 
#    z 0.054260 0.000000 4.033050 
# 
# 
# High freq. dielectric constant tensor:
#      x y z
#    x 1.892850 0.000000 0.002860 
#    y 0.000000 1.884290 0.000000 
#    z 0.002860 0.000000 1.903440 
# 
# From -- ./inp_files/33108.got.cif
#   From: 2010.06.25/outbox.cif.g09.slc.cpg/sg9_17_cif.got.tgz:33108.got - 2010.06.27 21:40:51.
