data_PCOD8055434
_publ_section_title
;
Structure prediction by ZEFSAII (Michael W. Deem and Ramdas Pophale) SiO2 
 PCOD8055434
Probable space group: C C
;
_chemical_formula_sum "Si O2"
_cell_formula_units_Z 32
_cell_length_a 8.781899
_cell_length_b 30.181579
_cell_length_c 5.280445
_cell_angle_alpha 90.000000
_cell_angle_beta 78.150225
_cell_angle_gamma 90.000000
_cell_volume 1369.764126
_symmetry_space_group_name_H-M "C C"
_symmetry_group_IT_number 9
_symmetry_cell_setting 'monoclinic'
loop_
_space_group_symop_operation_xyz
x,y,z
x,-y,1/2+z
1/2+x,1/2+y,z
1/2+x,1/2-y,1/2+z
loop_
_atom_site_type_symbol
_atom_site_label
_atom_site_fract_x
_atom_site_fract_y
_atom_site_fract_z
Si Si1 0.217010 0.193643 0.264200
Si Si2 0.467934 0.332918 0.473180
Si Si3 0.633829 0.841124 0.766884
Si Si4 0.072849 0.972124 0.045502
Si Si5 0.709882 0.383259 0.127964
Si Si6 0.213867 0.526840 0.674647
Si Si7 0.516269 0.113207 0.805482
Si Si8 0.504491 0.753097 0.665827
O O1 0.283475 0.157296 0.439419
O O2 0.361272 0.219771 0.089916
O O3 0.105114 0.230775 0.417024
O O4 0.120306 0.167334 0.093803
O O5 0.316307 0.351389 0.661859
O O6 0.531184 0.368808 0.251166
O O7 0.434092 0.284310 0.373922
O O8 0.537132 0.863605 0.570998
O O9 0.608516 0.788184 0.785706
O O10 0.596862 0.859053 0.055520
O O11 0.186136 0.929457 0.989295
O O12 0.892777 0.957342 0.121669
O O13 0.112695 0.999265 0.285494
O O14 0.831141 0.390816 0.317419
O O15 0.180278 0.509686 0.402466
O O16 0.096193 0.565765 0.781375
#
# Coordination Sequence:
#
# PCOD8055434 Si02
#       8
#     4   4   4   4   4   4   4   4
#     4  11  25  43  67  98 143 184 239 293 348 420
#     4  11  27  42  70  98 139 188 238 294 342 428
#     4  12  27  45  70 101 138 188 232 287 350 412
#     4  10  24  43  72 102 140 183 230 284 348 426
#     4  11  26  45  68 106 142 185 234 294 352 416
#     4  10  22  44  70 101 136 179 229 284 349 424
#     4  12  27  45  72 103 143 181 230 292 349 422
#     4  11  24  43  63 101 135 188 234 286 354 404
#
# _framework density 23.361688999999998
#
# number of rings (size 3 to 8) (size 9 to 14) (size 15 to 20)
#    0.000    1.000    2.500    2.250   10.500    2.000 
#    0.000    0.000    0.000    0.000    0.000    0.000 
#    0.000    0.000    0.000    0.000    0.000    0.000 
#
# Total GULP energy -198372.637777 kJ/mol
# GULP energy per Si atom -12398.289861 kJ/mol
# Density = 2.330852 g / cm^3
# Si number density = 23.361689 Si / 1000 Ang^3
#
#
#
# Elastic Constant Matrix: (Units=GPa)
#
#
# Indices 1 2 3 4 5 6 
#
# 1 100.8150 38.8006 3.1015 0.0000 -0.9405 0.0000
# 2 38.8006 110.6909 19.7370 0.0000 -6.9704 0.0000
# 3 3.1015 19.7370 73.1787 0.0000 -0.6974 0.0000
# 4 0.0000 0.0000 0.0000 16.8441 0.0000 1.6789
# 5 -0.9405 -6.9704 -0.6974 0.0000 37.2620 0.0000
# 6 0.0000 0.0000 0.0000 1.6789 0.0000 43.6248
#
#
#
# Elastic Compliance Matrix: (Units=1/GPa)
#
#
# Indices 1 2 3 4 5 6 
#
# 1 0.011502 -0.004175 0.000634 0.000000 -0.000479 0.000000
# 2 -0.004175 0.011119 -0.002804 0.000000 0.001922 0.000000
# 3 0.000634 -0.002804 0.014392 0.000000 -0.000239 0.000000
# 4 0.000000 0.000000 0.000000 0.059597 0.000000 -0.002294
# 5 -0.000479 0.001922 -0.000239 0.000000 0.027180 0.000000
# 6 0.000000 0.000000 0.000000 -0.002294 0.000000 0.023011
#
#
# Mechanical properties :
#
#
# Convention : Reuss Voigt Hill
#
# Bulk Modulus (GPa) = 41.11223 45.32921 43.22072
# Shear Modulus (GPa) = 29.83342 34.41588 32.12465
#
# Velocity S-wave (km/s) = 3.57742 3.84236 3.71226
# Velocity P-wave (km/s) = 5.89069 6.25542 6.07580
#
# Compressibility (1/GPa) = 0.02432366
#
# Stress axis : x y z
#
# Youngs Moduli (GPa) = 86.94126 89.93974 69.48226
#
# Poissons Ratio (x) = 0.37550 -0.04405
# Poissons Ratio (y) = 0.36298 0.19479
# Poissons Ratio (z) = -0.05512 0.25215
#
# Static dielectric constant tensor:
#      x y z
#    x 4.252510 0.000000 0.002480 
#    y 0.000000 4.209720 0.000000 
#    z 0.002480 0.000000 4.169180 
# 
# 
# High freq. dielectric constant tensor:
#      x y z
#    x 1.933550 0.000000 -0.007590 
#    y 0.000000 1.930480 0.000000 
#    z -0.007590 0.000000 1.918950 
# 
# From -- ./inp_files/1044.got.cif
#   From: 2010.06.25/outbox.cif.g09.slc.cpg/sg9_1_cif.got.tgz:1044.got - 2010.06.27 21:40:51.
