data_PCOD8055953
_publ_section_title
;
Structure prediction by ZEFSAII (Michael W. Deem and Ramdas Pophale) SiO2 
 PCOD8055953
Probable space group: C C
;
_chemical_formula_sum "Si O2"
_cell_formula_units_Z 32
_cell_length_a 31.591522
_cell_length_b 5.207906
_cell_length_c 9.131730
_cell_angle_alpha 90.000000
_cell_angle_beta 116.679546
_cell_angle_gamma 90.000000
_cell_volume 1342.445705
_symmetry_space_group_name_H-M "C C"
_symmetry_group_IT_number 9
_symmetry_cell_setting 'monoclinic'
loop_
_space_group_symop_operation_xyz
x,y,z
x,-y,1/2+z
1/2+x,1/2+y,z
1/2+x,1/2-y,1/2+z
loop_
_atom_site_type_symbol
_atom_site_label
_atom_site_fract_x
_atom_site_fract_y
_atom_site_fract_z
Si Si1 0.187540 0.719582 0.119430
Si Si2 0.377323 0.324294 0.416825
Si Si3 0.297223 0.299724 0.788131
Si Si4 0.005049 0.438165 0.333054
Si Si5 0.154323 0.224091 0.234486
Si Si6 0.970578 0.950746 0.146716
Si Si7 0.845615 0.490824 0.621419
Si Si8 0.549072 0.751651 0.144607
O O1 0.242137 0.641909 0.216740
O O2 0.159610 0.487840 0.153204
O O3 0.178818 0.988019 0.189216
O O4 0.173977 0.746497 0.928621
O O5 0.325564 0.439681 0.302549
O O6 0.419440 0.532084 0.487587
O O7 0.375793 0.186617 0.571235
O O8 0.385236 0.141522 0.287964
O O9 0.305898 0.115166 0.664125
O O10 0.316789 0.197641 0.972155
O O11 0.053131 0.380515 0.311896
O O12 0.022635 0.518949 0.517912
O O13 0.973691 0.176829 0.276744
O O14 0.973992 0.668604 0.216469
O O15 0.098366 0.161451 0.153984
O O16 0.013566 0.005373 0.097174
#
# Coordination Sequence:
#
# PCOD8055953 Si02
#       8
#     4   4   4   4   4   4   4   4
#     4  12  29  47  78 110 148 194 248 310 373 453
#     4  11  25  43  70 102 140 190 238 301 355 441
#     4  11  25  45  70  99 142 181 239 295 368 426
#     4  10  25  43  68 102 138 189 232 293 351 422
#     4  12  28  48  78 110 150 192 254 301 382 439
#     4  10  27  41  72 100 147 184 242 283 370 419
#     4  10  25  43  69  97 138 183 239 290 366 423
#     4  10  26  44  75  98 149 181 242 293 359 425
#
# _framework density 23.837088999999999
#
# number of rings (size 3 to 8) (size 9 to 14) (size 15 to 20)
#    0.750    0.500    0.000    3.000   17.500    1.000 
#    0.000    0.000    0.000    0.000    0.000    0.000 
#    0.000    0.000    0.000    0.000    0.000    0.000 
#
# Total GULP energy -198294.485189 kJ/mol
# GULP energy per Si atom -12393.405324 kJ/mol
# Density = 2.378283 g / cm^3
# Si number density = 23.837089 Si / 1000 Ang^3
#
#
#
# Elastic Constant Matrix: (Units=GPa)
#
#
# Indices 1 2 3 4 5 6 
#
# 1 91.1252 17.2844 37.1175 0.0000 13.4607 0.0000
# 2 17.2844 97.5029 14.1915 0.0000 -9.7651 0.0000
# 3 37.1175 14.1915 95.5734 0.0000 -17.0121 0.0000
# 4 0.0000 0.0000 0.0000 22.1248 0.0000 3.4212
# 5 13.4607 -9.7651 -17.0121 0.0000 45.4307 0.0000
# 6 0.0000 0.0000 0.0000 3.4212 0.0000 28.0064
#
#
#
# Elastic Compliance Matrix: (Units=1/GPa)
#
#
# Indices 1 2 3 4 5 6 
#
# 1 0.015442 -0.002493 -0.007004 0.000000 -0.007734 0.000000
# 2 -0.002493 0.011023 -0.000124 0.000000 0.003061 0.000000
# 3 -0.007004 -0.000124 0.014535 0.000000 0.007491 0.000000
# 4 0.000000 0.000000 0.000000 0.046068 0.000000 -0.005628
# 5 -0.007734 0.003061 0.007491 0.000000 0.027766 0.000000
# 6 0.000000 0.000000 0.000000 -0.005628 0.000000 0.036394
#
#
# Mechanical properties :
#
#
# Convention : Reuss Voigt Hill
#
# Bulk Modulus (GPa) = 45.95674 46.82092 46.38883
# Shear Modulus (GPa) = 28.13409 33.48624 30.81017
#
# Velocity S-wave (km/s) = 3.43923 3.75213 3.59908
# Velocity P-wave (km/s) = 5.92388 6.20129 6.06417
#
# Compressibility (1/GPa) = 0.02175959
#
# Stress axis : x y z
#
# Youngs Moduli (GPa) = 64.75932 90.72291 68.79974
#
# Poissons Ratio (x) = 0.22613 0.48184
# Poissons Ratio (y) = 0.16142 0.00852
# Poissons Ratio (z) = 0.45354 0.01123
#
# Static dielectric constant tensor:
#      x y z
#    x 4.266900 0.000000 -0.192860 
#    y 0.000000 4.262610 0.000000 
#    z -0.192860 0.000000 4.267830 
# 
# 
# High freq. dielectric constant tensor:
#      x y z
#    x 1.945410 0.000000 -0.013120 
#    y 0.000000 1.949490 0.000000 
#    z -0.013120 0.000000 1.952580 
# 
# From -- ./inp_files/12655.got.cif
#   From: 2010.06.25/outbox.cif.g09.slc.cpg/sg9_7_cif.got.tgz:12655.got - 2010.06.27 21:40:51.
