data_PCOD8055840
_publ_section_title
;
Structure prediction by ZEFSAII (Michael W. Deem and Ramdas Pophale) SiO2 
 PCOD8055840
Probable space group: C C
;
_chemical_formula_sum "Si O2"
_cell_formula_units_Z 32
_cell_length_a 6.369258
_cell_length_b 27.596650
_cell_length_c 7.956504
_cell_angle_alpha 90.000000
_cell_angle_beta 90.266942
_cell_angle_gamma 90.000000
_cell_volume 1398.500992
_symmetry_space_group_name_H-M "C C"
_symmetry_group_IT_number 9
_symmetry_cell_setting 'monoclinic'
loop_
_space_group_symop_operation_xyz
x,y,z
x,-y,1/2+z
1/2+x,1/2+y,z
1/2+x,1/2-y,1/2+z
loop_
_atom_site_type_symbol
_atom_site_label
_atom_site_fract_x
_atom_site_fract_y
_atom_site_fract_z
Si Si1 0.982170 0.350067 0.445350
Si Si2 0.719564 0.230282 0.805274
Si Si3 0.160245 0.033055 0.556663
Si Si4 0.849258 0.981967 0.791835
Si Si5 0.549440 0.958752 0.524913
Si Si6 0.884582 0.799271 0.968022
Si Si7 0.245591 0.139091 0.615362
Si Si8 0.985249 0.318359 0.813901
O O1 0.824297 0.336568 0.290303
O O2 0.900476 0.333475 0.628846
O O3 0.201151 0.321766 0.401479
O O4 0.999149 0.407609 0.442421
O O5 0.724291 0.223765 0.603964
O O6 0.517135 0.259722 0.869144
O O7 0.923118 0.262259 0.852741
O O8 0.249683 0.081308 0.640989
O O9 0.962563 0.016369 0.661410
O O10 0.340806 0.991984 0.541362
O O11 0.044285 0.046633 0.379561
O O12 0.669662 0.948665 0.703078
O O13 0.722197 0.016284 0.913578
O O14 0.737354 0.823719 0.825462
O O15 0.019258 0.838774 0.070590
O O16 0.393348 0.147186 0.456129
#
# Coordination Sequence:
#
# PCOD8055840 Si02
#       8
#     4   4   4   4   4   4   4   4
#     4  12  26  46  74 106 145 190 247 296 366 437
#     4  11  25  47  71 105 145 186 242 304 364 437
#     4  11  24  46  70 102 148 187 241 306 365 434
#     4  10  24  43  70 101 140 194 238 289 371 434
#     4  11  25  45  71 105 144 192 241 301 364 438
#     4  11  26  47  74 104 144 192 241 302 372 435
#     4  11  27  47  72 109 145 190 243 306 365 441
#     4  11  27  47  74 106 139 197 241 300 371 430
#
# _framework density 22.881644000000001
#
# number of rings (size 3 to 8) (size 9 to 14) (size 15 to 20)
#    0.000    1.000    2.500    2.250   10.500    1.000 
#    2.250    0.000    0.000    0.000    0.000    0.000 
#    0.000    0.000    0.000    0.000    0.000    0.000 
#
# Total GULP energy -198220.174910 kJ/mol
# GULP energy per Si atom -12388.760932 kJ/mol
# Density = 2.282956 g / cm^3
# Si number density = 22.881644 Si / 1000 Ang^3
#
#
#
# Elastic Constant Matrix: (Units=GPa)
#
#
# Indices 1 2 3 4 5 6 
#
# 1 123.6521 37.7817 66.7696 0.0000 10.6190 0.0000
# 2 37.7817 95.1283 29.5615 0.0000 -2.2082 0.0000
# 3 66.7696 29.5615 141.2597 0.0000 10.6777 0.0000
# 4 0.0000 0.0000 0.0000 29.0560 0.0000 -0.3476
# 5 10.6190 -2.2082 10.6777 0.0000 48.2797 0.0000
# 6 0.0000 0.0000 0.0000 -0.3476 0.0000 21.9163
#
#
#
# Elastic Compliance Matrix: (Units=1/GPa)
#
#
# Indices 1 2 3 4 5 6 
#
# 1 0.011799 -0.003243 -0.004771 0.000000 -0.001688 0.000000
# 2 -0.003243 0.012187 -0.001133 0.000000 0.001521 0.000000
# 3 -0.004771 -0.001133 0.009657 0.000000 -0.001138 0.000000
# 4 0.000000 0.000000 0.000000 0.034423 0.000000 0.000546
# 5 -0.001688 0.001521 -0.001138 0.000000 0.021405 0.000000
# 6 0.000000 0.000000 0.000000 0.000546 0.000000 0.045637
#
#
# Mechanical properties :
#
#
# Convention : Reuss Voigt Hill
#
# Bulk Modulus (GPa) = 65.14200 69.80733 67.47466
# Shear Modulus (GPa) = 31.54202 34.91222 33.22712
#
# Velocity S-wave (km/s) = 3.71682 3.91035 3.81482
# Velocity P-wave (km/s) = 6.85205 7.13877 6.99688
#
# Compressibility (1/GPa) = 0.01535108
#
# Stress axis : x y z
#
# Youngs Moduli (GPa) = 84.75110 82.05229 103.54845
#
# Poissons Ratio (x) = 0.26609 0.49402
# Poissons Ratio (y) = 0.27484 0.11728
# Poissons Ratio (z) = 0.40434 0.09293
#
# Static dielectric constant tensor:
#      x y z
#    x 4.303670 0.000000 0.287360 
#    y 0.000000 3.978130 0.000000 
#    z 0.287360 0.000000 4.722270 
# 
# 
# High freq. dielectric constant tensor:
#      x y z
#    x 1.902900 0.000000 0.001970 
#    y 0.000000 1.890910 0.000000 
#    z 0.001970 0.000000 1.923880 
# 
# From -- ./inp_files/4382.got.cif
#   From: 2010.06.25/outbox.cif.g09.slc.cpg/sg9_3_cif.got.tgz:4382.got - 2010.06.27 21:40:51.
