data_PCOD8055890
_publ_section_title
;
Structure prediction by ZEFSAII (Michael W. Deem and Ramdas Pophale) SiO2 
 PCOD8055890
Probable space group: C C
;
_chemical_formula_sum "Si O2"
_cell_formula_units_Z 28
_cell_length_a 5.207360
_cell_length_b 30.967761
_cell_length_c 9.081135
_cell_angle_alpha 90.000000
_cell_angle_beta 123.086128
_cell_angle_gamma 90.000000
_cell_volume 1226.970968
_symmetry_space_group_name_H-M "C C"
_symmetry_group_IT_number 9
_symmetry_cell_setting 'monoclinic'
loop_
_space_group_symop_operation_xyz
x,y,z
x,-y,1/2+z
1/2+x,1/2+y,z
1/2+x,1/2-y,1/2+z
loop_
_atom_site_type_symbol
_atom_site_label
_atom_site_fract_x
_atom_site_fract_y
_atom_site_fract_z
Si Si1 0.875000 0.331608 0.406630
Si Si2 0.444154 0.873348 0.727370
Si Si3 0.672262 0.461936 0.974173
Si Si4 0.303022 0.806124 0.910843
Si Si5 0.952475 0.533421 0.256983
Si Si6 0.279361 0.712613 0.793428
Si Si7 0.071016 0.872295 0.055944
O O1 0.646740 0.293618 0.393496
O O2 0.661597 0.366411 0.255049
O O3 0.035453 0.353965 0.597003
O O4 0.144178 0.317279 0.381123
O O5 0.252827 0.838090 0.757277
O O6 0.293096 0.920605 0.658166
O O7 0.719051 0.884061 0.926025
O O8 0.757896 0.412772 0.048374
O O9 0.760712 0.494930 0.128148
O O10 0.311054 0.467603 0.824425
O O11 0.898144 0.473082 0.912260
O O12 0.182045 0.760756 0.810638
O O13 0.640819 0.798962 0.088493
O O14 0.109156 0.826237 0.983811
#
# Coordination Sequence:
#
# PCOD8055890 Si02
#       7
#     4   4   4   4   4   4   4
#     4  11  26  43  66 104 130 181 232 270 341 396
#     4  11  24  43  71  97 140 177 226 280 340 404
#     4  11  24  46  70 102 139 177 227 280 347 407
#     4  11  23  44  66  95 141 173 230 279 340 393
#     4  11  25  45  71 105 134 185 220 284 347 409
#     4  11  26  42  67  98 133 182 224 283 332 399
#     4  10  24  45  67  97 141 179 221 286 335 400
#
# _framework density 22.820425
#
# number of rings (size 3 to 8) (size 9 to 14) (size 15 to 20)
#    0.000    1.143    2.857    1.714    8.000    1.143 
#    5.143    0.000    0.000    0.000    0.000    0.000 
#    0.000    0.000    0.000    0.000    0.000    0.000 
#
# Total GULP energy -173500.639345 kJ/mol
# GULP energy per Si atom -12392.902810 kJ/mol
# Density = 2.276848 g / cm^3
# Si number density = 22.820425 Si / 1000 Ang^3
#
#
#
# Elastic Constant Matrix: (Units=GPa)
#
#
# Indices 1 2 3 4 5 6 
#
# 1 70.8716 5.4451 12.0808 0.0000 -12.5656 0.0000
# 2 5.4451 122.5022 32.8142 0.0000 -4.0549 0.0000
# 3 12.0808 32.8142 82.1092 0.0000 -13.6874 0.0000
# 4 0.0000 0.0000 0.0000 32.4110 0.0000 -7.7232
# 5 -12.5656 -4.0549 -13.6874 0.0000 32.6425 0.0000
# 6 0.0000 0.0000 0.0000 -7.7232 0.0000 26.7807
#
#
#
# Elastic Compliance Matrix: (Units=1/GPa)
#
#
# Indices 1 2 3 4 5 6 
#
# 1 0.015287 -0.000155 -0.001300 0.000000 0.005320 0.000000
# 2 -0.000155 0.009149 -0.003713 0.000000 -0.000480 0.000000
# 3 -0.001300 -0.003713 0.014723 0.000000 0.005212 0.000000
# 4 0.000000 0.000000 0.000000 0.033130 0.000000 0.009554
# 5 0.005320 -0.000480 0.005212 0.000000 0.034809 0.000000
# 6 0.000000 0.000000 0.000000 0.009554 0.000000 0.040096
#
#
# Mechanical properties :
#
#
# Convention : Reuss Voigt Hill
#
# Bulk Modulus (GPa) = 34.69700 41.79590 38.24645
# Shear Modulus (GPa) = 29.91534 33.37636 31.64585
#
# Velocity S-wave (km/s) = 3.62457 3.82850 3.72793
# Velocity P-wave (km/s) = 5.72311 6.15614 5.94357
#
# Compressibility (1/GPa) = 0.02882093
#
# Stress axis : x y z
#
# Youngs Moduli (GPa) = 65.41568 109.30356 67.92060
#
# Poissons Ratio (x) = 0.01695 0.08832
# Poissons Ratio (y) = 0.01014 0.25222
# Poissons Ratio (z) = 0.08506 0.40590
#
# Static dielectric constant tensor:
#      x y z
#    x 3.745080 0.000000 -0.071570 
#    y 0.000000 4.466020 0.000000 
#    z -0.071570 0.000000 4.177180 
# 
# 
# High freq. dielectric constant tensor:
#      x y z
#    x 1.885790 0.000000 -0.013490 
#    y 0.000000 1.908720 0.000000 
#    z -0.013490 0.000000 1.901230 
# 
# From -- ./inp_files/4076.got.cif
#   From: 2010.06.25/outbox.cif.g09.slc.cpg/sg9_3_cif.got.tgz:4076.got - 2010.06.27 21:40:51.
