data_PCOD8055839
_publ_section_title
;
Structure prediction by ZEFSAII (Michael W. Deem and Ramdas Pophale) SiO2 
 PCOD8055839
Probable space group: C C
;
_chemical_formula_sum "Si O2"
_cell_formula_units_Z 20
_cell_length_a 11.702585
_cell_length_b 7.101246
_cell_length_c 24.270931
_cell_angle_alpha 90.000000
_cell_angle_beta 26.187603
_cell_angle_gamma 90.000000
_cell_volume 890.119352
_symmetry_space_group_name_H-M "C C"
_symmetry_group_IT_number 9
_symmetry_cell_setting 'monoclinic'
loop_
_space_group_symop_operation_xyz
x,y,z
x,-y,1/2+z
1/2+x,1/2+y,z
1/2+x,1/2-y,1/2+z
loop_
_atom_site_type_symbol
_atom_site_label
_atom_site_fract_x
_atom_site_fract_y
_atom_site_fract_z
Si Si1 0.648550 0.384450 0.181170
Si Si2 0.902999 0.710900 0.132164
Si Si3 0.695261 0.027502 0.809348
Si Si4 0.150928 0.820156 0.912625
Si Si5 0.417362 0.306741 0.472920
O O1 0.744475 0.520904 0.188152
O O2 0.485293 0.507609 0.207330
O O3 0.459971 0.219593 0.287228
O O4 0.891839 0.292786 0.043936
O O5 0.715142 0.864696 0.242231
O O6 0.005790 0.812598 0.033228
O O7 0.131824 0.642920 0.073999
O O8 0.537603 0.159635 0.920850
O O9 0.548981 0.828426 0.869968
O O10 0.102759 0.016118 0.902219
#
# Coordination Sequence:
#
# PCOD8055839 Si02
#       5
#     4   4   4   4   4
#     4   9  21  45  67  97 139 178 226 286 333 407
#     4  11  23  45  72  98 138 188 222 284 353 396
#     4   9  23  44  67 100 142 172 230 286 332 416
#     4  10  24  43  69  99 138 181 225 287 338 403
#     4  11  23  45  69 102 135 181 235 279 338 414
#
# _framework density 22.468896999999998
#
# number of rings (size 3 to 8) (size 9 to 14) (size 15 to 20)
#    1.200    0.800    2.000    0.000    2.800    4.800 
#    3.600    0.000    0.000    0.000    0.000    0.000 
#    0.000    0.000    0.000    0.000    0.000    0.000 
#
# Total GULP energy -123923.743347 kJ/mol
# GULP energy per Si atom -12392.374335 kJ/mol
# Density = 2.241776 g / cm^3
# Si number density = 22.468897 Si / 1000 Ang^3
#
#
#
# Elastic Constant Matrix: (Units=GPa)
#
#
# Indices 1 2 3 4 5 6 
#
# 1 95.2303 60.6957 38.4084 -0.0001 14.7580 0.0001
# 2 60.6957 158.7065 63.9375 0.0016 -8.0761 0.0002
# 3 38.4084 63.9375 89.4686 0.0176 8.3716 -0.0029
# 4 -0.0001 0.0016 0.0176 26.5671 -0.0030 -7.0593
# 5 14.7580 -8.0761 8.3716 -0.0030 39.7584 -0.0003
# 6 0.0001 0.0002 -0.0029 -7.0593 -0.0003 45.0963
#
#
#
# Elastic Compliance Matrix: (Units=1/GPa)
#
#
# Indices 1 2 3 4 5 6 
#
# 1 0.015956 -0.005510 -0.002299 0.000001 -0.006558 0.000000
# 2 -0.005510 0.011167 -0.006139 0.000004 0.005606 0.000000
# 3 -0.002299 -0.006139 0.016922 -0.000011 -0.003957 -0.000001
# 4 0.000001 0.000004 -0.000011 0.039274 0.000006 0.006148
# 5 -0.006558 0.005606 -0.003957 0.000006 0.029558 0.000001
# 6 0.000000 0.000000 -0.000001 0.006148 0.000001 0.023137
#
#
# Mechanical properties :
#
#
# Convention : Reuss Voigt Hill
#
# Bulk Modulus (GPa) = 61.92515 74.38762 68.15638
# Shear Modulus (GPa) = 29.53468 34.30861 31.92165
#
# Velocity S-wave (km/s) = 3.62949 3.91184 3.77331
# Velocity P-wave (km/s) = 6.72194 7.31998 7.02733
#
# Compressibility (1/GPa) = 0.01614853
#
# Stress axis : x y z
#
# Youngs Moduli (GPa) = 62.67228 89.55137 59.09609
#
# Poissons Ratio (x) = 0.49342 0.13584
# Poissons Ratio (y) = 0.34532 0.36281
# Poissons Ratio (z) = 0.14406 0.54979
#
# Static dielectric constant tensor:
#      x y z
#    x 3.812730 0.000000 0.122420 
#    y 0.000000 3.744840 0.000000 
#    z 0.122420 0.000000 3.865940 
# 
# 
# High freq. dielectric constant tensor:
#      x y z
#    x 1.874160 0.000000 0.016650 
#    y 0.000000 1.871430 0.000000 
#    z 0.016650 0.000000 1.880970 
# 
# From -- ./inp_files/15779.got.cif
#   From: 2010.06.25/outbox.cif.g09.slc.cpg/sg9_8_cif.got.tgz:15779.got - 2010.06.27 21:40:51.
