data_PCOD8055941
_publ_section_title
;
Structure prediction by ZEFSAII (Michael W. Deem and Ramdas Pophale) SiO2 
 PCOD8055941
Probable space group: C C
;
_chemical_formula_sum "Si O2"
_cell_formula_units_Z 32
_cell_length_a 17.854289
_cell_length_b 9.526775
_cell_length_c 13.655567
_cell_angle_alpha 90.000000
_cell_angle_beta 147.066915
_cell_angle_gamma 90.000000
_cell_volume 1262.771992
_symmetry_space_group_name_H-M "C C"
_symmetry_group_IT_number 9
_symmetry_cell_setting 'monoclinic'
loop_
_space_group_symop_operation_xyz
x,y,z
x,-y,1/2+z
1/2+x,1/2+y,z
1/2+x,1/2-y,1/2+z
loop_
_atom_site_type_symbol
_atom_site_label
_atom_site_fract_x
_atom_site_fract_y
_atom_site_fract_z
Si Si1 0.347960 0.570240 0.710380
Si Si2 0.640334 0.539036 0.491079
Si Si3 0.609214 0.857070 0.475325
Si Si4 0.619126 0.068869 0.209743
Si Si5 0.230315 0.792805 0.449439
Si Si6 0.932864 0.345688 0.106054
Si Si7 0.705948 0.493824 0.275247
Si Si8 0.907772 0.940439 0.490309
O O1 0.214387 0.473578 0.551877
O O2 0.340640 0.709824 0.635666
O O3 0.359122 0.625741 0.833667
O O4 0.476791 0.476102 0.823051
O O5 0.671094 0.704921 0.512848
O O6 0.682777 0.436026 0.450555
O O7 0.723408 0.489000 0.678653
O O8 0.579432 0.871875 0.558297
O O9 0.469051 0.883407 0.258717
O O10 0.605213 0.188541 0.278815
O O11 0.526191 0.934831 0.132006
O O12 0.783015 0.031668 0.396629
O O13 0.288556 0.856386 0.409519
O O14 0.772826 0.372120 0.903619
O O15 0.956685 0.181083 0.117314
O O16 0.545110 0.467931 0.124915
#
# Coordination Sequence:
#
# PCOD8055941 Si02
#       8
#     4   4   4   4   4   4   4   4
#     4  10  25  46  75 104 147 199 239 305 374 443
#     4  11  26  47  74 102 150 192 253 302 369 447
#     4  11  25  48  71 110 144 195 245 306 369 451
#     4  11  26  47  75 105 151 201 248 304 375 448
#     4  12  25  44  72 107 143 191 245 300 374 432
#     4  12  25  42  75 111 144 190 250 305 368 439
#     4  11  26  44  70 111 140 195 239 306 367 438
#     4  10  24  48  72 104 155 191 243 302 372 444
#
# _framework density 25.341072
#
# number of rings (size 3 to 8) (size 9 to 14) (size 15 to 20)
#    0.000    1.000    2.500    2.250    5.250    8.000 
#    0.000    0.000    0.000    0.000    0.000    0.000 
#    0.000    0.000    0.000    0.000    0.000    0.000 
#
# Total GULP energy -198296.122605 kJ/mol
# GULP energy per Si atom -12393.507663 kJ/mol
# Density = 2.528340 g / cm^3
# Si number density = 25.341072 Si / 1000 Ang^3
#
#
#
# Elastic Constant Matrix: (Units=GPa)
#
#
# Indices 1 2 3 4 5 6 
#
# 1 66.9933 30.6591 33.9838 0.0000 -23.5502 0.0000
# 2 30.6591 103.2364 29.6768 0.0000 -24.4052 0.0000
# 3 33.9838 29.6768 140.4250 0.0000 -32.2625 0.0000
# 4 0.0000 0.0000 0.0000 46.0545 0.0000 -11.7948
# 5 -23.5502 -24.4052 -32.2625 0.0000 41.6943 0.0000
# 6 0.0000 0.0000 0.0000 -11.7948 0.0000 38.7403
#
#
#
# Elastic Compliance Matrix: (Units=1/GPa)
#
#
# Indices 1 2 3 4 5 6 
#
# 1 0.020474 -0.003586 -0.002460 0.000000 0.007562 0.000000
# 2 -0.003586 0.011999 -0.000632 0.000000 0.004509 0.000000
# 3 -0.002460 -0.000632 0.009056 0.000000 0.005248 0.000000
# 4 0.000000 0.000000 0.000000 0.023550 0.000000 0.007170
# 5 0.007562 0.004509 0.005248 0.000000 0.034956 0.000000
# 6 0.000000 0.000000 0.000000 0.007170 0.000000 0.027996
#
#
# Mechanical properties :
#
#
# Convention : Reuss Voigt Hill
#
# Bulk Modulus (GPa) = 35.49366 55.47712 45.48539
# Shear Modulus (GPa) = 33.16186 39.72016 36.44101
#
# Velocity S-wave (km/s) = 3.62141 3.96336 3.79624
# Velocity P-wave (km/s) = 5.61453 6.54859 6.09947
#
# Compressibility (1/GPa) = 0.02817405
#
# Stress axis : x y z
#
# Youngs Moduli (GPa) = 48.84286 83.34030 110.42659
#
# Poissons Ratio (x) = 0.29882 0.27161
# Poissons Ratio (y) = 0.17513 0.06980
# Poissons Ratio (z) = 0.12014 0.05268
#
# Static dielectric constant tensor:
#      x y z
#    x 4.449730 0.000000 -0.395250 
#    y 0.000000 4.483140 0.000000 
#    z -0.395250 0.000000 4.874030 
# 
# 
# High freq. dielectric constant tensor:
#      x y z
#    x 1.993740 0.000000 -0.031150 
#    y 0.000000 2.012460 0.000000 
#    z -0.031150 0.000000 2.034550 
# 
# From -- ./inp_files/27363.got.cif
#   From: 2010.06.25/outbox.cif.g09.slc.cpg/sg9_14_cif.got.tgz:27363.got - 2010.06.27 21:40:51.
