data_PCOD8055505
_publ_section_title
;
Structure prediction by ZEFSAII (Michael W. Deem and Ramdas Pophale) SiO2 
 PCOD8055505
Probable space group: C C
;
_chemical_formula_sum "Si O2"
_cell_formula_units_Z 24
_cell_length_a 5.184081
_cell_length_b 17.849069
_cell_length_c 10.850757
_cell_angle_alpha 90.000000
_cell_angle_beta 93.505656
_cell_angle_gamma 90.000000
_cell_volume 1002.152830
_symmetry_space_group_name_H-M "C C"
_symmetry_group_IT_number 9
_symmetry_cell_setting 'monoclinic'
loop_
_space_group_symop_operation_xyz
x,y,z
x,-y,1/2+z
1/2+x,1/2+y,z
1/2+x,1/2-y,1/2+z
loop_
_atom_site_type_symbol
_atom_site_label
_atom_site_fract_x
_atom_site_fract_y
_atom_site_fract_z
Si Si1 0.278560 0.684690 0.849620
Si Si2 0.448304 0.853400 0.128468
Si Si3 0.599444 0.910764 0.874116
Si Si4 0.282713 0.263377 0.792052
Si Si5 0.280701 0.987685 0.669079
Si Si6 0.769810 0.044372 0.019894
O O1 0.546075 0.728010 0.859532
O O2 0.218480 0.646934 0.713833
O O3 0.046123 0.743414 0.873362
O O4 0.292657 0.622864 0.954661
O O5 0.298872 0.774763 0.155259
O O6 0.280823 0.922237 0.179139
O O7 0.498889 0.861247 0.985819
O O8 0.744666 0.853347 0.784644
O O9 0.355262 0.949426 0.800768
O O10 0.798214 0.975274 0.923910
O O11 0.489044 0.963173 0.572782
O O12 0.995045 0.960423 0.627292
#
# Coordination Sequence:
#
# PCOD8055505 Si02
#       6
#     4   4   4   4   4   4
#     4  10  22  48  68  99 144 187 225 294 354 411
#     4   9  24  45  70 101 141 184 226 291 352 411
#     4  11  24  48  73 108 140 186 241 291 345 427
#     4  10  24  42  71 102 137 185 230 281 360 410
#     4  11  25  42  73 108 136 188 237 290 351 416
#     4  11  25  45  73 102 142 184 241 293 344 421
#
# _framework density 23.948442
#
# number of rings (size 3 to 8) (size 9 to 14) (size 15 to 20)
#    1.000    0.667    1.667    1.000    4.667    8.000 
#    6.000    0.000    0.000    0.000    0.000    0.000 
#    0.000    0.000    0.000    0.000    0.000    0.000 
#
# Total GULP energy -148740.415142 kJ/mol
# GULP energy per Si atom -12395.034595 kJ/mol
# Density = 2.389393 g / cm^3
# Si number density = 23.948442 Si / 1000 Ang^3
#
#
#
# Elastic Constant Matrix: (Units=GPa)
#
#
# Indices 1 2 3 4 5 6 
#
# 1 85.7223 4.1148 -4.3245 0.0000 15.4000 0.0000
# 2 4.1148 76.8250 15.7423 0.0000 3.5971 0.0000
# 3 -4.3245 15.7423 84.7811 0.0000 20.9476 0.0000
# 4 0.0000 0.0000 0.0000 27.3782 0.0000 -12.4030
# 5 15.4000 3.5971 20.9476 0.0000 26.1185 0.0000
# 6 0.0000 0.0000 0.0000 -12.4030 0.0000 26.0745
#
#
#
# Elastic Compliance Matrix: (Units=1/GPa)
#
#
# Indices 1 2 3 4 5 6 
#
# 1 0.013852 -0.000965 0.003580 0.000000 -0.010906 0.000000
# 2 -0.000965 0.013599 -0.002809 0.000000 0.000949 0.000000
# 3 0.003580 -0.002809 0.016120 0.000000 -0.014652 0.000000
# 4 0.000000 0.000000 0.000000 0.046558 0.000000 0.022147
# 5 -0.010906 0.000949 -0.014652 0.000000 0.056338 0.000000
# 6 0.000000 0.000000 0.000000 0.022147 0.000000 0.048886
#
#
# Mechanical properties :
#
#
# Convention : Reuss Voigt Hill
#
# Bulk Modulus (GPa) = 23.15671 30.93262 27.04466
# Shear Modulus (GPa) = 23.79419 31.36728 27.58074
#
# Velocity S-wave (km/s) = 3.15550 3.62302 3.39731
# Velocity P-wave (km/s) = 4.79235 5.51780 5.16782
#
# Compressibility (1/GPa) = 0.04318403
#
# Stress axis : x y z
#
# Youngs Moduli (GPa) = 72.19298 73.53261 62.03643
#
# Poissons Ratio (x) = 0.07095 -0.22211
# Poissons Ratio (y) = 0.06966 0.17425
# Poissons Ratio (z) = -0.25848 0.20654
#
# Static dielectric constant tensor:
#      x y z
#    x 3.985990 0.000000 0.112370 
#    y 0.000000 4.533780 0.000000 
#    z 0.112370 0.000000 4.132900 
# 
# 
# High freq. dielectric constant tensor:
#      x y z
#    x 1.937360 0.000000 0.006470 
#    y 0.000000 1.961520 0.000000 
#    z 0.006470 0.000000 1.940340 
# 
# From -- ./inp_files/13024.got.cif
#   From: 2010.06.25/outbox.cif.g09.slc.cpg/sg9_7_cif.got.tgz:13024.got - 2010.06.27 21:40:51.
