data_PCOD8055394
_publ_section_title
;
Structure prediction by ZEFSAII (Michael W. Deem and Ramdas Pophale) SiO2 
 PCOD8055394
Probable space group: C C
;
_chemical_formula_sum "Si O2"
_cell_formula_units_Z 32
_cell_length_a 9.619348
_cell_length_b 10.995065
_cell_length_c 14.811411
_cell_angle_alpha 90.000000
_cell_angle_beta 69.908539
_cell_angle_gamma 90.000000
_cell_volume 1471.203447
_symmetry_space_group_name_H-M "C C"
_symmetry_group_IT_number 9
_symmetry_cell_setting 'monoclinic'
loop_
_space_group_symop_operation_xyz
x,y,z
x,-y,1/2+z
1/2+x,1/2+y,z
1/2+x,1/2-y,1/2+z
loop_
_atom_site_type_symbol
_atom_site_label
_atom_site_fract_x
_atom_site_fract_y
_atom_site_fract_z
Si Si1 0.485360 0.399692 0.655980
Si Si2 0.783992 0.304882 0.852156
Si Si3 0.488664 0.982204 0.360326
Si Si4 0.478309 0.227057 0.996432
Si Si5 0.810287 0.962099 0.036783
Si Si6 0.793822 0.589498 0.160764
Si Si7 0.815800 0.962145 0.337707
Si Si8 0.485908 0.119073 0.667514
O O1 0.408894 0.474625 0.592460
O O2 0.663204 0.410536 0.615884
O O3 0.435973 0.450542 0.764859
O O4 0.451620 0.257753 0.650893
O O5 0.648495 0.268100 0.948659
O O6 0.730762 0.375411 0.773948
O O7 0.854044 0.177364 0.802736
O O8 0.899945 0.390004 0.879888
O O9 0.435118 0.894691 0.451748
O O10 0.661094 0.012046 0.333185
O O11 0.462084 0.902306 0.278002
O O12 0.380798 0.338354 0.985252
O O13 0.423822 0.189058 0.109189
O O14 0.646944 0.932569 0.107286
O O15 0.810306 0.043648 0.947613
O O16 0.862666 0.455659 0.141233
#
# Coordination Sequence:
#
# PCOD8055394 Si02
#       8
#     4   4   4   4   4   4   4   4
#     4  12  25  46  70 103 143 182 229 289 346 408
#     4  10  23  43  71 100 138 182 230 283 353 406
#     4  10  22  43  69  99 138 184 227 289 344 404
#     4  11  23  42  67  96 140 180 227 281 342 409
#     4  12  25  42  69 101 138 183 231 279 351 409
#     4  11  24  45  70 101 136 184 231 287 345 411
#     4  11  23  43  68 102 141 180 231 289 339 414
#     4  11  23  46  68 100 138 179 230 283 346 407
#
# _framework density 21.750899
#
# number of rings (size 3 to 8) (size 9 to 14) (size 15 to 20)
#    0.000    1.000    2.500    5.250    1.750    3.000 
#    4.500    0.000    0.000    0.000    0.000    0.000 
#    0.000    0.000    0.000    0.000    0.000    0.000 
#
# Total GULP energy -198320.782626 kJ/mol
# GULP energy per Si atom -12395.048914 kJ/mol
# Density = 2.170139 g / cm^3
# Si number density = 21.750899 Si / 1000 Ang^3
#
#
#
# Elastic Constant Matrix: (Units=GPa)
#
#
# Indices 1 2 3 4 5 6 
#
# 1 83.9848 82.5838 26.6295 0.0000 -6.1039 0.0000
# 2 82.5838 151.4261 40.7349 0.0000 -7.4004 0.0000
# 3 26.6295 40.7349 70.7084 0.0000 -8.7608 0.0000
# 4 0.0000 0.0000 0.0000 37.5058 0.0000 -1.4111
# 5 -6.1039 -7.4004 -8.7608 0.0000 29.1414 0.0000
# 6 0.0000 0.0000 0.0000 -1.4111 0.0000 37.0782
#
#
#
# Elastic Compliance Matrix: (Units=1/GPa)
#
#
# Indices 1 2 3 4 5 6 
#
# 1 0.025952 -0.013611 -0.001753 0.000000 0.001453 0.000000
# 2 -0.013611 0.014966 -0.003509 0.000000 -0.000105 0.000000
# 3 -0.001753 -0.003509 0.017313 0.000000 0.003947 0.000000
# 4 0.000000 0.000000 0.000000 0.026701 0.000000 0.001016
# 5 0.001453 -0.000105 0.003947 0.000000 0.035779 0.000000
# 6 0.000000 0.000000 0.000000 0.001016 0.000000 0.027009
#
#
# Mechanical properties :
#
#
# Convention : Reuss Voigt Hill
#
# Bulk Modulus (GPa) = 48.81341 67.33508 58.07425
# Shear Modulus (GPa) = 26.00185 31.15649 28.57917
#
# Velocity S-wave (km/s) = 3.46126 3.78884 3.62875
# Velocity P-wave (km/s) = 6.20198 7.08273 6.65693
#
# Compressibility (1/GPa) = 0.02048617
#
# Stress axis : x y z
#
# Youngs Moduli (GPa) = 38.53197 66.81875 57.76025
#
# Poissons Ratio (x) = 0.90949 0.10123
# Poissons Ratio (y) = 0.52447 0.20266
# Poissons Ratio (z) = 0.06753 0.23444
#
# Static dielectric constant tensor:
#      x y z
#    x 3.834670 0.000000 -0.094320 
#    y 0.000000 4.089080 0.000000 
#    z -0.094320 0.000000 3.994710 
# 
# 
# High freq. dielectric constant tensor:
#      x y z
#    x 1.845860 0.000000 -0.008610 
#    y 0.000000 1.868400 0.000000 
#    z -0.008610 0.000000 1.861860 
# 
# From -- ./inp_files/22697.got.cif
#   From: 2010.06.25/outbox.cif.g09.slc.cpg/sg9_12_cif.got.tgz:22697.got - 2010.06.27 21:40:51.
