data_PCOD8055731
_publ_section_title
;
Structure prediction by ZEFSAII (Michael W. Deem and Ramdas Pophale) SiO2 
 PCOD8055731
Probable space group: C C
;
_chemical_formula_sum "Si O2"
_cell_formula_units_Z 28
_cell_length_a 18.747409
_cell_length_b 6.644609
_cell_length_c 16.031100
_cell_angle_alpha 90.000000
_cell_angle_beta 137.752746
_cell_angle_gamma 90.000000
_cell_volume 1342.633123
_symmetry_space_group_name_H-M "C C"
_symmetry_group_IT_number 9
_symmetry_cell_setting 'monoclinic'
loop_
_space_group_symop_operation_xyz
x,y,z
x,-y,1/2+z
1/2+x,1/2+y,z
1/2+x,1/2-y,1/2+z
loop_
_atom_site_type_symbol
_atom_site_label
_atom_site_fract_x
_atom_site_fract_y
_atom_site_fract_z
Si Si1 0.000000 0.833408 0.957960
Si Si2 0.891986 0.781738 0.434671
Si Si3 0.224099 0.562939 0.911573
Si Si4 0.681950 0.387296 0.001517
Si Si5 0.363972 0.995943 0.761841
Si Si6 0.030505 0.455633 0.626752
Si Si7 0.337723 0.179670 0.070955
O O1 0.951746 0.655243 0.861633
O O2 0.074333 0.949201 0.955783
O O3 0.918368 0.994360 0.924926
O O4 0.060519 0.716607 0.085445
O O5 0.837525 0.650911 0.315228
O O6 0.000847 0.673606 0.560847
O O7 0.801681 0.792412 0.426713
O O8 0.167777 0.681699 0.937983
O O9 0.131201 0.469713 0.774449
O O10 0.303237 0.405089 0.022625
O O11 0.764319 0.365820 0.149497
O O12 0.725963 0.555181 0.974934
O O13 0.396027 0.851580 0.711104
O O14 0.920149 0.390735 0.573176
#
# Coordination Sequence:
#
# PCOD8055731 Si02
#       7
#     4   4   4   4   4   4   4
#     4  11  24  42  69  96 131 176 215 270 332 376
#     4  11  24  44  69  96 131 179 216 271 333 383
#     4  12  25  42  72  93 136 180 212 270 342 377
#     4  10  25  43  64 100 130 168 222 268 322 392
#     4   9  24  42  66  93 136 157 233 265 312 399
#     4  11  25  43  65 103 134 167 231 266 314 411
#     4  10  23  46  63  99 134 169 223 270 319 398
#
# _framework density 20.854543
#
# number of rings (size 3 to 8) (size 9 to 14) (size 15 to 20)
#    0.857    0.571    2.857    0.857    6.000    4.571 
#    0.000    0.000    0.000    0.000    0.000    0.000 
#    0.000    0.000    0.000    0.000    0.000    0.000 
#
# Total GULP energy -173456.517846 kJ/mol
# GULP energy per Si atom -12389.751275 kJ/mol
# Density = 2.080708 g / cm^3
# Si number density = 20.854543 Si / 1000 Ang^3
#
#
#
# Elastic Constant Matrix: (Units=GPa)
#
#
# Indices 1 2 3 4 5 6 
#
# 1 105.8202 32.5905 9.4173 0.0000 -0.6895 0.0000
# 2 32.5905 57.3112 17.5207 0.0000 -14.0493 0.0000
# 3 9.4173 17.5207 76.8342 0.0000 -19.2653 0.0000
# 4 0.0000 0.0000 0.0000 30.9608 0.0000 -5.8340
# 5 -0.6895 -14.0493 -19.2653 0.0000 26.6985 0.0000
# 6 0.0000 0.0000 0.0000 -5.8340 0.0000 30.5121
#
#
#
# Elastic Compliance Matrix: (Units=1/GPa)
#
#
# Indices 1 2 3 4 5 6 
#
# 1 0.011804 -0.007504 -0.000793 0.000000 -0.004216 0.000000
# 2 -0.007504 0.025156 -0.001888 0.000000 0.011682 0.000000
# 3 -0.000793 -0.001888 0.016224 0.000000 0.010693 0.000000
# 4 0.000000 0.000000 0.000000 0.033506 0.000000 0.006406
# 5 -0.004216 0.011682 0.010693 0.000000 0.051210 0.000000
# 6 0.000000 0.000000 0.000000 0.006406 0.000000 0.033999
#
#
# Mechanical properties :
#
#
# Convention : Reuss Voigt Hill
#
# Bulk Modulus (GPa) = 30.47277 39.89141 35.18209
# Shear Modulus (GPa) = 24.60564 29.66342 27.13453
#
# Velocity S-wave (km/s) = 3.43865 3.77556 3.61104
# Velocity P-wave (km/s) = 5.51448 6.17870 5.85602
#
# Compressibility (1/GPa) = 0.03281618
#
# Stress axis : x y z
#
# Youngs Moduli (GPa) = 84.71694 39.75136 61.63775
#
# Poissons Ratio (x) = 0.29828 0.04886
# Poissons Ratio (y) = 0.63568 0.11635
# Poissons Ratio (z) = 0.06716 0.07504
#
# Static dielectric constant tensor:
#      x y z
#    x 3.752020 0.000000 -0.228730 
#    y 0.000000 3.733450 0.000000 
#    z -0.228730 0.000000 3.626700 
# 
# 
# High freq. dielectric constant tensor:
#      x y z
#    x 1.824270 0.000000 -0.015620 
#    y 0.000000 1.814530 0.000000 
#    z -0.015620 0.000000 1.807040 
# 
# From -- ./inp_files/19767.got.cif
#   From: 2010.06.25/outbox.cif.g09.slc.cpg/sg9_10_cif.got.tgz:19767.got - 2010.06.27 21:40:51.
