data_PCOD8055653
_publ_section_title
;
Structure prediction by ZEFSAII (Michael W. Deem and Ramdas Pophale) SiO2 
 PCOD8055653
Probable space group: C C
;
_chemical_formula_sum "Si O2"
_cell_formula_units_Z 24
_cell_length_a 8.842886
_cell_length_b 18.096838
_cell_length_c 9.525821
_cell_angle_alpha 90.000000
_cell_angle_beta 43.681959
_cell_angle_gamma 90.000000
_cell_volume 1052.834562
_symmetry_space_group_name_H-M "C C"
_symmetry_group_IT_number 9
_symmetry_cell_setting 'monoclinic'
loop_
_space_group_symop_operation_xyz
x,y,z
x,-y,1/2+z
1/2+x,1/2+y,z
1/2+x,1/2-y,1/2+z
loop_
_atom_site_type_symbol
_atom_site_label
_atom_site_fract_x
_atom_site_fract_y
_atom_site_fract_z
Si Si1 0.236700 0.347461 0.723490
Si Si2 0.435148 0.081847 0.047245
Si Si3 0.137104 0.494898 0.663098
Si Si4 0.326598 0.689182 0.743726
Si Si5 0.281668 0.204862 0.502464
Si Si6 0.935899 0.871870 0.880321
O O1 0.284544 0.427985 0.626489
O O2 0.297078 0.280300 0.581400
O O3 0.367324 0.335073 0.779618
O O4 0.973698 0.348231 0.925704
O O5 0.618321 0.145053 0.937298
O O6 0.481181 0.033818 0.879639
O O7 0.463133 0.031039 0.164376
O O8 0.195328 0.116654 0.204646
O O9 0.315589 0.550104 0.478950
O O10 0.552939 0.660041 0.666736
O O11 0.355861 0.685101 0.555658
O O12 0.302891 0.772703 0.821212
#
# Coordination Sequence:
#
# PCOD8055653 Si02
#       6
#     4   4   4   4   4   4
#     4  11  23  46  65 104 132 177 233 271 343 392
#     4  11  24  44  67 102 133 177 222 282 341 401
#     4  11  23  44  67  99 133 175 228 276 346 397
#     4  10  23  44  67  98 131 180 226 265 341 395
#     4  10  23  45  73  91 137 188 221 278 324 416
#     4  11  26  43  69 102 138 173 224 292 333 401
#
# _framework density 22.795603
#
# number of rings (size 3 to 8) (size 9 to 14) (size 15 to 20)
#    0.000    1.333    3.333    1.000    4.667    2.667 
#   12.000    0.000    0.000    0.000    0.000    0.000 
#    0.000    0.000    0.000    0.000    0.000    0.000 
#
# Total GULP energy -148737.800942 kJ/mol
# GULP energy per Si atom -12394.816745 kJ/mol
# Density = 2.274372 g / cm^3
# Si number density = 22.795603 Si / 1000 Ang^3
#
#
#
# Elastic Constant Matrix: (Units=GPa)
#
#
# Indices 1 2 3 4 5 6 
#
# 1 170.5587 46.4853 70.5476 0.0000 -6.7746 0.0000
# 2 46.4853 57.8384 29.0677 0.0000 2.6461 0.0000
# 3 70.5476 29.0677 110.2384 0.0000 1.2240 0.0000
# 4 0.0000 0.0000 0.0000 24.2644 0.0000 1.2761
# 5 -6.7746 2.6461 1.2240 0.0000 43.6974 0.0000
# 6 0.0000 0.0000 0.0000 1.2761 0.0000 40.4414
#
#
#
# Elastic Compliance Matrix: (Units=1/GPa)
#
#
# Indices 1 2 3 4 5 6 
#
# 1 0.009249 -0.005227 -0.004562 0.000000 0.001878 0.000000
# 2 -0.005227 0.022934 -0.002679 0.000000 -0.002124 0.000000
# 3 -0.004562 -0.002679 0.012707 0.000000 -0.000901 0.000000
# 4 0.000000 0.000000 0.000000 0.041281 0.000000 -0.001303
# 5 0.001878 -0.002124 -0.000901 0.000000 0.023330 0.000000
# 6 0.000000 0.000000 0.000000 -0.001303 0.000000 0.024768
#
#
# Mechanical properties :
#
#
# Convention : Reuss Voigt Hill
#
# Bulk Modulus (GPa) = 50.11186 70.09297 60.10241
# Shear Modulus (GPa) = 30.14682 34.51630 32.33156
#
# Velocity S-wave (km/s) = 3.64054 3.89545 3.77015
# Velocity P-wave (km/s) = 6.30097 7.14478 6.73610
#
# Compressibility (1/GPa) = 0.01995536
#
# Stress axis : x y z
#
# Youngs Moduli (GPa) = 108.11875 43.60362 78.69825
#
# Poissons Ratio (x) = 0.22792 0.35899
# Poissons Ratio (y) = 0.56514 0.21080
# Poissons Ratio (z) = 0.49319 0.11680
#
# Static dielectric constant tensor:
#      x y z
#    x 4.245270 0.000000 0.004600 
#    y 0.000000 3.974460 0.000000 
#    z 0.004600 0.000000 4.326730 
# 
# 
# High freq. dielectric constant tensor:
#      x y z
#    x 1.907100 0.000000 0.000650 
#    y 0.000000 1.887760 0.000000 
#    z 0.000650 0.000000 1.912170 
# 
# From -- ./inp_files/5308.got.cif
#   From: 2010.06.25/outbox.cif.g09.slc.cpg/sg9_3_cif.got.tgz:5308.got - 2010.06.27 21:40:51.
