data_PCOD8055804
_publ_section_title
;
Structure prediction by ZEFSAII (Michael W. Deem and Ramdas Pophale) SiO2 
 PCOD8055804
Probable space group: C C
;
_chemical_formula_sum "Si O2"
_cell_formula_units_Z 32
_cell_length_a 14.991954
_cell_length_b 12.273296
_cell_length_c 8.719992
_cell_angle_alpha 90.000000
_cell_angle_beta 111.361288
_cell_angle_gamma 90.000000
_cell_volume 1494.259871
_symmetry_space_group_name_H-M "C C"
_symmetry_group_IT_number 9
_symmetry_cell_setting 'monoclinic'
loop_
_space_group_symop_operation_xyz
x,y,z
x,-y,1/2+z
1/2+x,1/2+y,z
1/2+x,1/2-y,1/2+z
loop_
_atom_site_type_symbol
_atom_site_label
_atom_site_fract_x
_atom_site_fract_y
_atom_site_fract_z
Si Si1 0.834260 0.622972 0.232000
Si Si2 0.898700 0.012379 0.188892
Si Si3 0.680422 0.228110 0.479946
Si Si4 0.882499 0.593902 0.601311
Si Si5 0.479994 0.270219 0.838173
Si Si6 0.488581 0.283121 0.207399
Si Si7 0.763609 0.967820 0.862577
Si Si8 0.592718 0.118033 0.716324
O O1 0.823233 0.619602 0.409671
O O2 0.832892 0.500917 0.166378
O O3 0.932150 0.684997 0.252461
O O4 0.742599 0.679899 0.100704
O O5 0.974561 0.106017 0.275267
O O6 0.794600 0.029852 0.205334
O O7 0.947419 0.895886 0.247258
O O8 0.861841 0.020596 0.991583
O O9 0.600285 0.280444 0.320949
O O10 0.751142 0.153823 0.421528
O O11 0.629899 0.157661 0.577702
O O12 0.888947 0.701337 0.714715
O O13 0.991173 0.557207 0.623697
O O14 0.577129 0.216912 0.828950
O O15 0.479608 0.269518 0.020057
O O16 0.666966 0.033531 0.835667
#
# Coordination Sequence:
#
# PCOD8055804 Si02
#       8
#     4   4   4   4   4   4   4   4
#     4  12  23  47  69 101 139 182 234 287 354 411
#     4  12  25  44  71  99 142 181 228 287 360 409
#     4  12  26  44  70 104 137 186 232 289 351 421
#     4  10  25  43  73  96 140 184 227 289 350 416
#     4  10  25  44  70 101 131 190 229 282 357 411
#     4  12  24  46  71 100 145 180 233 291 352 418
#     4  12  24  41  70 106 133 178 235 289 340 420
#     4  10  24  41  66 103 131 179 230 286 342 406
#
# _framework density 21.415284
#
# number of rings (size 3 to 8) (size 9 to 14) (size 15 to 20)
#    0.750    0.000    5.000    1.500    7.000    0.000 
#    4.500    0.000    0.000    0.000    0.000    0.000 
#    0.000    0.000    0.000    0.000    0.000    0.000 
#
# Total GULP energy -198359.944426 kJ/mol
# GULP energy per Si atom -12397.496527 kJ/mol
# Density = 2.136654 g / cm^3
# Si number density = 21.415284 Si / 1000 Ang^3
#
#
#
# Elastic Constant Matrix: (Units=GPa)
#
#
# Indices 1 2 3 4 5 6 
#
# 1 58.7199 21.0428 31.2159 0.0000 1.6435 0.0000
# 2 21.0428 112.3743 58.0745 0.0000 -4.9315 0.0000
# 3 31.2159 58.0745 139.8266 0.0000 7.8822 0.0000
# 4 0.0000 0.0000 0.0000 33.9612 0.0000 0.6212
# 5 1.6435 -4.9315 7.8822 0.0000 31.4102 0.0000
# 6 0.0000 0.0000 0.0000 0.6212 0.0000 34.9287
#
#
#
# Elastic Compliance Matrix: (Units=1/GPa)
#
#
# Indices 1 2 3 4 5 6 
#
# 1 0.019608 -0.001833 -0.003593 0.000000 -0.000412 0.000000
# 2 -0.001833 0.011788 -0.004663 0.000000 0.003117 0.000000
# 3 -0.003593 -0.004663 0.010063 0.000000 -0.003069 0.000000
# 4 0.000000 0.000000 0.000000 0.029455 0.000000 -0.000524
# 5 -0.000412 0.003117 -0.003069 0.000000 0.033118 0.000000
# 6 0.000000 0.000000 0.000000 -0.000524 0.000000 0.028639
#
#
# Mechanical properties :
#
#
# Convention : Reuss Voigt Hill
#
# Bulk Modulus (GPa) = 46.98572 59.06525 53.02549
# Shear Modulus (GPa) = 31.26093 33.43251 32.34672
#
# Velocity S-wave (km/s) = 3.82481 3.95543 3.89067
# Velocity P-wave (km/s) = 6.44154 6.96429 6.70801
#
# Compressibility (1/GPa) = 0.02128306
#
# Stress axis : x y z
#
# Youngs Moduli (GPa) = 50.99831 84.82861 99.36995
#
# Poissons Ratio (x) = 0.15550 0.35703
# Poissons Ratio (y) = 0.09348 0.46332
# Poissons Ratio (z) = 0.18324 0.39552
#
# Static dielectric constant tensor:
#      x y z
#    x 3.710590 0.000000 0.013620 
#    y 0.000000 3.810120 0.000000 
#    z 0.013620 0.000000 3.925160 
# 
# 
# High freq. dielectric constant tensor:
#      x y z
#    x 1.825850 0.000000 -0.006250 
#    y 0.000000 1.838590 0.000000 
#    z -0.006250 0.000000 1.856190 
# 
# From -- ./inp_files/10759.got.cif
#   From: 2010.06.25/outbox.cif.g09.slc.cpg/sg9_6_cif.got.tgz:10759.got - 2010.06.27 21:40:51.
