data_PCOD8055301
_publ_section_title
;
Structure prediction by ZEFSAII (Michael W. Deem and Ramdas Pophale) SiO2 
 PCOD8055301
Probable space group: C C
;
_chemical_formula_sum "Si O2"
_cell_formula_units_Z 24
_cell_length_a 17.758106
_cell_length_b 9.238799
_cell_length_c 8.622223
_cell_angle_alpha 90.000000
_cell_angle_beta 55.342145
_cell_angle_gamma 90.000000
_cell_volume 1163.591000
_symmetry_space_group_name_H-M "C C"
_symmetry_group_IT_number 9
_symmetry_cell_setting 'monoclinic'
loop_
_space_group_symop_operation_xyz
x,y,z
x,-y,1/2+z
1/2+x,1/2+y,z
1/2+x,1/2-y,1/2+z
loop_
_atom_site_type_symbol
_atom_site_label
_atom_site_fract_x
_atom_site_fract_y
_atom_site_fract_z
Si Si1 0.642010 0.314474 0.919730
Si Si2 0.009733 0.311309 0.055487
Si Si3 0.075390 0.057607 0.807236
Si Si4 0.579761 0.059607 0.784768
Si Si5 0.878269 0.093048 0.101546
Si Si6 0.258780 0.607258 0.953837
O O1 0.648227 0.432473 0.772371
O O2 0.597556 0.168858 0.905273
O O3 0.583360 0.396459 0.119166
O O4 0.735200 0.258290 0.892227
O O5 0.088287 0.198566 0.902784
O O6 0.008698 0.445508 0.938783
O O7 0.031010 0.354386 0.204953
O O8 0.910133 0.234269 0.163008
O O9 0.969658 0.001359 0.946913
O O10 0.670801 0.978778 0.620677
O O11 0.826945 0.151623 0.010028
O O12 0.808323 0.997499 0.277223
#
# Coordination Sequence:
#
# PCOD8055301 Si02
#       6
#     4   4   4   4   4   4
#     4  12  23  41  71  98 133 176 230 269 328 403
#     4  10  22  41  68  97 132 175 231 265 327 405
#     4  10  23  43  66  99 129 178 226 266 321 407
#     4  12  21  41  73  99 126 180 232 269 320 409
#     4  10  24  40  64  97 133 169 212 278 339 381
#     4  12  21  42  66 100 131 172 217 277 339 387
#
# _framework density 20.625803000000001
#
# number of rings (size 3 to 8) (size 9 to 14) (size 15 to 20)
#    1.000    0.000    5.000    2.000    2.333    0.000 
#    0.000    1.667    0.000    0.000    0.000    0.000 
#    0.000    0.000    0.000    0.000    0.000    0.000 
#
# Total GULP energy -148682.753796 kJ/mol
# GULP energy per Si atom -12390.229483 kJ/mol
# Density = 2.057886 g / cm^3
# Si number density = 20.625803 Si / 1000 Ang^3
#
#
#
# Elastic Constant Matrix: (Units=GPa)
#
#
# Indices 1 2 3 4 5 6 
#
# 1 124.2848 42.9977 30.9860 0.0000 27.8199 0.0000
# 2 42.9977 105.1514 28.2269 0.0000 8.3653 0.0000
# 3 30.9860 28.2269 82.2077 0.0000 6.7417 0.0000
# 4 0.0000 0.0000 0.0000 24.4105 0.0000 7.5760
# 5 27.8199 8.3653 6.7417 0.0000 27.5136 0.0000
# 6 0.0000 0.0000 0.0000 7.5760 0.0000 51.2683
#
#
#
# Elastic Compliance Matrix: (Units=1/GPa)
#
#
# Indices 1 2 3 4 5 6 
#
# 1 0.012295 -0.003487 -0.002556 0.000000 -0.010745 0.000000
# 2 -0.003487 0.011616 -0.002728 0.000000 0.000662 0.000000
# 3 -0.002556 -0.002728 0.014067 0.000000 -0.000033 0.000000
# 4 0.000000 0.000000 0.000000 0.042935 0.000000 -0.006345
# 5 -0.010745 0.000662 -0.000033 0.000000 0.047017 0.000000
# 6 0.000000 0.000000 0.000000 -0.006345 0.000000 0.020443
#
#
# Mechanical properties :
#
#
# Convention : Reuss Voigt Hill
#
# Bulk Modulus (GPa) = 48.93377 57.34056 53.13716
# Shear Modulus (GPa) = 28.94757 34.60069 31.77413
#
# Velocity S-wave (km/s) = 3.75035 4.10023 3.92918
# Velocity P-wave (km/s) = 6.52147 7.09060 6.81198
#
# Compressibility (1/GPa) = 0.02043579
#
# Stress axis : x y z
#
# Youngs Moduli (GPa) = 81.33625 86.09173 71.08729
#
# Poissons Ratio (x) = 0.30016 0.18169
# Poissons Ratio (y) = 0.28358 0.19396
# Poissons Ratio (z) = 0.20788 0.23490
#
# Static dielectric constant tensor:
#      x y z
#    x 3.748690 0.000000 0.279180 
#    y 0.000000 3.849990 0.000000 
#    z 0.279180 0.000000 3.679640 
# 
# 
# High freq. dielectric constant tensor:
#      x y z
#    x 1.798020 0.000000 0.033790 
#    y 0.000000 1.808030 0.000000 
#    z 0.033790 0.000000 1.800610 
# 
# From -- ./inp_files/10288.got.cif
#   From: 2010.06.25/outbox.cif.g09.slc.cpg/sg9_6_cif.got.tgz:10288.got - 2010.06.27 21:40:51.
