data_PCOD8055095
_publ_section_title
;
Structure prediction by ZEFSAII (Michael W. Deem and Ramdas Pophale) SiO2 
 PCOD8055095
Probable space group: C C
;
_chemical_formula_sum "Si O2"
_cell_formula_units_Z 28
_cell_length_a 10.656958
_cell_length_b 11.891909
_cell_length_c 18.781528
_cell_angle_alpha 90.000000
_cell_angle_beta 30.191356
_cell_angle_gamma 90.000000
_cell_volume 1196.984056
_symmetry_space_group_name_H-M "C C"
_symmetry_group_IT_number 9
_symmetry_cell_setting 'monoclinic'
loop_
_space_group_symop_operation_xyz
x,y,z
x,-y,1/2+z
1/2+x,1/2+y,z
1/2+x,1/2-y,1/2+z
loop_
_atom_site_type_symbol
_atom_site_label
_atom_site_fract_x
_atom_site_fract_y
_atom_site_fract_z
Si Si1 0.583710 0.045901 0.257120
Si Si2 0.284743 0.328534 0.937906
Si Si3 0.019705 0.515797 0.998231
Si Si4 0.508609 0.655757 0.982901
Si Si5 0.249739 0.152772 0.531116
Si Si6 0.398609 0.037302 0.704805
Si Si7 0.169089 0.667347 0.804773
O O1 0.872957 0.083394 0.111484
O O2 0.416402 0.140084 0.378179
O O3 0.504790 0.041411 0.213875
O O4 0.551020 0.926545 0.310996
O O5 0.270638 0.438819 0.892310
O O6 0.547227 0.290174 0.846072
O O7 0.219850 0.223407 0.920216
O O8 0.079798 0.354282 0.100473
O O9 0.101671 0.631064 0.919397
O O10 0.817065 0.450454 0.049830
O O11 0.879699 0.539107 0.142298
O O12 0.307011 0.732803 0.043531
O O13 0.627100 0.579082 0.862640
O O14 0.963205 0.162910 0.649515
#
# Coordination Sequence:
#
# PCOD8055095 Si02
#       7
#     4   4   4   4   4   4   4
#     4  11  23  41  69  98 130 182 230 289 346 426
#     4   9  21  43  66 101 131 185 220 277 354 415
#     4   8  22  42  67 100 137 179 227 283 344 420
#     4  11  21  44  69  90 137 179 225 285 350 417
#     4  10  23  42  66 101 132 178 233 281 355 416
#     4  10  21  44  64 100 131 182 231 279 346 425
#     4  11  21  44  69 104 138 179 228 290 347 423
#
# _framework density 23.392123999999999
#
# number of rings (size 3 to 8) (size 9 to 14) (size 15 to 20)
#    0.857    1.143    1.429    1.714    2.000    1.143 
#    5.143    0.000    0.000    0.000    0.000    0.000 
#    0.000    0.000    0.000    0.000    0.000    0.000 
#
# Total GULP energy -173442.481882 kJ/mol
# GULP energy per Si atom -12388.748706 kJ/mol
# Density = 2.333888 g / cm^3
# Si number density = 23.392124 Si / 1000 Ang^3
#
#
#
# Elastic Constant Matrix: (Units=GPa)
#
#
# Indices 1 2 3 4 5 6 
#
# 1 105.0414 16.2709 37.6914 -0.0073 11.4631 -0.0034
# 2 16.2709 39.9824 11.1826 -0.0097 -2.9239 0.0015
# 3 37.6914 11.1826 131.1140 -0.0368 10.6960 -0.0182
# 4 -0.0073 -0.0097 -0.0368 24.9899 0.0085 7.8060
# 5 11.4631 -2.9239 10.6960 0.0085 47.7491 0.0060
# 6 -0.0034 0.0015 -0.0182 7.8060 0.0060 16.6345
#
#
#
# Elastic Compliance Matrix: (Units=1/GPa)
#
#
# Indices 1 2 3 4 5 6 
#
# 1 0.011386 -0.004042 -0.002735 -0.000002 -0.002368 0.000001
# 2 -0.004042 0.027265 -0.001405 0.000010 0.002954 -0.000010
# 3 -0.002735 -0.001405 0.008644 0.000010 -0.001366 0.000005
# 4 -0.000002 0.000010 0.000010 0.046889 -0.000007 -0.022003
# 5 -0.002368 0.002954 -0.001366 -0.000007 0.021998 -0.000007
# 6 0.000001 -0.000010 0.000005 -0.022003 -0.000007 0.070441
#
#
# Mechanical properties :
#
#
# Convention : Reuss Voigt Hill
#
# Bulk Modulus (GPa) = 32.32875 45.15862 38.74368
# Shear Modulus (GPa) = 23.44139 31.94090 27.69115
#
# Velocity S-wave (km/s) = 3.16904 3.69922 3.44434
# Velocity P-wave (km/s) = 5.21927 6.13128 5.69356
#
# Compressibility (1/GPa) = 0.03093222
#
# Stress axis : x y z
#
# Youngs Moduli (GPa) = 87.82692 36.67746 115.68108
#
# Poissons Ratio (x) = 0.14824 0.31642
# Poissons Ratio (y) = 0.35497 0.16248
# Poissons Ratio (z) = 0.24023 0.05151
#
# Static dielectric constant tensor:
#      x y z
#    x 4.205160 0.000030 0.226850 
#    y 0.000030 4.024100 0.000190 
#    z 0.226850 0.000190 4.132850 
# 
# 
# High freq. dielectric constant tensor:
#      x y z
#    x 1.927450 0.000000 0.009450 
#    y 0.000000 1.908170 0.000000 
#    z 0.009450 0.000000 1.919060 
# 
# From -- ./inp_files/33299.got.cif
#   From: 2010.06.25/outbox.cif.g09.slc.cpg/sg9_17_cif.got.tgz:33299.got - 2010.06.27 21:40:51.
