data_PCOD8055785
_publ_section_title
;
Structure prediction by ZEFSAII (Michael W. Deem and Ramdas Pophale) SiO2 
 PCOD8055785
Probable space group: C C
;
_chemical_formula_sum "Si O2"
_cell_formula_units_Z 20
_cell_length_a 5.044783
_cell_length_b 19.180959
_cell_length_c 8.646760
_cell_angle_alpha 90.000000
_cell_angle_beta 85.772155
_cell_angle_gamma 90.000000
_cell_volume 834.416309
_symmetry_space_group_name_H-M "C C"
_symmetry_group_IT_number 9
_symmetry_cell_setting 'monoclinic'
loop_
_space_group_symop_operation_xyz
x,y,z
x,-y,1/2+z
1/2+x,1/2+y,z
1/2+x,1/2-y,1/2+z
loop_
_atom_site_type_symbol
_atom_site_label
_atom_site_fract_x
_atom_site_fract_y
_atom_site_fract_z
Si Si1 0.150020 0.199870 0.087700
Si Si2 0.172300 0.559455 0.767138
Si Si3 0.697828 0.207938 0.885528
Si Si4 0.454561 0.425388 0.770787
Si Si5 0.945306 0.442507 0.952453
O O1 0.147029 0.238467 0.251059
O O2 0.052763 0.120458 0.122415
O O3 0.437408 0.200366 0.000312
O O4 0.938511 0.236009 0.981447
O O5 0.287143 0.633461 0.813144
O O6 0.415339 0.505884 0.712797
O O7 0.999998 0.524643 0.913231
O O8 0.970910 0.570368 0.632991
O O9 0.171684 0.397874 0.849770
O O10 0.658338 0.419463 0.905252
#
# Coordination Sequence:
#
# PCOD8055785 Si02
#       5
#     4   4   4   4   4
#     4  12  28  51  74 112 147 203 244 317 360 462
#     4  10  26  42  73 105 144 188 246 296 375 429
#     4  12  29  47  80 103 157 193 260 292 388 437
#     4  10  25  41  73  99 149 175 247 300 368 415
#     4  10  24  39  72 101 143 185 237 303 359 439
#
# _framework density 23.968851000000001
#
# number of rings (size 3 to 8) (size 9 to 14) (size 15 to 20)
#    1.200    0.000    0.000    3.600   14.000    0.000 
#    0.000    0.000    0.000    0.000    0.000    0.000 
#    0.000    0.000    0.000    0.000    0.000    0.000 
#
# Total GULP energy -123981.428822 kJ/mol
# GULP energy per Si atom -12398.142882 kJ/mol
# Density = 2.391430 g / cm^3
# Si number density = 23.968851 Si / 1000 Ang^3
#
#
#
# Elastic Constant Matrix: (Units=GPa)
#
#
# Indices 1 2 3 4 5 6 
#
# 1 97.3797 21.1945 24.4831 0.0000 21.4374 0.0000
# 2 21.1945 83.9278 24.2408 0.0000 -9.5200 0.0000
# 3 24.4831 24.2408 114.8046 0.0000 25.3683 0.0000
# 4 0.0000 0.0000 0.0000 29.8675 0.0000 1.7118
# 5 21.4374 -9.5200 25.3683 0.0000 52.4493 0.0000
# 6 0.0000 0.0000 0.0000 1.7118 0.0000 21.0410
#
#
#
# Elastic Compliance Matrix: (Units=1/GPa)
#
#
# Indices 1 2 3 4 5 6 
#
# 1 0.012398 -0.003534 -0.000713 0.000000 -0.005364 0.000000
# 2 -0.003534 0.014505 -0.003594 0.000000 0.005815 0.000000
# 3 -0.000713 -0.003594 0.010862 0.000000 -0.005615 0.000000
# 4 0.000000 0.000000 0.000000 0.033638 0.000000 -0.002737
# 5 -0.005364 0.005815 -0.005615 0.000000 0.025030 0.000000
# 6 0.000000 0.000000 0.000000 -0.002737 0.000000 0.047749
#
#
# Mechanical properties :
#
#
# Convention : Reuss Voigt Hill
#
# Bulk Modulus (GPa) = 45.28055 48.43879 46.85967
# Shear Modulus (GPa) = 29.89994 35.75115 32.82554
#
# Velocity S-wave (km/s) = 3.53576 3.86627 3.70470
# Velocity P-wave (km/s) = 5.96667 6.33906 6.15568
#
# Compressibility (1/GPa) = 0.02208454
#
# Stress axis : x y z
#
# Youngs Moduli (GPa) = 80.65685 68.94118 92.06390
#
# Poissons Ratio (x) = 0.24361 0.06560
# Poissons Ratio (y) = 0.28501 0.33090
# Poissons Ratio (z) = 0.05748 0.24779
#
# Static dielectric constant tensor:
#      x y z
#    x 4.183920 0.000000 0.160480 
#    y 0.000000 4.199850 0.000000 
#    z 0.160480 0.000000 4.233010 
# 
# 
# High freq. dielectric constant tensor:
#      x y z
#    x 1.952520 0.000000 0.013370 
#    y 0.000000 1.931970 0.000000 
#    z 0.013370 0.000000 1.957920 
# 
# From -- ./inp_files/3619.got.cif
#   From: 2010.06.25/outbox.cif.g09.slc.cpg/sg9_2_cif.got.tgz:3619.got - 2010.06.27 21:40:51.
