data_PCOD8055648
_publ_section_title
;
Structure prediction by ZEFSAII (Michael W. Deem and Ramdas Pophale) SiO2 
 PCOD8055648
Probable space group: C C
;
_chemical_formula_sum "Si O2"
_cell_formula_units_Z 20
_cell_length_a 15.688985
_cell_length_b 9.072287
_cell_length_c 9.946751
_cell_angle_alpha 90.000000
_cell_angle_beta 36.527253
_cell_angle_gamma 90.000000
_cell_volume 842.673821
_symmetry_space_group_name_H-M "C C"
_symmetry_group_IT_number 9
_symmetry_cell_setting 'monoclinic'
loop_
_space_group_symop_operation_xyz
x,y,z
x,-y,1/2+z
1/2+x,1/2+y,z
1/2+x,1/2-y,1/2+z
loop_
_atom_site_type_symbol
_atom_site_label
_atom_site_fract_x
_atom_site_fract_y
_atom_site_fract_z
Si Si1 0.244300 0.344713 0.820920
Si Si2 0.991712 0.846190 0.702921
Si Si3 0.713516 0.846336 0.559310
Si Si4 0.228055 0.628489 0.695051
Si Si5 0.526540 0.321970 0.102644
O O1 0.397561 0.305469 0.690603
O O2 0.239156 0.280248 0.676269
O O3 0.218260 0.524149 0.841939
O O4 0.119974 0.266893 0.063975
O O5 0.058409 0.008685 0.598952
O O6 0.893380 0.825985 0.961583
O O7 0.574741 0.772370 0.671350
O O8 0.856853 0.800731 0.292816
O O9 0.695705 0.026804 0.601475
O O10 0.119572 0.765185 0.855283
#
# Coordination Sequence:
#
# PCOD8055648 Si02
#       5
#     4   4   4   4   4
#     4  10  23  44  66  94 135 169 212 277 320 380
#     4  11  24  43  64  97 132 170 219 265 325 385
#     4   9  22  40  69  91 134 166 213 268 324 376
#     4   9  22  40  68  92 135 163 218 266 325 374
#     4  11  21  45  67  96 130 174 214 268 324 387
#
# _framework density 23.733975999999998
#
# number of rings (size 3 to 8) (size 9 to 14) (size 15 to 20)
#    1.200    0.800    0.000    3.600    0.000    4.800 
#    3.600    0.000    0.000    0.000    0.000    0.000 
#    0.000    0.000    0.000    0.000    0.000    0.000 
#
# Total GULP energy -123947.774275 kJ/mol
# GULP energy per Si atom -12394.777428 kJ/mol
# Density = 2.367996 g / cm^3
# Si number density = 23.733976 Si / 1000 Ang^3
#
#
#
# Elastic Constant Matrix: (Units=GPa)
#
#
# Indices 1 2 3 4 5 6 
#
# 1 54.5437 35.4835 17.7165 0.0000 -12.1254 0.0000
# 2 35.4835 102.0872 88.8193 0.0000 -10.0416 0.0000
# 3 17.7165 88.8193 161.9309 0.0000 10.9327 0.0000
# 4 0.0000 0.0000 0.0000 56.4497 0.0000 -8.4926
# 5 -12.1254 -10.0416 10.9327 0.0000 41.6080 0.0000
# 6 0.0000 0.0000 0.0000 -8.4926 0.0000 29.3510
#
#
#
# Elastic Compliance Matrix: (Units=1/GPa)
#
#
# Indices 1 2 3 4 5 6 
#
# 1 0.025443 -0.011100 0.003039 0.000000 0.003937 0.000000
# 2 -0.011100 0.026085 -0.013540 0.000000 0.006618 0.000000
# 3 0.003039 -0.013540 0.013673 0.000000 -0.005975 0.000000
# 4 0.000000 0.000000 0.000000 0.018521 0.000000 0.005359
# 5 0.003937 0.006618 -0.005975 0.000000 0.028348 0.000000
# 6 0.000000 0.000000 0.000000 0.005359 0.000000 0.035621
#
#
# Mechanical properties :
#
#
# Convention : Reuss Voigt Hill
#
# Bulk Modulus (GPa) = 45.45704 66.95560 56.20632
# Shear Modulus (GPa) = 25.22347 37.25126 31.23736
#
# Velocity S-wave (km/s) = 3.26353 3.96603 3.63181
# Velocity P-wave (km/s) = 5.77886 7.01745 6.42806
#
# Compressibility (1/GPa) = 0.02199879
#
# Stress axis : x y z
#
# Youngs Moduli (GPa) = 39.30279 38.33594 73.13624
#
# Poissons Ratio (x) = 0.42555 -0.22227
# Poissons Ratio (y) = 0.43628 0.99027
# Poissons Ratio (z) = -0.11944 0.51907
#
# Static dielectric constant tensor:
#      x y z
#    x 4.245580 0.000000 0.344340 
#    y 0.000000 3.993730 0.000000 
#    z 0.344340 0.000000 4.192430 
# 
# 
# High freq. dielectric constant tensor:
#      x y z
#    x 1.970430 0.000000 0.026990 
#    y 0.000000 1.919690 0.000000 
#    z 0.026990 0.000000 1.941990 
# 
# From -- ./inp_files/6702.got.cif
#   From: 2010.06.25/outbox.cif.g09.slc.cpg/sg9_4_cif.got.tgz:6702.got - 2010.06.27 21:40:51.
