data_PCOD8055426
_publ_section_title
;
Structure prediction by ZEFSAII (Michael W. Deem and Ramdas Pophale) SiO2 
 PCOD8055426
Probable space group: C C
;
_chemical_formula_sum "Si O2"
_cell_formula_units_Z 28
_cell_length_a 20.191156
_cell_length_b 8.647682
_cell_length_c 11.377966
_cell_angle_alpha 90.000000
_cell_angle_beta 37.421427
_cell_angle_gamma 90.000000
_cell_volume 1207.244917
_symmetry_space_group_name_H-M "C C"
_symmetry_group_IT_number 9
_symmetry_cell_setting 'monoclinic'
loop_
_space_group_symop_operation_xyz
x,y,z
x,-y,1/2+z
1/2+x,1/2+y,z
1/2+x,1/2-y,1/2+z
loop_
_atom_site_type_symbol
_atom_site_label
_atom_site_fract_x
_atom_site_fract_y
_atom_site_fract_z
Si Si1 0.199450 0.325184 0.688300
Si Si2 0.814453 0.001143 0.831560
Si Si3 0.921863 0.462142 0.433713
Si Si4 0.205917 0.000266 0.091329
Si Si5 0.009991 0.194123 0.461398
Si Si6 0.316154 0.823169 0.241910
Si Si7 0.597969 0.954583 0.490928
O O1 0.284433 0.439895 0.504079
O O2 0.247155 0.254409 0.738090
O O3 0.170038 0.181297 0.644145
O O4 0.098281 0.430114 0.876329
O O5 0.926433 0.075609 0.634716
O O6 0.839531 0.816217 0.801032
O O7 0.716820 0.049506 0.881960
O O8 0.801072 0.461793 0.549837
O O9 0.946652 0.299176 0.457583
O O10 0.922640 0.596590 0.533513
O O11 0.010424 0.492633 0.209504
O O12 0.101506 0.103013 0.262521
O O13 0.248478 0.040632 0.901211
O O14 0.064540 0.287064 0.491474
#
# Coordination Sequence:
#
# PCOD8055426 Si02
#       7
#     4   4   4   4   4   4   4
#     4  10  22  44  68  97 131 173 224 276 331 395
#     4  11  24  42  67  97 133 176 224 276 332 394
#     4  11  23  43  68  94 131 179 224 276 334 394
#     4  11  24  42  67  97 133 176 224 276 332 394
#     4  12  24  40  62  98 136 176 222 274 332 398
#     4  10  22  44  68  97 131 173 224 276 331 395
#     4  11  23  43  68  94 131 179 224 276 334 394
#
# _framework density 23.193304999999999
#
# number of rings (size 3 to 8) (size 9 to 14) (size 15 to 20)
#    0.000    1.143    0.000    7.714    0.000    5.714 
#    0.000    8.571    0.000    0.000    0.000    0.000 
#    0.000    0.000    0.000    0.000    0.000    0.000 
#
# Total GULP energy -173561.734618 kJ/mol
# GULP energy per Si atom -12397.266758 kJ/mol
# Density = 2.314052 g / cm^3
# Si number density = 23.193305 Si / 1000 Ang^3
#
#
#
# Elastic Constant Matrix: (Units=GPa)
#
#
# Indices 1 2 3 4 5 6 
#
# 1 48.2577 8.7996 23.2148 0.0000 -5.2958 0.0000
# 2 8.7996 117.8802 45.9054 0.0000 7.1298 0.0001
# 3 23.2148 45.9054 135.3322 0.0000 12.5054 0.0000
# 4 0.0000 0.0000 0.0000 55.5050 0.0000 12.6391
# 5 -5.2958 7.1298 12.5054 0.0000 43.1549 0.0000
# 6 0.0000 0.0001 0.0000 12.6391 0.0000 59.1116
#
#
#
# Elastic Compliance Matrix: (Units=1/GPa)
#
#
# Indices 1 2 3 4 5 6 
#
# 1 0.023290 -0.000328 -0.004267 0.000000 0.004149 0.000000
# 2 -0.000328 0.009798 -0.003200 0.000000 -0.000732 0.000000
# 3 -0.004267 -0.003200 0.009459 0.000000 -0.002736 0.000000
# 4 0.000000 0.000000 0.000000 0.018938 0.000000 -0.004049
# 5 0.004149 -0.000732 -0.002736 0.000000 0.024595 0.000000
# 6 0.000000 0.000000 0.000000 -0.004049 0.000000 0.017783
#
#
# Mechanical properties :
#
#
# Convention : Reuss Voigt Hill
#
# Bulk Modulus (GPa) = 37.09493 50.81221 43.95357
# Shear Modulus (GPa) = 38.92884 46.45765 42.69324
#
# Velocity S-wave (km/s) = 4.10134 4.48041 4.29506
# Velocity P-wave (km/s) = 6.20133 6.98006 6.60218
#
# Compressibility (1/GPa) = 0.02695786
#
# Stress axis : x y z
#
# Youngs Moduli (GPa) = 42.93696 102.06219 105.71452
#
# Poissons Ratio (x) = 0.03344 0.45112
# Poissons Ratio (y) = 0.01407 0.33825
# Poissons Ratio (z) = 0.18323 0.32657
#
# Static dielectric constant tensor:
#      x y z
#    x 4.469870 0.000000 0.028970 
#    y 0.000000 4.138010 0.000000 
#    z 0.028970 0.000000 4.685200 
# 
# 
# High freq. dielectric constant tensor:
#      x y z
#    x 1.906760 0.000000 0.011280 
#    y 0.000000 1.930890 0.000000 
#    z 0.011280 0.000000 1.935760 
# 
# From -- ./inp_files/20777.got.cif
#   From: 2010.06.25/outbox.cif.g09.slc.cpg/sg9_11_cif.got.tgz:20777.got - 2010.06.27 21:40:51.
