data_PCOD8055634
_publ_section_title
;
Structure prediction by ZEFSAII (Michael W. Deem and Ramdas Pophale) SiO2 
 PCOD8055634
Probable space group: C C
;
_chemical_formula_sum "Si O2"
_cell_formula_units_Z 32
_cell_length_a 5.172199
_cell_length_b 25.871375
_cell_length_c 10.414887
_cell_angle_alpha 90.000000
_cell_angle_beta 74.769461
_cell_angle_gamma 90.000000
_cell_volume 1344.686601
_symmetry_space_group_name_H-M "C C"
_symmetry_group_IT_number 9
_symmetry_cell_setting 'monoclinic'
loop_
_space_group_symop_operation_xyz
x,y,z
x,-y,1/2+z
1/2+x,1/2+y,z
1/2+x,1/2-y,1/2+z
loop_
_atom_site_type_symbol
_atom_site_label
_atom_site_fract_x
_atom_site_fract_y
_atom_site_fract_z
Si Si1 0.601790 0.141448 0.032460
Si Si2 0.302694 0.573119 0.203853
Si Si3 0.015698 0.171933 0.790105
Si Si4 0.785089 0.448460 0.484256
Si Si5 0.861770 0.162323 0.368393
Si Si6 0.419115 0.210782 0.251460
Si Si7 0.965192 0.482110 0.200151
Si Si8 0.101002 0.632521 0.658306
O O1 0.576217 0.109571 0.170738
O O2 0.426997 0.191595 0.100002
O O3 0.892885 0.161985 0.948220
O O4 0.477392 0.102040 0.942612
O O5 0.413391 0.602205 0.315955
O O6 0.203099 0.514620 0.239737
O O7 0.499030 0.573637 0.056140
O O8 0.928175 0.227759 0.750992
O O9 0.854517 0.132978 0.719493
O O10 0.333185 0.160749 0.748033
O O11 0.760681 0.475032 0.347148
O O12 0.853180 0.487189 0.592837
O O13 0.691436 0.193732 0.287015
O O14 0.685944 0.162145 0.519081
O O15 0.147289 0.190004 0.354374
O O16 0.054808 0.427514 0.132460
#
# Coordination Sequence:
#
# PCOD8055634 Si02
#       8
#     4   4   4   4   4   4   4   4
#     4  10  23  43  71  96 142 179 241 291 356 428
#     4  10  23  44  69  98 136 188 234 290 358 431
#     4  12  27  46  71 104 143 188 240 297 364 428
#     4  11  22  44  67 101 138 185 240 291 364 428
#     4  11  24  47  71 104 144 180 240 298 357 426
#     4  11  25  46  73 103 134 194 236 297 362 429
#     4  11  25  41  68 103 136 191 234 293 362 435
#     4  12  27  45  68 107 147 181 235 303 357 427
#
# _framework density 23.797366
#
# number of rings (size 3 to 8) (size 9 to 14) (size 15 to 20)
#    0.000    1.000    2.500    3.000    5.250    3.000 
#    0.000    0.000    0.000    0.000    0.000    0.000 
#    0.000    0.000    0.000    0.000    0.000    0.000 
#
# Total GULP energy -198223.777216 kJ/mol
# GULP energy per Si atom -12388.986076 kJ/mol
# Density = 2.374320 g / cm^3
# Si number density = 23.797366 Si / 1000 Ang^3
#
#
#
# Elastic Constant Matrix: (Units=GPa)
#
#
# Indices 1 2 3 4 5 6 
#
# 1 71.2902 13.7956 11.4703 0.0000 -14.5476 0.0000
# 2 13.7956 121.1459 25.6408 0.0000 -5.9992 0.0000
# 3 11.4703 25.6408 114.2041 0.0000 -19.9248 0.0000
# 4 0.0000 0.0000 0.0000 32.5316 0.0000 -6.3761
# 5 -14.5476 -5.9992 -19.9248 0.0000 44.1155 0.0000
# 6 0.0000 0.0000 0.0000 -6.3761 0.0000 28.9888
#
#
#
# Elastic Compliance Matrix: (Units=1/GPa)
#
#
# Indices 1 2 3 4 5 6 
#
# 1 0.015323 -0.001428 -0.000402 0.000000 0.004677 0.000000
# 2 -0.001428 0.008804 -0.001852 0.000000 -0.000110 0.000000
# 3 -0.000402 -0.001852 0.009928 0.000000 0.004099 0.000000
# 4 0.000000 0.000000 0.000000 0.032124 0.000000 0.007066
# 5 0.004677 -0.000110 0.004099 0.000000 0.026046 0.000000
# 6 0.000000 0.000000 0.000000 0.007066 0.000000 0.036050
#
#
# Mechanical properties :
#
#
# Convention : Reuss Voigt Hill
#
# Bulk Modulus (GPa) = 37.46949 45.38371 41.42660
# Shear Modulus (GPa) = 34.59326 38.17610 36.38468
#
# Velocity S-wave (km/s) = 3.81682 4.00961 3.91440
# Velocity P-wave (km/s) = 5.93326 6.36775 6.15434
#
# Compressibility (1/GPa) = 0.02668838
#
# Stress axis : x y z
#
# Youngs Moduli (GPa) = 65.26284 113.58815 100.72781
#
# Poissons Ratio (x) = 0.16222 0.04053
# Poissons Ratio (y) = 0.09320 0.18659
# Poissons Ratio (z) = 0.02626 0.21041
#
# Static dielectric constant tensor:
#      x y z
#    x 4.014150 0.000000 -0.141740 
#    y 0.000000 4.523390 0.000000 
#    z -0.141740 0.000000 4.325790 
# 
# 
# High freq. dielectric constant tensor:
#      x y z
#    x 1.927430 0.000000 -0.009440 
#    y 0.000000 1.956510 0.000000 
#    z -0.009440 0.000000 1.948830 
# 
# From -- ./inp_files/13733.got.cif
#   From: 2010.06.25/outbox.cif.g09.slc.cpg/sg9_7_cif.got.tgz:13733.got - 2010.06.27 21:40:51.
