data_PCOD8055383
_publ_section_title
;
Structure prediction by ZEFSAII (Michael W. Deem and Ramdas Pophale) SiO2 
 PCOD8055383
Probable space group: C C
;
_chemical_formula_sum "Si O2"
_cell_formula_units_Z 32
_cell_length_a 11.707114
_cell_length_b 9.316335
_cell_length_c 14.520693
_cell_angle_alpha 90.000000
_cell_angle_beta 62.592729
_cell_angle_gamma 90.000000
_cell_volume 1405.971062
_symmetry_space_group_name_H-M "C C"
_symmetry_group_IT_number 9
_symmetry_cell_setting 'monoclinic'
loop_
_space_group_symop_operation_xyz
x,y,z
x,-y,1/2+z
1/2+x,1/2+y,z
1/2+x,1/2-y,1/2+z
loop_
_atom_site_type_symbol
_atom_site_label
_atom_site_fract_x
_atom_site_fract_y
_atom_site_fract_z
Si Si1 0.722540 0.341553 0.252870
Si Si2 0.043849 0.073749 0.247698
Si Si3 0.345483 0.462461 0.465862
Si Si4 0.342732 0.553500 0.169234
Si Si5 0.398369 0.920000 0.749996
Si Si6 0.062220 0.447770 0.511064
Si Si7 0.987052 0.681994 0.404585
Si Si8 0.677924 0.802876 0.305448
O O1 0.654469 0.452033 0.207450
O O2 0.786954 0.212416 0.172852
O O3 0.830954 0.424202 0.271992
O O4 0.617135 0.276769 0.361800
O O5 0.106348 0.230019 0.244700
O O6 0.976794 0.067266 0.173931
O O7 0.939670 0.049156 0.365357
O O8 0.373239 0.515988 0.559363
O O9 0.200883 0.502668 0.492690
O O10 0.366894 0.290684 0.451171
O O11 0.236093 0.458875 0.261060
O O12 0.484693 0.910840 0.810283
O O13 0.293501 0.796125 0.795968
O O14 0.484193 0.889700 0.627710
O O15 0.079883 0.323651 0.427391
O O16 0.982704 0.578969 0.494870
#
# Coordination Sequence:
#
# PCOD8055383 Si02
#       8
#     4   4   4   4   4   4   4   4
#     4  10  22  43  66  97 135 175 221 280 336 397
#     4  10  24  45  64  96 139 172 225 283 340 404
#     4  11  24  43  69 100 133 182 229 277 351 400
#     4  12  23  43  69  97 136 176 225 284 335 401
#     4  11  25  44  71 100 139 182 227 283 347 402
#     4  12  24  42  70 102 131 183 231 273 346 408
#     4  11  22  46  69  97 141 175 226 292 330 409
#     4  11  24  46  66 101 140 177 230 290 335 409
#
# _framework density 22.760071
#
# number of rings (size 3 to 8) (size 9 to 14) (size 15 to 20)
#    0.000    1.000    3.750    2.250    3.500    1.000 
#    0.000    6.250    0.000    0.000    0.000    0.000 
#    0.000    0.000    0.000    0.000    0.000    0.000 
#
# Total GULP energy -198432.012005 kJ/mol
# GULP energy per Si atom -12402.000750 kJ/mol
# Density = 2.270827 g / cm^3
# Si number density = 22.760071 Si / 1000 Ang^3
#
#
#
# Elastic Constant Matrix: (Units=GPa)
#
#
# Indices 1 2 3 4 5 6 
#
# 1 110.7853 34.2846 10.4269 0.0000 19.4518 0.0000
# 2 34.2846 93.3975 7.8347 0.0000 -0.3869 0.0000
# 3 10.4269 7.8347 59.2995 0.0000 20.8079 0.0000
# 4 0.0000 0.0000 0.0000 24.4636 0.0000 -6.6072
# 5 19.4518 -0.3869 20.8079 0.0000 37.8121 0.0000
# 6 0.0000 0.0000 0.0000 -6.6072 0.0000 32.0872
#
#
#
# Elastic Compliance Matrix: (Units=1/GPa)
#
#
# Indices 1 2 3 4 5 6 
#
# 1 0.011387 -0.004272 0.000784 0.000000 -0.006333 0.000000
# 2 -0.004272 0.012467 -0.002122 0.000000 0.003493 0.000000
# 3 0.000784 -0.002122 0.021260 0.000000 -0.012125 0.000000
# 4 0.000000 0.000000 0.000000 0.043284 0.000000 0.008913
# 5 -0.006333 0.003493 -0.012125 0.000000 0.036412 0.000000
# 6 0.000000 0.000000 0.000000 0.008913 0.000000 0.033000
#
#
# Mechanical properties :
#
#
# Convention : Reuss Voigt Hill
#
# Bulk Modulus (GPa) = 29.50156 40.95275 35.22716
# Shear Modulus (GPa) = 27.72716 32.93499 30.33107
#
# Velocity S-wave (km/s) = 3.49411 3.80814 3.65450
# Velocity P-wave (km/s) = 5.41004 6.11295 5.77221
#
# Compressibility (1/GPa) = 0.03389651
#
# Stress axis : x y z
#
# Youngs Moduli (GPa) = 87.82249 80.20858 47.03563
#
# Poissons Ratio (x) = 0.34264 -0.03690
# Poissons Ratio (y) = 0.37517 0.09979
# Poissons Ratio (z) = -0.06889 0.17017
#
# Static dielectric constant tensor:
#      x y z
#    x 4.323750 0.000000 -0.007880 
#    y 0.000000 4.174650 0.000000 
#    z -0.007880 0.000000 3.910870 
# 
# 
# High freq. dielectric constant tensor:
#      x y z
#    x 1.908010 0.000000 -0.001890 
#    y 0.000000 1.896850 0.000000 
#    z -0.001890 0.000000 1.885720 
# 
# From -- ./inp_files/24201.got.cif
#   From: 2010.06.25/outbox.cif.g09.slc.cpg/sg9_13_cif.got.tgz:24201.got - 2010.06.27 21:40:51.
