data_PCOD8055602
_publ_section_title
;
Structure prediction by ZEFSAII (Michael W. Deem and Ramdas Pophale) SiO2 
 PCOD8055602
Probable space group: C C
;
_chemical_formula_sum "Si O2"
_cell_formula_units_Z 32
_cell_length_a 10.179720
_cell_length_b 11.534091
_cell_length_c 12.698173
_cell_angle_alpha 90.000000
_cell_angle_beta 76.683466
_cell_angle_gamma 90.000000
_cell_volume 1450.853203
_symmetry_space_group_name_H-M "C C"
_symmetry_group_IT_number 9
_symmetry_cell_setting 'monoclinic'
loop_
_space_group_symop_operation_xyz
x,y,z
x,-y,1/2+z
1/2+x,1/2+y,z
1/2+x,1/2-y,1/2+z
loop_
_atom_site_type_symbol
_atom_site_label
_atom_site_fract_x
_atom_site_fract_y
_atom_site_fract_z
Si Si1 0.620890 0.025051 0.000000
Si Si2 0.092258 0.374853 0.731666
Si Si3 0.167576 0.132387 0.977481
Si Si4 0.595215 0.624493 0.227465
Si Si5 0.800811 0.855638 0.869656
Si Si6 0.027744 0.124264 0.791418
Si Si7 0.375042 0.926894 0.929146
Si Si8 0.250041 0.282211 0.359005
O O1 0.617118 0.062487 0.119506
O O2 0.626190 0.140117 0.924792
O O3 0.758594 0.949610 0.966061
O O4 0.486840 0.948821 0.999526
O O5 0.216320 0.399134 0.785218
O O6 0.085142 0.236184 0.720783
O O7 0.955119 0.431605 0.803241
O O8 0.103727 0.160409 0.103595
O O9 0.270045 0.230748 0.922392
O O10 0.048043 0.127336 0.914312
O O11 0.252077 0.014572 0.962153
O O12 0.455352 0.650171 0.310480
O O13 0.610366 0.484972 0.229824
O O14 0.707110 0.697157 0.271107
O O15 0.866270 0.126124 0.800389
O O16 0.310639 0.797317 0.943208
#
# Coordination Sequence:
#
# PCOD8055602 Si02
#       8
#     4   4   4   4   4   4   4   4
#     4  11  23  43  73  98 137 189 226 291 356 410
#     4   9  23  43  70  97 135 191 224 291 360 411
#     4  11  25  44  70  99 140 192 227 293 365 406
#     4  12  25  44  72 102 141 189 228 301 354 415
#     4  10  24  46  63 103 141 175 245 288 343 438
#     4  10  23  46  65 102 144 171 242 289 340 433
#     4  10  23  43  64 102 142 168 243 283 337 429
#     4  11  24  45  69 105 138 181 237 290 341 430
#
# _framework density 22.055986999999998
#
# number of rings (size 3 to 8) (size 9 to 14) (size 15 to 20)
#    0.000    1.500    2.500    1.500    7.000    3.000 
#    4.500    0.000    0.000    0.000    0.000    0.000 
#    0.000    0.000    0.000    0.000    0.000    0.000 
#
# Total GULP energy -198291.863135 kJ/mol
# GULP energy per Si atom -12393.241446 kJ/mol
# Density = 2.200579 g / cm^3
# Si number density = 22.055987 Si / 1000 Ang^3
#
#
#
# Elastic Constant Matrix: (Units=GPa)
#
#
# Indices 1 2 3 4 5 6 
#
# 1 88.0149 11.4359 14.3377 0.0000 -4.6897 0.0000
# 2 11.4359 51.4688 6.2964 0.0000 3.4029 0.0000
# 3 14.3377 6.2964 81.8568 0.0000 5.7312 0.0000
# 4 0.0000 0.0000 0.0000 25.1529 0.0000 1.4346
# 5 -4.6897 3.4029 5.7312 0.0000 21.7057 0.0000
# 6 0.0000 0.0000 0.0000 1.4346 0.0000 42.4324
#
#
#
# Elastic Compliance Matrix: (Units=1/GPa)
#
#
# Indices 1 2 3 4 5 6 
#
# 1 0.012265 -0.002698 -0.002196 0.000000 0.003653 0.000000
# 2 -0.002698 0.020367 -0.000845 0.000000 -0.003553 0.000000
# 3 -0.002196 -0.000845 0.012929 0.000000 -0.003756 0.000000
# 4 0.000000 0.000000 0.000000 0.039834 0.000000 -0.001347
# 5 0.003653 -0.003553 -0.003756 0.000000 0.048409 0.000000
# 6 0.000000 0.000000 0.000000 -0.001347 0.000000 0.023612
#
#
# Mechanical properties :
#
#
# Convention : Reuss Voigt Hill
#
# Bulk Modulus (GPa) = 29.34144 31.72004 30.53074
# Shear Modulus (GPa) = 27.73842 30.47625 29.10733
#
# Velocity S-wave (km/s) = 3.55016 3.72125 3.63671
# Velocity P-wave (km/s) = 5.48971 5.73379 5.61308
#
# Compressibility (1/GPa) = 0.03408149
#
# Stress axis : x y z
#
# Youngs Moduli (GPa) = 81.53493 49.09904 77.34452
#
# Poissons Ratio (x) = 0.13246 0.16988
# Poissons Ratio (y) = 0.21997 0.06538
# Poissons Ratio (z) = 0.17909 0.04150
#
# Static dielectric constant tensor:
#      x y z
#    x 4.031910 0.000000 -0.040230 
#    y 0.000000 4.660770 0.000000 
#    z -0.040230 0.000000 3.755420 
# 
# 
# High freq. dielectric constant tensor:
#      x y z
#    x 1.866290 0.000000 -0.005420 
#    y 0.000000 1.886450 0.000000 
#    z -0.005420 0.000000 1.847740 
# 
# From -- ./inp_files/16575.got.cif
#   From: 2010.06.25/outbox.cif.g09.slc.cpg/sg9_9_cif.got.tgz:16575.got - 2010.06.27 21:40:51.
