data_PCOD8055584
_publ_section_title
;
Structure prediction by ZEFSAII (Michael W. Deem and Ramdas Pophale) SiO2 
 PCOD8055584
Probable space group: C C
;
_chemical_formula_sum "Si O2"
_cell_formula_units_Z 24
_cell_length_a 17.246657
_cell_length_b 5.767417
_cell_length_c 8.966498
_cell_angle_alpha 90.000000
_cell_angle_beta 79.679040
_cell_angle_gamma 90.000000
_cell_volume 877.454467
_symmetry_space_group_name_H-M "C C"
_symmetry_group_IT_number 9
_symmetry_cell_setting 'monoclinic'
loop_
_space_group_symop_operation_xyz
x,y,z
x,-y,1/2+z
1/2+x,1/2+y,z
1/2+x,1/2-y,1/2+z
loop_
_atom_site_type_symbol
_atom_site_label
_atom_site_fract_x
_atom_site_fract_y
_atom_site_fract_z
Si Si1 0.088680 0.806103 0.451250
Si Si2 0.839574 0.683977 0.835524
Si Si3 0.930677 0.037656 0.078551
Si Si4 0.961194 0.302866 0.794696
Si Si5 0.207678 0.180611 0.372406
Si Si6 0.227497 0.442911 0.074934
O O1 0.156564 0.661514 0.503129
O O2 0.013857 0.829551 0.590216
O O3 0.053798 0.682361 0.311333
O O4 0.122190 0.061046 0.396683
O O5 0.855133 0.850046 0.687566
O O6 0.918495 0.542808 0.850179
O O7 0.772279 0.508548 0.805814
O O8 0.810998 0.826754 0.993115
O O9 0.945295 0.771038 0.128158
O O10 0.922621 0.080087 0.902239
O O11 0.213574 0.395795 0.253748
O O12 0.225809 0.284689 0.531570
#
# Coordination Sequence:
#
# PCOD8055584 Si02
#       6
#     4   4   4   4   4   4
#     4   9  24  44  70  98 135 182 235 289 348 415
#     4  11  24  42  69 103 142 184 238 291 350 421
#     4  10  23  42  67 100 137 182 234 289 352 411
#     4  10  23  42  68  98 139 181 231 289 350 412
#     4  11  25  45  71 101 143 186 238 289 353 427
#     4  11  25  45  71 102 140 189 232 287 357 424
#
# _framework density 27.351848
#
# number of rings (size 3 to 8) (size 9 to 14) (size 15 to 20)
#    1.000    0.667    0.000    3.000    0.000   17.333 
#    0.000    0.000    0.000    0.000    0.000    0.000 
#    0.000    0.000    0.000    0.000    0.000    0.000 
#
# Total GULP energy -148696.594685 kJ/mol
# GULP energy per Si atom -12391.382890 kJ/mol
# Density = 2.728959 g / cm^3
# Si number density = 27.351848 Si / 1000 Ang^3
#
#
#
# Elastic Constant Matrix: (Units=GPa)
#
#
# Indices 1 2 3 4 5 6 
#
# 1 76.1483 -2.2997 -12.0779 0.0000 -20.0831 0.0000
# 2 -2.2997 42.2442 3.6190 0.0000 -4.0972 0.0000
# 3 -12.0779 3.6190 77.3796 0.0000 -2.5422 0.0000
# 4 0.0000 0.0000 0.0000 48.9133 0.0000 -7.4132
# 5 -20.0831 -4.0972 -2.5422 0.0000 40.1247 0.0000
# 6 0.0000 0.0000 0.0000 -7.4132 0.0000 45.4301
#
#
#
# Elastic Compliance Matrix: (Units=1/GPa)
#
#
# Indices 1 2 3 4 5 6 
#
# 1 0.015761 0.001425 0.002663 0.000000 0.008203 0.000000
# 2 0.001425 0.024121 -0.000803 0.000000 0.003126 0.000000
# 3 0.002663 -0.000803 0.013446 0.000000 0.002103 0.000000
# 4 0.000000 0.000000 0.000000 0.020963 0.000000 0.003421
# 5 0.008203 0.003126 0.002103 0.000000 0.029480 0.000000
# 6 0.000000 0.000000 0.000000 0.003421 0.000000 0.022570
#
#
# Mechanical properties :
#
#
# Convention : Reuss Voigt Hill
#
# Bulk Modulus (GPa) = 16.69478 19.36167 18.02823
# Shear Modulus (GPa) = 35.78156 40.66234 38.22195
#
# Velocity S-wave (km/s) = 3.62082 3.85988 3.74226
# Velocity P-wave (km/s) = 4.85772 5.19221 5.02774
#
# Compressibility (1/GPa) = 0.05989895
#
# Stress axis : x y z
#
# Youngs Moduli (GPa) = 63.44729 41.45695 74.37383
#
# Poissons Ratio (x) = -0.05910 -0.19805
# Poissons Ratio (y) = -0.09044 0.05972
# Poissons Ratio (z) = -0.16896 0.03329
#
# Static dielectric constant tensor:
#      x y z
#    x 5.250320 0.000000 -0.288050 
#    y 0.000000 4.847500 0.000000 
#    z -0.288050 0.000000 4.740120 
# 
# 
# High freq. dielectric constant tensor:
#      x y z
#    x 2.127000 0.000000 -0.008190 
#    y 0.000000 2.093100 0.000000 
#    z -0.008190 0.000000 2.086100 
# 
# From -- ./inp_files/18799.got.cif
#   From: 2010.06.25/outbox.cif.g09.slc.cpg/sg9_10_cif.got.tgz:18799.got - 2010.06.27 21:40:51.
