data_PCOD8055765
_publ_section_title
;
Structure prediction by ZEFSAII (Michael W. Deem and Ramdas Pophale) SiO2 
 PCOD8055765
Probable space group: C C
;
_chemical_formula_sum "Si O2"
_cell_formula_units_Z 32
_cell_length_a 10.276794
_cell_length_b 9.482031
_cell_length_c 14.705128
_cell_angle_alpha 90.000000
_cell_angle_beta 102.665112
_cell_angle_gamma 90.000000
_cell_volume 1398.073470
_symmetry_space_group_name_H-M "C C"
_symmetry_group_IT_number 9
_symmetry_cell_setting 'monoclinic'
loop_
_space_group_symop_operation_xyz
x,y,z
x,-y,1/2+z
1/2+x,1/2+y,z
1/2+x,1/2-y,1/2+z
loop_
_atom_site_type_symbol
_atom_site_label
_atom_site_fract_x
_atom_site_fract_y
_atom_site_fract_z
Si Si1 0.127500 0.422490 0.076330
Si Si2 0.785157 0.474364 0.180652
Si Si3 0.534526 0.156253 0.189451
Si Si4 0.481890 0.268762 0.688895
Si Si5 0.717117 0.642523 0.337560
Si Si6 0.520737 0.807289 0.891551
Si Si7 0.097882 0.985713 0.483907
Si Si8 0.426888 0.434023 0.101291
O O1 0.278981 0.372902 0.088187
O O2 0.127558 0.566018 0.135437
O O3 0.043505 0.295506 0.107040
O O4 0.058840 0.436565 0.965618
O O5 0.890982 0.586480 0.161149
O O6 0.849310 0.318260 0.196435
O O7 0.731823 0.508752 0.273065
O O8 0.666462 0.501596 0.092988
O O9 0.580528 0.152930 0.301936
O O10 0.530905 0.316893 0.154764
O O11 0.598911 0.255468 0.782962
O O12 0.438484 0.428526 0.666711
O O13 0.860664 0.720235 0.364375
O O14 0.672557 0.593880 0.430127
O O15 0.594168 0.666744 0.937835
O O16 0.950782 0.034918 0.496397
#
# Coordination Sequence:
#
# PCOD8055765 Si02
#       8
#     4   4   4   4   4   4   4   4
#     4  11  24  47  67 100 143 180 230 292 342 411
#     4  10  23  47  72  97 135 186 229 288 350 411
#     4  10  24  45  71 101 136 183 232 284 349 408
#     4  11  23  46  72  99 135 186 230 289 350 405
#     4  11  23  44  68 100 143 177 234 291 342 414
#     4  11  23  46  72 103 140 186 229 292 348 407
#     4  12  25  42  71 102 140 186 231 282 353 415
#     4  12  25  43  69 100 138 186 229 282 350 411
#
# _framework density 22.888641
#
# number of rings (size 3 to 8) (size 9 to 14) (size 15 to 20)
#    0.000    1.000    2.500    4.500    1.750    0.000 
#   22.500    0.000    0.000    0.000    0.000    0.000 
#    0.000    0.000    0.000    0.000    0.000    0.000 
#
# Total GULP energy -198339.163929 kJ/mol
# GULP energy per Si atom -12396.197746 kJ/mol
# Density = 2.283655 g / cm^3
# Si number density = 22.888641 Si / 1000 Ang^3
#
#
#
# Elastic Constant Matrix: (Units=GPa)
#
#
# Indices 1 2 3 4 5 6 
#
# 1 60.7544 5.2245 25.9182 0.0000 -1.5149 0.0000
# 2 5.2245 106.3484 39.2577 0.0000 -2.5274 0.0000
# 3 25.9182 39.2577 131.5132 0.0000 -6.6083 0.0000
# 4 0.0000 0.0000 0.0000 32.2214 0.0000 4.3600
# 5 -1.5149 -2.5274 -6.6083 0.0000 41.2214 0.0000
# 6 0.0000 0.0000 0.0000 4.3600 0.0000 32.6954
#
#
#
# Elastic Compliance Matrix: (Units=1/GPa)
#
#
# Indices 1 2 3 4 5 6 
#
# 1 0.017993 0.000478 -0.003684 0.000000 0.000100 0.000000
# 2 0.000478 0.010581 -0.003245 0.000000 0.000146 0.000000
# 3 -0.003684 -0.003245 0.009357 0.000000 0.001166 0.000000
# 4 0.000000 0.000000 0.000000 0.031606 0.000000 -0.004215
# 5 0.000100 0.000146 0.001166 0.000000 0.024459 0.000000
# 6 0.000000 0.000000 0.000000 -0.004215 0.000000 0.031147
#
#
# Mechanical properties :
#
#
# Convention : Reuss Voigt Hill
#
# Bulk Modulus (GPa) = 39.95355 48.82408 44.38881
# Shear Modulus (GPa) = 34.15600 36.44201 35.29901
#
# Velocity S-wave (km/s) = 3.86718 3.99450 3.93135
# Velocity P-wave (km/s) = 6.11830 6.53086 6.32794
#
# Compressibility (1/GPa) = 0.02502907
#
# Stress axis : x y z
#
# Youngs Moduli (GPa) = 55.57862 94.50848 106.87046
#
# Poissons Ratio (x) = -0.04520 0.39367
# Poissons Ratio (y) = -0.02658 0.34684
# Poissons Ratio (z) = 0.20473 0.30672
#
# Static dielectric constant tensor:
#      x y z
#    x 4.339190 0.000000 -0.085860 
#    y 0.000000 4.015830 0.000000 
#    z -0.085860 0.000000 4.249940 
# 
# 
# High freq. dielectric constant tensor:
#      x y z
#    x 1.917560 0.000000 -0.006670 
#    y 0.000000 1.893890 0.000000 
#    z -0.006670 0.000000 1.903060 
# 
# From -- ./inp_files/24303.got.cif
#   From: 2010.06.25/outbox.cif.g09.slc.cpg/sg9_13_cif.got.tgz:24303.got - 2010.06.27 21:40:51.
