data_PCOD8055946
_publ_section_title
;
Structure prediction by ZEFSAII (Michael W. Deem and Ramdas Pophale) SiO2 
 PCOD8055946
Probable space group: C C
;
_chemical_formula_sum "Si O2"
_cell_formula_units_Z 24
_cell_length_a 8.679028
_cell_length_b 11.551119
_cell_length_c 13.500412
_cell_angle_alpha 90.000000
_cell_angle_beta 46.107606
_cell_angle_gamma 90.000000
_cell_volume 975.354372
_symmetry_space_group_name_H-M "C C"
_symmetry_group_IT_number 9
_symmetry_cell_setting 'monoclinic'
loop_
_space_group_symop_operation_xyz
x,y,z
x,-y,1/2+z
1/2+x,1/2+y,z
1/2+x,1/2-y,1/2+z
loop_
_atom_site_type_symbol
_atom_site_label
_atom_site_fract_x
_atom_site_fract_y
_atom_site_fract_z
Si Si1 0.732210 0.790114 0.584230
Si Si2 0.058105 0.983743 0.422784
Si Si3 0.055267 0.869102 0.736327
Si Si4 0.870296 0.599496 0.932033
Si Si5 0.598853 0.868553 0.856789
Si Si6 0.915102 0.215715 0.562339
O O1 0.637076 0.799339 0.737283
O O2 0.541700 0.781618 0.591595
O O3 0.895664 0.682846 0.505110
O O4 0.854146 0.904966 0.497085
O O5 0.124223 0.045524 0.292922
O O6 0.982751 0.083097 0.533516
O O7 0.261647 0.908638 0.371194
O O8 0.802202 0.855229 0.837698
O O9 0.163500 0.930366 0.593094
O O10 0.162992 0.739000 0.699328
O O11 0.959789 0.724735 0.932566
O O12 0.056688 0.504117 0.856296
#
# Coordination Sequence:
#
# PCOD8055946 Si02
#       6
#     4   4   4   4   4   4
#     4  12  27  46  79 108 152 202 249 315 383 446
#     4  12  24  48  75 106 145 197 250 307 379 445
#     4  10  26  47  73 112 145 204 254 312 380 448
#     4  10  24  50  71 107 151 191 254 313 372 449
#     4  12  26  49  76 113 153 200 259 312 378 463
#     4  10  25  48  72 110 148 200 248 315 376 453
#
# _framework density 24.606442999999999
#
# number of rings (size 3 to 8) (size 9 to 14) (size 15 to 20)
#    1.000    0.000    3.333    2.000    7.000    1.333 
#    3.000    0.000    0.000    0.000    0.000    0.000 
#    0.000    0.000    0.000    0.000    0.000    0.000 
#
# Total GULP energy -148734.374150 kJ/mol
# GULP energy per Si atom -12394.531179 kJ/mol
# Density = 2.455044 g / cm^3
# Si number density = 24.606443 Si / 1000 Ang^3
#
#
#
# Elastic Constant Matrix: (Units=GPa)
#
#
# Indices 1 2 3 4 5 6 
#
# 1 113.0617 -25.0122 -34.9964 -0.0002 -18.0467 0.0000
# 2 -25.0122 28.7654 -45.0058 -0.0002 -13.4525 0.0001
# 3 -34.9964 -45.0058 20.1415 -0.0005 -8.4785 0.0003
# 4 -0.0002 -0.0002 -0.0005 36.0936 0.0002 -6.4894
# 5 -18.0467 -13.4525 -8.4785 0.0002 43.4314 -0.0001
# 6 0.0000 0.0001 0.0003 -6.4894 -0.0001 43.5192
#
#
#
# Elastic Compliance Matrix: (Units=1/GPa)
#
#
# Indices 1 2 3 4 5 6 
#
# 1 0.005073 -0.006713 -0.006726 0.000000 -0.001284 0.000000
# 2 -0.006713 -0.001308 -0.017357 0.000000 -0.006583 0.000000
# 3 -0.006726 -0.017357 -0.004643 0.000000 -0.009077 0.000000
# 4 0.000000 0.000000 0.000000 0.028469 0.000000 0.004245
# 5 -0.001284 -0.006583 -0.009077 0.000000 0.018680 0.000000
# 6 0.000000 0.000000 0.000000 0.004245 0.000000 0.023611
#
#
# Mechanical properties :
#
#
# Convention : Reuss Voigt Hill
#
# Bulk Modulus (GPa) = -16.00794 -5.34002 -10.67398
# Shear Modulus (GPa) = 45.18711 42.40771 43.79741
#
# Velocity S-wave (km/s) = 4.28997 4.15594 4.22348
# Velocity P-wave (km/s) = 4.24484 4.56664 4.40868
#
# Compressibility (1/GPa) = -0.06246900
#
# Stress axis : x y z
#
# Youngs Moduli (GPa) = 197.12816 -764.54427 -215.39435
#
# Poissons Ratio (x) = -5.13216 -1.44870
# Poissons Ratio (y) = 1.32326 -3.73862
# Poissons Ratio (z) = 1.32585 -13.27028
#
# Static dielectric constant tensor:
#      x y z
#    x 4.310270 0.000000 0.039790 
#    y 0.000000 4.361440 0.000000 
#    z 0.039790 0.000000 4.389550 
# 
# 
# High freq. dielectric constant tensor:
#      x y z
#    x 1.987450 0.000000 0.001590 
#    y 0.000000 1.978820 0.000000 
#    z 0.001590 0.000000 1.984830 
# 
# From -- ./inp_files/22510.got.cif
#   From: 2010.06.25/outbox.cif.g09.slc.cpg/sg9_12_cif.got.tgz:22510.got - 2010.06.27 21:40:51.
