data_PCOD8055326
_publ_section_title
;
Structure prediction by ZEFSAII (Michael W. Deem and Ramdas Pophale) SiO2 
 PCOD8055326
Probable space group: C C
;
_chemical_formula_sum "Si O2"
_cell_formula_units_Z 28
_cell_length_a 14.153857
_cell_length_b 12.481978
_cell_length_c 8.613252
_cell_angle_alpha 90.000000
_cell_angle_beta 130.392340
_cell_angle_gamma 90.000000
_cell_volume 1158.954890
_symmetry_space_group_name_H-M "C C"
_symmetry_group_IT_number 9
_symmetry_cell_setting 'monoclinic'
loop_
_space_group_symop_operation_xyz
x,y,z
x,-y,1/2+z
1/2+x,1/2+y,z
1/2+x,1/2-y,1/2+z
loop_
_atom_site_type_symbol
_atom_site_label
_atom_site_fract_x
_atom_site_fract_y
_atom_site_fract_z
Si Si1 0.276900 0.697863 0.317300
Si Si2 0.280199 0.814634 0.619578
Si Si3 0.910326 0.556199 0.493876
Si Si4 0.268003 0.420593 0.106260
Si Si5 0.060642 0.589892 0.951431
Si Si6 0.479195 0.578837 0.389706
Si Si7 0.645592 0.510759 0.836211
O O1 0.302866 0.800863 0.454841
O O2 0.277630 0.591522 0.428984
O O3 0.389658 0.683774 0.313004
O O4 0.142076 0.695595 0.086466
O O5 0.247058 0.698983 0.657652
O O6 0.171187 0.904230 0.506384
O O7 0.399994 0.861869 0.836509
O O8 0.774135 0.540144 0.419095
O O9 0.992447 0.610786 0.715784
O O10 0.965973 0.444330 0.488000
O O11 0.395193 0.471740 0.301881
O O12 0.151322 0.489783 0.027502
O O13 0.577018 0.577597 0.632035
O O14 0.557281 0.582535 0.312523
#
# Coordination Sequence:
#
# PCOD8055326 Si02
#       7
#     4   4   4   4   4   4   4
#     4   9  21  42  68 100 128 184 231 280 333 406
#     4  10  22  42  66 101 134 174 231 272 348 398
#     4  12  22  39  68 100 140 184 219 282 354 419
#     4   9  21  40  68  97 123 176 232 275 328 402
#     4  11  21  41  69  97 136 181 228 277 349 414
#     4  11  21  41  70  96 135 181 226 270 348 418
#     4  12  22  39  67  99 138 180 221 274 350 419
#
# _framework density 24.159699
#
# number of rings (size 3 to 8) (size 9 to 14) (size 15 to 20)
#    0.857    0.571    5.714    0.000    0.000    2.286 
#    5.143    1.429    6.286    0.000    0.000    0.000 
#    0.000    0.000    0.000    0.000    0.000    0.000 
#
# Total GULP energy -173448.172685 kJ/mol
# GULP energy per Si atom -12389.155192 kJ/mol
# Density = 2.410471 g / cm^3
# Si number density = 24.159699 Si / 1000 Ang^3
#
#
#
# Elastic Constant Matrix: (Units=GPa)
#
#
# Indices 1 2 3 4 5 6 
#
# 1 122.1002 11.7370 30.5470 0.0000 16.7861 0.0000
# 2 11.7370 43.2957 24.0994 0.0000 4.2969 0.0000
# 3 30.5470 24.0994 184.9899 0.0000 3.6886 0.0000
# 4 0.0000 0.0000 0.0000 40.6832 0.0000 -16.4505
# 5 16.7861 4.2969 3.6886 0.0000 33.3783 0.0000
# 6 0.0000 0.0000 0.0000 -16.4505 0.0000 23.7492
#
#
#
# Elastic Compliance Matrix: (Units=1/GPa)
#
#
# Indices 1 2 3 4 5 6 
#
# 1 0.009232 -0.001372 -0.001259 0.000000 -0.004327 0.000000
# 2 -0.001372 0.025381 -0.003035 0.000000 -0.002242 0.000000
# 3 -0.001259 -0.003035 0.006002 0.000000 0.000361 0.000000
# 4 0.000000 0.000000 0.000000 0.034143 0.000000 0.023650
# 5 -0.004327 -0.002242 0.000361 0.000000 0.032384 0.000000
# 6 0.000000 0.000000 0.000000 0.023650 0.000000 0.058489
#
#
# Mechanical properties :
#
#
# Convention : Reuss Voigt Hill
#
# Bulk Modulus (GPa) = 34.15180 53.68364 43.91772
# Shear Modulus (GPa) = 26.77732 38.49561 32.63646
#
# Velocity S-wave (km/s) = 3.33280 3.99605 3.67940
# Velocity P-wave (km/s) = 5.38299 6.59998 6.02231
#
# Compressibility (1/GPa) = 0.02928104
#
# Stress axis : x y z
#
# Youngs Moduli (GPa) = 108.32090 39.39963 166.61456
#
# Poissons Ratio (x) = 0.05406 0.20983
# Poissons Ratio (y) = 0.14864 0.50571
# Poissons Ratio (z) = 0.13642 0.11959
#
# Static dielectric constant tensor:
#      x y z
#    x 4.241420 0.000000 0.032620 
#    y 0.000000 3.986450 0.000000 
#    z 0.032620 0.000000 4.646750 
# 
# 
# High freq. dielectric constant tensor:
#      x y z
#    x 1.945790 0.000000 0.007000 
#    y 0.000000 1.930400 0.000000 
#    z 0.007000 0.000000 1.975280 
# 
# From -- ./inp_files/9744.got.cif
#   From: 2010.06.25/outbox.cif.g09.slc.cpg/sg9_5_cif.got.tgz:9744.got - 2010.06.27 21:40:51.
