data_PCOD8055948
_publ_section_title
;
Structure prediction by ZEFSAII (Michael W. Deem and Ramdas Pophale) SiO2 
 PCOD8055948
Probable space group: C C
;
_chemical_formula_sum "Si O2"
_cell_formula_units_Z 28
_cell_length_a 5.094190
_cell_length_b 27.364285
_cell_length_c 8.990897
_cell_angle_alpha 90.000000
_cell_angle_beta 93.691484
_cell_angle_gamma 90.000000
_cell_volume 1250.720464
_symmetry_space_group_name_H-M "C C"
_symmetry_group_IT_number 9
_symmetry_cell_setting 'monoclinic'
loop_
_space_group_symop_operation_xyz
x,y,z
x,-y,1/2+z
1/2+x,1/2+y,z
1/2+x,1/2-y,1/2+z
loop_
_atom_site_type_symbol
_atom_site_label
_atom_site_fract_x
_atom_site_fract_y
_atom_site_fract_z
Si Si1 0.326390 0.461241 0.212330
Si Si2 0.622306 0.108549 0.924596
Si Si3 0.321078 0.913688 0.139996
Si Si4 0.138699 0.431345 0.738560
Si Si5 0.218761 0.718469 0.003056
Si Si6 0.234826 0.221427 0.200978
Si Si7 0.165533 0.119081 0.341911
O O1 0.346165 0.425092 0.355879
O O2 0.605131 0.457378 0.140484
O O3 0.261905 0.515438 0.263900
O O4 0.091495 0.440614 0.096925
O O5 0.372274 0.112314 0.802004
O O6 0.542630 0.079664 0.068718
O O7 0.733079 0.161483 0.966151
O O8 0.210567 0.872671 0.021341
O O9 0.363111 0.392728 0.796260
O O10 0.867479 0.425700 0.819494
O O11 0.462934 0.733607 0.112376
O O12 0.962158 0.733154 0.089493
O O13 0.243402 0.746359 0.848757
O O14 0.258395 0.165074 0.249696
#
# Coordination Sequence:
#
# PCOD8055948 Si02
#       7
#     4   4   4   4   4   4   4
#     4  10  25  40  67 103 135 187 230 278 348 409
#     4  10  26  44  71  99 141 186 229 292 350 417
#     4  10  25  40  67  96 145 177 231 281 351 410
#     4  12  25  43  72  95 144 181 239 281 343 425
#     4  12  27  49  76 106 144 186 244 298 369 430
#     4  12  27  49  74 109 136 193 238 303 364 432
#     4  12  25  45  67 102 137 180 231 293 349 415
#
# _framework density 22.387098999999999
#
# number of rings (size 3 to 8) (size 9 to 14) (size 15 to 20)
#    0.857    0.000    2.857    2.571   10.000    1.143 
#    0.000    0.000    0.000    0.000    0.000    0.000 
#    0.000    0.000    0.000    0.000    0.000    0.000 
#
# Total GULP energy -173511.747179 kJ/mol
# GULP energy per Si atom -12393.696227 kJ/mol
# Density = 2.233615 g / cm^3
# Si number density = 22.387099 Si / 1000 Ang^3
#
#
#
# Elastic Constant Matrix: (Units=GPa)
#
#
# Indices 1 2 3 4 5 6 
#
# 1 112.8586 10.1932 27.7167 0.0000 5.1956 0.0000
# 2 10.1932 76.4209 25.3414 0.0000 -4.7924 0.0000
# 3 27.7167 25.3414 116.6311 0.0000 19.2560 0.0000
# 4 0.0000 0.0000 0.0000 36.2206 0.0000 -5.5605
# 5 5.1956 -4.7924 19.2560 0.0000 36.5633 0.0000
# 6 0.0000 0.0000 0.0000 -5.5605 0.0000 20.4061
#
#
#
# Elastic Compliance Matrix: (Units=1/GPa)
#
#
# Indices 1 2 3 4 5 6 
#
# 1 0.009435 -0.000597 -0.002057 0.000000 -0.000336 0.000000
# 2 -0.000597 0.014636 -0.003690 0.000000 0.003946 0.000000
# 3 -0.002057 -0.003690 0.010839 0.000000 -0.005899 0.000000
# 4 0.000000 0.000000 0.000000 0.028814 0.000000 0.007852
# 5 -0.000336 0.003946 -0.005899 0.000000 0.031022 0.000000
# 6 0.000000 0.000000 0.000000 0.007852 0.000000 0.051144
#
#
# Mechanical properties :
#
#
# Convention : Reuss Voigt Hill
#
# Bulk Modulus (GPa) = 45.00112 48.04590 46.52351
# Shear Modulus (GPa) = 30.12312 34.81529 32.46920
#
# Velocity S-wave (km/s) = 3.67216 3.94782 3.81248
# Velocity P-wave (km/s) = 6.17452 6.50295 6.34086
#
# Compressibility (1/GPa) = 0.02222167
#
# Stress axis : x y z
#
# Youngs Moduli (GPa) = 105.98575 68.32416 92.26308
#
# Poissons Ratio (x) = 0.04082 0.18978
# Poissons Ratio (y) = 0.06332 0.34042
# Poissons Ratio (z) = 0.21801 0.25210
#
# Static dielectric constant tensor:
#      x y z
#    x 3.962210 0.000000 0.087250 
#    y 0.000000 3.830940 0.000000 
#    z 0.087250 0.000000 4.275810 
# 
# 
# High freq. dielectric constant tensor:
#      x y z
#    x 1.888000 0.000000 0.007460 
#    y 0.000000 1.861880 0.000000 
#    z 0.007460 0.000000 1.899140 
# 
# From -- ./inp_files/4243.got.cif
#   From: 2010.06.25/outbox.cif.g09.slc.cpg/sg9_3_cif.got.tgz:4243.got - 2010.06.27 21:40:51.
