data_PCOD8055516
_publ_section_title
;
Structure prediction by ZEFSAII (Michael W. Deem and Ramdas Pophale) SiO2 
 PCOD8055516
Probable space group: C C
;
_chemical_formula_sum "Si O2"
_cell_formula_units_Z 32
_cell_length_a 17.944588
_cell_length_b 6.002599
_cell_length_c 22.146529
_cell_angle_alpha 90.000000
_cell_angle_beta 147.851057
_cell_angle_gamma 90.000000
_cell_volume 1269.374344
_symmetry_space_group_name_H-M "C C"
_symmetry_group_IT_number 9
_symmetry_cell_setting 'monoclinic'
loop_
_space_group_symop_operation_xyz
x,y,z
x,-y,1/2+z
1/2+x,1/2+y,z
1/2+x,1/2-y,1/2+z
loop_
_atom_site_type_symbol
_atom_site_label
_atom_site_fract_x
_atom_site_fract_y
_atom_site_fract_z
Si Si1 0.688270 0.361237 0.862830
Si Si2 0.271905 0.704147 0.208347
Si Si3 0.413644 0.215549 0.046960
Si Si4 0.669488 0.070015 0.736923
Si Si5 0.065523 0.067371 0.082119
Si Si6 0.930531 0.811974 0.186456
Si Si7 0.636882 0.890879 0.033386
Si Si8 0.035949 0.572699 0.840530
O O1 0.727216 0.187677 0.836302
O O2 0.541404 0.488973 0.753909
O O3 0.671671 0.217384 0.913172
O O4 0.817047 0.528392 0.951719
O O5 0.294223 0.529629 0.279694
O O6 0.214507 0.941949 0.191039
O O7 0.138898 0.611496 0.076949
O O8 0.413951 0.746435 0.269217
O O9 0.434642 0.405907 0.009947
O O10 0.347354 0.293775 0.065056
O O11 0.564943 0.136413 0.176740
O O12 0.568730 0.241772 0.633800
O O13 0.056344 0.182393 0.009337
O O14 0.804759 0.853796 0.146687
O O15 0.003668 0.587437 0.261612
O O16 0.563730 0.931653 0.919581
#
# Coordination Sequence:
#
# PCOD8055516 Si02
#       8
#     4   4   4   4   4   4   4   4
#     4  12  26  44  76 111 146 202 248 308 383 452
#     4  10  23  48  70 102 146 192 245 315 367 441
#     4  11  25  45  74 108 144 194 251 309 373 441
#     4  10  23  48  70 102 146 192 245 315 367 441
#     4  10  22  50  72  98 148 188 246 318 364 434
#     4  12  24  46  72 108 150 192 244 312 372 448
#     4  11  25  45  74 108 144 194 251 309 373 441
#     4  12  26  44  76 111 146 202 248 308 383 452
#
# _framework density 25.20927
#
# number of rings (size 3 to 8) (size 9 to 14) (size 15 to 20)
#    0.000    1.000    5.000    0.750    3.500    2.000 
#    9.000    0.000    0.000    0.000    0.000    0.000 
#    0.000    0.000    0.000    0.000    0.000    0.000 
#
# Total GULP energy -198298.708738 kJ/mol
# GULP energy per Si atom -12393.669296 kJ/mol
# Density = 2.515189 g / cm^3
# Si number density = 25.209270 Si / 1000 Ang^3
#
#
#
# Elastic Constant Matrix: (Units=GPa)
#
#
# Indices 1 2 3 4 5 6 
#
# 1 142.3169 65.9227 39.3740 0.0000 -26.0917 0.0000
# 2 65.9227 119.7850 33.0397 0.0002 -16.5677 -0.0008
# 3 39.3740 33.0397 70.9797 0.0000 -20.2379 -0.0003
# 4 0.0000 0.0002 0.0000 40.7908 0.0001 -0.5289
# 5 -26.0917 -16.5677 -20.2379 0.0001 33.8137 0.0001
# 6 0.0000 -0.0008 -0.0003 -0.5289 0.0001 56.4821
#
#
#
# Elastic Compliance Matrix: (Units=1/GPa)
#
#
# Indices 1 2 3 4 5 6 
#
# 1 0.010651 -0.004548 -0.002512 0.000000 0.004487 0.000000
# 2 -0.004548 0.011690 -0.002757 0.000000 0.000569 0.000000
# 3 -0.002512 -0.002757 0.019084 0.000000 0.008133 0.000000
# 4 0.000000 0.000000 0.000000 0.024518 0.000000 0.000230
# 5 0.004487 0.000569 0.008133 0.000000 0.038182 0.000000
# 6 0.000000 0.000000 0.000000 0.000230 0.000000 0.017707
#
#
# Mechanical properties :
#
#
# Convention : Reuss Voigt Hill
#
# Bulk Modulus (GPa) = 45.88864 67.75045 56.81955
# Shear Modulus (GPa) = 33.61801 39.20033 36.40917
#
# Velocity S-wave (km/s) = 3.65575 3.94762 3.80449
# Velocity P-wave (km/s) = 6.00516 6.90738 6.47201
#
# Compressibility (1/GPa) = 0.02179188
#
# Stress axis : x y z
#
# Youngs Moduli (GPa) = 93.88902 85.54085 52.39994
#
# Poissons Ratio (x) = 0.38906 0.13162
# Poissons Ratio (y) = 0.42703 0.14444
# Poissons Ratio (z) = 0.23584 0.23579
#
# Static dielectric constant tensor:
#      x y z
#    x 4.788280 0.000000 -0.026900 
#    y 0.000000 4.698450 0.000000 
#    z -0.026900 0.000000 3.846050 
# 
# 
# High freq. dielectric constant tensor:
#      x y z
#    x 2.030760 0.000000 -0.001000 
#    y 0.000000 2.020260 0.000000 
#    z -0.001000 0.000000 1.968200 
# 
# From -- ./inp_files/35935.got.cif
#   From: 2010.06.25/outbox.cif.g09.slc.cpg/sg9_18_cif.got.tgz:35935.got - 2010.06.27 21:40:51.
