data_PCOD8055190
_publ_section_title
;
Structure prediction by ZEFSAII (Michael W. Deem and Ramdas Pophale) SiO2 
 PCOD8055190
Probable space group: C C
;
_chemical_formula_sum "Si O2"
_cell_formula_units_Z 32
_cell_length_a 27.772096
_cell_length_b 13.871740
_cell_length_c 9.850775
_cell_angle_alpha 90.000000
_cell_angle_beta 26.356200
_cell_angle_gamma 90.000000
_cell_volume 1684.784544
_symmetry_space_group_name_H-M "C C"
_symmetry_group_IT_number 9
_symmetry_cell_setting 'monoclinic'
loop_
_space_group_symop_operation_xyz
x,y,z
x,-y,1/2+z
1/2+x,1/2+y,z
1/2+x,1/2-y,1/2+z
loop_
_atom_site_type_symbol
_atom_site_label
_atom_site_fract_x
_atom_site_fract_y
_atom_site_fract_z
Si Si1 0.016420 0.512623 0.748380
Si Si2 0.701316 0.638542 0.863809
Si Si3 0.208764 0.361697 0.845729
Si Si4 0.685540 0.638542 0.221892
Si Si5 0.371382 0.982685 0.367034
Si Si6 0.870436 0.987377 0.837321
Si Si7 0.178092 0.361697 0.239971
Si Si8 0.015474 0.982685 0.718667
O O1 0.106470 0.596325 0.521980
O O2 0.068167 0.412178 0.567645
O O3 0.920176 0.543204 0.890522
O O4 0.969980 0.497864 0.015318
O O5 0.721065 0.749707 0.781173
O O6 0.801573 0.580431 0.547850
O O7 0.693428 0.617047 0.042851
O O8 0.589441 0.606885 0.076390
O O9 0.318689 0.412178 0.518055
O O10 0.193429 0.381365 0.042848
O O11 0.665791 0.749707 0.304527
O O12 0.585284 0.580431 0.537851
O O13 0.797415 0.606885 0.009310
O O14 0.966681 0.956796 0.695179
O O15 0.780386 0.903675 0.063722
O O16 0.916876 0.002136 0.570382
#
# Coordination Sequence:
#
# PCOD8055190 Si02
#       8
#     4   4   4   4   4   4   4   4
#     4  11  22  39  61  88 120 155 192 241 295 344
#     4  10  22  39  61  89 118 153 198 241 287 349
#     4  10  22  39  61  89 118 153 198 241 287 349
#     4  10  22  39  61  89 118 153 198 241 287 349
#     4  11  22  39  61  88 120 155 192 241 295 344
#     4  11  22  39  61  88 120 155 192 241 295 344
#     4  10  22  39  61  89 118 153 198 241 287 349
#     4  11  22  39  61  88 120 155 192 241 295 344
#
# _framework density 18.993525999999999
#
# number of rings (size 3 to 8) (size 9 to 14) (size 15 to 20)
#    0.000    1.500    5.000    0.000    0.000    4.000 
#    0.000    2.500    0.000    0.000    0.000    0.000 
#    0.000    0.000    0.000    0.000    0.000    0.000 
#
# Total GULP energy -198506.666473 kJ/mol
# GULP energy per Si atom -12406.666655 kJ/mol
# Density = 1.895030 g / cm^3
# Si number density = 18.993526 Si / 1000 Ang^3
#
#
#
# Elastic Constant Matrix: (Units=GPa)
#
#
# Indices 1 2 3 4 5 6 
#
# 1 86.1283 36.1741 5.8019 0.0000 -21.5679 0.0000
# 2 36.1741 120.4494 40.5740 0.0000 -0.4554 0.0000
# 3 5.8019 40.5740 85.1417 0.0000 3.7448 0.0000
# 4 0.0000 0.0000 0.0000 17.9889 0.0000 5.8842
# 5 -21.5679 -0.4554 3.7448 0.0000 38.8886 0.0000
# 6 0.0000 0.0000 0.0000 5.8842 0.0000 23.2291
#
#
#
# Elastic Compliance Matrix: (Units=1/GPa)
#
#
# Indices 1 2 3 4 5 6 
#
# 1 0.015823 -0.005037 0.000943 0.000000 0.008626 0.000000
# 2 -0.005037 0.011506 -0.005044 0.000000 -0.002173 0.000000
# 3 0.000943 -0.005044 0.014124 0.000000 -0.000896 0.000000
# 4 0.000000 0.000000 0.000000 0.060612 0.000000 -0.015354
# 5 0.008626 -0.002173 -0.000896 0.000000 0.030559 0.000000
# 6 0.000000 0.000000 0.000000 -0.015354 0.000000 0.046939
#
#
# Mechanical properties :
#
#
# Convention : Reuss Voigt Hill
#
# Bulk Modulus (GPa) = 43.14859 50.75770 46.95315
# Shear Modulus (GPa) = 24.32322 29.96594 27.14458
#
# Velocity S-wave (km/s) = 3.58244 3.97633 3.78451
# Velocity P-wave (km/s) = 6.31496 6.91833 6.62352
#
# Compressibility (1/GPa) = 0.02317573
#
# Stress axis : x y z
#
# Youngs Moduli (GPa) = 63.20091 86.91169 70.80066
#
# Poissons Ratio (x) = 0.43776 -0.06675
# Poissons Ratio (y) = 0.31834 0.35714
# Poissons Ratio (z) = -0.05958 0.43841
#
# Static dielectric constant tensor:
#      x y z
#    x 3.577440 0.000000 -0.067320 
#    y 0.000000 3.344560 0.000000 
#    z -0.067320 0.000000 3.493110 
# 
# 
# High freq. dielectric constant tensor:
#      x y z
#    x 1.749180 0.000000 -0.005290 
#    y 0.000000 1.729200 0.000000 
#    z -0.005290 0.000000 1.748380 
# 
# From -- ./inp_files/7389.got.cif
#   From: 2010.06.25/outbox.cif.g09.slc.cpg/sg9_4_cif.got.tgz:7389.got - 2010.06.27 21:40:51.
