data_PCOD8055739
_publ_section_title
;
Structure prediction by ZEFSAII (Michael W. Deem and Ramdas Pophale) SiO2 
 PCOD8055739
Probable space group: C C
;
_chemical_formula_sum "Si O2"
_cell_formula_units_Z 20
_cell_length_a 7.185462
_cell_length_b 11.554288
_cell_length_c 11.354819
_cell_angle_alpha 90.000000
_cell_angle_beta 125.273755
_cell_angle_gamma 90.000000
_cell_volume 769.630494
_symmetry_space_group_name_H-M "C C"
_symmetry_group_IT_number 9
_symmetry_cell_setting 'monoclinic'
loop_
_space_group_symop_operation_xyz
x,y,z
x,-y,1/2+z
1/2+x,1/2+y,z
1/2+x,1/2-y,1/2+z
loop_
_atom_site_type_symbol
_atom_site_label
_atom_site_fract_x
_atom_site_fract_y
_atom_site_fract_z
Si Si1 0.038880 0.002892 0.169240
Si Si2 0.423063 0.880130 0.426602
Si Si3 0.674441 0.170199 0.437190
Si Si4 0.698477 0.015722 0.224081
Si Si5 0.334298 0.319484 0.430506
O O1 0.294274 0.953026 0.276733
O O2 0.945316 0.054968 0.259544
O O3 0.866738 0.895669 0.080531
O O4 0.027976 0.097720 0.061519
O O5 0.251239 0.798691 0.431704
O O6 0.519302 0.976890 0.550969
O O7 0.628047 0.802244 0.448101
O O8 0.617317 0.099947 0.298504
O O9 0.444035 0.197233 0.429547
O O10 0.721106 0.884326 0.277484
#
# Coordination Sequence:
#
# PCOD8055739 Si02
#       5
#     4   4   4   4   4
#     4  10  23  47  71 106 149 192 245 307 369 438
#     4  11  23  43  70 109 141 191 249 300 365 443
#     4  11  23  47  71 100 153 193 244 301 370 445
#     4  10  23  46  68 103 144 188 244 304 366 427
#     4  10  24  45  70 106 143 198 240 304 370 437
#
# _framework density 25.986495999999999
#
# number of rings (size 3 to 8) (size 9 to 14) (size 15 to 20)
#    0.000    1.600    2.000    1.200    2.800    0.000 
#   25.200    0.000    0.000    0.000    0.000    0.000 
#    0.000    0.000    0.000    0.000    0.000    0.000 
#
# Total GULP energy -123961.774549 kJ/mol
# GULP energy per Si atom -12396.177455 kJ/mol
# Density = 2.592735 g / cm^3
# Si number density = 25.986496 Si / 1000 Ang^3
#
#
#
# Elastic Constant Matrix: (Units=GPa)
#
#
# Indices 1 2 3 4 5 6 
#
# 1 111.5595 29.1227 46.8072 0.0000 -0.3451 0.0000
# 2 29.1227 86.4674 26.2952 0.0000 -1.6402 0.0000
# 3 46.8072 26.2952 134.3782 0.0000 5.3542 0.0000
# 4 0.0000 0.0000 0.0000 18.4863 0.0000 -7.3304
# 5 -0.3451 -1.6402 5.3542 0.0000 35.5246 0.0000
# 6 0.0000 0.0000 0.0000 -7.3304 0.0000 54.9169
#
#
#
# Elastic Compliance Matrix: (Units=1/GPa)
#
#
# Indices 1 2 3 4 5 6 
#
# 1 0.011076 -0.002703 -0.003349 0.000000 0.000487 0.000000
# 2 -0.002703 0.012987 -0.001633 0.000000 0.000819 0.000000
# 3 -0.003349 -0.001633 0.008986 0.000000 -0.001462 0.000000
# 4 0.000000 0.000000 0.000000 0.057117 0.000000 0.007624
# 5 0.000487 0.000819 -0.001462 0.000000 0.028412 0.000000
# 6 0.000000 0.000000 0.000000 0.007624 0.000000 0.019227
#
#
# Mechanical properties :
#
#
# Convention : Reuss Voigt Hill
#
# Bulk Modulus (GPa) = 56.55736 59.65058 58.10397
# Shear Modulus (GPa) = 31.43322 37.13091 34.28207
#
# Velocity S-wave (km/s) = 3.48170 3.78412 3.63606
# Velocity P-wave (km/s) = 6.16234 6.48822 6.32738
#
# Compressibility (1/GPa) = 0.01768116
#
# Stress axis : x y z
#
# Youngs Moduli (GPa) = 90.28648 76.99764 111.28702
#
# Poissons Ratio (x) = 0.20811 0.37265
# Poissons Ratio (y) = 0.24403 0.18168
# Poissons Ratio (z) = 0.30233 0.12570
#
# Static dielectric constant tensor:
#      x y z
#    x 4.873370 0.000000 -0.205250 
#    y 0.000000 4.409350 0.000000 
#    z -0.205250 0.000000 4.697880 
# 
# 
# High freq. dielectric constant tensor:
#      x y z
#    x 2.051770 0.000000 -0.009860 
#    y 0.000000 2.023020 0.000000 
#    z -0.009860 0.000000 2.038830 
# 
# From -- ./inp_files/14274.got.cif
#   From: 2010.06.25/outbox.cif.g09.slc.cpg/sg9_8_cif.got.tgz:14274.got - 2010.06.27 21:40:51.
