data_PCOD8055134
_publ_section_title
;
Structure prediction by ZEFSAII (Michael W. Deem and Ramdas Pophale) SiO2 
 PCOD8055134
Probable space group: C C
;
_chemical_formula_sum "Si O2"
_cell_formula_units_Z 32
_cell_length_a 9.435721
_cell_length_b 15.680389
_cell_length_c 11.340993
_cell_angle_alpha 90.000000
_cell_angle_beta 55.117862
_cell_angle_gamma 90.000000
_cell_volume 1376.485711
_symmetry_space_group_name_H-M "C C"
_symmetry_group_IT_number 9
_symmetry_cell_setting 'monoclinic'
loop_
_space_group_symop_operation_xyz
x,y,z
x,-y,1/2+z
1/2+x,1/2+y,z
1/2+x,1/2-y,1/2+z
loop_
_atom_site_type_symbol
_atom_site_label
_atom_site_fract_x
_atom_site_fract_y
_atom_site_fract_z
Si Si1 0.924760 0.219391 0.456100
Si Si2 0.616790 0.837229 0.708633
Si Si3 0.283941 0.546683 0.936074
Si Si4 0.499995 0.593237 0.628221
Si Si5 0.139432 0.376287 0.949688
Si Si6 0.641162 0.505711 0.866054
Si Si7 0.764249 0.662587 0.685424
Si Si8 0.289664 0.831007 0.713471
O O1 0.932655 0.151631 0.556200
O O2 0.796364 0.186005 0.414792
O O3 0.864617 0.308957 0.546581
O O4 0.118405 0.227132 0.311490
O O5 0.728357 0.876807 0.548696
O O6 0.620695 0.900064 0.818864
O O7 0.701337 0.757673 0.737400
O O8 0.430778 0.808096 0.747456
O O9 0.323527 0.580614 0.785777
O O10 0.146172 0.470238 0.005781
O O11 0.465592 0.504217 0.877834
O O12 0.589561 0.509296 0.527164
O O13 0.661068 0.632899 0.619626
O O14 0.966993 0.329614 0.071203
O O15 0.730706 0.598332 0.811070
O O16 0.755901 0.431856 0.748644
#
# Coordination Sequence:
#
# PCOD8055134 Si02
#       8
#     4   4   4   4   4   4   4   4
#     4  11  25  44  73 104 147 193 251 314 380 454
#     4  12  28  45  77 107 155 198 264 308 388 461
#     4  11  24  44  74 105 141 206 242 319 376 455
#     4  10  21  45  73 101 141 197 258 297 381 462
#     4  12  26  45  66 111 151 183 251 323 382 443
#     4  10  22  46  70 106 149 191 259 313 382 451
#     4  11  26  43  70 110 144 202 248 318 386 452
#     4  11  24  48  73 104 148 206 255 310 375 476
#
# _framework density 23.247609000000001
#
# number of rings (size 3 to 8) (size 9 to 14) (size 15 to 20)
#    0.000    1.000    3.750    3.000    7.000    0.000 
#    4.500    0.000    0.000    0.000    0.000    0.000 
#    0.000    0.000    0.000    0.000    0.000    0.000 
#
# Total GULP energy -198240.938943 kJ/mol
# GULP energy per Si atom -12390.058684 kJ/mol
# Density = 2.319470 g / cm^3
# Si number density = 23.247609 Si / 1000 Ang^3
#
#
#
# Elastic Constant Matrix: (Units=GPa)
#
#
# Indices 1 2 3 4 5 6 
#
# 1 117.3397 11.9182 34.9460 0.0000 -16.7124 0.0000
# 2 11.9182 96.6135 39.8364 0.0000 -14.4016 0.0000
# 3 34.9460 39.8364 107.9155 0.0000 -4.1927 0.0000
# 4 0.0000 0.0000 0.0000 35.9137 0.0000 0.3582
# 5 -16.7124 -14.4016 -4.1927 0.0000 41.8016 0.0000
# 6 0.0000 0.0000 0.0000 0.3582 0.0000 33.5672
#
#
#
# Elastic Compliance Matrix: (Units=1/GPa)
#
#
# Indices 1 2 3 4 5 6 
#
# 1 0.010006 0.000735 -0.003359 0.000000 0.003917 0.000000
# 2 0.000735 0.012884 -0.004829 0.000000 0.004248 0.000000
# 3 -0.003359 -0.004829 0.012067 0.000000 -0.001796 0.000000
# 4 0.000000 0.000000 0.000000 0.027848 0.000000 -0.000297
# 5 0.003917 0.004248 -0.001796 0.000000 0.026772 0.000000
# 6 0.000000 0.000000 0.000000 -0.000297 0.000000 0.029794
#
#
# Mechanical properties :
#
#
# Convention : Reuss Voigt Hill
#
# Bulk Modulus (GPa) = 49.87503 55.02998 52.45250
# Shear Modulus (GPa) = 35.47070 37.93436 36.70253
#
# Velocity S-wave (km/s) = 3.91036 4.04388 3.97768
# Velocity P-wave (km/s) = 6.47212 6.74734 6.61116
#
# Compressibility (1/GPa) = 0.02005011
#
# Stress axis : x y z
#
# Youngs Moduli (GPa) = 99.94097 77.61392 82.86990
#
# Poissons Ratio (x) = -0.05701 0.27838
# Poissons Ratio (y) = -0.07341 0.40018
# Poissons Ratio (z) = 0.33572 0.37480
#
# Static dielectric constant tensor:
#      x y z
#    x 4.250210 0.000000 0.094090 
#    y 0.000000 4.523360 0.000000 
#    z 0.094090 0.000000 5.074160 
# 
# 
# High freq. dielectric constant tensor:
#      x y z
#    x 1.925300 0.000000 -0.002570 
#    y 0.000000 1.912490 0.000000 
#    z -0.002570 0.000000 1.917770 
# 
# From -- ./inp_files/14713.got.cif
#   From: 2010.06.25/outbox.cif.g09.slc.cpg/sg9_8_cif.got.tgz:14713.got - 2010.06.27 21:40:51.
