data_PCOD8055124
_publ_section_title
;
Structure prediction by ZEFSAII (Michael W. Deem and Ramdas Pophale) SiO2 
 PCOD8055124
Probable space group: C C
;
_chemical_formula_sum "Si O2"
_cell_formula_units_Z 28
_cell_length_a 9.894815
_cell_length_b 7.766917
_cell_length_c 26.499539
_cell_angle_alpha 90.000000
_cell_angle_beta 144.881492
_cell_angle_gamma 90.000000
_cell_volume 1171.563991
_symmetry_space_group_name_H-M "C C"
_symmetry_group_IT_number 9
_symmetry_cell_setting 'monoclinic'
loop_
_space_group_symop_operation_xyz
x,y,z
x,-y,1/2+z
1/2+x,1/2+y,z
1/2+x,1/2-y,1/2+z
loop_
_atom_site_type_symbol
_atom_site_label
_atom_site_fract_x
_atom_site_fract_y
_atom_site_fract_z
Si Si1 0.529670 0.071103 0.267570
Si Si2 0.357219 0.364999 0.514733
Si Si3 0.811872 0.256454 0.490871
Si Si4 0.555598 0.424727 0.674840
Si Si5 0.280555 0.231733 0.333797
Si Si6 0.360972 0.872928 0.400650
Si Si7 0.810040 0.716426 0.103177
O O1 0.317539 0.020549 0.239127
O O2 0.711742 0.917303 0.335015
O O3 0.649421 0.249718 0.320248
O O4 0.439879 0.088328 0.181987
O O5 0.414630 0.566563 0.527068
O O6 0.442443 0.308124 0.596480
O O7 0.524249 0.273019 0.524442
O O8 0.077118 0.330069 0.427763
O O9 0.540487 0.252537 0.390938
O O10 0.942521 0.350419 0.484181
O O11 0.848954 0.347585 0.557020
O O12 0.579211 0.306819 0.731186
O O13 0.402561 0.592003 0.640311
O O14 0.281258 0.072017 0.373046
#
# Coordination Sequence:
#
# PCOD8055124 Si02
#       7
#     4   4   4   4   4   4   4
#     4  11  24  44  74 102 141 190 236 294 354 420
#     4   9  23  43  71 100 142 187 233 294 351 425
#     4  10  23  44  68 107 146 177 239 299 345 427
#     4  10  21  45  66 103 145 174 242 301 336 422
#     4  11  24  43  69 106 141 182 236 293 353 424
#     4  11  23  47  74 102 145 187 232 298 358 416
#     4  10  22  46  74 102 146 191 234 295 359 414
#
# _framework density 23.899677000000001
#
# number of rings (size 3 to 8) (size 9 to 14) (size 15 to 20)
#    0.000    1.714    2.857    0.000    2.000    4.571 
#    7.714    5.714    0.000    0.000    0.000    0.000 
#    0.000    0.000    0.000    0.000    0.000    0.000 
#
# Total GULP energy -173501.053437 kJ/mol
# GULP energy per Si atom -12392.932388 kJ/mol
# Density = 2.384528 g / cm^3
# Si number density = 23.899677 Si / 1000 Ang^3
#
#
#
# Elastic Constant Matrix: (Units=GPa)
#
#
# Indices 1 2 3 4 5 6 
#
# 1 113.8616 39.9661 24.5706 0.0000 1.4151 0.0000
# 2 39.9661 93.5228 24.6409 0.0000 8.3728 0.0000
# 3 24.5706 24.6409 73.4095 0.0000 -1.9261 0.0000
# 4 0.0000 0.0000 0.0000 32.3816 0.0000 4.3512
# 5 1.4151 8.3728 -1.9261 0.0000 45.1645 0.0000
# 6 0.0000 0.0000 0.0000 4.3512 0.0000 28.5148
#
#
#
# Elastic Compliance Matrix: (Units=1/GPa)
#
#
# Indices 1 2 3 4 5 6 
#
# 1 0.010661 -0.004000 -0.002218 0.000000 0.000313 0.000000
# 2 -0.004000 0.013484 -0.003253 0.000000 -0.002513 0.000000
# 3 -0.002218 -0.003253 0.015491 0.000000 0.001333 0.000000
# 4 0.000000 0.000000 0.000000 0.031528 0.000000 -0.004811
# 5 0.000313 -0.002513 0.001333 0.000000 0.022654 0.000000
# 6 0.000000 0.000000 0.000000 -0.004811 0.000000 0.035804
#
#
# Mechanical properties :
#
#
# Convention : Reuss Voigt Hill
#
# Bulk Modulus (GPa) = 48.31984 51.01656 49.66820
# Shear Modulus (GPa) = 32.16215 33.98661 33.07438
#
# Velocity S-wave (km/s) = 3.67238 3.77510 3.72409
# Velocity P-wave (km/s) = 6.18413 6.35565 6.27048
#
# Compressibility (1/GPa) = 0.02069543
#
# Stress axis : x y z
#
# Youngs Moduli (GPa) = 93.79846 74.16222 64.55174
#
# Poissons Ratio (x) = 0.29663 0.14315
# Poissons Ratio (y) = 0.37516 0.21001
# Poissons Ratio (z) = 0.20801 0.24127
#
# Static dielectric constant tensor:
#      x y z
#    x 4.383770 0.000000 -0.136240 
#    y 0.000000 3.943730 0.000000 
#    z -0.136240 0.000000 4.479680 
# 
# 
# High freq. dielectric constant tensor:
#      x y z
#    x 1.944490 0.000000 -0.004830 
#    y 0.000000 1.926090 0.000000 
#    z -0.004830 0.000000 1.960860 
# 
# From -- ./inp_files/28926.got.cif
#   From: 2010.06.25/outbox.cif.g09.slc.cpg/sg9_15_cif.got.tgz:28926.got - 2010.06.27 21:40:51.
