data_PCOD8055995
_publ_section_title
;
Structure prediction by ZEFSAII (Michael W. Deem and Ramdas Pophale) SiO2 
 PCOD8055995
Probable space group: C C
;
_chemical_formula_sum "Si O2"
_cell_formula_units_Z 32
_cell_length_a 10.986181
_cell_length_b 11.347733
_cell_length_c 10.664680
_cell_angle_alpha 90.000000
_cell_angle_beta 103.783878
_cell_angle_gamma 90.000000
_cell_volume 1291.257834
_symmetry_space_group_name_H-M "C C"
_symmetry_group_IT_number 9
_symmetry_cell_setting 'monoclinic'
loop_
_space_group_symop_operation_xyz
x,y,z
x,-y,1/2+z
1/2+x,1/2+y,z
1/2+x,1/2-y,1/2+z
loop_
_atom_site_type_symbol
_atom_site_label
_atom_site_fract_x
_atom_site_fract_y
_atom_site_fract_z
Si Si1 0.756310 0.208489 0.366480
Si Si2 0.381654 0.245504 0.324879
Si Si3 0.522971 0.627204 0.476589
Si Si4 0.094802 0.259757 0.253402
Si Si5 0.591025 0.634004 0.993708
Si Si6 0.895593 0.469761 0.985929
Si Si7 0.036932 0.339755 0.653807
Si Si8 0.858972 0.398234 0.233794
O O1 0.715163 0.309055 0.458106
O O2 0.640580 0.129718 0.286856
O O3 0.803990 0.270617 0.250134
O O4 0.869444 0.129183 0.449833
O O5 0.241165 0.293522 0.298885
O O6 0.476615 0.354407 0.365364
O O7 0.428000 0.161850 0.451576
O O8 0.406449 0.181014 0.197497
O O9 0.566409 0.661464 0.349378
O O10 0.590468 0.504710 0.525393
O O11 0.576015 0.722891 0.588006
O O12 0.064142 0.201448 0.114361
O O13 0.010168 0.378100 0.250352
O O14 0.809060 0.457179 0.091384
O O15 0.014883 0.553048 0.050356
O O16 0.825372 0.521083 0.845892
#
# Coordination Sequence:
#
# PCOD8055995 Si02
#       8
#     4   4   4   4   4   4   4   4
#     4  10  25  47  69 103 145 186 234 299 366 437
#     4  11  26  43  68 102 138 187 237 298 366 438
#     4  11  26  45  70 105 139 188 241 295 366 443
#     4  11  25  43  67 100 139 181 238 297 362 437
#     4  11  26  47  68 104 145 186 240 295 370 443
#     4  12  23  43  70 101 136 178 243 292 353 434
#     4  11  24  44  68 100 142 184 235 297 366 434
#     4  11  25  44  68 103 138 184 240 291 357 438
#
# _framework density 24.782036999999999
#
# number of rings (size 3 to 8) (size 9 to 14) (size 15 to 20)
#    0.000    1.000    5.000    0.750    7.000    1.000 
#    0.000    0.000    0.000    0.000    0.000    0.000 
#    0.000    0.000    0.000    0.000    0.000    0.000 
#
# Total GULP energy -198219.225563 kJ/mol
# GULP energy per Si atom -12388.701598 kJ/mol
# Density = 2.472563 g / cm^3
# Si number density = 24.782037 Si / 1000 Ang^3
#
#
#
# Elastic Constant Matrix: (Units=GPa)
#
#
# Indices 1 2 3 4 5 6 
#
# 1 117.8758 4.3819 16.2036 0.0000 0.5628 0.0000
# 2 4.3819 52.9559 17.5891 0.0000 -1.1836 0.0000
# 3 16.2036 17.5891 127.1736 0.0000 -19.8069 0.0000
# 4 0.0000 0.0000 0.0000 35.2949 0.0000 -11.7587
# 5 0.5628 -1.1836 -19.8069 0.0000 40.3465 0.0000
# 6 0.0000 0.0000 0.0000 -11.7587 0.0000 13.3241
#
#
#
# Elastic Compliance Matrix: (Units=1/GPa)
#
#
# Indices 1 2 3 4 5 6 
#
# 1 0.008660 -0.000345 -0.001165 0.000000 -0.000703 0.000000
# 2 -0.000345 0.019832 -0.002823 0.000000 -0.000799 0.000000
# 3 -0.001165 -0.002823 0.009087 0.000000 0.004394 0.000000
# 4 0.000000 0.000000 0.000000 0.040132 0.000000 0.035418
# 5 -0.000703 -0.000799 0.004394 0.000000 0.026929 0.000000
# 6 0.000000 0.000000 0.000000 0.035418 0.000000 0.106309
#
#
# Mechanical properties :
#
#
# Convention : Reuss Voigt Hill
#
# Bulk Modulus (GPa) = 34.58904 41.59494 38.09199
# Shear Modulus (GPa) = 21.80992 35.11513 28.46253
#
# Velocity S-wave (km/s) = 2.96982 3.76834 3.39265
# Velocity P-wave (km/s) = 5.07418 5.97951 5.54535
#
# Compressibility (1/GPa) = 0.02891089
#
# Stress axis : x y z
#
# Youngs Moduli (GPa) = 115.47532 50.42321 110.05204
#
# Poissons Ratio (x) = 0.01741 0.12822
# Poissons Ratio (y) = 0.03987 0.31073
# Poissons Ratio (z) = 0.13454 0.14237
#
# Static dielectric constant tensor:
#      x y z
#    x 4.484490 0.000000 -0.209590 
#    y 0.000000 4.267300 0.000000 
#    z -0.209590 0.000000 4.593390 
# 
# 
# High freq. dielectric constant tensor:
#      x y z
#    x 1.981200 0.000000 -0.003410 
#    y 0.000000 1.963980 0.000000 
#    z -0.003410 0.000000 2.005620 
# 
# From -- ./inp_files/16272.got.cif
#   From: 2010.06.25/outbox.cif.g09.slc.cpg/sg9_9_cif.got.tgz:16272.got - 2010.06.27 21:40:51.
