data_PCOD8055116
_publ_section_title
;
Structure prediction by ZEFSAII (Michael W. Deem and Ramdas Pophale) SiO2 
 PCOD8055116
Probable space group: C C
;
_chemical_formula_sum "Si O2"
_cell_formula_units_Z 32
_cell_length_a 13.614285
_cell_length_b 11.563832
_cell_length_c 9.664061
_cell_angle_alpha 90.000000
_cell_angle_beta 66.535950
_cell_angle_gamma 90.000000
_cell_volume 1395.636899
_symmetry_space_group_name_H-M "C C"
_symmetry_group_IT_number 9
_symmetry_cell_setting 'monoclinic'
loop_
_space_group_symop_operation_xyz
x,y,z
x,-y,1/2+z
1/2+x,1/2+y,z
1/2+x,1/2-y,1/2+z
loop_
_atom_site_type_symbol
_atom_site_label
_atom_site_fract_x
_atom_site_fract_y
_atom_site_fract_z
Si Si1 0.373090 0.425541 0.430500
Si Si2 0.588420 0.433335 0.412621
Si Si3 0.400205 0.176621 0.331761
Si Si4 0.739576 0.031931 0.267958
Si Si5 0.337717 0.832120 0.557986
Si Si6 0.152688 0.292850 0.013893
Si Si7 0.211876 0.057326 0.572056
Si Si8 0.529403 0.059469 0.791241
O O1 0.473718 0.492318 0.442091
O O2 0.431330 0.299707 0.380531
O O3 0.334329 0.474681 0.305270
O O4 0.275185 0.439123 0.591723
O O5 0.586099 0.321534 0.514042
O O6 0.648558 0.530998 0.466437
O O7 0.641743 0.396064 0.237566
O O8 0.294666 0.153529 0.479666
O O9 0.484977 0.071504 0.295728
O O10 0.377727 0.202791 0.185286
O O11 0.635911 0.947296 0.326064
O O12 0.703827 0.154374 0.348079
O O13 0.257152 0.732201 0.551078
O O14 0.272519 0.949304 0.603231
O O15 0.440885 0.853398 0.402003
O O16 0.067937 0.383497 0.125817
#
# Coordination Sequence:
#
# PCOD8055116 Si02
#       8
#     4   4   4   4   4   4   4   4
#     4  12  27  43  69 101 144 186 238 290 354 417
#     4  11  23  44  67 104 135 191 231 290 360 410
#     4  11  23  43  72 104 134 185 240 288 351 422
#     4  12  25  48  66 100 147 188 234 299 348 421
#     4  10  23  42  72 107 137 183 235 294 348 415
#     4  11  24  44  71 104 141 187 238 292 358 418
#     4  10  21  44  71  98 143 175 238 292 343 418
#     4  11  24  46  74 102 145 187 238 291 350 425
#
# _framework density 22.928599999999999
#
# number of rings (size 3 to 8) (size 9 to 14) (size 15 to 20)
#    0.000    1.000    2.500    3.750    1.750    1.000 
#    2.250    0.000    0.000    0.000    0.000    0.000 
#    0.000    0.000    0.000    0.000    0.000    0.000 
#
# Total GULP energy -198315.607640 kJ/mol
# GULP energy per Si atom -12394.725478 kJ/mol
# Density = 2.287641 g / cm^3
# Si number density = 22.928600 Si / 1000 Ang^3
#
#
#
# Elastic Constant Matrix: (Units=GPa)
#
#
# Indices 1 2 3 4 5 6 
#
# 1 127.4342 12.8944 29.7315 0.0000 3.8654 0.0000
# 2 12.8944 51.7451 19.1388 0.0000 -8.6872 0.0000
# 3 29.7315 19.1388 124.0309 0.0000 -2.1831 0.0000
# 4 0.0000 0.0000 0.0000 35.6727 0.0000 -4.1633
# 5 3.8654 -8.6872 -2.1831 0.0000 38.1052 0.0000
# 6 0.0000 0.0000 0.0000 -4.1633 0.0000 26.5551
#
#
#
# Elastic Compliance Matrix: (Units=1/GPa)
#
#
# Indices 1 2 3 4 5 6 
#
# 1 0.008477 -0.001673 -0.001797 0.000000 -0.001344 0.000000
# 2 -0.001673 0.021625 -0.002849 0.000000 0.004937 0.000000
# 3 -0.001797 -0.002849 0.008934 0.000000 0.000045 0.000000
# 4 0.000000 0.000000 0.000000 0.028555 0.000000 0.004477
# 5 -0.001344 0.004937 0.000045 0.000000 0.027507 0.000000
# 6 0.000000 0.000000 0.000000 0.004477 0.000000 0.038359
#
#
# Mechanical properties :
#
#
# Convention : Reuss Voigt Hill
#
# Bulk Modulus (GPa) = 37.88407 47.41551 42.64979
# Shear Modulus (GPa) = 32.27990 36.16296 34.22143
#
# Velocity S-wave (km/s) = 3.75620 3.97570 3.86751
# Velocity P-wave (km/s) = 5.94731 6.46525 6.21168
#
# Compressibility (1/GPa) = 0.02639632
#
# Stress axis : x y z
#
# Youngs Moduli (GPa) = 117.97169 46.24290 111.93496
#
# Poissons Ratio (x) = 0.07737 0.20119
# Poissons Ratio (y) = 0.19739 0.31889
# Poissons Ratio (z) = 0.21204 0.13174
#
# Static dielectric constant tensor:
#      x y z
#    x 4.293120 0.000000 -0.051420 
#    y 0.000000 3.963570 0.000000 
#    z -0.051420 0.000000 4.067450 
# 
# 
# High freq. dielectric constant tensor:
#      x y z
#    x 1.917560 0.000000 0.002350 
#    y 0.000000 1.895180 0.000000 
#    z 0.002350 0.000000 1.913010 
# 
# From -- ./inp_files/9184.got.cif
#   From: 2010.06.25/outbox.cif.g09.slc.cpg/sg9_5_cif.got.tgz:9184.got - 2010.06.27 21:40:51.
