data_PCOD8055994
_publ_section_title
;
Structure prediction by ZEFSAII (Michael W. Deem and Ramdas Pophale) SiO2 
 PCOD8055994
Probable space group: C C
;
_chemical_formula_sum "Si O2"
_cell_formula_units_Z 24
_cell_length_a 5.394077
_cell_length_b 21.718294
_cell_length_c 9.003328
_cell_angle_alpha 90.000000
_cell_angle_beta 70.665925
_cell_angle_gamma 90.000000
_cell_volume 995.258274
_symmetry_space_group_name_H-M "C C"
_symmetry_group_IT_number 9
_symmetry_cell_setting 'monoclinic'
loop_
_space_group_symop_operation_xyz
x,y,z
x,-y,1/2+z
1/2+x,1/2+y,z
1/2+x,1/2-y,1/2+z
loop_
_atom_site_type_symbol
_atom_site_label
_atom_site_fract_x
_atom_site_fract_y
_atom_site_fract_z
Si Si1 0.189390 0.577083 0.620190
Si Si2 0.474025 0.321488 0.904203
Si Si3 0.703398 0.635855 0.825167
Si Si4 0.004562 0.264229 0.821012
Si Si5 0.752513 0.953149 0.446038
Si Si6 0.884854 0.352541 0.602318
O O1 0.403514 0.629759 0.546184
O O2 0.241341 0.524255 0.490161
O O3 0.215969 0.549473 0.777385
O O4 0.900497 0.607891 0.662404
O O5 0.700044 0.276832 0.928163
O O6 0.597088 0.356552 0.736008
O O7 0.209372 0.285968 0.907080
O O8 0.533280 0.691017 0.787147
O O9 0.527602 0.580414 0.926169
O O10 0.863154 0.665010 0.932746
O O11 0.058506 0.300920 0.655394
O O12 0.525244 0.918824 0.584158
#
# Coordination Sequence:
#
# PCOD8055994 Si02
#       6
#     4   4   4   4   4   4
#     4  11  29  46  79 111 154 209 266 321 386 465
#     4  10  25  48  77 113 151 200 250 322 390 457
#     4  11  26  47  74 115 152 206 262 321 393 466
#     4  10  25  46  81 109 159 191 259 313 400 456
#     4  11  27  48  75 109 155 209 263 325 381 464
#     4   9  24  45  76 109 153 203 256 322 390 456
#
# _framework density 24.114346999999999
#
# number of rings (size 3 to 8) (size 9 to 14) (size 15 to 20)
#    1.000    0.667    0.000    1.000   14.000    5.333 
#    0.000    0.000    0.000    0.000    0.000    0.000 
#    0.000    0.000    0.000    0.000    0.000    0.000 
#
# Total GULP energy -148727.469955 kJ/mol
# GULP energy per Si atom -12393.955830 kJ/mol
# Density = 2.405946 g / cm^3
# Si number density = 24.114347 Si / 1000 Ang^3
#
#
#
# Elastic Constant Matrix: (Units=GPa)
#
#
# Indices 1 2 3 4 5 6 
#
# 1 141.4947 74.9617 31.1623 0.0000 -19.9222 0.0000
# 2 74.9617 171.2224 73.2380 0.0000 -12.0466 0.0000
# 3 31.1623 73.2380 96.7847 0.0000 -14.9878 0.0000
# 4 0.0000 0.0000 0.0000 43.0089 0.0000 -10.9273
# 5 -19.9222 -12.0466 -14.9878 0.0000 29.6085 0.0000
# 6 0.0000 0.0000 0.0000 -10.9273 0.0000 36.4354
#
#
#
# Elastic Compliance Matrix: (Units=1/GPa)
#
#
# Indices 1 2 3 4 5 6 
#
# 1 0.009935 -0.004375 0.000946 0.000000 0.005383 0.000000
# 2 -0.004375 0.010564 -0.006917 0.000000 -0.002148 0.000000
# 3 0.000946 -0.006917 0.016194 0.000000 0.006019 0.000000
# 4 0.000000 0.000000 0.000000 0.025169 0.000000 0.007548
# 5 0.005383 -0.002148 0.006019 0.000000 0.039570 0.000000
# 6 0.000000 0.000000 0.000000 0.007548 0.000000 0.029710
#
#
# Mechanical properties :
#
#
# Convention : Reuss Voigt Hill
#
# Bulk Modulus (GPa) = 62.50435 85.35842 73.93138
# Shear Modulus (GPa) = 31.81300 37.15319 34.48310
#
# Velocity S-wave (km/s) = 3.63610 3.92945 3.78561
# Velocity P-wave (km/s) = 6.60337 7.48743 7.05925
#
# Compressibility (1/GPa) = 0.01599889
#
# Stress axis : x y z
#
# Youngs Moduli (GPa) = 100.65313 94.66426 61.74990
#
# Poissons Ratio (x) = 0.41419 -0.05840
# Poissons Ratio (y) = 0.44039 0.42715
# Poissons Ratio (z) = -0.09519 0.65483
#
# Static dielectric constant tensor:
#      x y z
#    x 4.265790 0.000000 -0.181710 
#    y 0.000000 4.209620 0.000000 
#    z -0.181710 0.000000 4.117490 
# 
# 
# High freq. dielectric constant tensor:
#      x y z
#    x 1.954960 0.000000 -0.006310 
#    y 0.000000 1.951970 0.000000 
#    z -0.006310 0.000000 1.957170 
# 
# From -- ./inp_files/13264.got.cif
#   From: 2010.06.25/outbox.cif.g09.slc.cpg/sg9_7_cif.got.tgz:13264.got - 2010.06.27 21:40:51.
