data_PCOD8055892
_publ_section_title
;
Structure prediction by ZEFSAII (Michael W. Deem and Ramdas Pophale) SiO2 
 PCOD8055892
Probable space group: C C
;
_chemical_formula_sum "Si O2"
_cell_formula_units_Z 32
_cell_length_a 8.960356
_cell_length_b 25.940922
_cell_length_c 7.554635
_cell_angle_alpha 90.000000
_cell_angle_beta 130.697437
_cell_angle_gamma 90.000000
_cell_volume 1331.334035
_symmetry_space_group_name_H-M "C C"
_symmetry_group_IT_number 9
_symmetry_cell_setting 'monoclinic'
loop_
_space_group_symop_operation_xyz
x,y,z
x,-y,1/2+z
1/2+x,1/2+y,z
1/2+x,1/2-y,1/2+z
loop_
_atom_site_type_symbol
_atom_site_label
_atom_site_fract_x
_atom_site_fract_y
_atom_site_fract_z
Si Si1 0.995870 0.045117 0.286610
Si Si2 0.423400 0.976151 0.246056
Si Si3 0.126327 0.792492 0.168089
Si Si4 0.773780 0.043911 0.775144
Si Si5 0.005713 0.132528 0.863184
Si Si6 0.058987 0.320614 0.578338
Si Si7 0.441046 0.657801 0.207763
Si Si8 0.417367 0.081297 0.115192
O O1 0.989709 0.104099 0.349023
O O2 0.205785 0.020574 0.493214
O O3 0.804650 0.011615 0.205014
O O4 0.964640 0.047331 0.052962
O O5 0.569203 0.948642 0.220345
O O6 0.421415 0.947812 0.429533
O O7 0.491890 0.037515 0.316315
O O8 0.126071 0.732415 0.225461
O O9 0.343559 0.815582 0.329996
O O10 0.991945 0.823030 0.204851
O O11 0.042341 0.797625 0.903812
O O12 0.816197 0.094673 0.687758
O O13 0.198863 0.098166 0.990534
O O14 0.011065 0.160295 0.059806
O O15 0.205812 0.333781 0.531026
O O16 0.056984 0.368226 0.717344
#
# Coordination Sequence:
#
# PCOD8055892 Si02
#       8
#     4   4   4   4   4   4   4   4
#     4  11  23  38  64  96 140 182 230 289 345 419
#     4  12  23  43  68 101 141 196 225 283 365 420
#     4  11  24  48  75  99 141 188 231 306 363 412
#     4  11  23  39  63 101 139 180 237 287 342 435
#     4  10  24  45  68 105 142 179 241 301 344 431
#     4  11  23  49  72 105 141 182 244 296 354 431
#     4  11  24  45  71 100 138 186 233 292 365 416
#     4  11  24  43  69 101 148 177 237 292 338 438
#
# _framework density 24.03604
#
# number of rings (size 3 to 8) (size 9 to 14) (size 15 to 20)
#    0.000    1.000    2.500    5.250    3.500    0.000 
#    6.750    2.500    0.000    0.000    0.000    0.000 
#    0.000    0.000    0.000    0.000    0.000    0.000 
#
# Total GULP energy -198345.749187 kJ/mol
# GULP energy per Si atom -12396.609324 kJ/mol
# Density = 2.398133 g / cm^3
# Si number density = 24.036040 Si / 1000 Ang^3
#
#
#
# Elastic Constant Matrix: (Units=GPa)
#
#
# Indices 1 2 3 4 5 6 
#
# 1 167.9032 58.9778 26.1794 0.0000 3.3391 0.0000
# 2 58.9778 154.5319 15.8625 0.0000 -8.1608 0.0000
# 3 26.1794 15.8625 31.1150 0.0000 -2.2432 0.0000
# 4 0.0000 0.0000 0.0000 33.0070 0.0000 5.1473
# 5 3.3391 -8.1608 -2.2432 0.0000 32.0958 0.0000
# 6 0.0000 0.0000 0.0000 5.1473 0.0000 38.5379
#
#
#
# Elastic Compliance Matrix: (Units=1/GPa)
#
#
# Indices 1 2 3 4 5 6 
#
# 1 0.007697 -0.002485 -0.005340 0.000000 -0.001806 0.000000
# 2 -0.002485 0.007703 -0.001685 0.000000 0.002099 0.000000
# 3 -0.005340 -0.001685 0.037689 0.000000 0.002761 0.000000
# 4 0.000000 0.000000 0.000000 0.030941 0.000000 -0.004133
# 5 -0.001806 0.002099 0.002761 0.000000 0.032071 0.000000
# 6 0.000000 0.000000 0.000000 -0.004133 0.000000 0.026500
#
#
# Mechanical properties :
#
#
# Convention : Reuss Voigt Hill
#
# Bulk Modulus (GPa) = 29.35055 61.73215 45.54135
# Shear Modulus (GPa) = 28.90527 37.56352 33.23439
#
# Velocity S-wave (km/s) = 3.47159 3.95751 3.72249
# Velocity P-wave (km/s) = 5.32041 6.82799 6.12080
#
# Compressibility (1/GPa) = 0.03407091
#
# Stress axis : x y z
#
# Youngs Moduli (GPa) = 129.91883 129.81333 26.53260
#
# Poissons Ratio (x) = 0.32257 0.14167
# Poissons Ratio (y) = 0.32284 0.04471
# Poissons Ratio (z) = 0.69371 0.21875
#
# Static dielectric constant tensor:
#      x y z
#    x 4.410910 0.000000 0.075820 
#    y 0.000000 4.843490 0.000000 
#    z 0.075820 0.000000 4.172840 
# 
# 
# High freq. dielectric constant tensor:
#      x y z
#    x 1.964950 0.000000 0.016580 
#    y 0.000000 1.961780 0.000000 
#    z 0.016580 0.000000 1.942350 
# 
# From -- ./inp_files/6398.got.cif
#   From: 2010.06.25/outbox.cif.g09.slc.cpg/sg9_4_cif.got.tgz:6398.got - 2010.06.27 21:40:51.
