data_PCOD8055242
_publ_section_title
;
Structure prediction by ZEFSAII (Michael W. Deem and Ramdas Pophale) SiO2 
 PCOD8055242
Probable space group: C C
;
_chemical_formula_sum "Si O2"
_cell_formula_units_Z 32
_cell_length_a 9.226990
_cell_length_b 14.608805
_cell_length_c 11.736501
_cell_angle_alpha 90.000000
_cell_angle_beta 69.679659
_cell_angle_gamma 90.000000
_cell_volume 1483.568930
_symmetry_space_group_name_H-M "C C"
_symmetry_group_IT_number 9
_symmetry_cell_setting 'monoclinic'
loop_
_space_group_symop_operation_xyz
x,y,z
x,-y,1/2+z
1/2+x,1/2+y,z
1/2+x,1/2-y,1/2+z
loop_
_atom_site_type_symbol
_atom_site_label
_atom_site_fract_x
_atom_site_fract_y
_atom_site_fract_z
Si Si1 0.755510 0.401709 0.529020
Si Si2 0.559204 0.953337 0.352815
Si Si3 0.913294 0.948408 0.269681
Si Si4 0.950803 0.671558 0.693583
Si Si5 0.541062 0.636570 0.276689
Si Si6 0.625107 0.403191 0.008367
Si Si7 0.960026 0.653176 0.436828
Si Si8 0.118785 0.170189 0.851966
O O1 0.708429 0.382465 0.672300
O O2 0.693434 0.495414 0.491621
O O3 0.677414 0.326804 0.467289
O O4 0.942362 0.402592 0.473337
O O5 0.733751 0.924431 0.332914
O O6 0.521211 0.916557 0.237488
O O7 0.531443 0.061657 0.363626
O O8 0.990076 0.895532 0.140501
O O9 0.002409 0.914089 0.358458
O O10 0.927725 0.058541 0.256444
O O11 0.981885 0.764268 0.755809
O O12 0.021578 0.667386 0.548824
O O13 0.766735 0.658594 0.730341
O O14 0.550111 0.626962 0.409413
O O15 0.773968 0.338523 0.986384
O O16 0.029790 0.736525 0.345274
#
# Coordination Sequence:
#
# PCOD8055242 Si02
#       8
#     4   4   4   4   4   4   4   4
#     4   9  20  41  66  93 128 176 217 265 332 389
#     4  10  25  41  63 100 132 172 218 280 329 385
#     4  11  23  42  66 102 135 170 224 274 327 397
#     4  11  24  44  66  98 134 175 221 274 334 398
#     4  11  22  42  70  97 132 176 223 270 333 396
#     4  10  22  40  67  97 132 174 216 273 329 388
#     4  11  23  44  68  97 133 179 222 270 337 395
#     4  11  21  42  68  96 132 176 221 268 331 396
#
# _framework density 21.569607999999999
#
# number of rings (size 3 to 8) (size 9 to 14) (size 15 to 20)
#    0.000    1.500    3.750    0.750    1.750    2.000 
#    0.000    2.500    0.000    0.000    0.000    0.000 
#    0.000    0.000    0.000    0.000    0.000    0.000 
#
# Total GULP energy -198338.611435 kJ/mol
# GULP energy per Si atom -12396.163215 kJ/mol
# Density = 2.152051 g / cm^3
# Si number density = 21.569608 Si / 1000 Ang^3
#
#
#
# Elastic Constant Matrix: (Units=GPa)
#
#
# Indices 1 2 3 4 5 6 
#
# 1 136.6079 40.0130 44.9334 0.0000 -29.1539 0.0000
# 2 40.0130 111.1705 17.4149 0.0000 1.0126 0.0000
# 3 44.9334 17.4149 83.3642 0.0000 0.3999 0.0000
# 4 0.0000 0.0000 0.0000 25.2190 0.0000 2.1936
# 5 -29.1539 1.0126 0.3999 0.0000 33.3571 0.0000
# 6 0.0000 0.0000 0.0000 2.1936 0.0000 29.3918
#
#
#
# Elastic Compliance Matrix: (Units=1/GPa)
#
#
# Indices 1 2 3 4 5 6 
#
# 1 0.012931 -0.003782 -0.006235 0.000000 0.011491 0.000000
# 2 -0.003782 0.010408 -0.000118 0.000000 -0.003620 0.000000
# 3 -0.006235 -0.000118 0.015408 0.000000 -0.005630 0.000000
# 4 0.000000 0.000000 0.000000 0.039912 0.000000 -0.002979
# 5 0.011491 -0.003620 -0.005630 0.000000 0.040200 0.000000
# 6 0.000000 0.000000 0.000000 -0.002979 0.000000 0.034245
#
#
# Mechanical properties :
#
#
# Convention : Reuss Voigt Hill
#
# Bulk Modulus (GPa) = 54.12347 59.54059 56.83203
# Shear Modulus (GPa) = 27.84994 32.84567 30.34780
#
# Velocity S-wave (km/s) = 3.59718 3.90651 3.75503
# Velocity P-wave (km/s) = 6.51152 6.92904 6.72352
#
# Compressibility (1/GPa) = 0.01847627
#
# Stress axis : x y z
#
# Youngs Moduli (GPa) = 77.33173 96.07985 64.90162
#
# Poissons Ratio (x) = 0.36340 0.40466
# Poissons Ratio (y) = 0.29249 0.00767
# Poissons Ratio (z) = 0.48216 0.01136
#
# Static dielectric constant tensor:
#      x y z
#    x 3.786160 0.000000 -0.190270 
#    y 0.000000 3.807020 0.000000 
#    z -0.190270 0.000000 3.811560 
# 
# 
# High freq. dielectric constant tensor:
#      x y z
#    x 1.838540 0.000000 -0.010860 
#    y 0.000000 1.844800 0.000000 
#    z -0.010860 0.000000 1.842810 
# 
# From -- ./inp_files/14579.got.cif
#   From: 2010.06.25/outbox.cif.g09.slc.cpg/sg9_8_cif.got.tgz:14579.got - 2010.06.27 21:40:51.
