data_PCOD8055130
_publ_section_title
;
Structure prediction by ZEFSAII (Michael W. Deem and Ramdas Pophale) SiO2 
 PCOD8055130
Probable space group: C C
;
_chemical_formula_sum "Si O2"
_cell_formula_units_Z 28
_cell_length_a 7.171483
_cell_length_b 22.375740
_cell_length_c 8.428464
_cell_angle_alpha 90.000000
_cell_angle_beta 78.741150
_cell_angle_gamma 90.000000
_cell_volume 1326.463814
_symmetry_space_group_name_H-M "C C"
_symmetry_group_IT_number 9
_symmetry_cell_setting 'monoclinic'
loop_
_space_group_symop_operation_xyz
x,y,z
x,-y,1/2+z
1/2+x,1/2+y,z
1/2+x,1/2-y,1/2+z
loop_
_atom_site_type_symbol
_atom_site_label
_atom_site_fract_x
_atom_site_fract_y
_atom_site_fract_z
Si Si1 0.485880 0.602486 0.216210
Si Si2 0.645957 0.307265 0.939302
Si Si3 0.770518 0.237222 0.633695
Si Si4 0.811934 0.640159 0.976138
Si Si5 0.636797 0.916308 0.589950
Si Si6 0.962423 0.637621 0.607805
Si Si7 0.169246 0.466034 0.902355
O O1 0.529596 0.654669 0.330678
O O2 0.324732 0.620023 0.112370
O O3 0.396029 0.547772 0.333617
O O4 0.671011 0.589810 0.076238
O O5 0.736223 0.252726 0.824194
O O6 0.488894 0.284852 0.090052
O O7 0.813550 0.344333 0.995462
O O8 0.735423 0.293095 0.520426
O O9 0.620499 0.188008 0.603181
O O10 0.841323 0.627293 0.786997
O O11 0.003559 0.635280 0.046373
O O12 0.555845 0.952791 0.756671
O O13 0.665302 0.964685 0.445900
O O14 0.073537 0.576500 0.549955
#
# Coordination Sequence:
#
# PCOD8055130 Si02
#       7
#     4   4   4   4   4   4   4
#     4   9  23  44  65  96 130 173 219 275 329 397
#     4  11  24  42  66  94 136 174 222 269 337 392
#     4  11  23  42  63  99 131 178 218 275 329 396
#     4  11  24  44  67  99 132 176 224 269 338 394
#     4  10  22  45  71  94 132 174 217 283 323 398
#     4  12  25  42  67 100 135 177 222 275 333 403
#     4  10  21  45  69  94 136 168 222 276 335 384
#
# _framework density 21.108754999999999
#
# number of rings (size 3 to 8) (size 9 to 14) (size 15 to 20)
#    0.857    0.571    2.857    2.571    2.000    3.429 
#   10.286    0.000    0.000    0.000    0.000    0.000 
#    0.000    0.000    0.000    0.000    0.000    0.000 
#
# Total GULP energy -173442.388004 kJ/mol
# GULP energy per Si atom -12388.742000 kJ/mol
# Density = 2.106071 g / cm^3
# Si number density = 21.108755 Si / 1000 Ang^3
#
#
#
# Elastic Constant Matrix: (Units=GPa)
#
#
# Indices 1 2 3 4 5 6 
#
# 1 108.9795 28.5791 41.0780 0.0000 -4.8489 0.0000
# 2 28.5791 49.6532 18.6013 0.0000 -2.1366 0.0000
# 3 41.0780 18.6013 100.6999 0.0000 -10.6888 0.0000
# 4 0.0000 0.0000 0.0000 25.7352 0.0000 5.5663
# 5 -4.8489 -2.1366 -10.6888 0.0000 48.6926 0.0000
# 6 0.0000 0.0000 0.0000 5.5663 0.0000 14.5606
#
#
#
# Elastic Compliance Matrix: (Units=1/GPa)
#
#
# Indices 1 2 3 4 5 6 
#
# 1 0.012094 -0.005493 -0.003908 0.000000 0.000106 0.000000
# 2 -0.005493 0.024132 -0.002214 0.000000 0.000026 0.000000
# 3 -0.003908 -0.002214 0.012165 0.000000 0.002184 0.000000
# 4 0.000000 0.000000 0.000000 0.042360 0.000000 -0.016193
# 5 0.000106 0.000026 0.002184 0.000000 0.021028 0.000000
# 6 0.000000 0.000000 0.000000 -0.016193 0.000000 0.074869
#
#
# Mechanical properties :
#
#
# Convention : Reuss Voigt Hill
#
# Bulk Modulus (GPa) = 39.74238 48.42772 44.08505
# Shear Modulus (GPa) = 22.90797 29.20261 26.05529
#
# Velocity S-wave (km/s) = 3.29787 3.72349 3.51712
# Velocity P-wave (km/s) = 5.77664 6.44032 6.11748
#
# Compressibility (1/GPa) = 0.02516206
#
# Stress axis : x y z
#
# Youngs Moduli (GPa) = 82.68525 41.43918 82.20024
#
# Poissons Ratio (x) = 0.22761 0.32121
# Poissons Ratio (y) = 0.45415 0.18202
# Poissons Ratio (z) = 0.32311 0.09176
#
# Static dielectric constant tensor:
#      x y z
#    x 3.885290 0.000000 -0.301980 
#    y 0.000000 3.483800 0.000000 
#    z -0.301980 0.000000 4.025790 
# 
# 
# High freq. dielectric constant tensor:
#      x y z
#    x 1.825620 0.000000 -0.012130 
#    y 0.000000 1.805390 0.000000 
#    z -0.012130 0.000000 1.840140 
# 
# From -- ./inp_files/4089.got.cif
#   From: 2010.06.25/outbox.cif.g09.slc.cpg/sg9_3_cif.got.tgz:4089.got - 2010.06.27 21:40:51.
