data_PCOD8055276
_publ_section_title
;
Structure prediction by ZEFSAII (Michael W. Deem and Ramdas Pophale) SiO2 
 PCOD8055276
Probable space group: C C
;
_chemical_formula_sum "Si O2"
_cell_formula_units_Z 32
_cell_length_a 9.919691
_cell_length_b 28.395362
_cell_length_c 7.665863
_cell_angle_alpha 90.000000
_cell_angle_beta 136.130897
_cell_angle_gamma 90.000000
_cell_volume 1496.401357
_symmetry_space_group_name_H-M "C C"
_symmetry_group_IT_number 9
_symmetry_cell_setting 'monoclinic'
loop_
_space_group_symop_operation_xyz
x,y,z
x,-y,1/2+z
1/2+x,1/2+y,z
1/2+x,1/2-y,1/2+z
loop_
_atom_site_type_symbol
_atom_site_label
_atom_site_fract_x
_atom_site_fract_y
_atom_site_fract_z
Si Si1 0.150200 0.208241 0.475690
Si Si2 0.214359 0.684281 0.095091
Si Si3 0.969558 0.915800 0.436088
Si Si4 0.697963 0.557684 0.830812
Si Si5 0.740361 0.541658 0.483370
Si Si6 0.064836 0.609540 0.682500
Si Si7 0.742431 0.333521 0.708902
Si Si8 0.883313 0.342027 0.489100
O O1 0.133595 0.263068 0.495544
O O2 0.220193 0.204905 0.339638
O O3 0.300486 0.178818 0.731009
O O4 0.945571 0.183451 0.325259
O O5 0.152433 0.650860 0.880457
O O6 0.116632 0.664753 0.183841
O O7 0.008976 0.935388 0.277849
O O8 0.040245 0.861726 0.512474
O O9 0.739417 0.918609 0.252903
O O10 0.084669 0.944955 0.690652
O O11 0.634769 0.548237 0.572203
O O12 0.835513 0.603266 0.973430
O O13 0.809300 0.511978 0.012515
O O14 0.935101 0.573149 0.672679
O O15 0.923722 0.631293 0.405947
O O16 0.794309 0.311333 0.567297
#
# Coordination Sequence:
#
# PCOD8055276 Si02
#       8
#     4   4   4   4   4   4   4   4
#     4  12  23  46  67  96 136 177 219 276 331 400
#     4  12  23  43  71  97 136 176 221 274 338 400
#     4  10  22  41  64  94 126 172 220 270 331 395
#     4  11  22  42  68  92 133 177 219 277 332 388
#     4  11  22  44  65  91 137 173 219 280 332 392
#     4  11  22  44  68  99 132 175 221 275 340 396
#     4  10  22  42  67  92 134 170 219 272 325 393
#     4  11  24  44  66 101 132 176 222 272 335 396
#
# _framework density 21.384634999999999
#
# number of rings (size 3 to 8) (size 9 to 14) (size 15 to 20)
#    0.000    1.000    6.250    0.750    0.000    2.000 
#    6.750    1.250    0.000    0.000    0.000    0.000 
#    0.000    0.000    0.000    0.000    0.000    0.000 
#
# Total GULP energy -198342.042844 kJ/mol
# GULP energy per Si atom -12396.377678 kJ/mol
# Density = 2.133596 g / cm^3
# Si number density = 21.384635 Si / 1000 Ang^3
#
#
#
# Elastic Constant Matrix: (Units=GPa)
#
#
# Indices 1 2 3 4 5 6 
#
# 1 170.9540 33.0310 47.8341 0.0000 -7.2894 0.0000
# 2 33.0310 95.0589 13.6183 0.0000 2.5371 0.0000
# 3 47.8341 13.6183 49.0166 0.0000 9.0152 0.0000
# 4 0.0000 0.0000 0.0000 15.9585 0.0000 -2.4150
# 5 -7.2894 2.5371 9.0152 0.0000 42.6413 0.0000
# 6 0.0000 0.0000 0.0000 -2.4150 0.0000 31.2884
#
#
#
# Elastic Compliance Matrix: (Units=1/GPa)
#
#
# Indices 1 2 3 4 5 6 
#
# 1 0.008796 -0.001904 -0.008691 0.000000 0.003454 0.000000
# 2 -0.001904 0.011368 -0.001161 0.000000 -0.000756 0.000000
# 3 -0.008691 -0.001161 0.030657 0.000000 -0.007898 0.000000
# 4 0.000000 0.000000 0.000000 0.063403 0.000000 0.004894
# 5 0.003454 -0.000756 -0.007898 0.000000 0.025757 0.000000
# 6 0.000000 0.000000 0.000000 0.004894 0.000000 0.032338
#
#
# Mechanical properties :
#
#
# Convention : Reuss Voigt Hill
#
# Bulk Modulus (GPa) = 36.61630 55.99957 46.30794
# Shear Modulus (GPa) = 24.39801 32.68072 28.53936
#
# Velocity S-wave (km/s) = 3.38140 3.91350 3.65714
# Velocity P-wave (km/s) = 5.69255 6.83113 6.28766
#
# Compressibility (1/GPa) = 0.02731024
#
# Stress axis : x y z
#
# Youngs Moduli (GPa) = 113.68405 87.96721 32.61852
#
# Poissons Ratio (x) = 0.16746 0.28347
# Poissons Ratio (y) = 0.21642 0.03789
# Poissons Ratio (z) = 0.98797 0.10217
#
# Static dielectric constant tensor:
#      x y z
#    x 4.269450 0.000000 -0.034550 
#    y 0.000000 3.861760 0.000000 
#    z -0.034550 0.000000 3.675760 
# 
# 
# High freq. dielectric constant tensor:
#      x y z
#    x 1.862590 0.000000 -0.006740 
#    y 0.000000 1.834540 0.000000 
#    z -0.006740 0.000000 1.813940 
# 
# From -- ./inp_files/6399.got.cif
#   From: 2010.06.25/outbox.cif.g09.slc.cpg/sg9_4_cif.got.tgz:6399.got - 2010.06.27 21:40:51.
