data_PCOD8055281
_publ_section_title
;
Structure prediction by ZEFSAII (Michael W. Deem and Ramdas Pophale) SiO2 
 PCOD8055281
Probable space group: C C
;
_chemical_formula_sum "Si O2"
_cell_formula_units_Z 28
_cell_length_a 15.166491
_cell_length_b 8.502061
_cell_length_c 14.684275
_cell_angle_alpha 90.000000
_cell_angle_beta 134.183210
_cell_angle_gamma 90.000000
_cell_volume 1357.846160
_symmetry_space_group_name_H-M "C C"
_symmetry_group_IT_number 9
_symmetry_cell_setting 'monoclinic'
loop_
_space_group_symop_operation_xyz
x,y,z
x,-y,1/2+z
1/2+x,1/2+y,z
1/2+x,1/2-y,1/2+z
loop_
_atom_site_type_symbol
_atom_site_label
_atom_site_fract_x
_atom_site_fract_y
_atom_site_fract_z
Si Si1 0.348830 0.617849 0.036150
Si Si2 0.113272 0.580064 0.322346
Si Si3 0.384831 0.021651 0.567887
Si Si4 0.306304 0.481543 0.191852
Si Si5 0.575399 0.850085 0.600156
Si Si6 0.195310 0.807998 0.527702
Si Si7 0.001676 0.988228 0.989601
O O1 0.373781 0.575471 0.159307
O O2 0.341366 0.803351 0.015943
O O3 0.221105 0.545677 0.910678
O O4 0.461117 0.545477 0.059910
O O5 0.133553 0.678563 0.242850
O O6 0.107349 0.698741 0.402676
O O7 0.984660 0.484137 0.222573
O O8 0.448332 0.949208 0.522220
O O9 0.267124 0.920519 0.510420
O O10 0.170190 0.551740 0.107512
O O11 0.291317 0.298781 0.153346
O O12 0.387395 0.495962 0.339647
O O13 0.547182 0.690158 0.527241
O O14 0.115292 0.906316 0.540403
#
# Coordination Sequence:
#
# PCOD8055281 Si02
#       7
#     4   4   4   4   4   4   4
#     4  11  23  43  67  96 134 169 223 263 327 387
#     4   9  22  43  66  90 136 168 212 275 313 385
#     4  10  22  41  65  96 129 172 216 266 326 383
#     4  11  24  43  66  96 133 170 218 274 319 390
#     4  10  22  43  65  96 131 169 222 261 330 380
#     4  11  23  41  66 100 131 174 217 259 334 382
#     4  12  24  42  67  98 130 176 214 272 325 385
#
# _framework density 20.620892999999999
#
# number of rings (size 3 to 8) (size 9 to 14) (size 15 to 20)
#    0.857    0.571    1.429    4.286    2.000    3.429 
#    2.571    2.857    0.000    0.000    0.000    0.000 
#    0.000    0.000    0.000    0.000    0.000    0.000 
#
# Total GULP energy -173598.071706 kJ/mol
# GULP energy per Si atom -12399.862265 kJ/mol
# Density = 2.057396 g / cm^3
# Si number density = 20.620893 Si / 1000 Ang^3
#
#
#
# Elastic Constant Matrix: (Units=GPa)
#
#
# Indices 1 2 3 4 5 6 
#
# 1 133.0328 40.4125 10.4622 0.0000 -4.0696 0.0000
# 2 40.4125 130.2549 14.5247 0.0000 3.4546 0.0000
# 3 10.4622 14.5247 49.7720 0.0000 -1.5522 0.0000
# 4 0.0000 0.0000 0.0000 25.6141 0.0000 0.3317
# 5 -4.0696 3.4546 -1.5522 0.0000 27.6203 0.0000
# 6 0.0000 0.0000 0.0000 0.3317 0.0000 42.5023
#
#
#
# Elastic Compliance Matrix: (Units=1/GPa)
#
#
# Indices 1 2 3 4 5 6 
#
# 1 0.008412 -0.002540 -0.000980 0.000000 0.001502 0.000000
# 2 -0.002540 0.008738 -0.002065 0.000000 -0.001583 0.000000
# 3 -0.000980 -0.002065 0.020941 0.000000 0.001291 0.000000
# 4 0.000000 0.000000 0.000000 0.039045 0.000000 -0.000305
# 5 0.001502 -0.001583 0.001291 0.000000 0.036697 0.000000
# 6 0.000000 0.000000 0.000000 -0.000305 0.000000 0.023530
#
#
# Mechanical properties :
#
#
# Convention : Reuss Voigt Hill
#
# Bulk Modulus (GPa) = 37.14883 49.31762 43.23322
# Shear Modulus (GPa) = 31.74474 35.65805 33.70140
#
# Velocity S-wave (km/s) = 3.92783 4.16290 4.04707
# Velocity P-wave (km/s) = 6.21488 6.86109 6.54597
#
# Compressibility (1/GPa) = 0.02691875
#
# Stress axis : x y z
#
# Youngs Moduli (GPa) = 118.88262 114.44662 47.75424
#
# Poissons Ratio (x) = 0.29073 0.04680
# Poissons Ratio (y) = 0.30200 0.09863
# Poissons Ratio (z) = 0.11650 0.23636
#
# Static dielectric constant tensor:
#      x y z
#    x 3.845760 0.000000 -0.038660 
#    y 0.000000 3.710200 0.000000 
#    z -0.038660 0.000000 3.505340 
# 
# 
# High freq. dielectric constant tensor:
#      x y z
#    x 1.818890 0.000000 0.000220 
#    y 0.000000 1.808640 0.000000 
#    z 0.000220 0.000000 1.791920 
# 
# From -- ./inp_files/20086.got.cif
#   From: 2010.06.25/outbox.cif.g09.slc.cpg/sg9_11_cif.got.tgz:20086.got - 2010.06.27 21:40:51.
