data_PCOD8055161
_publ_section_title
;
Structure prediction by ZEFSAII (Michael W. Deem and Ramdas Pophale) SiO2 
 PCOD8055161
Probable space group: C C
;
_chemical_formula_sum "Si O2"
_cell_formula_units_Z 32
_cell_length_a 9.325514
_cell_length_b 11.029315
_cell_length_c 19.118583
_cell_angle_alpha 90.000000
_cell_angle_beta 46.882983
_cell_angle_gamma 90.000000
_cell_volume 1435.409023
_symmetry_space_group_name_H-M "C C"
_symmetry_group_IT_number 9
_symmetry_cell_setting 'monoclinic'
loop_
_space_group_symop_operation_xyz
x,y,z
x,-y,1/2+z
1/2+x,1/2+y,z
1/2+x,1/2-y,1/2+z
loop_
_atom_site_type_symbol
_atom_site_label
_atom_site_fract_x
_atom_site_fract_y
_atom_site_fract_z
Si Si1 0.363740 0.274382 0.590220
Si Si2 0.165967 0.339360 0.900704
Si Si3 0.269516 0.128124 0.221882
Si Si4 0.670279 0.034951 0.073845
Si Si5 0.975793 0.125969 0.191085
Si Si6 0.479063 0.355869 0.209729
Si Si7 0.939889 0.826667 0.931917
Si Si8 0.163449 0.384841 0.427924
O O1 0.480248 0.244547 0.479593
O O2 0.253041 0.401327 0.615525
O O3 0.506085 0.293101 0.610776
O O4 0.204060 0.169524 0.655668
O O5 0.262332 0.330055 0.792057
O O6 0.330484 0.287397 0.898413
O O7 0.094744 0.476914 0.938471
O O8 0.432593 0.019491 0.162370
O O9 0.386411 0.254875 0.190269
O O10 0.148395 0.140288 0.190231
O O11 0.135247 0.104774 0.335978
O O12 0.701431 0.126511 0.997799
O O13 0.791137 0.910947 0.025348
O O14 0.963119 0.984137 0.175308
O O15 0.366935 0.361648 0.320915
O O16 0.996029 0.709605 0.959236
#
# Coordination Sequence:
#
# PCOD8055161 Si02
#       8
#     4   4   4   4   4   4   4   4
#     4  11  24  38  62  96 124 158 214 253 310 374
#     4   9  21  39  59  95 121 158 212 253 302 379
#     4   9  20  41  64  90 124 166 208 254 313 369
#     4  10  22  37  61  95 122 156 212 252 306 377
#     4  10  22  42  65  86 131 167 202 260 313 360
#     4   9  21  41  64  89 122 164 210 256 309 370
#     4   9  19  39  65  87 121 164 207 252 312 370
#     4   9  19  39  64  84 123 167 199 258 313 359
#
# _framework density 22.293296000000002
#
# number of rings (size 3 to 8) (size 9 to 14) (size 15 to 20)
#    0.000    2.500    0.000    0.750    7.000    2.000 
#    2.250    0.000   16.500    0.000    0.000    0.000 
#    0.000    0.000    0.000    0.000    0.000    0.000 
#
# Total GULP energy -198222.195270 kJ/mol
# GULP energy per Si atom -12388.887204 kJ/mol
# Density = 2.224256 g / cm^3
# Si number density = 22.293296 Si / 1000 Ang^3
#
#
#
# Elastic Constant Matrix: (Units=GPa)
#
#
# Indices 1 2 3 4 5 6 
#
# 1 81.5315 37.9480 11.9336 0.0000 -8.5978 0.0000
# 2 37.9480 75.0109 29.6258 0.0000 -7.2903 0.0000
# 3 11.9336 29.6258 65.9642 0.0000 -14.9178 0.0000
# 4 0.0000 0.0000 0.0000 33.8591 0.0000 -4.0379
# 5 -8.5978 -7.2903 -14.9178 0.0000 33.9378 0.0000
# 6 0.0000 0.0000 0.0000 -4.0379 0.0000 34.9734
#
#
#
# Elastic Compliance Matrix: (Units=1/GPa)
#
#
# Indices 1 2 3 4 5 6 
#
# 1 0.016356 -0.008609 0.001584 0.000000 0.002990 0.000000
# 2 -0.008609 0.020741 -0.008043 0.000000 -0.001261 0.000000
# 3 0.001584 -0.008043 0.020193 0.000000 0.007550 0.000000
# 4 0.000000 0.000000 0.000000 0.029946 0.000000 0.003458
# 5 0.002990 -0.001261 0.007550 0.000000 0.033271 0.000000
# 6 0.000000 0.000000 0.000000 0.003458 0.000000 0.028992
#
#
# Mechanical properties :
#
#
# Convention : Reuss Voigt Hill
#
# Bulk Modulus (GPa) = 36.82829 42.39128 39.60979
# Shear Modulus (GPa) = 26.49898 30.08734 28.29316
#
# Velocity S-wave (km/s) = 3.45142 3.67769 3.56635
# Velocity P-wave (km/s) = 5.69551 6.09019 5.89616
#
# Compressibility (1/GPa) = 0.02715304
#
# Stress axis : x y z
#
# Youngs Moduli (GPa) = 61.14020 48.21404 49.52286
#
# Poissons Ratio (x) = 0.41509 -0.07844
# Poissons Ratio (y) = 0.52638 0.39830
# Poissons Ratio (z) = -0.09685 0.38777
#
# Static dielectric constant tensor:
#      x y z
#    x 3.789750 0.000000 -0.168190 
#    y 0.000000 3.866490 0.000000 
#    z -0.168190 0.000000 4.340470 
# 
# 
# High freq. dielectric constant tensor:
#      x y z
#    x 1.863910 0.000000 -0.012720 
#    y 0.000000 1.860850 0.000000 
#    z -0.012720 0.000000 1.891240 
# 
# From -- ./inp_files/22702.got.cif
#   From: 2010.06.25/outbox.cif.g09.slc.cpg/sg9_12_cif.got.tgz:22702.got - 2010.06.27 21:40:51.
