data_PCOD8055126
_publ_section_title
;
Structure prediction by ZEFSAII (Michael W. Deem and Ramdas Pophale) SiO2 
 PCOD8055126
Probable space group: C C
;
_chemical_formula_sum "Si O2"
_cell_formula_units_Z 32
_cell_length_a 8.758272
_cell_length_b 11.361857
_cell_length_c 14.735165
_cell_angle_alpha 90.000000
_cell_angle_beta 86.371819
_cell_angle_gamma 90.000000
_cell_volume 1463.360848
_symmetry_space_group_name_H-M "C C"
_symmetry_group_IT_number 9
_symmetry_cell_setting 'monoclinic'
loop_
_space_group_symop_operation_xyz
x,y,z
x,-y,1/2+z
1/2+x,1/2+y,z
1/2+x,1/2-y,1/2+z
loop_
_atom_site_type_symbol
_atom_site_label
_atom_site_fract_x
_atom_site_fract_y
_atom_site_fract_z
Si Si1 0.717010 0.732782 0.909130
Si Si2 0.786873 0.376241 0.116381
Si Si3 0.264818 0.868612 0.699497
Si Si4 0.098660 0.001094 0.489729
Si Si5 0.386231 0.511504 0.665421
Si Si6 0.643067 0.159960 0.589067
Si Si7 0.050092 0.239535 0.733192
Si Si8 0.481151 0.632642 0.326741
O O1 0.706678 0.606370 0.956680
O O2 0.588632 0.739450 0.837151
O O3 0.889072 0.751431 0.863535
O O4 0.680025 0.838631 0.980580
O O5 0.745238 0.494964 0.174222
O O6 0.704639 0.263719 0.166393
O O7 0.963315 0.346276 0.110687
O O8 0.715752 0.395697 0.018502
O O9 0.214537 0.782618 0.620791
O O10 0.443076 0.851935 0.717660
O O11 0.153396 0.838026 0.788397
O O12 0.987478 0.964301 0.577304
O O13 0.994042 0.043197 0.410458
O O14 0.218152 0.545955 0.634408
O O15 0.454617 0.626124 0.709318
O O16 0.379480 0.416534 0.746456
#
# Coordination Sequence:
#
# PCOD8055126 Si02
#       8
#     4   4   4   4   4   4   4   4
#     4  12  23  41  65 100 134 168 228 277 333 402
#     4  11  23  45  68  93 137 175 219 282 333 398
#     4  11  23  44  68  93 132 178 221 273 341 401
#     4  11  22  43  67  94 136 176 219 275 341 390
#     4  10  21  45  66  94 139 178 219 276 340 393
#     4  11  24  42  68 102 130 177 232 272 338 412
#     4  10  23  41  67  96 129 174 221 272 332 406
#     4  12  23  41  69  96 133 184 217 285 338 398
#
# _framework density 21.867471999999999
#
# number of rings (size 3 to 8) (size 9 to 14) (size 15 to 20)
#    0.000    1.000    6.250    0.750    3.500    0.000 
#    0.000    3.750    0.000    0.000    0.000    0.000 
#    0.000    0.000    0.000    0.000    0.000    0.000 
#
# Total GULP energy -198336.209318 kJ/mol
# GULP energy per Si atom -12396.013082 kJ/mol
# Density = 2.181770 g / cm^3
# Si number density = 21.867472 Si / 1000 Ang^3
#
#
#
# Elastic Constant Matrix: (Units=GPa)
#
#
# Indices 1 2 3 4 5 6 
#
# 1 142.4479 26.2358 54.8845 0.0000 -3.2936 0.0000
# 2 26.2358 50.4344 34.9163 0.0000 -0.6682 0.0000
# 3 54.8845 34.9163 147.3703 0.0000 7.8479 0.0000
# 4 0.0000 0.0000 0.0000 21.7565 0.0000 -7.0579
# 5 -3.2936 -0.6682 7.8479 0.0000 31.9259 0.0000
# 6 0.0000 0.0000 0.0000 -7.0579 0.0000 39.6019
#
#
#
# Elastic Compliance Matrix: (Units=1/GPa)
#
#
# Indices 1 2 3 4 5 6 
#
# 1 0.008553 -0.002596 -0.002649 0.000000 0.001479 0.000000
# 2 -0.002596 0.024621 -0.004945 0.000000 0.001463 0.000000
# 3 -0.002649 -0.004945 0.009083 0.000000 -0.002609 0.000000
# 4 0.000000 0.000000 0.000000 0.048784 0.000000 0.008694
# 5 0.001479 0.001463 -0.002609 0.000000 0.032147 0.000000
# 6 0.000000 0.000000 0.000000 0.008694 0.000000 0.026801
#
#
# Mechanical properties :
#
#
# Convention : Reuss Voigt Hill
#
# Bulk Modulus (GPa) = 45.70879 63.59172 54.65026
# Shear Modulus (GPa) = 28.14374 33.60459 30.87417
#
# Velocity S-wave (km/s) = 3.59139 3.92438 3.76157
# Velocity P-wave (km/s) = 6.17620 7.04826 6.62659
#
# Compressibility (1/GPa) = 0.02187763
#
# Stress axis : x y z
#
# Youngs Moduli (GPa) = 116.91685 40.61652 110.09918
#
# Poissons Ratio (x) = 0.10543 0.29167
# Poissons Ratio (y) = 0.30347 0.54439
# Poissons Ratio (z) = 0.30973 0.20083
#
# Static dielectric constant tensor:
#      x y z
#    x 4.123210 0.000000 0.178760 
#    y 0.000000 3.761290 0.000000 
#    z 0.178760 0.000000 4.240900 
# 
# 
# High freq. dielectric constant tensor:
#      x y z
#    x 1.865210 0.000000 0.009050 
#    y 0.000000 1.837570 0.000000 
#    z 0.009050 0.000000 1.871750 
# 
# From -- ./inp_files/22752.got.cif
#   From: 2010.06.25/outbox.cif.g09.slc.cpg/sg9_12_cif.got.tgz:22752.got - 2010.06.27 21:40:51.
