data_PCOD8055149
_publ_section_title
;
Structure prediction by ZEFSAII (Michael W. Deem and Ramdas Pophale) SiO2 
 PCOD8055149
Probable space group: C C
;
_chemical_formula_sum "Si O2"
_cell_formula_units_Z 32
_cell_length_a 26.916232
_cell_length_b 7.633300
_cell_length_c 8.982683
_cell_angle_alpha 90.000000
_cell_angle_beta 131.759824
_cell_angle_gamma 90.000000
_cell_volume 1376.697177
_symmetry_space_group_name_H-M "C C"
_symmetry_group_IT_number 9
_symmetry_cell_setting 'monoclinic'
loop_
_space_group_symop_operation_xyz
x,y,z
x,-y,1/2+z
1/2+x,1/2+y,z
1/2+x,1/2-y,1/2+z
loop_
_atom_site_type_symbol
_atom_site_label
_atom_site_fract_x
_atom_site_fract_y
_atom_site_fract_z
Si Si1 0.800200 0.274610 0.943550
Si Si2 0.617073 0.598811 0.050370
Si Si3 0.932837 0.096698 0.185490
Si Si4 0.188974 0.588393 0.832302
Si Si5 0.195198 0.266034 0.669560
Si Si6 0.524268 0.498825 0.121625
Si Si7 0.330237 0.965815 0.737492
Si Si8 0.354453 0.762910 0.515034
O O1 0.767457 0.094870 0.937764
O O2 0.779676 0.349772 0.739762
O O3 0.879837 0.252140 0.085445
O O4 0.783027 0.419816 0.034679
O O5 0.664627 0.764122 0.165628
O O6 0.658375 0.418603 0.114206
O O7 0.570879 0.606777 0.104193
O O8 0.570266 0.629858 0.813098
O O9 0.969820 0.105864 0.417375
O O10 0.986062 0.129433 0.159827
O O11 0.894997 0.914223 0.073758
O O12 0.165933 0.392832 0.742813
O O13 0.175206 0.638707 0.974356
O O14 0.274494 0.251847 0.838155
O O15 0.373300 0.836827 0.717194
O O16 0.375761 0.094540 0.931073
#
# Coordination Sequence:
#
# PCOD8055149 Si02
#       8
#     4   4   4   4   4   4   4   4
#     4  11  22  40  64 105 139 173 222 283 363 420
#     4  11  24  50  72  96 140 189 244 280 346 411
#     4  11  22  42  74  94 136 177 236 280 342 427
#     4  12  27  42  72 108 140 182 228 300 356 417
#     4  12  27  42  72 108 140 182 228 300 356 417
#     4  10  24  43  74  90 128 199 236 274 330 418
#     4  10  22  35  60  90 148 177 206 270 346 430
#     4  11  22  40  64 105 139 173 222 283 363 420
#
# _framework density 23.244035
#
# number of rings (size 3 to 8) (size 9 to 14) (size 15 to 20)
#    0.000    1.000    3.750    3.000    3.500    0.000 
#    0.000    0.000   55.000    0.000    0.000    0.000 
#    0.000    0.000    0.000    0.000    0.000    0.000 
#
# Total GULP energy -198232.421538 kJ/mol
# GULP energy per Si atom -12389.526346 kJ/mol
# Density = 2.319113 g / cm^3
# Si number density = 23.244035 Si / 1000 Ang^3
#
#
#
# Elastic Constant Matrix: (Units=GPa)
#
#
# Indices 1 2 3 4 5 6 
#
# 1 83.9064 19.7992 38.9705 0.0000 -14.8802 0.0000
# 2 19.7992 86.7780 27.5825 0.0000 0.6304 0.0000
# 3 38.9705 27.5825 118.8806 0.0000 -17.2579 0.0000
# 4 0.0000 0.0000 0.0000 20.7157 0.0000 -7.6165
# 5 -14.8802 0.6304 -17.2579 0.0000 43.1407 0.0000
# 6 0.0000 0.0000 0.0000 -7.6165 0.0000 21.6610
#
#
#
# Elastic Compliance Matrix: (Units=1/GPa)
#
#
# Indices 1 2 3 4 5 6 
#
# 1 0.014861 -0.002198 -0.003836 0.000000 0.003624 0.000000
# 2 -0.002198 0.012849 -0.002546 0.000000 -0.001964 0.000000
# 3 -0.003836 -0.002546 0.010694 0.000000 0.002992 0.000000
# 4 0.000000 0.000000 0.000000 0.055440 0.000000 0.019494
# 5 0.003624 -0.001964 0.002992 0.000000 0.025656 0.000000
# 6 0.000000 0.000000 0.000000 0.019494 0.000000 0.053020
#
#
# Mechanical properties :
#
#
# Convention : Reuss Voigt Hill
#
# Bulk Modulus (GPa) = 47.06948 51.36326 49.21637
# Shear Modulus (GPa) = 25.41175 30.65100 28.03138
#
# Velocity S-wave (km/s) = 3.31003 3.63528 3.47646
# Velocity P-wave (km/s) = 5.90784 6.30600 6.11016
#
# Compressibility (1/GPa) = 0.02124519
#
# Stress axis : x y z
#
# Youngs Moduli (GPa) = 67.29159 77.82981 93.50853
#
# Poissons Ratio (x) = 0.17105 0.35866
# Poissons Ratio (y) = 0.14789 0.23805
# Poissons Ratio (z) = 0.25810 0.19814
#
# Static dielectric constant tensor:
#      x y z
#    x 4.328760 0.000000 -0.243420 
#    y 0.000000 4.041440 0.000000 
#    z -0.243420 0.000000 4.475650 
# 
# 
# High freq. dielectric constant tensor:
#      x y z
#    x 1.918690 0.000000 -0.028160 
#    y 0.000000 1.902660 0.000000 
#    z -0.028160 0.000000 1.922180 
# 
# From -- ./inp_files/11227.got.cif
#   From: 2010.06.25/outbox.cif.g09.slc.cpg/sg9_6_cif.got.tgz:11227.got - 2010.06.27 21:40:51.
