data_PCOD8055773
_publ_section_title
;
Structure prediction by ZEFSAII (Michael W. Deem and Ramdas Pophale) SiO2 
 PCOD8055773
Probable space group: C C
;
_chemical_formula_sum "Si O2"
_cell_formula_units_Z 24
_cell_length_a 19.857117
_cell_length_b 6.970579
_cell_length_c 9.215568
_cell_angle_alpha 90.000000
_cell_angle_beta 40.996112
_cell_angle_gamma 90.000000
_cell_volume 836.789398
_symmetry_space_group_name_H-M "C C"
_symmetry_group_IT_number 9
_symmetry_cell_setting 'monoclinic'
loop_
_space_group_symop_operation_xyz
x,y,z
x,-y,1/2+z
1/2+x,1/2+y,z
1/2+x,1/2-y,1/2+z
loop_
_atom_site_type_symbol
_atom_site_label
_atom_site_fract_x
_atom_site_fract_y
_atom_site_fract_z
Si Si1 0.573850 0.420153 0.835760
Si Si2 0.870584 0.153244 0.532827
Si Si3 0.364414 0.056379 0.798660
Si Si4 0.076247 0.670903 0.392610
Si Si5 0.794530 0.749076 0.630032
Si Si6 0.668298 0.297504 0.973047
O O1 0.531017 0.611735 0.986345
O O2 0.632126 0.294982 0.863618
O O3 0.652855 0.492241 0.579202
O O4 0.482107 0.292663 0.917396
O O5 0.848098 0.251168 0.416498
O O6 0.786790 0.228448 0.784132
O O7 0.874094 0.923113 0.507586
O O8 0.488111 0.021412 0.582665
O O9 0.315639 0.091658 0.719524
O O10 0.309196 0.872073 0.959060
O O11 0.180610 0.656020 0.318657
O O12 0.104565 0.643232 0.174480
#
# Coordination Sequence:
#
# PCOD8055773 Si02
#       6
#     4   4   4   4   4   4
#     4  10  23  49  84 123 174 221 282 357 424 505
#     4  12  28  50  92 117 169 228 281 354 431 516
#     4  12  30  53  81 125 167 226 281 360 424 506
#     4  10  26  48  81 116 170 222 274 354 424 496
#     4  12  30  53  84 123 171 219 294 345 426 517
#     4  10  25  47  86 122 173 224 282 356 431 504
#
# _framework density 28.681052000000001
#
# number of rings (size 3 to 8) (size 9 to 14) (size 15 to 20)
#    1.000    0.000    1.667    2.000    7.000    5.333 
#    3.000    0.000    0.000    0.000    0.000    0.000 
#    0.000    0.000    0.000    0.000    0.000    0.000 
#
# Total GULP energy -148728.960538 kJ/mol
# GULP energy per Si atom -12394.080045 kJ/mol
# Density = 2.861577 g / cm^3
# Si number density = 28.681052 Si / 1000 Ang^3
#
#
#
# Elastic Constant Matrix: (Units=GPa)
#
#
# Indices 1 2 3 4 5 6 
#
# 1 184.1811 27.1545 56.5294 0.0000 0.9650 0.0000
# 2 27.1545 82.7951 30.7323 0.0000 7.0908 0.0000
# 3 56.5294 30.7323 145.7801 0.0000 -16.4177 0.0000
# 4 0.0000 0.0000 0.0000 32.3170 0.0000 -0.5495
# 5 0.9650 7.0908 -16.4177 0.0000 59.0270 0.0000
# 6 0.0000 0.0000 0.0000 -0.5495 0.0000 40.7014
#
#
#
# Elastic Compliance Matrix: (Units=1/GPa)
#
#
# Indices 1 2 3 4 5 6 
#
# 1 0.006300 -0.001176 -0.002262 0.000000 -0.000591 0.000000
# 2 -0.001176 0.013666 -0.002692 0.000000 -0.002371 0.000000
# 3 -0.002262 -0.002692 0.008615 0.000000 0.002756 0.000000
# 4 0.000000 0.000000 0.000000 0.030951 0.000000 0.000418
# 5 -0.000591 -0.002371 0.002756 0.000000 0.018003 0.000000
# 6 0.000000 0.000000 0.000000 0.000418 0.000000 0.024575
#
#
# Mechanical properties :
#
#
# Convention : Reuss Voigt Hill
#
# Bulk Modulus (GPa) = 61.26969 71.28764 66.27866
# Shear Modulus (GPa) = 41.73333 46.29843 44.01588
#
# Velocity S-wave (km/s) = 3.81869 4.02213 3.92173
# Velocity P-wave (km/s) = 6.39156 6.81758 6.60800
#
# Compressibility (1/GPa) = 0.01632128
#
# Stress axis : x y z
#
# Youngs Moduli (GPa) = 158.72842 73.17412 116.08293
#
# Poissons Ratio (x) = 0.08607 0.26253
# Poissons Ratio (y) = 0.18670 0.31249
# Poissons Ratio (z) = 0.35897 0.19698
#
# Static dielectric constant tensor:
#      x y z
#    x 5.109520 0.000000 -0.055520 
#    y 0.000000 4.776380 0.000000 
#    z -0.055520 0.000000 5.351610 
# 
# 
# High freq. dielectric constant tensor:
#      x y z
#    x 2.180570 0.000000 -0.000720 
#    y 0.000000 2.140300 0.000000 
#    z -0.000720 0.000000 2.170440 
# 
# From -- ./inp_files/11288.got.cif
#   From: 2010.06.25/outbox.cif.g09.slc.cpg/sg9_6_cif.got.tgz:11288.got - 2010.06.27 21:40:51.
