data_PCOD8055186
_publ_section_title
;
Structure prediction by ZEFSAII (Michael W. Deem and Ramdas Pophale) SiO2 
 PCOD8055186
Probable space group: C C
;
_chemical_formula_sum "Si O2"
_cell_formula_units_Z 32
_cell_length_a 28.532288
_cell_length_b 9.923022
_cell_length_c 8.841877
_cell_angle_alpha 90.000000
_cell_angle_beta 142.755663
_cell_angle_gamma 90.000000
_cell_volume 1515.077777
_symmetry_space_group_name_H-M "C C"
_symmetry_group_IT_number 9
_symmetry_cell_setting 'monoclinic'
loop_
_space_group_symop_operation_xyz
x,y,z
x,-y,1/2+z
1/2+x,1/2+y,z
1/2+x,1/2-y,1/2+z
loop_
_atom_site_type_symbol
_atom_site_label
_atom_site_fract_x
_atom_site_fract_y
_atom_site_fract_z
Si Si1 0.092690 0.597913 0.200670
Si Si2 0.268347 0.420126 0.173462
Si Si3 0.342622 0.634074 0.557147
Si Si4 0.267784 0.864955 0.775164
Si Si5 0.343099 0.920388 0.662900
Si Si6 0.016040 0.631685 0.684709
Si Si7 0.516397 0.599290 0.005801
Si Si8 0.092421 0.864606 0.382143
O O1 0.182403 0.587253 0.382895
O O2 0.069615 0.457717 0.215794
O O3 0.079333 0.713646 0.289814
O O4 0.041969 0.627080 0.923931
O O5 0.280371 0.561077 0.290355
O O6 0.330412 0.408078 0.199572
O O7 0.280546 0.296338 0.323149
O O8 0.333402 0.795973 0.519702
O O9 0.427610 0.586663 0.724293
O O10 0.279776 0.906352 0.631745
O O11 0.181716 0.908934 0.600451
O O12 0.329215 0.940250 0.039691
O O13 0.428419 0.921909 0.953045
O O14 0.024076 0.784126 0.649974
O O15 0.541223 0.461283 0.147130
O O16 0.568750 0.630348 0.995694
#
# Coordination Sequence:
#
# PCOD8055186 Si02
#       8
#     4   4   4   4   4   4   4   4
#     4  11  23  40  63  90 122 158 199 247 298 356
#     4  10  22  40  61  88 119 154 197 242 295 353
#     4  10  22  39  59  87 119 154 197 242 293 352
#     4  10  22  39  59  87 119 154 197 242 293 352
#     4  10  22  40  61  88 119 154 197 242 295 353
#     4  11  23  40  63  90 122 158 199 247 298 356
#     4  11  23  39  61  90 122 159 201 246 299 355
#     4  11  23  39  61  90 122 159 201 246 299 355
#
# _framework density 21.121027999999999
#
# number of rings (size 3 to 8) (size 9 to 14) (size 15 to 20)
#    0.000    1.500    0.000    4.500    0.000    9.000 
#    0.000    0.000    0.000    0.000    0.000    0.000 
#    0.000    0.000    0.000    0.000    0.000    0.000 
#
# Total GULP energy -198496.576137 kJ/mol
# GULP energy per Si atom -12406.036009 kJ/mol
# Density = 2.107296 g / cm^3
# Si number density = 21.121028 Si / 1000 Ang^3
#
#
#
# Elastic Constant Matrix: (Units=GPa)
#
#
# Indices 1 2 3 4 5 6 
#
# 1 96.9441 7.2659 16.6053 0.0000 15.9033 0.0000
# 2 7.2659 62.5467 41.2215 0.0000 13.1081 0.0000
# 3 16.6053 41.2215 94.9637 0.0000 4.5459 0.0000
# 4 0.0000 0.0000 0.0000 38.0052 0.0000 -1.9401
# 5 15.9033 13.1081 4.5459 0.0000 31.0580 0.0000
# 6 0.0000 0.0000 0.0000 -1.9401 0.0000 27.5568
#
#
#
# Elastic Compliance Matrix: (Units=1/GPa)
#
#
# Indices 1 2 3 4 5 6 
#
# 1 0.011638 0.001546 -0.002406 0.000000 -0.006260 0.000000
# 2 0.001546 0.024816 -0.010577 0.000000 -0.009717 0.000000
# 3 -0.002406 -0.010577 0.015377 0.000000 0.003446 0.000000
# 4 0.000000 0.000000 0.000000 0.026407 0.000000 0.001859
# 5 -0.006260 -0.009717 0.003446 0.000000 0.039000 0.000000
# 6 0.000000 0.000000 0.000000 0.001859 0.000000 0.036420
#
#
# Mechanical properties :
#
#
# Convention : Reuss Voigt Hill
#
# Bulk Modulus (GPa) = 34.53491 42.73778 38.63634
# Shear Modulus (GPa) = 26.85493 31.94812 29.40152
#
# Velocity S-wave (km/s) = 3.56965 3.89346 3.73507
# Velocity P-wave (km/s) = 5.77722 6.36323 6.07729
#
# Compressibility (1/GPa) = 0.02895621
#
# Stress axis : x y z
#
# Youngs Moduli (GPa) = 85.92216 40.29705 65.03033
#
# Poissons Ratio (x) = -0.06229 0.15649
# Poissons Ratio (y) = -0.13282 0.68783
# Poissons Ratio (z) = 0.20677 0.42622
#
# Static dielectric constant tensor:
#      x y z
#    x 3.875440 0.000000 0.147630 
#    y 0.000000 3.940330 0.000000 
#    z 0.147630 0.000000 3.633460 
# 
# 
# High freq. dielectric constant tensor:
#      x y z
#    x 1.841140 0.000000 0.009600 
#    y 0.000000 1.835780 0.000000 
#    z 0.009600 0.000000 1.819810 
# 
# From -- ./inp_files/12428.got.cif
#   From: 2010.06.25/outbox.cif.g09.slc.cpg/sg9_7_cif.got.tgz:12428.got - 2010.06.27 21:40:51.
