data_PCOD8055893
_publ_section_title
;
Structure prediction by ZEFSAII (Michael W. Deem and Ramdas Pophale) SiO2 
 PCOD8055893
Probable space group: C C
;
_chemical_formula_sum "Si O2"
_cell_formula_units_Z 32
_cell_length_a 22.682201
_cell_length_b 14.682860
_cell_length_c 9.743796
_cell_angle_alpha 90.000000
_cell_angle_beta 26.416722
_cell_angle_gamma 90.000000
_cell_volume 1443.720422
_symmetry_space_group_name_H-M "C C"
_symmetry_group_IT_number 9
_symmetry_cell_setting 'monoclinic'
loop_
_space_group_symop_operation_xyz
x,y,z
x,-y,1/2+z
1/2+x,1/2+y,z
1/2+x,1/2-y,1/2+z
loop_
_atom_site_type_symbol
_atom_site_label
_atom_site_fract_x
_atom_site_fract_y
_atom_site_fract_z
Si Si1 0.443530 0.997323 0.190580
Si Si2 0.397931 0.737967 0.611217
Si Si3 0.796479 0.571207 0.261706
Si Si4 0.332810 0.525479 0.085067
Si Si5 0.085768 0.691697 0.936636
Si Si6 0.392344 0.658976 0.336194
Si Si7 0.705771 0.922007 0.590521
Si Si8 0.533675 0.662539 0.765255
O O1 0.323035 0.001570 0.331623
O O2 0.387172 0.953080 0.444403
O O3 0.512442 0.094369 0.084315
O O4 0.547752 0.928118 0.898317
O O5 0.335387 0.835530 0.751851
O O6 0.528096 0.739649 0.438861
O O7 0.437268 0.719863 0.371844
O O8 0.278092 0.672377 0.908345
O O9 0.645191 0.583035 0.531579
O O10 0.277032 0.498469 0.349248
O O11 0.213272 0.552268 0.234930
O O12 0.413502 0.444497 0.842957
O O13 0.417172 0.616508 0.922563
O O14 0.242904 0.677044 0.594131
O O15 0.070298 0.742086 0.116266
O O16 0.492751 0.684390 0.006208
#
# Coordination Sequence:
#
# PCOD8055893 Si02
#       8
#     4   4   4   4   4   4   4   4
#     4  11  25  45  70 100 138 185 227 287 347 416
#     4  10  24  45  68 106 135 178 233 287 339 420
#     4  11  27  44  65 100 141 180 228 285 353 406
#     4  11  21  39  68 103 125 182 227 286 335 411
#     4  11  23  48  69 104 139 176 239 282 350 415
#     4  11  24  45  70 100 137 184 228 290 344 418
#     4  11  21  41  74  98 135 176 239 275 343 414
#     4  12  25  45  68  99 142 179 231 290 353 408
#
# _framework density 22.164956
#
# number of rings (size 3 to 8) (size 9 to 14) (size 15 to 20)
#    0.000    1.000    5.000    0.750    3.500    3.000 
#    4.500    0.000    0.000    0.000    0.000    0.000 
#    0.000    0.000    0.000    0.000    0.000    0.000 
#
# Total GULP energy -198289.550775 kJ/mol
# GULP energy per Si atom -12393.096923 kJ/mol
# Density = 2.211451 g / cm^3
# Si number density = 22.164956 Si / 1000 Ang^3
#
#
#
# Elastic Constant Matrix: (Units=GPa)
#
#
# Indices 1 2 3 4 5 6 
#
# 1 115.5111 29.2314 43.9554 0.0000 9.6649 0.0000
# 2 29.2314 67.3105 40.4112 0.0000 4.8030 0.0000
# 3 43.9554 40.4112 118.3048 0.0000 10.5721 0.0000
# 4 0.0000 0.0000 0.0000 20.6385 0.0000 -5.5040
# 5 9.6649 4.8030 10.5721 0.0000 21.6756 0.0000
# 6 0.0000 0.0000 0.0000 -5.5040 0.0000 33.3654
#
#
#
# Elastic Compliance Matrix: (Units=1/GPa)
#
#
# Indices 1 2 3 4 5 6 
#
# 1 0.010640 -0.002765 -0.002760 0.000000 -0.002786 0.000000
# 2 -0.002765 0.019432 -0.005579 0.000000 -0.000352 0.000000
# 3 -0.002760 -0.005579 0.011672 0.000000 -0.003226 0.000000
# 4 0.000000 0.000000 0.000000 0.050683 0.000000 0.008361
# 5 -0.002786 -0.000352 -0.003226 0.000000 0.049028 0.000000
# 6 0.000000 0.000000 0.000000 0.008361 0.000000 0.031350
#
#
# Mechanical properties :
#
#
# Convention : Reuss Voigt Hill
#
# Bulk Modulus (GPa) = 51.18612 58.70249 54.94430
# Shear Modulus (GPa) = 24.81079 27.63781 26.22430
#
# Velocity S-wave (km/s) = 3.34933 3.53500 3.44342
# Velocity P-wave (km/s) = 6.17258 6.57294 6.37590
#
# Compressibility (1/GPa) = 0.01953655
#
# Stress axis : x y z
#
# Youngs Moduli (GPa) = 93.98325 51.46205 85.67431
#
# Poissons Ratio (x) = 0.14230 0.23645
# Poissons Ratio (y) = 0.25987 0.47796
# Poissons Ratio (z) = 0.25938 0.28710
#
# Static dielectric constant tensor:
#      x y z
#    x 4.515730 0.000000 -0.144510 
#    y 0.000000 4.082100 0.000000 
#    z -0.144510 0.000000 3.835260 
# 
# 
# High freq. dielectric constant tensor:
#      x y z
#    x 1.896420 0.000000 0.004510 
#    y 0.000000 1.870450 0.000000 
#    z 0.004510 0.000000 1.855500 
# 
# From -- ./inp_files/11776.got.cif
#   From: 2010.06.25/outbox.cif.g09.slc.cpg/sg9_6_cif.got.tgz:11776.got - 2010.06.27 21:40:51.
