data_PCOD8055526
_publ_section_title
;
Structure prediction by ZEFSAII (Michael W. Deem and Ramdas Pophale) SiO2 
 PCOD8055526
Probable space group: C C
;
_chemical_formula_sum "Si O2"
_cell_formula_units_Z 32
_cell_length_a 15.891709
_cell_length_b 15.189310
_cell_length_c 10.205900
_cell_angle_alpha 90.000000
_cell_angle_beta 144.286222
_cell_angle_gamma 90.000000
_cell_volume 1438.059288
_symmetry_space_group_name_H-M "C C"
_symmetry_group_IT_number 9
_symmetry_cell_setting 'monoclinic'
loop_
_space_group_symop_operation_xyz
x,y,z
x,-y,1/2+z
1/2+x,1/2+y,z
1/2+x,1/2-y,1/2+z
loop_
_atom_site_type_symbol
_atom_site_label
_atom_site_fract_x
_atom_site_fract_y
_atom_site_fract_z
Si Si1 0.164170 0.713067 0.356030
Si Si2 0.399599 0.848667 0.204303
Si Si3 0.223762 0.985931 0.850570
Si Si4 0.231128 0.480878 0.984319
Si Si5 0.646618 0.270627 0.036343
Si Si6 0.052834 0.966001 0.894147
Si Si7 0.550247 0.991240 0.005887
Si Si8 0.888252 0.647153 0.147768
O O1 0.248063 0.623393 0.491584
O O2 0.163945 0.728174 0.200697
O O3 0.258878 0.791883 0.538787
O O4 0.003308 0.707599 0.213405
O O5 0.536361 0.794809 0.320982
O O6 0.296543 0.778021 0.147774
O O7 0.442699 0.924961 0.364000
O O8 0.318877 0.896711 0.981365
O O9 0.120499 0.974945 0.595332
O O10 0.327227 0.071847 0.971410
O O11 0.126608 0.997150 0.855249
O O12 0.384476 0.523976 0.161526
O O13 0.173365 0.507260 0.053568
O O14 0.576474 0.365516 0.961027
O O15 0.619251 0.018210 0.735759
O O16 0.463097 0.901353 0.865444
#
# Coordination Sequence:
#
# PCOD8055526 Si02
#       8
#     4   4   4   4   4   4   4   4
#     4  11  22  38  69 100 132 170 241 278 326 397
#     4  10  23  39  67  99 133 173 226 284 336 390
#     4  10  23  43  68  96 141 181 223 275 353 412
#     4  11  24  41  70 100 134 179 230 282 338 407
#     4  11  22  38  69 100 132 170 241 278 326 397
#     4  11  24  41  70 100 134 179 230 282 338 407
#     4  10  23  43  68  96 141 181 223 275 353 412
#     4  10  23  39  67  99 133 173 226 284 336 390
#
# _framework density 22.252213000000001
#
# number of rings (size 3 to 8) (size 9 to 14) (size 15 to 20)
#    0.000    1.500    2.500    1.500    7.000    5.000 
#    0.000    1.250   11.000    0.000    0.000    0.000 
#    0.000    0.000    0.000    0.000    0.000    0.000 
#
# Total GULP energy -198402.881919 kJ/mol
# GULP energy per Si atom -12400.180120 kJ/mol
# Density = 2.220157 g / cm^3
# Si number density = 22.252213 Si / 1000 Ang^3
#
#
#
# Elastic Constant Matrix: (Units=GPa)
#
#
# Indices 1 2 3 4 5 6 
#
# 1 74.1147 22.6019 18.1514 0.0000 12.1076 0.0000
# 2 22.6019 70.1833 22.7540 0.0000 17.1917 0.0000
# 3 18.1514 22.7540 102.1511 0.0000 11.5005 0.0000
# 4 0.0000 0.0000 0.0000 55.3111 0.0000 13.9201
# 5 12.1076 17.1917 11.5005 0.0000 37.7459 0.0000
# 6 0.0000 0.0000 0.0000 13.9201 0.0000 28.0790
#
#
#
# Elastic Compliance Matrix: (Units=1/GPa)
#
#
# Indices 1 2 3 4 5 6 
#
# 1 0.015491 -0.003797 -0.001597 0.000000 -0.002753 0.000000
# 2 -0.003797 0.017810 -0.002606 0.000000 -0.006100 0.000000
# 3 -0.001597 -0.002606 0.010834 0.000000 -0.001602 0.000000
# 4 0.000000 0.000000 0.000000 0.020657 0.000000 -0.010241
# 5 -0.002753 -0.006100 -0.001602 0.000000 0.030642 0.000000
# 6 0.000000 0.000000 0.000000 -0.010241 0.000000 0.040690
#
#
# Mechanical properties :
#
#
# Convention : Reuss Voigt Hill
#
# Bulk Modulus (GPa) = 35.54097 41.49597 38.51847
# Shear Modulus (GPa) = 30.95921 36.42333 33.69127
#
# Velocity S-wave (km/s) = 3.73404 4.05018 3.89532
# Velocity P-wave (km/s) = 5.88195 6.36871 6.13016
#
# Compressibility (1/GPa) = 0.02813654
#
# Stress axis : x y z
#
# Youngs Moduli (GPa) = 64.55225 56.14787 92.30225
#
# Poissons Ratio (x) = 0.21317 0.14741
# Poissons Ratio (y) = 0.24508 0.24052
# Poissons Ratio (z) = 0.10309 0.14631
#
# Static dielectric constant tensor:
#      x y z
#    x 3.772090 0.000000 0.185180 
#    y 0.000000 4.200640 0.000000 
#    z 0.185180 0.000000 4.323120 
# 
# 
# High freq. dielectric constant tensor:
#      x y z
#    x 1.861170 0.000000 0.013530 
#    y 0.000000 1.875960 0.000000 
#    z 0.013530 0.000000 1.888840 
# 
# From -- ./inp_files/26874.got.cif
#   From: 2010.06.25/outbox.cif.g09.slc.cpg/sg9_14_cif.got.tgz:26874.got - 2010.06.27 21:40:51.
