data_PCOD8055405
_publ_section_title
;
Structure prediction by ZEFSAII (Michael W. Deem and Ramdas Pophale) SiO2 
 PCOD8055405
Probable space group: C C
;
_chemical_formula_sum "Si O2"
_cell_formula_units_Z 32
_cell_length_a 11.495362
_cell_length_b 16.361995
_cell_length_c 7.854376
_cell_angle_alpha 90.000000
_cell_angle_beta 110.972218
_cell_angle_gamma 90.000000
_cell_volume 1379.440937
_symmetry_space_group_name_H-M "C C"
_symmetry_group_IT_number 9
_symmetry_cell_setting 'monoclinic'
loop_
_space_group_symop_operation_xyz
x,y,z
x,-y,1/2+z
1/2+x,1/2+y,z
1/2+x,1/2-y,1/2+z
loop_
_atom_site_type_symbol
_atom_site_label
_atom_site_fract_x
_atom_site_fract_y
_atom_site_fract_z
Si Si1 0.952560 0.108194 0.762730
Si Si2 0.020178 0.715653 0.193357
Si Si3 0.574833 0.515514 0.123944
Si Si4 0.980757 0.224355 0.335140
Si Si5 0.244344 0.388039 0.694098
Si Si6 0.195542 0.111624 0.485256
Si Si7 0.468875 0.154889 0.531332
Si Si8 0.205057 0.569229 0.786275
O O1 0.810704 0.123196 0.746213
O O2 0.022031 0.188293 0.734195
O O3 0.953419 0.037213 0.618371
O O4 0.038589 0.075618 0.956760
O O5 0.156598 0.676730 0.244356
O O6 0.955800 0.671837 0.322173
O O7 0.945450 0.710833 0.970565
O O8 0.625086 0.573955 0.291137
O O9 0.683158 0.450550 0.135841
O O10 0.884114 0.148641 0.275061
O O11 0.994362 0.263678 0.155533
O O12 0.119691 0.196256 0.470445
O O13 0.237732 0.473466 0.791925
O O14 0.198436 0.402038 0.477644
O O15 0.339652 0.121402 0.530224
O O16 0.574788 0.087782 0.624221
#
# Coordination Sequence:
#
# PCOD8055405 Si02
#       8
#     4   4   4   4   4   4   4   4
#     4  11  23  44  74 114 137 192 249 304 375 435
#     4  12  27  45  72 110 146 197 240 304 379 433
#     4  10  22  43  75 102 141 184 243 305 358 448
#     4  12  26  48  75 106 147 188 248 310 365 447
#     4  12  27  49  76 112 151 195 254 315 375 445
#     4  11  24  46  68 103 140 190 235 299 367 427
#     4  12  29  47  72 106 152 194 248 300 370 448
#     4  12  26  48  76 111 150 196 253 315 373 447
#
# _framework density 23.197804999999999
#
# number of rings (size 3 to 8) (size 9 to 14) (size 15 to 20)
#    0.000    0.500    2.500    6.000    5.250    3.000 
#    2.250    0.000    0.000    0.000    0.000    0.000 
#    0.000    0.000    0.000    0.000    0.000    0.000 
#
# Total GULP energy -198325.613252 kJ/mol
# GULP energy per Si atom -12395.350828 kJ/mol
# Density = 2.314501 g / cm^3
# Si number density = 23.197805 Si / 1000 Ang^3
#
#
#
# Elastic Constant Matrix: (Units=GPa)
#
#
# Indices 1 2 3 4 5 6 
#
# 1 131.9287 43.4948 32.2673 0.0000 5.0127 0.0000
# 2 43.4948 81.8848 12.5683 0.0000 0.0941 0.0000
# 3 32.2673 12.5683 72.8730 0.0000 -25.5281 0.0000
# 4 0.0000 0.0000 0.0000 123.7646 0.0000 41.3427
# 5 5.0127 0.0941 -25.5281 0.0000 35.0771 0.0000
# 6 0.0000 0.0000 0.0000 41.3427 0.0000 56.1116
#
#
#
# Elastic Compliance Matrix: (Units=1/GPa)
#
#
# Indices 1 2 3 4 5 6 
#
# 1 0.010890 -0.004845 -0.006076 0.000000 -0.005965 0.000000
# 2 -0.004845 0.014823 -0.000245 0.000000 0.000474 0.000000
# 3 -0.006076 -0.000245 0.022494 0.000000 0.017240 0.000000
# 4 0.000000 0.000000 0.000000 0.010718 0.000000 -0.007897
# 5 -0.005965 0.000474 0.017240 0.000000 0.041906 0.000000
# 6 0.000000 0.000000 0.000000 -0.007897 0.000000 0.023640
#
#
# Mechanical properties :
#
#
# Convention : Reuss Voigt Hill
#
# Bulk Modulus (GPa) = 38.64703 51.48302 45.06503
# Shear Modulus (GPa) = 32.16925 56.21440 44.19183
#
# Velocity S-wave (km/s) = 3.72793 4.92801 4.36937
# Velocity P-wave (km/s) = 5.93514 7.39064 6.70252
#
# Compressibility (1/GPa) = 0.02587521
#
# Stress axis : x y z
#
# Youngs Moduli (GPa) = 91.82860 67.46351 44.45557
#
# Poissons Ratio (x) = 0.32686 0.27011
# Poissons Ratio (y) = 0.44490 0.01089
# Poissons Ratio (z) = 0.55795 0.01653
#
# Static dielectric constant tensor:
#      x y z
#    x 4.387280 0.000000 -0.393540 
#    y 0.000000 2.807960 0.000000 
#    z -0.393540 0.000000 4.638170 
# 
# 
# High freq. dielectric constant tensor:
#      x y z
#    x 1.915060 0.000000 -0.025230 
#    y 0.000000 1.918400 0.000000 
#    z -0.025230 0.000000 1.932030 
# 
# From -- ./inp_files/7479.got.cif
#   From: 2010.06.25/outbox.cif.g09.slc.cpg/sg9_4_cif.got.tgz:7479.got - 2010.06.27 21:40:51.
