data_PCOD8055157
_publ_section_title
;
Structure prediction by ZEFSAII (Michael W. Deem and Ramdas Pophale) SiO2 
 PCOD8055157
Probable space group: C C
;
_chemical_formula_sum "Si O2"
_cell_formula_units_Z 28
_cell_length_a 14.907411
_cell_length_b 14.174848
_cell_length_c 9.000005
_cell_angle_alpha 90.000000
_cell_angle_beta 42.890377
_cell_angle_gamma 90.000000
_cell_volume 1294.356605
_symmetry_space_group_name_H-M "C C"
_symmetry_group_IT_number 9
_symmetry_cell_setting 'monoclinic'
loop_
_space_group_symop_operation_xyz
x,y,z
x,-y,1/2+z
1/2+x,1/2+y,z
1/2+x,1/2-y,1/2+z
loop_
_atom_site_type_symbol
_atom_site_label
_atom_site_fract_x
_atom_site_fract_y
_atom_site_fract_z
Si Si1 0.016360 0.010897 0.092620
Si Si2 0.765242 0.898712 0.381590
Si Si3 0.741522 0.726101 0.593692
Si Si4 0.954479 0.216188 0.075221
Si Si5 0.608559 0.986292 0.309758
Si Si6 0.948636 0.599129 0.741050
Si Si7 0.203288 0.017027 0.614530
O O1 0.946539 0.112240 0.155636
O O2 0.060975 0.990378 0.206500
O O3 0.157722 0.002301 0.839014
O O4 0.913808 0.930803 0.168888
O O5 0.762930 0.787314 0.418664
O O6 0.678512 0.917583 0.341798
O O7 0.713500 0.951366 0.592686
O O8 0.831836 0.767004 0.615091
O O9 0.777183 0.618094 0.509493
O O10 0.589282 0.731251 0.823472
O O11 0.944354 0.288736 0.224332
O O12 0.531843 0.921373 0.286711
O O13 0.507965 0.053751 0.519099
O O14 0.800148 0.564106 0.942942
#
# Coordination Sequence:
#
# PCOD8055157 Si02
#       7
#     4   4   4   4   4   4   4
#     4  11  24  44  66  95 135 177 216 273 342 401
#     4  11  21  42  65  98 127 173 220 276 325 398
#     4  11  23  42  71  98 129 185 228 266 337 421
#     4  11  23  42  71  98 129 185 228 266 337 421
#     4  10  22  36  66  94 132 158 224 282 324 368
#     4  11  21  42  65  98 127 173 220 276 325 398
#     4  11  24  44  66  95 135 177 216 273 342 401
#
# _framework density 21.632370000000002
#
# number of rings (size 3 to 8) (size 9 to 14) (size 15 to 20)
#    0.000    1.143    1.429    6.857    4.000    0.000 
#    2.571    2.857    0.000    0.000    0.000    0.000 
#    0.000    0.000    0.000    0.000    0.000    0.000 
#
# Total GULP energy -173656.299154 kJ/mol
# GULP energy per Si atom -12404.021368 kJ/mol
# Density = 2.158313 g / cm^3
# Si number density = 21.632370 Si / 1000 Ang^3
#
#
#
# Elastic Constant Matrix: (Units=GPa)
#
#
# Indices 1 2 3 4 5 6 
#
# 1 91.1794 18.3718 8.6808 0.0000 4.4871 0.0000
# 2 18.3718 86.4392 33.1949 0.0000 2.1971 0.0000
# 3 8.6808 33.1949 76.8763 0.0000 -1.4213 0.0000
# 4 0.0000 0.0000 0.0000 31.8863 0.0000 3.2389
# 5 4.4871 2.1971 -1.4213 0.0000 34.3795 0.0000
# 6 0.0000 0.0000 0.0000 3.2389 0.0000 37.4495
#
#
#
# Elastic Compliance Matrix: (Units=1/GPa)
#
#
# Indices 1 2 3 4 5 6 
#
# 1 0.011528 -0.002284 -0.000341 0.000000 -0.001373 0.000000
# 2 -0.002284 0.014366 -0.005961 0.000000 -0.000866 0.000000
# 3 -0.000341 -0.005961 0.015640 0.000000 0.001072 0.000000
# 4 0.000000 0.000000 0.000000 0.031639 0.000000 -0.002736
# 5 -0.001373 -0.000866 0.001072 0.000000 0.029366 0.000000
# 6 0.000000 0.000000 0.000000 -0.002736 0.000000 0.026939
#
#
# Mechanical properties :
#
#
# Convention : Reuss Voigt Hill
#
# Bulk Modulus (GPa) = 41.04896 41.66554 41.35725
# Shear Modulus (GPa) = 32.30586 33.69288 32.99937
#
# Velocity S-wave (km/s) = 3.86865 3.95083 3.90995
# Velocity P-wave (km/s) = 6.24277 6.33361 6.28835
#
# Compressibility (1/GPa) = 0.02436115
#
# Stress axis : x y z
#
# Youngs Moduli (GPa) = 86.74790 69.61092 63.93794
#
# Poissons Ratio (x) = 0.15902 0.02178
# Poissons Ratio (y) = 0.19816 0.38114
# Poissons Ratio (z) = 0.02955 0.41496
#
# Static dielectric constant tensor:
#      x y z
#    x 3.927600 0.000000 0.015780 
#    y 0.000000 4.021670 0.000000 
#    z 0.015780 0.000000 3.821320 
# 
# 
# High freq. dielectric constant tensor:
#      x y z
#    x 1.864600 0.000000 -0.005350 
#    y 0.000000 1.845470 0.000000 
#    z -0.005350 0.000000 1.847230 
# 
# From -- ./inp_files/7322.got.cif
#   From: 2010.06.25/outbox.cif.g09.slc.cpg/sg9_4_cif.got.tgz:7322.got - 2010.06.27 21:40:51.
