data_PCOD8055919
_publ_section_title
;
Structure prediction by ZEFSAII (Michael W. Deem and Ramdas Pophale) SiO2 
 PCOD8055919
Probable space group: C C
;
_chemical_formula_sum "Si O2"
_cell_formula_units_Z 24
_cell_length_a 14.213458
_cell_length_b 12.503175
_cell_length_c 11.199065
_cell_angle_alpha 90.000000
_cell_angle_beta 149.453799
_cell_angle_gamma 90.000000
_cell_volume 1011.497165
_symmetry_space_group_name_H-M "C C"
_symmetry_group_IT_number 9
_symmetry_cell_setting 'monoclinic'
loop_
_space_group_symop_operation_xyz
x,y,z
x,-y,1/2+z
1/2+x,1/2+y,z
1/2+x,1/2-y,1/2+z
loop_
_atom_site_type_symbol
_atom_site_label
_atom_site_fract_x
_atom_site_fract_y
_atom_site_fract_z
Si Si1 0.392540 0.896047 0.993780
Si Si2 0.664529 0.907404 0.088978
Si Si3 0.185396 0.771171 0.202173
Si Si4 0.871107 0.119543 0.244989
Si Si5 0.980950 0.164971 0.106319
Si Si6 0.997989 0.624424 0.169985
O O1 0.170646 0.882256 0.759525
O O2 0.467296 0.917527 0.941512
O O3 0.500025 0.790833 0.160538
O O4 0.462730 0.997377 0.146083
O O5 0.818170 0.841495 0.330266
O O6 0.747961 0.022287 0.152152
O O7 0.614928 0.841998 0.914478
O O8 0.277532 0.734447 0.176867
O O9 0.101351 0.660482 0.161843
O O10 0.305417 0.813226 0.444986
O O11 0.057507 0.872695 0.028939
O O12 0.918515 0.103641 0.157587
#
# Coordination Sequence:
#
# PCOD8055919 Si02
#       6
#     4   4   4   4   4   4
#     4  12  26  47  72 116 150 200 251 306 380 446
#     4  12  27  47  75 110 152 193 248 319 375 441
#     4  10  24  46  74 106 146 202 246 311 375 453
#     4  11  24  48  76 107 151 195 257 308 373 453
#     4  12  27  46  78 113 152 198 254 312 377 446
#     4  11  26  46  73 106 151 194 252 306 382 449
#
# _framework density 23.727204
#
# number of rings (size 3 to 8) (size 9 to 14) (size 15 to 20)
#    0.000    0.667    3.333    3.000    4.667    2.667 
#    3.000    0.000    0.000    0.000    0.000    0.000 
#    0.000    0.000    0.000    0.000    0.000    0.000 
#
# Total GULP energy -148681.441914 kJ/mol
# GULP energy per Si atom -12390.120160 kJ/mol
# Density = 2.367320 g / cm^3
# Si number density = 23.727204 Si / 1000 Ang^3
#
#
#
# Elastic Constant Matrix: (Units=GPa)
#
#
# Indices 1 2 3 4 5 6 
#
# 1 145.5548 36.7089 61.1657 -0.0001 11.1105 0.0000
# 2 36.7089 107.6234 29.1983 0.0000 4.0623 0.0000
# 3 61.1657 29.1983 147.7823 -0.0001 -5.1541 -0.0001
# 4 -0.0001 0.0000 -0.0001 34.9972 -0.0001 1.5803
# 5 11.1105 4.0623 -5.1541 -0.0001 39.6392 0.0000
# 6 0.0000 0.0000 -0.0001 1.5803 0.0000 32.1301
#
#
#
# Elastic Compliance Matrix: (Units=1/GPa)
#
#
# Indices 1 2 3 4 5 6 
#
# 1 0.009041 -0.002048 -0.003434 0.000000 -0.002771 0.000000
# 2 -0.002048 0.010345 -0.001219 0.000000 -0.000645 0.000000
# 3 -0.003434 -0.001219 0.008505 0.000000 0.002193 0.000000
# 4 0.000000 0.000000 0.000000 0.028637 0.000000 -0.001409
# 5 -0.002771 -0.000645 0.002193 0.000000 0.026355 0.000000
# 6 0.000000 0.000000 0.000000 -0.001409 0.000000 0.031193
#
#
# Mechanical properties :
#
#
# Convention : Reuss Voigt Hill
#
# Bulk Modulus (GPa) = 69.01138 72.78958 70.90048
# Shear Modulus (GPa) = 37.79033 39.61247 38.70140
#
# Velocity S-wave (km/s) = 3.99519 4.09038 4.04307
# Velocity P-wave (km/s) = 7.10145 7.28372 7.19316
#
# Compressibility (1/GPa) = 0.01449036
#
# Stress axis : x y z
#
# Youngs Moduli (GPa) = 110.60349 96.66406 117.57194
#
# Poissons Ratio (x) = 0.19793 0.40377
# Poissons Ratio (y) = 0.22647 0.14332
# Poissons Ratio (z) = 0.37983 0.11783
#
# Static dielectric constant tensor:
#      x y z
#    x 4.287830 0.000000 0.240070 
#    y 0.000000 4.129610 0.000000 
#    z 0.240070 0.000000 4.376050 
# 
# 
# High freq. dielectric constant tensor:
#      x y z
#    x 1.943170 0.000000 0.010770 
#    y 0.000000 1.933670 0.000000 
#    z 0.010770 0.000000 1.945740 
# 
# From -- ./inp_files/9014.got.cif
#   From: 2010.06.25/outbox.cif.g09.slc.cpg/sg9_5_cif.got.tgz:9014.got - 2010.06.27 21:40:51.
