data_PCOD8055222
_publ_section_title
;
Structure prediction by ZEFSAII (Michael W. Deem and Ramdas Pophale) SiO2 
 PCOD8055222
Probable space group: C C
;
_chemical_formula_sum "Si O2"
_cell_formula_units_Z 32
_cell_length_a 12.923265
_cell_length_b 13.555626
_cell_length_c 9.433772
_cell_angle_alpha 90.000000
_cell_angle_beta 99.061968
_cell_angle_gamma 90.000000
_cell_volume 1632.008724
_symmetry_space_group_name_H-M "C C"
_symmetry_group_IT_number 9
_symmetry_cell_setting 'monoclinic'
loop_
_space_group_symop_operation_xyz
x,y,z
x,-y,1/2+z
1/2+x,1/2+y,z
1/2+x,1/2-y,1/2+z
loop_
_atom_site_type_symbol
_atom_site_label
_atom_site_fract_x
_atom_site_fract_y
_atom_site_fract_z
Si Si1 0.412060 0.723538 0.061310
Si Si2 0.435114 0.286025 0.008224
Si Si3 0.111779 0.884255 0.906729
Si Si4 0.656158 0.711356 0.129004
Si Si5 0.897198 0.936951 0.788198
Si Si6 0.332708 0.347047 0.253356
Si Si7 0.809461 0.402822 0.468125
Si Si8 0.302469 0.919614 0.141751
O O1 0.536430 0.739301 0.069238
O O2 0.389470 0.621928 0.138897
O O3 0.363651 0.817321 0.132698
O O4 0.353524 0.713054 0.900702
O O5 0.428534 0.318256 0.170331
O O6 0.553197 0.292349 0.972360
O O7 0.359225 0.362175 0.904131
O O8 0.402475 0.174681 0.975974
O O9 0.168953 0.848688 0.777546
O O10 0.020444 0.963881 0.846302
O O11 0.191769 0.928134 0.036013
O O12 0.723075 0.811972 0.161267
O O13 0.705313 0.645920 0.013583
O O14 0.827767 0.035124 0.773144
O O15 0.782619 0.440759 0.303632
O O16 0.860460 0.488341 0.578717
#
# Coordination Sequence:
#
# PCOD8055222 Si02
#       8
#     4   4   4   4   4   4   4   4
#     4  11  23  41  64  88 130 166 199 257 318 364
#     4   9  21  40  60  85 128 153 204 262 295 368
#     4   9  20  39  60  91 121 158 198 261 308 358
#     4  10  22  40  62  93 126 158 206 258 301 375
#     4   9  20  39  62  86 121 159 201 252 306 358
#     4  11  21  36  65  96 121 160 207 255 308 368
#     4  11  24  39  62  87 124 163 209 254 308 374
#     4  12  23  40  63  90 123 167 204 257 318 365
#
# _framework density 19.607738999999999
#
# number of rings (size 3 to 8) (size 9 to 14) (size 15 to 20)
#    0.750    1.000    2.500    1.500    5.250    1.000 
#    0.000    1.250    8.250    0.000    0.000    0.000 
#    0.000    0.000    0.000    0.000    0.000    0.000 
#
# Total GULP energy -198273.210295 kJ/mol
# GULP energy per Si atom -12392.075643 kJ/mol
# Density = 1.956311 g / cm^3
# Si number density = 19.607739 Si / 1000 Ang^3
#
#
#
# Elastic Constant Matrix: (Units=GPa)
#
#
# Indices 1 2 3 4 5 6 
#
# 1 50.4686 27.5230 16.9203 0.0000 -0.9979 0.0000
# 2 27.5230 115.4456 34.6737 0.0000 2.7756 0.0000
# 3 16.9203 34.6737 130.9750 0.0000 -10.7763 0.0000
# 4 0.0000 0.0000 0.0000 32.3039 0.0000 -5.0979
# 5 -0.9979 2.7756 -10.7763 0.0000 26.5528 0.0000
# 6 0.0000 0.0000 0.0000 -5.0979 0.0000 17.6627
#
#
#
# Elastic Compliance Matrix: (Units=1/GPa)
#
#
# Indices 1 2 3 4 5 6 
#
# 1 0.023117 -0.005053 -0.001587 0.000000 0.000753 0.000000
# 2 -0.005053 0.010625 -0.002345 0.000000 -0.002252 0.000000
# 3 -0.001587 -0.002345 0.008769 0.000000 0.003744 0.000000
# 4 0.000000 0.000000 0.000000 0.032433 0.000000 0.009361
# 5 0.000753 -0.002252 0.003744 0.000000 0.039444 0.000000
# 6 0.000000 0.000000 0.000000 0.009361 0.000000 0.059318
#
#
# Mechanical properties :
#
#
# Convention : Reuss Voigt Hill
#
# Bulk Modulus (GPa) = 40.74798 50.56922 45.65860
# Shear Modulus (GPa) = 25.01791 29.82205 27.41998
#
# Velocity S-wave (km/s) = 3.57588 3.90414 3.74361
# Velocity P-wave (km/s) = 6.15434 6.79482 6.48249
#
# Compressibility (1/GPa) = 0.02454109
#
# Stress axis : x y z
#
# Youngs Moduli (GPa) = 43.25886 94.11508 114.03744
#
# Poissons Ratio (x) = 0.47553 0.18095
# Poissons Ratio (y) = 0.21857 0.26747
# Poissons Ratio (z) = 0.06864 0.22074
#
# Static dielectric constant tensor:
#      x y z
#    x 3.279610 0.000000 -0.116640 
#    y 0.000000 3.482650 0.000000 
#    z -0.116640 0.000000 3.773800 
# 
# 
# High freq. dielectric constant tensor:
#      x y z
#    x 1.733560 0.000000 -0.011650 
#    y 0.000000 1.759730 0.000000 
#    z -0.011650 0.000000 1.784340 
# 
# From -- ./inp_files/9123.got.cif
#   From: 2010.06.25/outbox.cif.g09.slc.cpg/sg9_5_cif.got.tgz:9123.got - 2010.06.27 21:40:51.
