data_PCOD8055763
_publ_section_title
;
Structure prediction by ZEFSAII (Michael W. Deem and Ramdas Pophale) SiO2 
 PCOD8055763
Probable space group: C C
;
_chemical_formula_sum "Si O2"
_cell_formula_units_Z 24
_cell_length_a 7.482943
_cell_length_b 14.474881
_cell_length_c 12.238795
_cell_angle_alpha 90.000000
_cell_angle_beta 129.977307
_cell_angle_gamma 90.000000
_cell_volume 1015.837735
_symmetry_space_group_name_H-M "C C"
_symmetry_group_IT_number 9
_symmetry_cell_setting 'monoclinic'
loop_
_space_group_symop_operation_xyz
x,y,z
x,-y,1/2+z
1/2+x,1/2+y,z
1/2+x,1/2-y,1/2+z
loop_
_atom_site_type_symbol
_atom_site_label
_atom_site_fract_x
_atom_site_fract_y
_atom_site_fract_z
Si Si1 0.890600 0.780042 0.367830
Si Si2 0.591073 0.538994 0.492540
Si Si3 0.080158 0.137039 0.144952
Si Si4 0.294234 0.103511 0.935006
Si Si5 0.763158 0.858545 0.721312
Si Si6 0.912030 0.657139 0.754366
O O1 0.815401 0.677402 0.296392
O O2 0.660769 0.844648 0.291985
O O3 0.003339 0.778441 0.533839
O O4 0.070234 0.827703 0.353527
O O5 0.602084 0.455779 0.583425
O O6 0.720766 0.500961 0.435616
O O7 0.337801 0.574612 0.351824
O O8 0.721293 0.627722 0.590898
O O9 0.883131 0.112148 0.154833
O O10 0.401446 0.092048 0.856543
O O11 0.485286 0.137589 0.098648
O O12 0.849822 0.756073 0.781242
#
# Coordination Sequence:
#
# PCOD8055763 Si02
#       6
#     4   4   4   4   4   4
#     4  10  24  44  70 108 140 187 231 293 362 419
#     4  11  26  44  70 108 140 188 240 299 350 422
#     4  10  23  47  71 105 149 183 238 295 360 419
#     4  11  25  43  72 105 140 184 240 290 355 417
#     4  11  24  46  74 101 143 192 235 290 362 421
#     4  11  24  48  69 101 144 188 238 289 359 424
#
# _framework density 23.625820000000001
#
# number of rings (size 3 to 8) (size 9 to 14) (size 15 to 20)
#    0.000    1.333    1.667    2.000   16.333    0.000 
#    0.000    0.000    0.000    0.000    0.000    0.000 
#    0.000    0.000    0.000    0.000    0.000    0.000 
#
# Total GULP energy -148712.871795 kJ/mol
# GULP energy per Si atom -12392.739316 kJ/mol
# Density = 2.357205 g / cm^3
# Si number density = 23.625820 Si / 1000 Ang^3
#
#
#
# Elastic Constant Matrix: (Units=GPa)
#
#
# Indices 1 2 3 4 5 6 
#
# 1 95.4965 32.8352 41.4420 0.0000 6.9205 0.0000
# 2 32.8352 102.0085 46.4455 0.0000 -0.8531 0.0000
# 3 41.4420 46.4455 114.0201 0.0000 20.4432 0.0000
# 4 0.0000 0.0000 0.0000 54.8346 0.0000 -8.2179
# 5 6.9205 -0.8531 20.4432 0.0000 38.0740 0.0000
# 6 0.0000 0.0000 0.0000 -8.2179 0.0000 26.3894
#
#
#
# Elastic Compliance Matrix: (Units=1/GPa)
#
#
# Indices 1 2 3 4 5 6 
#
# 1 0.012933 -0.002537 -0.003580 0.000000 -0.000485 0.000000
# 2 -0.002537 0.012898 -0.004942 0.000000 0.003404 0.000000
# 3 -0.003580 -0.004942 0.013265 0.000000 -0.006582 0.000000
# 4 0.000000 0.000000 0.000000 0.019129 0.000000 0.005957
# 5 -0.000485 0.003404 -0.006582 0.000000 0.029963 0.000000
# 6 0.000000 0.000000 0.000000 0.005957 0.000000 0.039749
#
#
# Mechanical properties :
#
#
# Convention : Reuss Voigt Hill
#
# Bulk Modulus (GPa) = 58.90160 61.44119 60.17139
# Shear Modulus (GPa) = 32.10973 36.57977 34.34475
#
# Velocity S-wave (km/s) = 3.69059 3.93911 3.81687
# Velocity P-wave (km/s) = 6.56854 6.83748 6.70436
#
# Compressibility (1/GPa) = 0.01697747
#
# Stress axis : x y z
#
# Youngs Moduli (GPa) = 77.32354 77.52871 75.38588
#
# Poissons Ratio (x) = 0.19668 0.26989
# Poissons Ratio (y) = 0.19616 0.37258
# Poissons Ratio (z) = 0.27683 0.38318
#
# Static dielectric constant tensor:
#      x y z
#    x 4.357770 0.000000 -0.048500 
#    y 0.000000 4.077880 0.000000 
#    z -0.048500 0.000000 4.450150 
# 
# 
# High freq. dielectric constant tensor:
#      x y z
#    x 1.935000 0.000000 -0.007160 
#    y 0.000000 1.918760 0.000000 
#    z -0.007160 0.000000 1.946400 
# 
# From -- ./inp_files/14371.got.cif
#   From: 2010.06.25/outbox.cif.g09.slc.cpg/sg9_8_cif.got.tgz:14371.got - 2010.06.27 21:40:51.
