data_PCOD8055485
_publ_section_title
;
Structure prediction by ZEFSAII (Michael W. Deem and Ramdas Pophale) SiO2 
 PCOD8055485
Probable space group: C C
;
_chemical_formula_sum "Si O2"
_cell_formula_units_Z 32
_cell_length_a 10.546121
_cell_length_b 16.328762
_cell_length_c 8.828627
_cell_angle_alpha 90.000000
_cell_angle_beta 111.445452
_cell_angle_gamma 90.000000
_cell_volume 1415.075856
_symmetry_space_group_name_H-M "C C"
_symmetry_group_IT_number 9
_symmetry_cell_setting 'monoclinic'
loop_
_space_group_symop_operation_xyz
x,y,z
x,-y,1/2+z
1/2+x,1/2+y,z
1/2+x,1/2-y,1/2+z
loop_
_atom_site_type_symbol
_atom_site_label
_atom_site_fract_x
_atom_site_fract_y
_atom_site_fract_z
Si Si1 0.180170 0.059728 0.357550
Si Si2 0.641407 0.023623 0.900657
Si Si3 0.490064 0.681450 0.425195
Si Si4 0.528606 0.146530 0.063145
Si Si5 0.353680 0.030949 0.150788
Si Si6 0.261860 0.395157 0.159736
Si Si7 0.065096 0.118374 0.774494
Si Si8 0.192778 0.282666 0.890453
O O1 0.249745 0.071944 0.224781
O O2 0.066994 0.133227 0.322022
O O3 0.291405 0.051646 0.543823
O O4 0.110036 0.971749 0.335454
O O5 0.685611 0.068790 0.768626
O O6 0.490637 0.990394 0.802239
O O7 0.638806 0.085828 0.040227
O O8 0.747437 0.954764 0.004546
O O9 0.524297 0.777866 0.444876
O O10 0.553636 0.631283 0.591205
O O11 0.326103 0.683710 0.357300
O O12 0.387024 0.097565 0.031936
O O13 0.567363 0.177536 0.246999
O O14 0.414088 0.374230 0.278304
O O15 0.195566 0.310863 0.067573
O O16 0.171095 0.184911 0.887432
#
# Coordination Sequence:
#
# PCOD8055485 Si02
#       8
#     4   4   4   4   4   4   4   4
#     4  12  24  42  68 103 135 188 236 292 347 434
#     4  12  23  41  68 104 137 190 234 295 346 434
#     4  10  24  45  68  98 143 182 235 295 360 423
#     4  11  23  44  69  97 137 189 226 298 356 417
#     4  12  23  41  70  96 142 183 237 287 353 419
#     4  11  23  42  70 102 139 182 247 284 362 431
#     4  10  24  43  71  99 140 181 234 301 358 419
#     4  10  22  46  68  97 137 191 229 298 366 413
#
# _framework density 22.613627000000001
#
# number of rings (size 3 to 8) (size 9 to 14) (size 15 to 20)
#    0.000    1.000    5.000    0.750    5.250    0.000 
#    9.000    0.000    0.000    0.000    0.000    0.000 
#    0.000    0.000    0.000    0.000    0.000    0.000 
#
# Total GULP energy -198210.444116 kJ/mol
# GULP energy per Si atom -12388.152757 kJ/mol
# Density = 2.256216 g / cm^3
# Si number density = 22.613627 Si / 1000 Ang^3
#
#
#
# Elastic Constant Matrix: (Units=GPa)
#
#
# Indices 1 2 3 4 5 6 
#
# 1 105.9100 64.6861 31.1676 0.0000 -26.8614 0.0000
# 2 64.6861 128.9191 26.3013 0.0000 -4.0036 0.0000
# 3 31.1676 26.3013 53.5362 0.0000 -8.6851 0.0000
# 4 0.0000 0.0000 0.0000 35.0074 0.0000 2.5876
# 5 -26.8614 -4.0036 -8.6851 0.0000 29.4622 0.0000
# 6 0.0000 0.0000 0.0000 2.5876 0.0000 44.7492
#
#
#
# Elastic Compliance Matrix: (Units=1/GPa)
#
#
# Indices 1 2 3 4 5 6 
#
# 1 0.020151 -0.008613 -0.004946 0.000000 0.015744 0.000000
# 2 -0.008613 0.012302 -0.002134 0.000000 -0.006810 0.000000
# 3 -0.004946 -0.002134 0.022925 0.000000 0.001958 0.000000
# 4 0.000000 0.000000 0.000000 0.028688 0.000000 -0.001659
# 5 0.015744 -0.006810 0.001958 0.000000 0.047948 0.000000
# 6 0.000000 0.000000 0.000000 -0.001659 0.000000 0.022443
#
#
# Mechanical properties :
#
#
# Convention : Reuss Voigt Hill
#
# Bulk Modulus (GPa) = 41.68174 59.18616 50.43395
# Shear Modulus (GPa) = 25.79441 32.92443 29.35942
#
# Velocity S-wave (km/s) = 3.38103 3.81984 3.60711
# Velocity P-wave (km/s) = 5.80637 6.75903 6.30073
#
# Compressibility (1/GPa) = 0.02399132
#
# Stress axis : x y z
#
# Youngs Moduli (GPa) = 49.62537 81.28515 43.62099
#
# Poissons Ratio (x) = 0.70010 0.21575
# Poissons Ratio (y) = 0.42742 0.09311
# Poissons Ratio (z) = 0.24545 0.17350
#
# Static dielectric constant tensor:
#      x y z
#    x 4.123180 0.000000 0.177050 
#    y 0.000000 4.275170 0.000000 
#    z 0.177050 0.000000 4.034090 
# 
# 
# High freq. dielectric constant tensor:
#      x y z
#    x 1.887790 0.000000 0.010780 
#    y 0.000000 1.895900 0.000000 
#    z 0.010780 0.000000 1.882150 
# 
# From -- ./inp_files/7502.got.cif
#   From: 2010.06.25/outbox.cif.g09.slc.cpg/sg9_4_cif.got.tgz:7502.got - 2010.06.27 21:40:51.
