data_PCOD8055820
_publ_section_title
;
Structure prediction by ZEFSAII (Michael W. Deem and Ramdas Pophale) SiO2 
 PCOD8055820
Probable space group: C C
;
_chemical_formula_sum "Si O2"
_cell_formula_units_Z 32
_cell_length_a 28.455780
_cell_length_b 5.282924
_cell_length_c 8.880799
_cell_angle_alpha 90.000000
_cell_angle_beta 101.706533
_cell_angle_gamma 90.000000
_cell_volume 1307.278630
_symmetry_space_group_name_H-M "C C"
_symmetry_group_IT_number 9
_symmetry_cell_setting 'monoclinic'
loop_
_space_group_symop_operation_xyz
x,y,z
x,-y,1/2+z
1/2+x,1/2+y,z
1/2+x,1/2-y,1/2+z
loop_
_atom_site_type_symbol
_atom_site_label
_atom_site_fract_x
_atom_site_fract_y
_atom_site_fract_z
Si Si1 0.609500 0.827193 0.449390
Si Si2 0.748337 0.686375 0.190456
Si Si3 0.287620 0.499553 0.475944
Si Si4 0.440591 0.813783 0.324597
Si Si5 0.991946 0.004419 0.108887
Si Si6 0.021660 0.663900 0.376589
Si Si7 0.330829 0.193974 0.742456
Si Si8 0.140916 0.164230 0.137789
O O1 0.630032 0.742263 0.301917
O O2 0.611399 0.582518 0.560738
O O3 0.553745 0.909387 0.392609
O O4 0.634088 0.085284 0.529345
O O5 0.760560 0.788081 0.363138
O O6 0.792498 0.513981 0.164860
O O7 0.695850 0.562876 0.164492
O O8 0.745942 0.899339 0.059527
O O9 0.330810 0.398312 0.608656
O O10 0.311995 0.708141 0.388958
O O11 0.454608 0.663563 0.183650
O O12 0.457793 0.663179 0.482215
O O13 0.385139 0.894638 0.297352
O O14 0.466057 0.085297 0.337672
O O15 0.029057 0.840081 0.234770
O O16 0.028809 0.180583 0.036559
#
# Coordination Sequence:
#
# PCOD8055820 Si02
#       8
#     4   4   4   4   4   4   4   4
#     4  12  31  53  83 117 158 209 269 329 406 474
#     4  11  25  44  74 101 148 191 251 316 381 463
#     4  10  24  42  69 102 144 194 249 304 390 450
#     4  11  24  43  72 106 149 198 252 315 389 469
#     4  10  25  46  73 103 154 197 256 312 397 457
#     4  11  27  46  76 107 150 200 256 323 390 477
#     4  11  24  42  70 107 148 195 253 312 388 465
#     4  12  30  52  83 117 159 206 270 333 405 473
#
# _framework density 24.478334
#
# number of rings (size 3 to 8) (size 9 to 14) (size 15 to 20)
#    0.000    1.000    0.000    3.750   14.000    8.000 
#    0.000    0.000    0.000    0.000    0.000    0.000 
#    0.000    0.000    0.000    0.000    0.000    0.000 
#
# Total GULP energy -198355.311127 kJ/mol
# GULP energy per Si atom -12397.206945 kJ/mol
# Density = 2.442262 g / cm^3
# Si number density = 24.478334 Si / 1000 Ang^3
#
#
#
# Elastic Constant Matrix: (Units=GPa)
#
#
# Indices 1 2 3 4 5 6 
#
# 1 124.0711 43.3028 44.0625 0.0000 13.9503 0.0000
# 2 43.3028 128.2285 52.5352 0.0000 -4.3937 0.0000
# 3 44.0625 52.5352 145.6676 0.0000 -24.1663 0.0000
# 4 0.0000 0.0000 0.0000 242.8433 0.0000 -87.0816
# 5 13.9503 -4.3937 -24.1663 0.0000 23.4156 0.0000
# 6 0.0000 0.0000 0.0000 -87.0816 0.0000 79.3281
#
#
#
# Elastic Compliance Matrix: (Units=1/GPa)
#
#
# Indices 1 2 3 4 5 6 
#
# 1 0.012091 -0.002531 -0.004849 0.000000 -0.012683 0.000000
# 2 -0.002531 0.009762 -0.002656 0.000000 0.000599 0.000000
# 3 -0.004849 -0.002656 0.011687 0.000000 0.014452 0.000000
# 4 0.000000 0.000000 0.000000 0.006791 0.000000 0.007455
# 5 -0.012683 0.000599 0.014452 0.000000 0.065290 0.000000
# 6 0.000000 0.000000 0.000000 0.007455 0.000000 0.020789
#
#
# Mechanical properties :
#
#
# Convention : Reuss Voigt Hill
#
# Bulk Modulus (GPa) = 74.24371 75.30757 74.77564
# Shear Modulus (GPa) = 33.11885 86.32185 59.72035
#
# Velocity S-wave (km/s) = 3.68229 5.94484 4.94471
# Velocity P-wave (km/s) = 6.96241 8.82912 7.95074
#
# Compressibility (1/GPa) = 0.01346915
#
# Stress axis : x y z
#
# Youngs Moduli (GPa) = 82.70410 102.43889 85.56616
#
# Poissons Ratio (x) = 0.25931 0.41487
# Poissons Ratio (y) = 0.20935 0.22723
# Poissons Ratio (z) = 0.40100 0.27203
#
# Static dielectric constant tensor:
#      x y z
#    x 4.275550 0.000000 -0.040030 
#    y 0.000000 3.881830 0.000000 
#    z -0.040030 0.000000 4.644760 
# 
# 
# High freq. dielectric constant tensor:
#      x y z
#    x 1.967890 0.000000 -0.007110 
#    y 0.000000 1.976730 0.000000 
#    z -0.007110 0.000000 1.998030 
# 
# From -- ./inp_files/12569.got.cif
#   From: 2010.06.25/outbox.cif.g09.slc.cpg/sg9_7_cif.got.tgz:12569.got - 2010.06.27 21:40:51.
