data_PCOD8055841
_publ_section_title
;
Structure prediction by ZEFSAII (Michael W. Deem and Ramdas Pophale) SiO2 
 PCOD8055841
Probable space group: C C
;
_chemical_formula_sum "Si O2"
_cell_formula_units_Z 32
_cell_length_a 9.600157
_cell_length_b 29.009228
_cell_length_c 4.994912
_cell_angle_alpha 90.000000
_cell_angle_beta 62.761879
_cell_angle_gamma 90.000000
_cell_volume 1236.798203
_symmetry_space_group_name_H-M "C C"
_symmetry_group_IT_number 9
_symmetry_cell_setting 'monoclinic'
loop_
_space_group_symop_operation_xyz
x,y,z
x,-y,1/2+z
1/2+x,1/2+y,z
1/2+x,1/2-y,1/2+z
loop_
_atom_site_type_symbol
_atom_site_label
_atom_site_fract_x
_atom_site_fract_y
_atom_site_fract_z
Si Si1 0.153940 0.183137 0.631550
Si Si2 0.731179 0.603301 0.173786
Si Si3 0.437966 0.970457 0.765666
Si Si4 0.793371 0.969678 0.397522
Si Si5 0.951728 0.107122 0.072226
Si Si6 0.397090 0.183159 0.837778
Si Si7 0.747732 0.814544 0.836552
Si Si8 0.377780 0.734046 0.711138
O O1 0.187917 0.149323 0.361811
O O2 0.297409 0.204028 0.678781
O O3 0.060816 0.228743 0.622764
O O4 0.039171 0.153580 0.916955
O O5 0.807488 0.566769 0.307085
O O6 0.573908 0.582353 0.172104
O O7 0.862759 0.627194 0.865258
O O8 0.614619 0.951559 0.577951
O O9 0.410879 0.014732 0.596536
O O10 0.913748 0.928933 0.366589
O O11 0.822283 0.986494 0.069036
O O12 0.787647 0.129562 0.316460
O O13 0.574457 0.191882 0.604376
O O14 0.350255 0.211008 0.161242
O O15 0.765040 0.791290 0.526935
O O16 0.864826 0.790399 0.936888
#
# Coordination Sequence:
#
# PCOD8055841 Si02
#       8
#     4   4   4   4   4   4   4   4
#     4  10  25  49  69 107 151 193 245 317 370 447
#     4  11  25  46  74 108 153 196 249 311 380 446
#     4  10  25  46  71 108 151 196 246 309 373 449
#     4  10  24  43  71 106 144 189 244 306 370 446
#     4  10  24  46  71 105 148 193 242 310 372 447
#     4  11  29  46  76 111 144 202 251 313 374 455
#     4  11  27  47  77 106 142 196 250 302 374 443
#     4  11  27  51  71 105 151 191 247 314 373 437
#
# _framework density 25.873259000000001
#
# number of rings (size 3 to 8) (size 9 to 14) (size 15 to 20)
#    0.000    1.500    1.250    0.000   12.250    4.000 
#    0.000    3.750    0.000    0.000    0.000    0.000 
#    0.000    0.000    0.000    0.000    0.000    0.000 
#
# Total GULP energy -198253.673041 kJ/mol
# GULP energy per Si atom -12390.854565 kJ/mol
# Density = 2.581437 g / cm^3
# Si number density = 25.873259 Si / 1000 Ang^3
#
#
#
# Elastic Constant Matrix: (Units=GPa)
#
#
# Indices 1 2 3 4 5 6 
#
# 1 176.0192 45.5039 18.4180 0.0000 4.0152 0.0000
# 2 45.5039 56.0788 2.1666 0.0000 -3.4613 0.0000
# 3 18.4180 2.1666 58.5660 0.0000 3.5171 0.0000
# 4 0.0000 0.0000 0.0000 -10.0994 0.0000 22.0829
# 5 4.0152 -3.4613 3.5171 0.0000 35.3761 0.0000
# 6 0.0000 0.0000 0.0000 22.0829 0.0000 48.6520
#
#
#
# Elastic Compliance Matrix: (Units=1/GPa)
#
#
# Indices 1 2 3 4 5 6 
#
# 1 0.007497 -0.006080 -0.002058 0.000000 -0.001241 0.000000
# 2 -0.006080 0.022906 0.000894 0.000000 0.002842 0.000000
# 3 -0.002058 0.000894 0.017776 0.000000 -0.001446 0.000000
# 4 0.000000 0.000000 0.000000 -0.049695 0.000000 0.022556
# 5 -0.001241 0.002842 -0.001446 0.000000 0.028830 0.000000
# 6 0.000000 0.000000 0.000000 0.022556 0.000000 0.010316
#
#
# Mechanical properties :
#
#
# Convention : Reuss Voigt Hill
#
# Bulk Modulus (GPa) = 29.68196 46.98232 38.33214
# Shear Modulus (GPa) = 78.92794 29.75743 54.34269
#
# Velocity S-wave (km/s) = 5.52918 3.39503 4.58792
# Velocity P-wave (km/s) = 7.22907 5.79365 6.55079
#
# Compressibility (1/GPa) = 0.03369050
#
# Stress axis : x y z
#
# Youngs Moduli (GPa) = 133.39265 43.65573 56.25633
#
# Poissons Ratio (x) = 0.26543 0.11578
# Poissons Ratio (y) = 0.81104 -0.05029
# Poissons Ratio (z) = 0.27454 -0.03903
#
# Static dielectric constant tensor:
#      x y z
#    x 5.260980 0.000000 -0.179710 
#    y 0.000000 4.655760 0.000000 
#    z -0.179710 0.000000 5.104680 
# 
# 
# High freq. dielectric constant tensor:
#      x y z
#    x 2.055620 0.000000 0.004520 
#    y 0.000000 2.028300 0.000000 
#    z 0.004520 0.000000 2.039660 
# 
# From -- ./inp_files/1364.got.cif
#   From: 2010.06.25/outbox.cif.g09.slc.cpg/sg9_1_cif.got.tgz:1364.got - 2010.06.27 21:40:51.
