data_PCOD8055886
_publ_section_title
;
Structure prediction by ZEFSAII (Michael W. Deem and Ramdas Pophale) SiO2 
 PCOD8055886
Probable space group: C C
;
_chemical_formula_sum "Si O2"
_cell_formula_units_Z 28
_cell_length_a 12.713155
_cell_length_b 6.589850
_cell_length_c 15.594939
_cell_angle_alpha 90.000000
_cell_angle_beta 77.959604
_cell_angle_gamma 90.000000
_cell_volume 1277.767238
_symmetry_space_group_name_H-M "C C"
_symmetry_group_IT_number 9
_symmetry_cell_setting 'monoclinic'
loop_
_space_group_symop_operation_xyz
x,y,z
x,-y,1/2+z
1/2+x,1/2+y,z
1/2+x,1/2-y,1/2+z
loop_
_atom_site_type_symbol
_atom_site_label
_atom_site_fract_x
_atom_site_fract_y
_atom_site_fract_z
Si Si1 0.882970 0.052911 0.199880
Si Si2 0.681874 0.815363 0.842062
Si Si3 0.514007 0.912897 0.436637
Si Si4 0.064396 0.917524 0.808042
Si Si5 0.740443 0.722115 0.160000
Si Si6 0.842360 0.658217 0.563197
Si Si7 0.200174 0.503074 0.512584
O O1 0.772535 0.144527 0.256482
O O2 0.915235 0.213163 0.118986
O O3 0.980076 0.016743 0.248984
O O4 0.852839 0.830722 0.167663
O O5 0.631594 0.594142 0.841298
O O6 0.736982 0.855211 0.925970
O O7 0.577127 0.959995 0.852483
O O8 0.496182 0.694465 0.394952
O O9 0.405294 0.021622 0.483618
O O10 0.586458 0.894940 0.510210
O O11 0.156213 0.774379 0.752083
O O12 0.762274 0.490980 0.127787
O O13 0.684396 0.850978 0.095277
O O14 0.781963 0.821678 0.515506
#
# Coordination Sequence:
#
# PCOD8055886 Si02
#       7
#     4   4   4   4   4   4   4
#     4  11  25  45  68 101 139 178 233 285 338 416
#     4  10  24  45  65 101 138 177 230 281 341 416
#     4  10  25  41  66 103 136 173 233 280 344 410
#     4  12  25  43  72  98 140 185 226 283 354 403
#     4  11  23  45  67 100 135 180 232 282 344 413
#     4  11  24  44  71 101 134 185 229 285 351 401
#     4   9  24  41  67  92 142 170 233 282 336 407
#
# _framework density 21.913226000000002
#
# number of rings (size 3 to 8) (size 9 to 14) (size 15 to 20)
#    0.857    0.571    2.857    0.857    6.000    3.429 
#    0.000    0.000    0.000    0.000    0.000    0.000 
#    0.000    0.000    0.000    0.000    0.000    0.000 
#
# Total GULP energy -173472.587784 kJ/mol
# GULP energy per Si atom -12390.899127 kJ/mol
# Density = 2.186335 g / cm^3
# Si number density = 21.913226 Si / 1000 Ang^3
#
#
#
# Elastic Constant Matrix: (Units=GPa)
#
#
# Indices 1 2 3 4 5 6 
#
# 1 72.5837 43.8531 29.8410 0.0000 13.4262 0.0000
# 2 43.8531 113.7758 65.8281 0.0000 17.3976 0.0000
# 3 29.8410 65.8281 84.9730 0.0000 13.1252 0.0000
# 4 0.0000 0.0000 0.0000 40.8680 0.0000 2.4319
# 5 13.4262 17.3976 13.1252 0.0000 46.1519 0.0000
# 6 0.0000 0.0000 0.0000 2.4319 0.0000 29.0511
#
#
#
# Elastic Compliance Matrix: (Units=1/GPa)
#
#
# Indices 1 2 3 4 5 6 
#
# 1 0.018416 -0.005768 -0.001577 0.000000 -0.002735 0.000000
# 2 -0.005768 0.018042 -0.011673 0.000000 -0.001804 0.000000
# 3 -0.001577 -0.011673 0.021562 0.000000 -0.001273 0.000000
# 4 0.000000 0.000000 0.000000 0.024592 0.000000 -0.002059
# 5 -0.002735 -0.001804 -0.001273 0.000000 0.023505 0.000000
# 6 0.000000 0.000000 0.000000 -0.002059 0.000000 0.034594
#
#
# Mechanical properties :
#
#
# Convention : Reuss Voigt Hill
#
# Bulk Modulus (GPa) = 50.03755 61.15299 55.59527
# Shear Modulus (GPa) = 26.96784 32.00153 29.48469
#
# Velocity S-wave (km/s) = 3.51189 3.82563 3.67211
# Velocity P-wave (km/s) = 6.27124 6.89068 6.58824
#
# Compressibility (1/GPa) = 0.01998499
#
# Stress axis : x y z
#
# Youngs Moduli (GPa) = 54.30056 55.42750 46.37893
#
# Poissons Ratio (x) = 0.31969 0.07313
# Poissons Ratio (y) = 0.31319 0.54136
# Poissons Ratio (z) = 0.08562 0.64698
#
# Static dielectric constant tensor:
#      x y z
#    x 3.650370 0.000000 0.049110 
#    y 0.000000 3.964390 0.000000 
#    z 0.049110 0.000000 3.917760 
# 
# 
# High freq. dielectric constant tensor:
#      x y z
#    x 1.846370 0.000000 0.001040 
#    y 0.000000 1.867070 0.000000 
#    z 0.001040 0.000000 1.866260 
# 
# From -- ./inp_files/25231.got.cif
#   From: 2010.06.25/outbox.cif.g09.slc.cpg/sg9_13_cif.got.tgz:25231.got - 2010.06.27 21:40:51.
