data_PCOD8055451
_publ_section_title
;
Structure prediction by ZEFSAII (Michael W. Deem and Ramdas Pophale) SiO2 
 PCOD8055451
Probable space group: C C
;
_chemical_formula_sum "Si O2"
_cell_formula_units_Z 32
_cell_length_a 8.789760
_cell_length_b 16.209143
_cell_length_c 10.672666
_cell_angle_alpha 90.000000
_cell_angle_beta 84.928098
_cell_angle_gamma 90.000000
_cell_volume 1514.628724
_symmetry_space_group_name_H-M "C C"
_symmetry_group_IT_number 9
_symmetry_cell_setting 'monoclinic'
loop_
_space_group_symop_operation_xyz
x,y,z
x,-y,1/2+z
1/2+x,1/2+y,z
1/2+x,1/2-y,1/2+z
loop_
_atom_site_type_symbol
_atom_site_label
_atom_site_fract_x
_atom_site_fract_y
_atom_site_fract_z
Si Si1 0.376410 0.137086 0.300810
Si Si2 0.333195 0.432275 0.446601
Si Si3 0.994526 0.586531 0.052088
Si Si4 0.517254 0.264646 0.459883
Si Si5 0.467132 0.485338 0.692179
Si Si6 0.564182 0.697569 0.232086
Si Si7 0.803007 0.528437 0.705694
Si Si8 0.337509 0.816954 0.359460
O O1 0.509406 0.136374 0.183256
O O2 0.441161 0.178289 0.421747
O O3 0.236896 0.194434 0.266111
O O4 0.317590 0.041463 0.317126
O O5 0.150993 0.421909 0.466376
O O6 0.407306 0.342263 0.444773
O O7 0.387162 0.489155 0.560374
O O8 0.366411 0.473663 0.309667
O O9 0.918609 0.496874 0.085351
O O10 0.864602 0.635228 0.986025
O O11 0.557442 0.253881 0.601641
O O12 0.670132 0.277924 0.368978
O O13 0.488138 0.390988 0.725841
O O14 0.628986 0.531468 0.669411
O O15 0.465362 0.747312 0.339675
O O16 0.851448 0.618260 0.745513
#
# Coordination Sequence:
#
# PCOD8055451 Si02
#       8
#     4   4   4   4   4   4   4   4
#     4   9  21  44  63  93 130 165 209 273 318 378
#     4  11  23  41  68  97 134 171 220 272 326 390
#     4  10  23  42  67  91 135 166 215 271 319 388
#     4  11  22  42  68  94 131 169 219 263 326 386
#     4  10  22  45  64  97 134 173 214 276 326 386
#     4  10  23  43  62  94 133 170 212 269 325 386
#     4   9  22  42  67  91 130 171 217 261 328 386
#     4  12  22  43  69  93 127 175 210 265 324 386
#
# _framework density 21.127291
#
# number of rings (size 3 to 8) (size 9 to 14) (size 15 to 20)
#    0.750    1.000    2.500    1.500    5.250    1.000 
#    6.750    0.000    0.000    0.000    0.000    0.000 
#    0.000    0.000    0.000    0.000    0.000    0.000 
#
# Total GULP energy -198297.833196 kJ/mol
# GULP energy per Si atom -12393.614575 kJ/mol
# Density = 2.107920 g / cm^3
# Si number density = 21.127291 Si / 1000 Ang^3
#
#
#
# Elastic Constant Matrix: (Units=GPa)
#
#
# Indices 1 2 3 4 5 6 
#
# 1 102.1318 8.7020 12.5333 0.0000 -22.2367 0.0000
# 2 8.7020 27.8198 -5.9982 0.0000 -4.2238 0.0000
# 3 12.5333 -5.9982 47.9754 0.0000 -12.6921 0.0000
# 4 0.0000 0.0000 0.0000 39.4816 0.0000 -6.4918
# 5 -22.2367 -4.2238 -12.6921 0.0000 39.2053 0.0000
# 6 0.0000 0.0000 0.0000 -6.4918 0.0000 28.8735
#
#
#
# Elastic Compliance Matrix: (Units=1/GPa)
#
#
# Indices 1 2 3 4 5 6 
#
# 1 0.011509 -0.003172 -0.001932 0.000000 0.005561 0.000000
# 2 -0.003172 0.039148 0.006959 0.000000 0.004671 0.000000
# 3 -0.001932 0.006959 0.024200 0.000000 0.007488 0.000000
# 4 0.000000 0.000000 0.000000 0.026301 0.000000 0.005913
# 5 0.005561 0.004671 0.007488 0.000000 0.031588 0.000000
# 6 0.000000 0.000000 0.000000 0.005913 0.000000 0.035963
#
#
# Mechanical properties :
#
#
# Convention : Reuss Voigt Hill
#
# Bulk Modulus (GPa) = 12.72824 23.15567 17.94196
# Shear Modulus (GPa) = 26.15216 32.35808 29.25512
#
# Velocity S-wave (km/s) = 3.52211 3.91778 3.72520
# Velocity P-wave (km/s) = 4.75163 5.60796 5.19746
#
# Compressibility (1/GPa) = 0.07856545
#
# Stress axis : x y z
#
# Youngs Moduli (GPa) = 86.88554 25.54436 41.32247
#
# Poissons Ratio (x) = 0.08104 0.07985
# Poissons Ratio (y) = 0.27564 -0.28757
# Poissons Ratio (z) = 0.16789 -0.17777
#
# Static dielectric constant tensor:
#      x y z
#    x 3.734010 0.000000 0.051730 
#    y 0.000000 3.634280 0.000000 
#    z 0.051730 0.000000 3.735890 
# 
# 
# High freq. dielectric constant tensor:
#      x y z
#    x 1.830790 0.000000 -0.003410 
#    y 0.000000 1.816820 0.000000 
#    z -0.003410 0.000000 1.822560 
# 
# From -- ./inp_files/15057.got.cif
#   From: 2010.06.25/outbox.cif.g09.slc.cpg/sg9_8_cif.got.tgz:15057.got - 2010.06.27 21:40:51.
