data_PCOD8055137
_publ_section_title
;
Structure prediction by ZEFSAII (Michael W. Deem and Ramdas Pophale) SiO2 
 PCOD8055137
Probable space group: C C
;
_chemical_formula_sum "Si O2"
_cell_formula_units_Z 28
_cell_length_a 9.098910
_cell_length_b 23.739406
_cell_length_c 7.939752
_cell_angle_alpha 90.000000
_cell_angle_beta 50.104777
_cell_angle_gamma 90.000000
_cell_volume 1315.786101
_symmetry_space_group_name_H-M "C C"
_symmetry_group_IT_number 9
_symmetry_cell_setting 'monoclinic'
loop_
_space_group_symop_operation_xyz
x,y,z
x,-y,1/2+z
1/2+x,1/2+y,z
1/2+x,1/2-y,1/2+z
loop_
_atom_site_type_symbol
_atom_site_label
_atom_site_fract_x
_atom_site_fract_y
_atom_site_fract_z
Si Si1 0.799330 0.636618 0.073720
Si Si2 0.386221 0.660158 0.440995
Si Si3 0.272455 0.168398 0.725660
Si Si4 0.201058 0.342448 0.422169
Si Si5 0.154318 0.290044 0.802335
Si Si6 0.045891 0.951375 0.868721
Si Si7 0.511524 0.572430 0.764416
O O1 0.615548 0.674033 0.271543
O O2 0.976132 0.647422 0.065848
O O3 0.862798 0.653673 0.840062
O O4 0.733286 0.570410 0.126805
O O5 0.296550 0.685859 0.339599
O O6 0.368024 0.591157 0.452649
O O7 0.294578 0.684050 0.682371
O O8 0.135822 0.222990 0.840469
O O9 0.447644 0.181203 0.472584
O O10 0.149288 0.115982 0.755685
O O11 0.233693 0.301201 0.556291
O O12 0.301040 0.401630 0.394538
O O13 0.987245 0.015627 0.888699
O O14 0.105195 0.943322 0.018867
#
# Coordination Sequence:
#
# PCOD8055137 Si02
#       7
#     4   4   4   4   4   4   4
#     4  10  21  46  68 100 140 178 235 285 350 419
#     4   9  22  46  67 101 138 183 227 287 350 420
#     4  12  25  45  70 101 145 187 240 293 355 425
#     4  11  23  44  70 102 140 179 238 283 354 420
#     4  12  25  46  70 104 140 193 235 295 355 416
#     4   9  22  41  70  98 141 180 231 289 355 407
#     4  11  22  44  69 102 142 184 234 294 351 423
#
# _framework density 21.280052999999999
#
# number of rings (size 3 to 8) (size 9 to 14) (size 15 to 20)
#    0.857    0.571    1.429    4.286    2.000    0.000 
#   12.857    1.429    0.000    0.000    0.000    0.000 
#    0.000    0.000    0.000    0.000    0.000    0.000 
#
# Total GULP energy -173501.629351 kJ/mol
# GULP energy per Si atom -12392.973525 kJ/mol
# Density = 2.123162 g / cm^3
# Si number density = 21.280053 Si / 1000 Ang^3
#
#
#
# Elastic Constant Matrix: (Units=GPa)
#
#
# Indices 1 2 3 4 5 6 
#
# 1 117.5547 40.4006 54.3056 0.0000 11.9519 0.0000
# 2 40.4006 111.2395 32.2131 0.0000 23.3310 0.0000
# 3 54.3056 32.2131 104.8197 0.0000 8.6578 0.0000
# 4 0.0000 0.0000 0.0000 28.2679 0.0000 0.8616
# 5 11.9519 23.3310 8.6578 0.0000 40.5159 0.0000
# 6 0.0000 0.0000 0.0000 0.8616 0.0000 24.2691
#
#
#
# Elastic Compliance Matrix: (Units=1/GPa)
#
#
# Indices 1 2 3 4 5 6 
#
# 1 0.011951 -0.002616 -0.005315 0.000000 -0.000883 0.000000
# 2 -0.002616 0.011610 -0.001755 0.000000 -0.005539 0.000000
# 3 -0.005315 -0.001755 0.012847 0.000000 -0.000167 0.000000
# 4 0.000000 0.000000 0.000000 0.035414 0.000000 -0.001257
# 5 -0.000883 -0.005539 -0.000167 0.000000 0.028167 0.000000
# 6 0.000000 0.000000 0.000000 -0.001257 0.000000 0.041249
#
#
# Mechanical properties :
#
#
# Convention : Reuss Voigt Hill
#
# Bulk Modulus (GPa) = 58.70027 65.27249 61.98638
# Shear Modulus (GPa) = 30.06839 32.39021 31.22930
#
# Velocity S-wave (km/s) = 3.76305 3.90563 3.83500
# Velocity P-wave (km/s) = 6.82094 7.14691 6.98583
#
# Compressibility (1/GPa) = 0.01703570
#
# Stress axis : x y z
#
# Youngs Moduli (GPa) = 83.67741 86.13560 77.84088
#
# Poissons Ratio (x) = 0.22533 0.41369
# Poissons Ratio (y) = 0.21890 0.13661
# Poissons Ratio (z) = 0.44471 0.15117
#
# Static dielectric constant tensor:
#      x y z
#    x 3.727780 0.000000 0.137260 
#    y 0.000000 3.775350 0.000000 
#    z 0.137260 0.000000 3.909550 
# 
# 
# High freq. dielectric constant tensor:
#      x y z
#    x 1.838370 0.000000 0.012870 
#    y 0.000000 1.817110 0.000000 
#    z 0.012870 0.000000 1.840280 
# 
# From -- ./inp_files/5869.got.cif
#   From: 2010.06.25/outbox.cif.g09.slc.cpg/sg9_3_cif.got.tgz:5869.got - 2010.06.27 21:40:51.
