data_PCOD8055119
_publ_section_title
;
Structure prediction by ZEFSAII (Michael W. Deem and Ramdas Pophale) SiO2 
 PCOD8055119
Probable space group: C C
;
_chemical_formula_sum "Si O2"
_cell_formula_units_Z 28
_cell_length_a 9.476361
_cell_length_b 10.577561
_cell_length_c 13.309530
_cell_angle_alpha 90.000000
_cell_angle_beta 111.789018
_cell_angle_gamma 90.000000
_cell_volume 1238.792076
_symmetry_space_group_name_H-M "C C"
_symmetry_group_IT_number 9
_symmetry_cell_setting 'monoclinic'
loop_
_space_group_symop_operation_xyz
x,y,z
x,-y,1/2+z
1/2+x,1/2+y,z
1/2+x,1/2-y,1/2+z
loop_
_atom_site_type_symbol
_atom_site_label
_atom_site_fract_x
_atom_site_fract_y
_atom_site_fract_z
Si Si1 0.244200 0.554989 0.618140
Si Si2 0.868093 0.577879 0.820195
Si Si3 0.900662 0.842242 0.554910
Si Si4 0.702590 0.058354 0.828740
Si Si5 0.863985 0.827044 0.954054
Si Si6 0.404040 0.060509 0.513333
Si Si7 0.154148 0.977852 0.088633
O O1 0.340018 0.424999 0.632308
O O2 0.257567 0.607750 0.734276
O O3 0.296162 0.661370 0.550589
O O4 0.073127 0.505690 0.557103
O O5 0.865294 0.689738 0.903497
O O6 0.854393 0.448656 0.882937
O O7 0.722333 0.582961 0.708960
O O8 0.021672 0.577072 0.794490
O O9 0.792052 0.858046 0.431190
O O10 0.903639 0.694010 0.571864
O O11 0.072000 0.888612 0.583492
O O12 0.754251 0.912916 0.855800
O O13 0.037411 0.878543 0.006112
O O14 0.287788 0.979609 0.548905
#
# Coordination Sequence:
#
# PCOD8055119 Si02
#       7
#     4   4   4   4   4   4   4
#     4  10  22  44  69  97 137 188 225 282 357 409
#     4  12  24  44  72 108 137 188 239 283 358 415
#     4  10  25  46  63 102 141 174 232 293 343 414
#     4  10  21  44  73  96 137 192 226 283 363 410
#     4  10  25  46  69 106 145 178 233 303 341 416
#     4  12  24  42  69  98 140 178 233 292 339 419
#     4  10  25  44  69 105 135 182 236 288 343 417
#
# _framework density 22.602661999999999
#
# number of rings (size 3 to 8) (size 9 to 14) (size 15 to 20)
#    0.000    1.714    4.286    0.857    4.000    5.714 
#    0.000    0.000    0.000    0.000    0.000    0.000 
#    0.000    0.000    0.000    0.000    0.000    0.000 
#
# Total GULP energy -173451.397984 kJ/mol
# GULP energy per Si atom -12389.385570 kJ/mol
# Density = 2.255122 g / cm^3
# Si number density = 22.602662 Si / 1000 Ang^3
#
#
#
# Elastic Constant Matrix: (Units=GPa)
#
#
# Indices 1 2 3 4 5 6 
#
# 1 148.6939 23.8231 24.0029 0.0000 -0.6187 0.0000
# 2 23.8231 66.0405 3.9768 0.0000 3.6056 0.0000
# 3 24.0029 3.9768 85.9856 0.0000 0.6449 0.0000
# 4 0.0000 0.0000 0.0000 19.5613 0.0000 1.2483
# 5 -0.6187 3.6056 0.6449 0.0000 48.7590 0.0000
# 6 0.0000 0.0000 0.0000 1.2483 0.0000 16.9307
#
#
#
# Elastic Compliance Matrix: (Units=1/GPa)
#
#
# Indices 1 2 3 4 5 6 
#
# 1 0.007459 -0.002589 -0.001965 0.000000 0.000312 0.000000
# 2 -0.002589 0.016144 -0.000015 0.000000 -0.001226 0.000000
# 3 -0.001965 -0.000015 0.012180 0.000000 -0.000185 0.000000
# 4 0.000000 0.000000 0.000000 0.051363 0.000000 -0.003787
# 5 0.000312 -0.001226 -0.000185 0.000000 0.020606 0.000000
# 6 0.000000 0.000000 0.000000 -0.003787 0.000000 0.059343
#
#
# Mechanical properties :
#
#
# Convention : Reuss Voigt Hill
#
# Bulk Modulus (GPa) = 37.52935 44.92507 41.22721
# Shear Modulus (GPa) = 27.01029 33.64468 30.32749
#
# Velocity S-wave (km/s) = 3.46063 3.86233 3.66699
# Velocity P-wave (km/s) = 5.71034 6.30946 6.01736
#
# Compressibility (1/GPa) = 0.02664581
#
# Stress axis : x y z
#
# Youngs Moduli (GPa) = 134.07508 61.94209 82.09947
#
# Poissons Ratio (x) = 0.16038 0.16130
# Poissons Ratio (y) = 0.34716 0.00120
# Poissons Ratio (z) = 0.26341 0.00091
#
# Static dielectric constant tensor:
#      x y z
#    x 4.350010 0.000000 -0.012780 
#    y 0.000000 3.811950 0.000000 
#    z -0.012780 0.000000 4.089160 
# 
# 
# High freq. dielectric constant tensor:
#      x y z
#    x 1.911030 0.000000 -0.000100 
#    y 0.000000 1.864700 0.000000 
#    z -0.000100 0.000000 1.894870 
# 
# From -- ./inp_files/22644.got.cif
#   From: 2010.06.25/outbox.cif.g09.slc.cpg/sg9_12_cif.got.tgz:22644.got - 2010.06.27 21:40:51.
