data_PCOD8055020
_publ_section_title
;
Structure prediction by ZEFSAII (Michael W. Deem and Ramdas Pophale) SiO2 
 PCOD8055020
Probable space group: C C
;
_chemical_formula_sum "Si O2"
_cell_formula_units_Z 28
_cell_length_a 15.303128
_cell_length_b 16.764280
_cell_length_c 9.159255
_cell_angle_alpha 90.000000
_cell_angle_beta 34.675156
_cell_angle_gamma 90.000000
_cell_volume 1336.837881
_symmetry_space_group_name_H-M "C C"
_symmetry_group_IT_number 9
_symmetry_cell_setting 'monoclinic'
loop_
_space_group_symop_operation_xyz
x,y,z
x,-y,1/2+z
1/2+x,1/2+y,z
1/2+x,1/2-y,1/2+z
loop_
_atom_site_type_symbol
_atom_site_label
_atom_site_fract_x
_atom_site_fract_y
_atom_site_fract_z
Si Si1 0.339730 0.283434 0.439860
Si Si2 0.792719 0.049912 0.131690
Si Si3 0.101077 0.504281 0.660234
Si Si4 0.837524 0.390159 0.457323
Si Si5 0.174769 0.820623 0.937338
Si Si6 0.873914 0.629582 0.575477
Si Si7 0.144731 0.044951 0.703149
O O1 0.262992 0.357554 0.630458
O O2 0.229488 0.252228 0.463472
O O3 0.380102 0.218159 0.504835
O O4 0.495902 0.311385 0.147231
O O5 0.758375 0.994258 0.038084
O O6 0.657330 0.016244 0.418947
O O7 0.961109 0.038057 0.966187
O O8 0.981605 0.576119 0.852630
O O9 0.011741 0.421200 0.812601
O O10 0.764877 0.321378 0.659249
O O11 0.890314 0.358695 0.226911
O O12 0.710898 0.457140 0.599124
O O13 0.199167 0.905022 0.986462
O O14 0.710505 0.588850 0.757233
#
# Coordination Sequence:
#
# PCOD8055020 Si02
#       7
#     4   4   4   4   4   4   4
#     4  10  23  45  62  90 129 174 210 268 329 395
#     4  11  24  40  65  99 128 165 219 273 326 372
#     4  11  23  40  66  97 128 167 219 278 312 392
#     4  11  22  40  63  96 120 171 216 263 323 397
#     4  10  22  41  66  86 127 169 212 263 331 389
#     4  10  21  42  67  88 130 174 212 259 334 402
#     4   9  21  38  65  92 126 162 212 266 323 381
#
# _framework density 20.944948
#
# number of rings (size 3 to 8) (size 9 to 14) (size 15 to 20)
#    0.000    1.714    1.429    2.571   10.000    0.000 
#    2.571    0.000    0.000    0.000    0.000    0.000 
#    0.000    0.000    0.000    0.000    0.000    0.000 
#
# Total GULP energy -173528.112061 kJ/mol
# GULP energy per Si atom -12394.865147 kJ/mol
# Density = 2.089728 g / cm^3
# Si number density = 20.944948 Si / 1000 Ang^3
#
#
#
# Elastic Constant Matrix: (Units=GPa)
#
#
# Indices 1 2 3 4 5 6 
#
# 1 95.3965 31.4237 46.9413 0.0005 -10.4772 -0.0007
# 2 31.4237 64.3035 46.6910 0.0000 8.6551 -0.0002
# 3 46.9413 46.6910 110.5785 0.0011 10.8519 -0.0008
# 4 0.0005 0.0000 0.0011 27.5323 -0.0010 -3.1544
# 5 -10.4772 8.6551 10.8519 -0.0010 38.7167 0.0007
# 6 -0.0007 -0.0002 -0.0008 -3.1544 0.0007 21.5517
#
#
#
# Elastic Compliance Matrix: (Units=1/GPa)
#
#
# Indices 1 2 3 4 5 6 
#
# 1 0.015277 -0.004580 -0.005201 0.000000 0.006616 0.000000
# 2 -0.004580 0.024024 -0.007765 0.000000 -0.004433 0.000000
# 3 -0.005201 -0.007765 0.014907 -0.000001 -0.003850 0.000000
# 4 0.000000 0.000000 -0.000001 0.036940 0.000001 0.005407
# 5 0.006616 -0.004433 -0.003850 0.000001 0.029689 -0.000001
# 6 0.000000 0.000000 0.000000 0.005407 -0.000001 0.047191
#
#
# Mechanical properties :
#
#
# Convention : Reuss Voigt Hill
#
# Bulk Modulus (GPa) = 52.30629 57.82117 55.06373
# Shear Modulus (GPa) = 23.86728 27.24164 25.55446
#
# Velocity S-wave (km/s) = 3.37935 3.61034 3.49675
# Velocity P-wave (km/s) = 6.34461 6.71160 6.53068
#
# Compressibility (1/GPa) = 0.01911816
#
# Stress axis : x y z
#
# Youngs Moduli (GPa) = 65.45918 41.62504 67.08051
#
# Poissons Ratio (x) = 0.19063 0.34886
# Poissons Ratio (y) = 0.29978 0.52086
# Poissons Ratio (z) = 0.34042 0.32321
#
# Static dielectric constant tensor:
#      x y z
#    x 3.967040 0.000000 -0.141840 
#    y 0.000000 3.638440 0.000000 
#    z -0.141840 0.000000 3.712370 
# 
# 
# High freq. dielectric constant tensor:
#      x y z
#    x 1.831760 0.000000 -0.012920 
#    y 0.000000 1.800740 0.000000 
#    z -0.012920 0.000000 1.816760 
# 
# From -- ./inp_files/7728.got.cif
#   From: 2010.06.25/outbox.cif.g09.slc.cpg/sg9_4_cif.got.tgz:7728.got - 2010.06.27 21:40:51.
