data_PCOD8055416
_publ_section_title
;
Structure prediction by ZEFSAII (Michael W. Deem and Ramdas Pophale) SiO2 
 PCOD8055416
Probable space group: C C
;
_chemical_formula_sum "Si O2"
_cell_formula_units_Z 32
_cell_length_a 5.551473
_cell_length_b 19.401352
_cell_length_c 12.253155
_cell_angle_alpha 90.000000
_cell_angle_beta 87.640062
_cell_angle_gamma 90.000000
_cell_volume 1318.619999
_symmetry_space_group_name_H-M "C C"
_symmetry_group_IT_number 9
_symmetry_cell_setting 'monoclinic'
loop_
_space_group_symop_operation_xyz
x,y,z
x,-y,1/2+z
1/2+x,1/2+y,z
1/2+x,1/2-y,1/2+z
loop_
_atom_site_type_symbol
_atom_site_label
_atom_site_fract_x
_atom_site_fract_y
_atom_site_fract_z
Si Si1 0.141090 0.949980 0.098310
Si Si2 0.980066 0.180355 0.504204
Si Si3 0.977140 0.258031 0.947159
Si Si4 0.547911 0.672133 0.151368
Si Si5 0.261680 0.547340 0.186060
Si Si6 0.329556 0.708098 0.733397
Si Si7 0.404648 0.926365 0.516092
Si Si8 0.005146 0.579443 0.768739
O O1 0.306689 0.905805 0.179007
O O2 0.979903 0.901535 0.024318
O O3 0.284421 0.998640 0.012589
O O4 0.985536 0.996844 0.180162
O O5 0.726615 0.199167 0.450703
O O6 0.986239 0.218708 0.621455
O O7 0.230995 0.197396 0.438425
O O8 0.000274 0.214569 0.835356
O O9 0.926340 0.207934 0.049203
O O10 0.359438 0.622802 0.223032
O O11 0.631192 0.730243 0.235687
O O12 0.766436 0.626786 0.097609
O O13 0.166093 0.561806 0.065204
O O14 0.071314 0.503558 0.263331
O O15 0.220514 0.631102 0.733491
O O16 0.421722 0.899113 0.391862
#
# Coordination Sequence:
#
# PCOD8055416 Si02
#       8
#     4   4   4   4   4   4   4   4
#     4  10  22  44  67 100 141 189 236 305 361 437
#     4  11  25  48  72 106 151 183 248 305 362 433
#     4  11  27  45  73 109 143 199 239 303 378 437
#     4  10  24  45  67 103 147 187 234 314 360 443
#     4  10  22  44  66  99 141 183 239 300 371 425
#     4  11  25  45  74 104 143 194 247 303 369 454
#     4  10  24  43  70  98 145 184 246 298 372 436
#     4  11  23  44  75 103 133 199 251 298 369 451
#
# _framework density 24.267793999999999
#
# number of rings (size 3 to 8) (size 9 to 14) (size 15 to 20)
#    0.000    1.500    1.250    2.250   10.500    4.000 
#    9.000    0.000    0.000    0.000    0.000    0.000 
#    0.000    0.000    0.000    0.000    0.000    0.000 
#
# Total GULP energy -198235.710348 kJ/mol
# GULP energy per Si atom -12389.731897 kJ/mol
# Density = 2.421256 g / cm^3
# Si number density = 24.267794 Si / 1000 Ang^3
#
#
#
# Elastic Constant Matrix: (Units=GPa)
#
#
# Indices 1 2 3 4 5 6 
#
# 1 100.9241 19.5173 11.6942 0.0000 8.4131 0.0000
# 2 19.5173 116.8901 4.4198 0.0000 15.6876 0.0000
# 3 11.6942 4.4198 78.3261 0.0000 12.1771 0.0000
# 4 0.0000 0.0000 0.0000 13.0668 0.0000 0.4484
# 5 8.4131 15.6876 12.1771 0.0000 24.7097 0.0000
# 6 0.0000 0.0000 0.0000 0.4484 0.0000 44.3823
#
#
#
# Elastic Compliance Matrix: (Units=1/GPa)
#
#
# Indices 1 2 3 4 5 6 
#
# 1 0.010494 -0.001427 -0.001160 0.000000 -0.002095 0.000000
# 2 -0.001427 0.009559 0.000587 0.000000 -0.005872 0.000000
# 3 -0.001160 0.000587 0.013974 0.000000 -0.006864 0.000000
# 4 0.000000 0.000000 0.000000 0.076556 0.000000 -0.000774
# 5 -0.002095 -0.005872 -0.006864 0.000000 0.048294 0.000000
# 6 0.000000 0.000000 0.000000 -0.000774 0.000000 0.022539
#
#
# Mechanical properties :
#
#
# Convention : Reuss Voigt Hill
#
# Bulk Modulus (GPa) = 33.30532 40.82253 37.06393
# Shear Modulus (GPa) = 25.58499 33.79904 29.69202
#
# Velocity S-wave (km/s) = 3.25049 3.73601 3.50167
# Velocity P-wave (km/s) = 5.27650 5.95555 5.62628
#
# Compressibility (1/GPa) = 0.03002523
#
# Stress axis : x y z
#
# Youngs Moduli (GPa) = 95.29702 104.61087 71.55926
#
# Poissons Ratio (x) = 0.14929 0.08304
# Poissons Ratio (y) = 0.13600 -0.04198
# Poissons Ratio (z) = 0.11059 -0.06136
#
# Static dielectric constant tensor:
#      x y z
#    x 4.375550 0.000000 0.060560 
#    y 0.000000 4.648310 0.000000 
#    z 0.060560 0.000000 4.019920 
# 
# 
# High freq. dielectric constant tensor:
#      x y z
#    x 1.963770 0.000000 0.007520 
#    y 0.000000 1.975430 0.000000 
#    z 0.007520 0.000000 1.942900 
# 
# From -- ./inp_files/13514.got.cif
#   From: 2010.06.25/outbox.cif.g09.slc.cpg/sg9_7_cif.got.tgz:13514.got - 2010.06.27 21:40:51.
