data_PCOD8055703
_publ_section_title
;
Structure prediction by ZEFSAII (Michael W. Deem and Ramdas Pophale) SiO2 
 PCOD8055703
Probable space group: C C
;
_chemical_formula_sum "Si O2"
_cell_formula_units_Z 32
_cell_length_a 8.409970
_cell_length_b 11.247936
_cell_length_c 14.382484
_cell_angle_alpha 90.000000
_cell_angle_beta 88.123913
_cell_angle_gamma 90.000000
_cell_volume 1359.778982
_symmetry_space_group_name_H-M "C C"
_symmetry_group_IT_number 9
_symmetry_cell_setting 'monoclinic'
loop_
_space_group_symop_operation_xyz
x,y,z
x,-y,1/2+z
1/2+x,1/2+y,z
1/2+x,1/2-y,1/2+z
loop_
_atom_site_type_symbol
_atom_site_label
_atom_site_fract_x
_atom_site_fract_y
_atom_site_fract_z
Si Si1 0.220320 0.240879 0.985120
Si Si2 0.556402 0.249422 0.676192
Si Si3 0.858744 0.468274 0.221632
Si Si4 0.069313 0.791381 0.958411
Si Si5 0.023423 0.035215 0.288974
Si Si6 0.787595 0.512483 0.517776
Si Si7 0.510772 0.882780 0.869755
Si Si8 0.784809 0.171894 0.826599
O O1 0.404800 0.257449 0.011045
O O2 0.182149 0.327127 0.897111
O O3 0.098564 0.277020 0.068805
O O4 0.196857 0.098755 0.969658
O O5 0.409058 0.167746 0.708926
O O6 0.504161 0.386705 0.694478
O O7 0.713126 0.217064 0.731601
O O8 0.691749 0.465450 0.280182
O O9 0.837188 0.528395 0.120787
O O10 0.000667 0.537274 0.275961
O O11 0.037625 0.872091 0.870429
O O12 0.155037 0.671633 0.914426
O O13 0.175572 0.869827 0.027059
O O14 0.868779 0.954384 0.308777
O O15 0.943938 0.539219 0.455459
O O16 0.410869 0.765673 0.857777
#
# Coordination Sequence:
#
# PCOD8055703 Si02
#       8
#     4   4   4   4   4   4   4   4
#     4  12  25  43  71 105 146 188 241 305 363 437
#     4  11  25  44  67 106 142 186 240 295 366 440
#     4  12  24  47  71 101 151 190 239 309 366 440
#     4  10  25  43  68 104 137 188 240 296 358 433
#     4  11  23  46  69  97 140 190 234 301 364 427
#     4  11  23  47  69 102 148 186 240 304 367 432
#     4  11  24  45  72 106 142 196 241 299 373 430
#     4  10  23  45  69  97 138 184 243 291 357 435
#
# _framework density 23.533237
#
# number of rings (size 3 to 8) (size 9 to 14) (size 15 to 20)
#    0.000    1.000    6.250    0.750    7.000    0.000 
#    0.000    0.000    0.000    0.000    0.000    0.000 
#    0.000    0.000    0.000    0.000    0.000    0.000 
#
# Total GULP energy -198292.096305 kJ/mol
# GULP energy per Si atom -12393.256019 kJ/mol
# Density = 2.347967 g / cm^3
# Si number density = 23.533237 Si / 1000 Ang^3
#
#
#
# Elastic Constant Matrix: (Units=GPa)
#
#
# Indices 1 2 3 4 5 6 
#
# 1 97.4537 63.3144 27.1524 0.0000 -7.4510 0.0000
# 2 63.3144 114.9134 40.0682 0.0000 -14.3659 0.0000
# 3 27.1524 40.0682 97.9067 0.0000 4.8852 0.0000
# 4 0.0000 0.0000 0.0000 35.3212 0.0000 -4.1664
# 5 -7.4510 -14.3659 4.8852 0.0000 32.0570 0.0000
# 6 0.0000 0.0000 0.0000 -4.1664 0.0000 35.1231
#
#
#
# Elastic Compliance Matrix: (Units=1/GPa)
#
#
# Indices 1 2 3 4 5 6 
#
# 1 0.016061 -0.008498 -0.000980 0.000000 0.000074 0.000000
# 2 -0.008498 0.015596 -0.004309 0.000000 0.005670 0.000000
# 3 -0.000980 -0.004309 0.012451 0.000000 -0.004056 0.000000
# 4 0.000000 0.000000 0.000000 0.028713 0.000000 0.003406
# 5 0.000074 0.005670 -0.004056 0.000000 0.034371 0.000000
# 6 0.000000 0.000000 0.000000 0.003406 0.000000 0.028875
#
#
# Mechanical properties :
#
#
# Convention : Reuss Voigt Hill
#
# Bulk Modulus (GPa) = 60.48030 63.48262 61.98146
# Shear Modulus (GPa) = 29.55895 32.48286 31.02090
#
# Velocity S-wave (km/s) = 3.54793 3.71927 3.63461
# Velocity P-wave (km/s) = 6.52223 6.74375 6.63391
#
# Compressibility (1/GPa) = 0.01653431
#
# Stress axis : x y z
#
# Youngs Moduli (GPa) = 62.26149 64.11965 80.31299
#
# Poissons Ratio (x) = 0.54491 0.07871
# Poissons Ratio (y) = 0.52912 0.34604
# Poissons Ratio (z) = 0.06102 0.27627
#
# Static dielectric constant tensor:
#      x y z
#    x 4.640990 0.000000 0.144380 
#    y 0.000000 4.575930 0.000000 
#    z 0.144380 0.000000 4.432290 
# 
# 
# High freq. dielectric constant tensor:
#      x y z
#    x 1.922440 0.000000 0.000730 
#    y 0.000000 1.937580 0.000000 
#    z 0.000730 0.000000 1.922840 
# 
# From -- ./inp_files/22911.got.cif
#   From: 2010.06.25/outbox.cif.g09.slc.cpg/sg9_12_cif.got.tgz:22911.got - 2010.06.27 21:40:51.
