data_PCOD8055267
_publ_section_title
;
Structure prediction by ZEFSAII (Michael W. Deem and Ramdas Pophale) SiO2 
 PCOD8055267
Probable space group: C C
;
_chemical_formula_sum "Si O2"
_cell_formula_units_Z 32
_cell_length_a 21.601030
_cell_length_b 15.367962
_cell_length_c 7.921826
_cell_angle_alpha 90.000000
_cell_angle_beta 34.665191
_cell_angle_gamma 90.000000
_cell_volume 1495.754466
_symmetry_space_group_name_H-M "C C"
_symmetry_group_IT_number 9
_symmetry_cell_setting 'monoclinic'
loop_
_space_group_symop_operation_xyz
x,y,z
x,-y,1/2+z
1/2+x,1/2+y,z
1/2+x,1/2-y,1/2+z
loop_
_atom_site_type_symbol
_atom_site_label
_atom_site_fract_x
_atom_site_fract_y
_atom_site_fract_z
Si Si1 0.986390 0.688019 0.326400
Si Si2 0.029785 0.020497 0.295234
Si Si3 0.361578 0.135547 0.919262
Si Si4 0.696613 0.489438 0.170692
Si Si5 0.370408 0.149765 0.265494
Si Si6 0.854015 0.853789 0.282599
Si Si7 0.739427 0.817796 0.219009
Si Si8 0.863753 0.870799 0.628629
O O1 0.955300 0.635960 0.566747
O O2 0.949438 0.630453 0.246567
O O3 0.929591 0.781383 0.460105
O O4 0.113724 0.701883 0.024613
O O5 0.976034 0.112039 0.469046
O O6 0.158601 0.012709 0.065866
O O7 0.067287 0.018501 0.016136
O O8 0.945146 0.943112 0.517873
O O9 0.416009 0.115164 0.981429
O O10 0.303318 0.227677 0.069418
O O11 0.271625 0.065153 0.074919
O O12 0.754817 0.396627 0.054954
O O13 0.350952 0.251312 0.305033
O O14 0.777798 0.877653 0.292755
O O15 0.815637 0.894204 0.549559
O O16 0.765005 0.865887 0.984340
#
# Coordination Sequence:
#
# PCOD8055267 Si02
#       8
#     4   4   4   4   4   4   4   4
#     4  10  22  41  65  91 130 180 216 264 339 396
#     4  12  22  38  70  98 128 168 220 278 333 376
#     4  10  22  41  63  95 133 164 223 281 313 396
#     4  12  22  38  70  98 128 168 220 278 333 376
#     4  10  23  42  60  96 136 166 216 272 330 400
#     4  10  23  42  60  96 136 166 216 272 330 400
#     4  10  22  41  65  91 130 180 216 264 339 396
#     4  10  22  41  63  95 133 164 223 281 313 396
#
# _framework density 21.393885000000001
#
# number of rings (size 3 to 8) (size 9 to 14) (size 15 to 20)
#    0.000    1.500    2.500    2.250    3.500    1.000 
#    0.000    1.250    0.000    0.000    0.000    0.000 
#    0.000    0.000    0.000    0.000    0.000    0.000 
#
# Total GULP energy -198215.933006 kJ/mol
# GULP energy per Si atom -12388.495813 kJ/mol
# Density = 2.134519 g / cm^3
# Si number density = 21.393885 Si / 1000 Ang^3
#
#
#
# Elastic Constant Matrix: (Units=GPa)
#
#
# Indices 1 2 3 4 5 6 
#
# 1 134.3893 17.4194 47.9207 0.0000 17.2333 0.0000
# 2 17.4194 54.1059 7.5608 0.0000 0.4216 0.0000
# 3 47.9207 7.5608 128.6476 0.0000 19.7754 0.0000
# 4 0.0000 0.0000 0.0000 29.6777 0.0000 -0.5926
# 5 17.2333 0.4216 19.7754 0.0000 35.1851 0.0000
# 6 0.0000 0.0000 0.0000 -0.5926 0.0000 23.4811
#
#
#
# Elastic Compliance Matrix: (Units=1/GPa)
#
#
# Indices 1 2 3 4 5 6 
#
# 1 0.009140 -0.002527 -0.002816 0.000000 -0.002864 0.000000
# 2 -0.002527 0.019340 -0.000383 0.000000 0.001221 0.000000
# 3 -0.002816 -0.000383 0.009448 0.000000 -0.003926 0.000000
# 4 0.000000 0.000000 0.000000 0.033712 0.000000 0.000851
# 5 -0.002864 0.001221 -0.003926 0.000000 0.032016 0.000000
# 6 0.000000 0.000000 0.000000 0.000851 0.000000 0.042609
#
#
# Mechanical properties :
#
#
# Convention : Reuss Voigt Hill
#
# Bulk Modulus (GPa) = 37.76964 51.43827 44.60395
# Shear Modulus (GPa) = 30.02247 33.95159 31.98703
#
# Velocity S-wave (km/s) = 3.75016 3.98801 3.87091
# Velocity P-wave (km/s) = 6.03691 6.73062 6.39318
#
# Compressibility (1/GPa) = 0.02647629
#
# Stress axis : x y z
#
# Youngs Moduli (GPa) = 109.41039 51.70683 105.84078
#
# Poissons Ratio (x) = 0.13065 0.29803
# Poissons Ratio (y) = 0.27646 0.04055
# Poissons Ratio (z) = 0.30809 0.01981
#
# Static dielectric constant tensor:
#      x y z
#    x 4.739910 0.000000 0.700420 
#    y 0.000000 3.655990 0.000000 
#    z 0.700420 0.000000 3.872770 
# 
# 
# High freq. dielectric constant tensor:
#      x y z
#    x 1.863750 0.000000 0.036100 
#    y 0.000000 1.823740 0.000000 
#    z 0.036100 0.000000 1.829900 
# 
# From -- ./inp_files/7444.got.cif
#   From: 2010.06.25/outbox.cif.g09.slc.cpg/sg9_4_cif.got.tgz:7444.got - 2010.06.27 21:40:51.
