data_PCOD8055479
_publ_section_title
;
Structure prediction by ZEFSAII (Michael W. Deem and Ramdas Pophale) SiO2 
 PCOD8055479
Probable space group: C C
;
_chemical_formula_sum "Si O2"
_cell_formula_units_Z 24
_cell_length_a 8.281126
_cell_length_b 13.608964
_cell_length_c 9.243258
_cell_angle_alpha 90.000000
_cell_angle_beta 84.047604
_cell_angle_gamma 90.000000
_cell_volume 1036.076100
_symmetry_space_group_name_H-M "C C"
_symmetry_group_IT_number 9
_symmetry_cell_setting 'monoclinic'
loop_
_space_group_symop_operation_xyz
x,y,z
x,-y,1/2+z
1/2+x,1/2+y,z
1/2+x,1/2-y,1/2+z
loop_
_atom_site_type_symbol
_atom_site_label
_atom_site_fract_x
_atom_site_fract_y
_atom_site_fract_z
Si Si1 0.824540 0.158237 0.259600
Si Si2 0.736479 0.403902 0.973218
Si Si3 0.556597 0.526034 0.772030
Si Si4 0.104013 0.611375 0.525929
Si Si5 0.103289 0.722863 0.805824
Si Si6 0.765051 0.087885 0.979078
O O1 0.661335 0.141180 0.361828
O O2 0.913185 0.251106 0.322426
O O3 0.773377 0.174113 0.098919
O O4 0.954500 0.070023 0.238774
O O5 0.706067 0.493438 0.862779
O O6 0.710132 0.304876 0.879829
O O7 0.613555 0.415737 0.122347
O O8 0.913562 0.410109 0.028334
O O9 0.435115 0.592753 0.877583
O O10 0.149888 0.698455 0.634116
O O11 0.212318 0.515137 0.557507
O O12 0.120385 0.619165 0.885356
#
# Coordination Sequence:
#
# PCOD8055479 Si02
#       6
#     4   4   4   4   4   4
#     4  10  23  46  68 104 137 190 236 290 360 419
#     4  11  25  46  71 111 141 188 242 294 364 429
#     4  10  22  45  75 101 145 185 233 296 364 431
#     4  11  25  46  72 103 143 189 241 294 359 427
#     4  11  26  45  67 105 142 186 243 293 359 419
#     4  11  23  46  73 102 140 194 237 297 362 427
#
# _framework density 23.164321999999999
#
# number of rings (size 3 to 8) (size 9 to 14) (size 15 to 20)
#    0.000    1.333    1.667    3.000    9.333    1.333 
#   12.000    0.000    0.000    0.000    0.000    0.000 
#    0.000    0.000    0.000    0.000    0.000    0.000 
#
# Total GULP energy -148664.863917 kJ/mol
# GULP energy per Si atom -12388.738660 kJ/mol
# Density = 2.311160 g / cm^3
# Si number density = 23.164322 Si / 1000 Ang^3
#
#
#
# Elastic Constant Matrix: (Units=GPa)
#
#
# Indices 1 2 3 4 5 6 
#
# 1 106.8620 34.3924 59.6514 0.0000 -5.8566 0.0000
# 2 34.3924 67.9641 49.9896 0.0000 -4.2172 0.0000
# 3 59.6514 49.9896 159.9848 0.0000 0.6396 0.0000
# 4 0.0000 0.0000 0.0000 53.7287 0.0000 11.9629
# 5 -5.8566 -4.2172 0.6396 0.0000 35.8596 0.0000
# 6 0.0000 0.0000 0.0000 11.9629 0.0000 30.0398
#
#
#
# Elastic Compliance Matrix: (Units=1/GPa)
#
#
# Indices 1 2 3 4 5 6 
#
# 1 0.012620 -0.003655 -0.003570 0.000000 0.001695 0.000000
# 2 -0.003655 0.020364 -0.005008 0.000000 0.001887 0.000000
# 3 -0.003570 -0.005008 0.009152 0.000000 -0.001335 0.000000
# 4 0.000000 0.000000 0.000000 0.020423 0.000000 -0.008133
# 5 0.001695 0.001887 -0.001335 0.000000 0.028409 0.000000
# 6 0.000000 0.000000 0.000000 -0.008133 0.000000 0.036528
#
#
# Mechanical properties :
#
#
# Convention : Reuss Voigt Hill
#
# Bulk Modulus (GPa) = 56.59406 69.20862 62.90134
# Shear Modulus (GPa) = 31.67543 36.64413 34.15978
#
# Velocity S-wave (km/s) = 3.70188 3.98165 3.84431
# Velocity P-wave (km/s) = 6.53884 7.14704 6.84970
#
# Compressibility (1/GPa) = 0.01766970
#
# Stress axis : x y z
#
# Youngs Moduli (GPa) = 79.23942 49.10716 109.26820
#
# Poissons Ratio (x) = 0.17949 0.39010
# Poissons Ratio (y) = 0.28963 0.54718
# Poissons Ratio (z) = 0.28290 0.24591
#
# Static dielectric constant tensor:
#      x y z
#    x 4.086500 0.000000 0.248330 
#    y 0.000000 4.163210 0.000000 
#    z 0.248330 0.000000 4.337860 
# 
# 
# High freq. dielectric constant tensor:
#      x y z
#    x 1.909960 0.000000 0.019750 
#    y 0.000000 1.901450 0.000000 
#    z 0.019750 0.000000 1.934190 
# 
# From -- ./inp_files/4901.got.cif
#   From: 2010.06.25/outbox.cif.g09.slc.cpg/sg9_3_cif.got.tgz:4901.got - 2010.06.27 21:40:51.
