data_PCOD8055238
_publ_section_title
;
Structure prediction by ZEFSAII (Michael W. Deem and Ramdas Pophale) SiO2 
 PCOD8055238
Probable space group: C C
;
_chemical_formula_sum "Si O2"
_cell_formula_units_Z 32
_cell_length_a 5.241165
_cell_length_b 22.828427
_cell_length_c 12.247815
_cell_angle_alpha 90.000000
_cell_angle_beta 107.499713
_cell_angle_gamma 90.000000
_cell_volume 1397.599140
_symmetry_space_group_name_H-M "C C"
_symmetry_group_IT_number 9
_symmetry_cell_setting 'monoclinic'
loop_
_space_group_symop_operation_xyz
x,y,z
x,-y,1/2+z
1/2+x,1/2+y,z
1/2+x,1/2-y,1/2+z
loop_
_atom_site_type_symbol
_atom_site_label
_atom_site_fract_x
_atom_site_fract_y
_atom_site_fract_z
Si Si1 0.741390 0.050078 0.673600
Si Si2 0.121869 0.206425 0.754803
Si Si3 0.465066 0.308688 0.841284
Si Si4 0.340179 0.915413 0.304453
Si Si5 0.586318 0.642011 0.136348
Si Si6 0.911785 0.235986 0.952589
Si Si7 0.039628 0.574091 0.067523
Si Si8 0.252903 0.655588 0.525154
O O1 0.590679 0.062634 0.766742
O O2 0.655025 0.095366 0.567122
O O3 0.061554 0.054846 0.729983
O O4 0.648445 0.986795 0.625313
O O5 0.219892 0.273771 0.751383
O O6 0.342686 0.154791 0.790403
O O7 0.957925 0.201426 0.846236
O O8 0.941594 0.192504 0.628504
O O9 0.632378 0.342757 0.769835
O O10 0.597011 0.251021 0.918354
O O11 0.393234 0.356285 0.925257
O O12 0.382449 0.934254 0.434710
O O13 0.837556 0.603413 0.129158
O O14 0.301288 0.612199 0.080546
O O15 0.558577 0.702878 0.068695
O O16 0.006328 0.303455 0.963864
#
# Coordination Sequence:
#
# PCOD8055238 Si02
#       8
#     4   4   4   4   4   4   4   4
#     4  11  27  48  74 103 139 188 248 294 359 418
#     4  10  22  40  67 101 141 181 239 280 359 434
#     4  11  25  40  68 106 151 185 229 301 367 433
#     4  11  24  46  76 105 134 192 239 299 350 434
#     4  12  27  44  74 106 147 190 241 291 370 427
#     4  11  23  41  69 105 138 190 226 300 356 439
#     4  12  27  51  72 106 143 190 245 301 355 432
#     4  10  25  42  68 104 139 188 231 294 358 427
#
# _framework density 22.896409999999999
#
# number of rings (size 3 to 8) (size 9 to 14) (size 15 to 20)
#    0.000    1.000    1.250    3.750   17.500    1.000 
#    2.250    0.000    0.000    0.000    0.000    0.000 
#    0.000    0.000    0.000    0.000    0.000    0.000 
#
# Total GULP energy -198304.695045 kJ/mol
# GULP energy per Si atom -12394.043440 kJ/mol
# Density = 2.284430 g / cm^3
# Si number density = 22.896410 Si / 1000 Ang^3
#
#
#
# Elastic Constant Matrix: (Units=GPa)
#
#
# Indices 1 2 3 4 5 6 
#
# 1 93.0168 29.7890 19.7043 0.0000 -17.4864 0.0000
# 2 29.7890 92.5974 40.9811 0.0000 -7.1561 0.0000
# 3 19.7043 40.9811 105.5008 0.0000 -24.8858 0.0000
# 4 0.0000 0.0000 0.0000 12.2751 0.0000 -12.7699
# 5 -17.4864 -7.1561 -24.8858 0.0000 39.6166 0.0000
# 6 0.0000 0.0000 0.0000 -12.7699 0.0000 25.2169
#
#
#
# Elastic Compliance Matrix: (Units=1/GPa)
#
#
# Indices 1 2 3 4 5 6 
#
# 1 0.012906 -0.003896 0.000329 0.000000 0.005200 0.000000
# 2 -0.003896 0.014249 -0.005407 0.000000 -0.002542 0.000000
# 3 0.000329 -0.005407 0.013291 0.000000 0.007517 0.000000
# 4 0.000000 0.000000 0.000000 0.172166 0.000000 0.087186
# 5 0.005200 -0.002542 0.007517 0.000000 0.031800 0.000000
# 6 0.000000 0.000000 0.000000 0.087186 0.000000 0.083807
#
#
# Mechanical properties :
#
#
# Convention : Reuss Voigt Hill
#
# Bulk Modulus (GPa) = 44.44650 52.45157 48.44903
# Shear Modulus (GPa) = 14.13764 28.79776 21.46770
#
# Velocity S-wave (km/s) = 2.48757 3.55031 3.06535
# Velocity P-wave (km/s) = 5.26354 6.30589 5.80814
#
# Compressibility (1/GPa) = 0.02249896
#
# Stress axis : x y z
#
# Youngs Moduli (GPa) = 77.48230 70.17870 75.24085
#
# Poissons Ratio (x) = 0.27341 -0.02479
# Poissons Ratio (y) = 0.30186 0.40683
# Poissons Ratio (z) = -0.02552 0.37946
#
# Static dielectric constant tensor:
#      x y z
#    x 4.337740 0.000000 0.022430 
#    y 0.000000 4.199840 0.000000 
#    z 0.022430 0.000000 4.342130 
# 
# 
# High freq. dielectric constant tensor:
#      x y z
#    x 1.913250 0.000000 0.000090 
#    y 0.000000 1.892040 0.000000 
#    z 0.000090 0.000000 1.918220 
# 
# From -- ./inp_files/13469.got.cif
#   From: 2010.06.25/outbox.cif.g09.slc.cpg/sg9_7_cif.got.tgz:13469.got - 2010.06.27 21:40:51.
