data_PCOD8055297
_publ_section_title
;
Structure prediction by ZEFSAII (Michael W. Deem and Ramdas Pophale) SiO2 
 PCOD8055297
Probable space group: C C
;
_chemical_formula_sum "Si O2"
_cell_formula_units_Z 32
_cell_length_a 10.749888
_cell_length_b 11.034967
_cell_length_c 12.539730
_cell_angle_alpha 90.000000
_cell_angle_beta 83.849306
_cell_angle_gamma 90.000000
_cell_volume 1478.958336
_symmetry_space_group_name_H-M "C C"
_symmetry_group_IT_number 9
_symmetry_cell_setting 'monoclinic'
loop_
_space_group_symop_operation_xyz
x,y,z
x,-y,1/2+z
1/2+x,1/2+y,z
1/2+x,1/2-y,1/2+z
loop_
_atom_site_type_symbol
_atom_site_label
_atom_site_fract_x
_atom_site_fract_y
_atom_site_fract_z
Si Si1 0.356490 0.786551 0.886230
Si Si2 0.522058 0.060580 0.497517
Si Si3 0.603607 0.364097 0.985182
Si Si4 0.953529 0.027240 0.853188
Si Si5 0.895578 0.667788 0.990506
Si Si6 0.893570 0.453767 0.695046
Si Si7 0.179586 0.869798 0.213387
Si Si8 0.249918 0.667924 0.356988
O O1 0.428398 0.826268 0.987729
O O2 0.210119 0.821596 0.891581
O O3 0.365387 0.641615 0.884370
O O4 0.430198 0.858304 0.784284
O O5 0.659617 0.090582 0.442288
O O6 0.467565 0.947879 0.431598
O O7 0.514603 0.020085 0.624745
O O8 0.534348 0.485492 0.949242
O O9 0.498094 0.265920 0.012348
O O10 0.682167 0.376494 0.085952
O O11 0.049916 0.066208 0.754146
O O12 0.867467 0.917298 0.816455
O O13 0.791547 0.715965 0.921046
O O14 0.828024 0.625818 0.106639
O O15 0.797799 0.554886 0.746925
O O16 0.186833 0.730715 0.258740
#
# Coordination Sequence:
#
# PCOD8055297 Si02
#       8
#     4   4   4   4   4   4   4   4
#     4  12  21  42  70  97 133 184 226 284 348 401
#     4  10  22  41  67  95 133 175 225 280 342 401
#     4  11  23  42  67 100 137 180 230 283 340 413
#     4  11  26  43  69  98 139 180 228 282 348 407
#     4   9  22  42  63  96 137 172 225 280 339 407
#     4  10  23  41  66  99 129 180 229 278 346 407
#     4  12  23  42  69  99 138 178 233 283 342 416
#     4  11  24  45  67 100 136 179 226 282 339 416
#
# _framework density 21.636849999999999
#
# number of rings (size 3 to 8) (size 9 to 14) (size 15 to 20)
#    0.750    0.500    3.750    2.250    1.750    1.000 
#    2.250    6.250    0.000    0.000    0.000    0.000 
#    0.000    0.000    0.000    0.000    0.000    0.000 
#
# Total GULP energy -198232.065740 kJ/mol
# GULP energy per Si atom -12389.504109 kJ/mol
# Density = 2.158760 g / cm^3
# Si number density = 21.636850 Si / 1000 Ang^3
#
#
#
# Elastic Constant Matrix: (Units=GPa)
#
#
# Indices 1 2 3 4 5 6 
#
# 1 94.4614 39.6429 27.8587 0.0000 -11.5114 0.0000
# 2 39.6429 123.9188 42.3243 0.0000 -5.0651 0.0000
# 3 27.8587 42.3243 77.2974 0.0000 -6.6415 0.0000
# 4 0.0000 0.0000 0.0000 31.5561 0.0000 1.1387
# 5 -11.5114 -5.0651 -6.6415 0.0000 27.1634 0.0000
# 6 0.0000 0.0000 0.0000 1.1387 0.0000 42.8595
#
#
#
# Elastic Compliance Matrix: (Units=1/GPa)
#
#
# Indices 1 2 3 4 5 6 
#
# 1 0.013224 -0.003139 -0.002672 0.000000 0.004365 0.000000
# 2 -0.003139 0.010679 -0.004759 0.000000 -0.000503 0.000000
# 3 -0.002672 -0.004759 0.016683 0.000000 0.002059 0.000000
# 4 0.000000 0.000000 0.000000 0.031720 0.000000 -0.000843
# 5 0.004365 -0.000503 0.002059 0.000000 0.039074 0.000000
# 6 0.000000 0.000000 0.000000 -0.000843 0.000000 0.023354
#
#
# Mechanical properties :
#
#
# Convention : Reuss Voigt Hill
#
# Bulk Modulus (GPa) = 51.42739 57.25881 54.34310
# Shear Modulus (GPa) = 30.79646 32.70593 31.75119
#
# Velocity S-wave (km/s) = 3.77680 3.89213 3.83490
# Velocity P-wave (km/s) = 6.54515 6.83515 6.69172
#
# Compressibility (1/GPa) = 0.01944489
#
# Stress axis : x y z
#
# Youngs Moduli (GPa) = 75.62100 93.64152 59.94209
#
# Poissons Ratio (x) = 0.29398 0.16016
# Poissons Ratio (y) = 0.23741 0.28527
# Poissons Ratio (z) = 0.20205 0.44564
#
# Static dielectric constant tensor:
#      x y z
#    x 3.671720 0.000000 -0.089610 
#    y 0.000000 4.089670 0.000000 
#    z -0.089610 0.000000 3.697610 
# 
# 
# High freq. dielectric constant tensor:
#      x y z
#    x 1.842930 0.000000 -0.008580 
#    y 0.000000 1.860340 0.000000 
#    z -0.008580 0.000000 1.829670 
# 
# From -- ./inp_files/16222.got.cif
#   From: 2010.06.25/outbox.cif.g09.slc.cpg/sg9_9_cif.got.tgz:16222.got - 2010.06.27 21:40:51.
