data_PCOD8055497
_publ_section_title
;
Structure prediction by ZEFSAII (Michael W. Deem and Ramdas Pophale) SiO2 
 PCOD8055497
Probable space group: C C
;
_chemical_formula_sum "Si O2"
_cell_formula_units_Z 32
_cell_length_a 7.028739
_cell_length_b 18.384826
_cell_length_c 11.512396
_cell_angle_alpha 90.000000
_cell_angle_beta 104.683717
_cell_angle_gamma 90.000000
_cell_volume 1439.069374
_symmetry_space_group_name_H-M "C C"
_symmetry_group_IT_number 9
_symmetry_cell_setting 'monoclinic'
loop_
_space_group_symop_operation_xyz
x,y,z
x,-y,1/2+z
1/2+x,1/2+y,z
1/2+x,1/2-y,1/2+z
loop_
_atom_site_type_symbol
_atom_site_label
_atom_site_fract_x
_atom_site_fract_y
_atom_site_fract_z
Si Si1 0.120660 0.892960 0.385280
Si Si2 0.680744 0.549053 0.464969
Si Si3 0.403456 0.083173 0.725563
Si Si4 0.685896 0.328814 0.635825
Si Si5 0.461083 0.067573 0.304745
Si Si6 0.886011 0.737874 0.717966
Si Si7 0.843591 0.843519 0.905012
Si Si8 0.448027 0.303790 0.166423
O O1 0.313919 0.901945 0.338427
O O2 0.158528 0.835494 0.493878
O O3 0.951761 0.861008 0.274190
O O4 0.071245 0.971172 0.434098
O O5 0.731387 0.565434 0.606514
O O6 0.883542 0.555287 0.423704
O O7 0.526082 0.607371 0.394261
O O8 0.510225 0.161498 0.716404
O O9 0.533691 0.009960 0.759578
O O10 0.773019 0.403393 0.702068
O O11 0.474760 0.303519 0.655217
O O12 0.842941 0.268075 0.696021
O O13 0.642100 0.121974 0.326901
O O14 0.876089 0.764727 0.850402
O O15 0.663096 0.717298 0.648310
O O16 0.824943 0.837401 0.040792
#
# Coordination Sequence:
#
# PCOD8055497 Si02
#       8
#     4   4   4   4   4   4   4   4
#     4  10  23  43  68  99 136 181 224 284 342 398
#     4  11  22  44  71  92 139 183 227 274 343 413
#     4  10  22  47  68  96 139 183 220 284 342 396
#     4  12  24  41  71 101 131 178 232 280 340 408
#     4  11  25  43  70 101 133 177 228 282 341 410
#     4  11  24  42  71 100 132 181 226 281 338 405
#     4  12  24  44  70 100 135 181 227 284 344 405
#     4  11  24  42  67  97 141 174 226 285 344 397
#
# _framework density 22.236592999999999
#
# number of rings (size 3 to 8) (size 9 to 14) (size 15 to 20)
#    0.000    1.000    6.250    1.500    1.750    2.000 
#    0.000    2.500    0.000    0.000    0.000    0.000 
#    0.000    0.000    0.000    0.000    0.000    0.000 
#
# Total GULP energy -198288.630176 kJ/mol
# GULP energy per Si atom -12393.039386 kJ/mol
# Density = 2.218598 g / cm^3
# Si number density = 22.236593 Si / 1000 Ang^3
#
#
#
# Elastic Constant Matrix: (Units=GPa)
#
#
# Indices 1 2 3 4 5 6 
#
# 1 47.7286 18.7920 19.2792 0.0000 3.6192 0.0000
# 2 18.7920 147.9723 57.7461 0.0000 7.4671 0.0000
# 3 19.2792 57.7461 138.0031 0.0000 -0.1244 0.0000
# 4 0.0000 0.0000 0.0000 40.9735 0.0000 2.2422
# 5 3.6192 7.4671 -0.1244 0.0000 24.4207 0.0000
# 6 0.0000 0.0000 0.0000 2.2422 0.0000 28.7887
#
#
#
# Elastic Compliance Matrix: (Units=1/GPa)
#
#
# Indices 1 2 3 4 5 6 
#
# 1 0.022865 -0.001808 -0.002440 0.000000 -0.002848 0.000000
# 2 -0.001808 0.008374 -0.003253 0.000000 -0.002309 0.000000
# 3 -0.002440 -0.003253 0.008950 0.000000 0.001402 0.000000
# 4 0.000000 0.000000 0.000000 0.024510 0.000000 -0.001909
# 5 -0.002848 -0.002309 0.001402 0.000000 0.042084 0.000000
# 6 0.000000 0.000000 0.000000 -0.001909 0.000000 0.034885
#
#
# Mechanical properties :
#
#
# Convention : Reuss Voigt Hill
#
# Bulk Modulus (GPa) = 39.70519 58.37095 49.03807
# Shear Modulus (GPa) = 30.29082 34.69571 32.49326
#
# Velocity S-wave (km/s) = 3.69481 3.95435 3.82678
# Velocity P-wave (km/s) = 6.00806 6.86703 6.45185
#
# Compressibility (1/GPa) = 0.02518562
#
# Stress axis : x y z
#
# Youngs Moduli (GPa) = 43.73440 119.42036 111.73438
#
# Poissons Ratio (x) = 0.21588 0.27268
# Poissons Ratio (y) = 0.07906 0.36352
# Poissons Ratio (z) = 0.10673 0.38853
#
# Static dielectric constant tensor:
#      x y z
#    x 3.547730 0.000000 -0.058590 
#    y 0.000000 4.583480 0.000000 
#    z -0.058590 0.000000 3.850990 
# 
# 
# High freq. dielectric constant tensor:
#      x y z
#    x 1.838750 0.000000 -0.007890 
#    y 0.000000 1.900400 0.000000 
#    z -0.007890 0.000000 1.875380 
# 
# From -- ./inp_files/15130.got.cif
#   From: 2010.06.25/outbox.cif.g09.slc.cpg/sg9_8_cif.got.tgz:15130.got - 2010.06.27 21:40:51.
