data_PCOD8055498
_publ_section_title
;
Structure prediction by ZEFSAII (Michael W. Deem and Ramdas Pophale) SiO2 
 PCOD8055498
Probable space group: C C
;
_chemical_formula_sum "Si O2"
_cell_formula_units_Z 28
_cell_length_a 13.214899
_cell_length_b 6.386477
_cell_length_c 14.127614
_cell_angle_alpha 90.000000
_cell_angle_beta 75.782075
_cell_angle_gamma 90.000000
_cell_volume 1155.800692
_symmetry_space_group_name_H-M "C C"
_symmetry_group_IT_number 9
_symmetry_cell_setting 'monoclinic'
loop_
_space_group_symop_operation_xyz
x,y,z
x,-y,1/2+z
1/2+x,1/2+y,z
1/2+x,1/2-y,1/2+z
loop_
_atom_site_type_symbol
_atom_site_label
_atom_site_fract_x
_atom_site_fract_y
_atom_site_fract_z
Si Si1 0.938870 0.974300 0.176580
Si Si2 0.792816 0.761067 0.824026
Si Si3 0.495726 0.286084 0.479816
Si Si4 0.111359 0.074729 0.774268
Si Si5 0.740719 0.747942 0.145119
Si Si6 0.784097 0.586183 0.474474
Si Si7 0.169007 0.483869 0.498090
O O1 0.844203 0.817351 0.177255
O O2 0.029215 0.850506 0.212970
O O3 0.900459 0.166448 0.251836
O O4 0.991724 0.067739 0.071863
O O5 0.707631 0.739174 0.758626
O O6 0.803489 0.535429 0.872013
O O7 0.759290 0.929946 0.908888
O O8 0.557171 0.426657 0.389580
O O9 0.381459 0.237318 0.469105
O O10 0.556628 0.068658 0.488802
O O11 0.156401 0.843192 0.739086
O O12 0.771136 0.567085 0.065025
O O13 0.689802 0.940650 0.100702
O O14 0.680011 0.731891 0.491849
#
# Coordination Sequence:
#
# PCOD8055498 Si02
#       7
#     4   4   4   4   4   4   4
#     4  12  25  49  77 111 157 199 255 325 384 461
#     4  10  26  46  71 110 146 197 255 307 389 450
#     4  11  24  47  72 115 151 204 261 312 392 456
#     4  11  26  46  73 113 146 202 255 309 384 465
#     4  11  25  46  72 106 152 199 254 316 387 458
#     4  11  24  47  78 105 150 204 254 320 386 460
#     4  10  22  47  69 100 152 195 246 321 372 450
#
# _framework density 24.225629999999999
#
# number of rings (size 3 to 8) (size 9 to 14) (size 15 to 20)
#    0.000    1.143    2.857    1.714    6.000    2.286 
#    5.143    0.000    0.000    0.000    0.000    0.000 
#    0.000    0.000    0.000    0.000    0.000    0.000 
#
# Total GULP energy -173620.421831 kJ/mol
# GULP energy per Si atom -12401.458702 kJ/mol
# Density = 2.417049 g / cm^3
# Si number density = 24.225630 Si / 1000 Ang^3
#
#
#
# Elastic Constant Matrix: (Units=GPa)
#
#
# Indices 1 2 3 4 5 6 
#
# 1 114.0782 32.2671 42.2612 0.0000 21.3702 0.0000
# 2 32.2671 100.1042 45.3123 0.0000 7.7498 0.0000
# 3 42.2612 45.3123 117.9652 0.0000 3.2783 0.0000
# 4 0.0000 0.0000 0.0000 41.5785 0.0000 0.3182
# 5 21.3702 7.7498 3.2783 0.0000 43.9268 0.0000
# 6 0.0000 0.0000 0.0000 0.3182 0.0000 45.0480
#
#
#
# Elastic Compliance Matrix: (Units=1/GPa)
#
#
# Indices 1 2 3 4 5 6 
#
# 1 0.011422 -0.001823 -0.003253 0.000000 -0.004992 0.000000
# 2 -0.001823 0.012525 -0.004130 0.000000 -0.001015 0.000000
# 3 -0.003253 -0.004130 0.011188 0.000000 0.001476 0.000000
# 4 0.000000 0.000000 0.000000 0.024052 0.000000 -0.000170
# 5 -0.004992 -0.001015 0.001476 0.000000 0.025263 0.000000
# 6 0.000000 0.000000 0.000000 -0.000170 0.000000 0.022200
#
#
# Mechanical properties :
#
#
# Convention : Reuss Voigt Hill
#
# Bulk Modulus (GPa) = 59.79618 63.53653 61.66636
# Shear Modulus (GPa) = 38.27460 40.26446 39.26953
#
# Velocity S-wave (km/s) = 3.97913 4.08126 4.03052
# Velocity P-wave (km/s) = 6.77111 6.96368 6.86807
#
# Compressibility (1/GPa) = 0.01672348
#
# Stress axis : x y z
#
# Youngs Moduli (GPa) = 87.55215 79.83984 89.38299
#
# Poissons Ratio (x) = 0.14552 0.29076
# Poissons Ratio (y) = 0.15958 0.36914
# Poissons Ratio (z) = 0.28481 0.32973
#
# Static dielectric constant tensor:
#      x y z
#    x 4.531750 0.000000 0.123970 
#    y 0.000000 4.151380 0.000000 
#    z 0.123970 0.000000 4.569040 
# 
# 
# High freq. dielectric constant tensor:
#      x y z
#    x 1.968660 0.000000 0.005940 
#    y 0.000000 1.945220 0.000000 
#    z 0.005940 0.000000 1.977110 
# 
# From -- ./inp_files/25230.got.cif
#   From: 2010.06.25/outbox.cif.g09.slc.cpg/sg9_13_cif.got.tgz:25230.got - 2010.06.27 21:40:51.
