data_PCOD8055658
_publ_section_title
;
Structure prediction by ZEFSAII (Michael W. Deem and Ramdas Pophale) SiO2 
 PCOD8055658
Probable space group: C C
;
_chemical_formula_sum "Si O2"
_cell_formula_units_Z 32
_cell_length_a 8.810135
_cell_length_b 19.046055
_cell_length_c 9.375336
_cell_angle_alpha 90.000000
_cell_angle_beta 104.246820
_cell_angle_gamma 90.000000
_cell_volume 1524.782206
_symmetry_space_group_name_H-M "C C"
_symmetry_group_IT_number 9
_symmetry_cell_setting 'monoclinic'
loop_
_space_group_symop_operation_xyz
x,y,z
x,-y,1/2+z
1/2+x,1/2+y,z
1/2+x,1/2-y,1/2+z
loop_
_atom_site_type_symbol
_atom_site_label
_atom_site_fract_x
_atom_site_fract_y
_atom_site_fract_z
Si Si1 0.630650 0.919984 0.933940
Si Si2 0.242129 0.668157 0.709547
Si Si3 0.574052 0.302113 0.803140
Si Si4 0.298463 0.930964 0.201690
Si Si5 0.635743 0.079935 0.921155
Si Si6 0.731585 0.836003 0.706206
Si Si7 0.785214 0.564077 0.365592
Si Si8 0.069012 0.198187 0.636427
O O1 0.748824 0.884650 0.849359
O O2 0.453389 0.918025 0.834519
O O3 0.685887 0.000295 0.967398
O O4 0.630614 0.875735 0.078895
O O5 0.158111 0.739815 0.737675
O O6 0.265881 0.617532 0.851608
O O7 0.404201 0.682517 0.669783
O O8 0.404531 0.314474 0.692803
O O9 0.670032 0.372983 0.805449
O O10 0.554628 0.284242 0.965388
O O11 0.467479 0.912827 0.306420
O O12 0.185710 0.865153 0.194063
O O13 0.220186 0.994893 0.271488
O O14 0.310405 0.952111 0.038599
O O15 0.632367 0.121446 0.067767
O O16 0.637695 0.766518 0.729297
#
# Coordination Sequence:
#
# PCOD8055658 Si02
#       8
#     4   4   4   4   4   4   4   4
#     4  11  24  42  69 101 134 178 225 274 335 408
#     4  12  23  46  69  99 137 182 223 277 344 396
#     4  11  25  46  68  99 138 175 225 285 332 403
#     4  10  23  44  69  98 136 174 223 277 337 403
#     4  11  24  43  70 100 135 179 222 276 339 399
#     4  12  25  44  68  98 137 176 225 282 334 400
#     4  10  23  44  68  98 134 176 223 278 335 405
#     4  11  25  45  69  99 135 176 228 281 334 404
#
# _framework density 20.986602000000001
#
# number of rings (size 3 to 8) (size 9 to 14) (size 15 to 20)
#    0.000    1.000    3.750    2.250    7.000    3.000 
#    4.500    0.000    0.000    0.000    0.000    0.000 
#    0.000    0.000    0.000    0.000    0.000    0.000 
#
# Total GULP energy -198438.830090 kJ/mol
# GULP energy per Si atom -12402.426881 kJ/mol
# Density = 2.093884 g / cm^3
# Si number density = 20.986602 Si / 1000 Ang^3
#
#
#
# Elastic Constant Matrix: (Units=GPa)
#
#
# Indices 1 2 3 4 5 6 
#
# 1 87.5281 56.9267 26.8681 0.0000 -9.0791 0.0000
# 2 56.9267 168.3723 68.3608 0.0000 -4.9618 0.0000
# 3 26.8681 68.3608 97.4697 0.0000 -6.6608 0.0000
# 4 0.0000 0.0000 0.0000 44.2302 0.0000 -6.8014
# 5 -9.0791 -4.9618 -6.6608 0.0000 31.7627 0.0000
# 6 0.0000 0.0000 0.0000 -6.8014 0.0000 30.3002
#
#
#
# Elastic Compliance Matrix: (Units=1/GPa)
#
#
# Indices 1 2 3 4 5 6 
#
# 1 0.015050 -0.004751 -0.000582 0.000000 0.003438 0.000000
# 2 -0.004751 0.009804 -0.005635 0.000000 -0.001008 0.000000
# 3 -0.000582 -0.005635 0.014509 0.000000 0.001996 0.000000
# 4 0.000000 0.000000 0.000000 0.023417 0.000000 0.005256
# 5 0.003438 -0.001008 0.001996 0.000000 0.032727 0.000000
# 6 0.000000 0.000000 0.000000 0.005256 0.000000 0.034183
#
#
# Mechanical properties :
#
#
# Convention : Reuss Voigt Hill
#
# Bulk Modulus (GPa) = 57.38267 73.07570 65.22918
# Shear Modulus (GPa) = 31.75931 34.67291 33.21611
#
# Velocity S-wave (km/s) = 3.89435 4.06907 3.98267
# Velocity P-wave (km/s) = 6.90096 7.54799 7.23171
#
# Compressibility (1/GPa) = 0.01742687
#
# Stress axis : x y z
#
# Youngs Moduli (GPa) = 66.44535 102.00184 68.92479
#
# Poissons Ratio (x) = 0.48461 0.04008
# Poissons Ratio (y) = 0.31568 0.38840
# Poissons Ratio (z) = 0.03864 0.57480
#
# Static dielectric constant tensor:
#      x y z
#    x 3.649040 0.000000 -0.083210 
#    y 0.000000 4.021760 0.000000 
#    z -0.083210 0.000000 3.905160 
# 
# 
# High freq. dielectric constant tensor:
#      x y z
#    x 1.816350 0.000000 -0.006490 
#    y 0.000000 1.842830 0.000000 
#    z -0.006490 0.000000 1.823910 
# 
# From -- ./inp_files/5818.got.cif
#   From: 2010.06.25/outbox.cif.g09.slc.cpg/sg9_3_cif.got.tgz:5818.got - 2010.06.27 21:40:51.
