data_PCOD8055462
_publ_section_title
;
Structure prediction by ZEFSAII (Michael W. Deem and Ramdas Pophale) SiO2 
 PCOD8055462
Probable space group: C C
;
_chemical_formula_sum "Si O2"
_cell_formula_units_Z 32
_cell_length_a 12.511012
_cell_length_b 7.394754
_cell_length_c 15.691378
_cell_angle_alpha 90.000000
_cell_angle_beta 114.381286
_cell_angle_gamma 90.000000
_cell_volume 1322.236431
_symmetry_space_group_name_H-M "C C"
_symmetry_group_IT_number 9
_symmetry_cell_setting 'monoclinic'
loop_
_space_group_symop_operation_xyz
x,y,z
x,-y,1/2+z
1/2+x,1/2+y,z
1/2+x,1/2-y,1/2+z
loop_
_atom_site_type_symbol
_atom_site_label
_atom_site_fract_x
_atom_site_fract_y
_atom_site_fract_z
Si Si1 0.045530 0.820588 0.177220
Si Si2 0.911853 0.363139 0.765635
Si Si3 0.776661 0.716696 0.864921
Si Si4 0.517943 0.708751 0.120268
Si Si5 0.824348 0.321770 0.920601
Si Si6 0.862946 0.261373 0.221580
Si Si7 0.142712 0.467599 0.598737
Si Si8 0.649992 0.024762 0.905347
O O1 0.163247 0.823945 0.270412
O O2 0.042917 0.652858 0.111056
O O3 0.932397 0.796851 0.203234
O O4 0.042433 0.997388 0.117189
O O5 0.869478 0.275073 0.840042
O O6 0.825482 0.523296 0.703195
O O7 0.035985 0.471540 0.814312
O O8 0.808124 0.536494 0.926917
O O9 0.878073 0.774117 0.829087
O O10 0.754238 0.878304 0.923622
O O11 0.481531 0.731989 0.207384
O O12 0.633589 0.831229 0.138436
O O13 0.415498 0.762409 0.022026
O O14 0.700724 0.220044 0.894837
O O15 0.768161 0.125121 0.151017
O O16 0.111197 0.482191 0.490037
#
# Coordination Sequence:
#
# PCOD8055462 Si02
#       8
#     4   4   4   4   4   4   4   4
#     4  10  24  43  68  98 132 182 231 287 352 412
#     4  10  22  47  70  99 140 179 237 291 347 425
#     4   9  24  44  65  98 132 175 231 284 344 415
#     4  12  24  43  68 101 137 183 232 288 356 415
#     4  11  24  43  67 101 137 179 232 288 352 412
#     4  10  22  45  67  97 136 176 226 289 347 413
#     4  11  23  46  65  98 144 175 230 291 347 423
#     4  11  23  43  70  98 138 183 227 292 351 415
#
# _framework density 24.201422000000001
#
# number of rings (size 3 to 8) (size 9 to 14) (size 15 to 20)
#    0.000    1.500    3.750    0.000    3.500    2.000 
#    4.500    0.000    0.000    0.000    0.000    0.000 
#    0.000    0.000    0.000    0.000    0.000    0.000 
#
# Total GULP energy -198323.473655 kJ/mol
# GULP energy per Si atom -12395.217103 kJ/mol
# Density = 2.414634 g / cm^3
# Si number density = 24.201422 Si / 1000 Ang^3
#
#
#
# Elastic Constant Matrix: (Units=GPa)
#
#
# Indices 1 2 3 4 5 6 
#
# 1 76.7176 17.1892 23.5182 0.0000 -31.4114 0.0000
# 2 17.1892 119.5704 41.9431 0.0000 -11.1140 0.0000
# 3 23.5182 41.9431 77.7177 0.0000 -16.4221 0.0000
# 4 0.0000 0.0000 0.0000 37.8225 0.0000 -5.4066
# 5 -31.4114 -11.1140 -16.4221 0.0000 40.9893 0.0000
# 6 0.0000 0.0000 0.0000 -5.4066 0.0000 47.0780
#
#
#
# Elastic Compliance Matrix: (Units=1/GPa)
#
#
# Indices 1 2 3 4 5 6 
#
# 1 0.019655 -0.000591 -0.002709 0.000000 0.013816 0.000000
# 2 -0.000591 0.010348 -0.005363 0.000000 0.000204 0.000000
# 3 -0.002709 -0.005363 0.017300 0.000000 0.003401 0.000000
# 4 0.000000 0.000000 0.000000 0.026881 0.000000 0.003087
# 5 0.013816 0.000204 0.003401 0.000000 0.036402 0.000000
# 6 0.000000 0.000000 0.000000 0.003087 0.000000 0.021596
#
#
# Mechanical properties :
#
#
# Convention : Reuss Voigt Hill
#
# Bulk Modulus (GPa) = 33.35922 48.81186 41.08554
# Shear Modulus (GPa) = 31.34786 37.93498 34.64142
#
# Velocity S-wave (km/s) = 3.60292 3.96342 3.78746
# Velocity P-wave (km/s) = 5.57870 6.41543 6.01164
#
# Compressibility (1/GPa) = 0.02997672
#
# Stress axis : x y z
#
# Youngs Moduli (GPa) = 50.87814 96.63299 57.80408
#
# Poissons Ratio (x) = 0.05710 0.15661
# Poissons Ratio (y) = 0.03006 0.31000
# Poissons Ratio (z) = 0.13785 0.51823
#
# Static dielectric constant tensor:
#      x y z
#    x 4.643160 0.000000 -0.427130 
#    y 0.000000 4.637280 0.000000 
#    z -0.427130 0.000000 4.079880 
# 
# 
# High freq. dielectric constant tensor:
#      x y z
#    x 1.963960 0.000000 -0.024990 
#    y 0.000000 1.969690 0.000000 
#    z -0.024990 0.000000 1.942480 
# 
# From -- ./inp_files/30425.got.cif
#   From: 2010.06.25/outbox.cif.g09.slc.cpg/sg9_16_cif.got.tgz:30425.got - 2010.06.27 21:40:51.
