data_PCOD8055705
_publ_section_title
;
Structure prediction by ZEFSAII (Michael W. Deem and Ramdas Pophale) SiO2 
 PCOD8055705
Probable space group: C C
;
_chemical_formula_sum "Si O2"
_cell_formula_units_Z 28
_cell_length_a 8.707208
_cell_length_b 11.560236
_cell_length_c 13.323286
_cell_angle_alpha 90.000000
_cell_angle_beta 116.899403
_cell_angle_gamma 90.000000
_cell_volume 1195.984443
_symmetry_space_group_name_H-M "C C"
_symmetry_group_IT_number 9
_symmetry_cell_setting 'monoclinic'
loop_
_space_group_symop_operation_xyz
x,y,z
x,-y,1/2+z
1/2+x,1/2+y,z
1/2+x,1/2-y,1/2+z
loop_
_atom_site_type_symbol
_atom_site_label
_atom_site_fract_x
_atom_site_fract_y
_atom_site_fract_z
Si Si1 0.495970 0.429257 0.772780
Si Si2 0.647372 0.079220 0.061149
Si Si3 0.544777 0.826632 0.320023
Si Si4 0.078516 0.349393 0.954960
Si Si5 0.329437 0.032366 0.241633
Si Si6 0.388425 0.217444 0.116831
Si Si7 0.883571 0.154905 0.818676
O O1 0.348158 0.432017 0.645125
O O2 0.494363 0.305339 0.825221
O O3 0.681199 0.454265 0.779577
O O4 0.457182 0.524658 0.847499
O O5 0.553316 0.167615 0.107801
O O6 0.568294 0.947279 0.039949
O O7 0.635943 0.125897 0.945800
O O8 0.676806 0.841568 0.266076
O O9 0.370852 0.896848 0.237769
O O10 0.270912 0.294058 0.006452
O O11 0.012695 0.412113 0.833824
O O12 0.954832 0.236595 0.930444
O O13 0.282873 0.104461 0.127523
O O14 0.442155 0.298241 0.226419
#
# Coordination Sequence:
#
# PCOD8055705 Si02
#       7
#     4   4   4   4   4   4   4
#     4  12  25  48  72 106 145 190 246 291 372 429
#     4  11  27  44  74 109 145 188 250 296 362 435
#     4  11  26  48  68 106 148 187 240 303 355 441
#     4  10  23  45  70 102 145 177 247 291 369 416
#     4  10  25  44  72 104 144 190 237 305 362 426
#     4  11  23  45  74 101 140 195 232 302 357 431
#     4  11  25  46  72 102 147 187 236 304 365 424
#
# _framework density 23.411674999999999
#
# number of rings (size 3 to 8) (size 9 to 14) (size 15 to 20)
#    0.000    1.143    4.286    0.857    8.000    3.429 
#    2.571    0.000    0.000    0.000    0.000    0.000 
#    0.000    0.000    0.000    0.000    0.000    0.000 
#
# Total GULP energy -173442.467412 kJ/mol
# GULP energy per Si atom -12388.747672 kJ/mol
# Density = 2.335839 g / cm^3
# Si number density = 23.411675 Si / 1000 Ang^3
#
#
#
# Elastic Constant Matrix: (Units=GPa)
#
#
# Indices 1 2 3 4 5 6 
#
# 1 78.2029 63.0796 27.4503 0.0000 7.9212 0.0000
# 2 63.0796 202.3822 39.6966 0.0000 11.6014 0.0000
# 3 27.4503 39.6966 73.2427 0.0000 14.3046 0.0000
# 4 0.0000 0.0000 0.0000 45.3386 0.0000 2.6679
# 5 7.9212 11.6014 14.3046 0.0000 27.4641 0.0000
# 6 0.0000 0.0000 0.0000 2.6679 0.0000 40.5964
#
#
#
# Elastic Compliance Matrix: (Units=1/GPa)
#
#
# Indices 1 2 3 4 5 6 
#
# 1 0.018191 -0.004824 -0.003982 0.000000 -0.001135 0.000000
# 2 -0.004824 0.006826 -0.001782 0.000000 -0.000564 0.000000
# 3 -0.003982 -0.001782 0.017522 0.000000 -0.007225 0.000000
# 4 0.000000 0.000000 0.000000 0.022142 0.000000 -0.001455
# 5 -0.001135 -0.000564 -0.007225 0.000000 0.040740 0.000000
# 6 0.000000 0.000000 0.000000 -0.001455 0.000000 0.024728
#
#
# Mechanical properties :
#
#
# Convention : Reuss Voigt Hill
#
# Bulk Modulus (GPa) = 46.80458 68.25342 57.52900
# Shear Modulus (GPa) = 31.55654 37.58659 34.57157
#
# Velocity S-wave (km/s) = 3.67536 4.01117 3.84693
# Velocity P-wave (km/s) = 6.16817 7.11825 6.66018
#
# Compressibility (1/GPa) = 0.02136543
#
# Stress axis : x y z
#
# Youngs Moduli (GPa) = 54.97319 146.48844 57.07009
#
# Poissons Ratio (x) = 0.70662 0.22722
# Poissons Ratio (y) = 0.26518 0.10169
# Poissons Ratio (z) = 0.21888 0.26101
#
# Static dielectric constant tensor:
#      x y z
#    x 3.829890 0.000000 0.215810 
#    y 0.000000 4.997280 0.000000 
#    z 0.215810 0.000000 4.090440 
# 
# 
# High freq. dielectric constant tensor:
#      x y z
#    x 1.897680 0.000000 0.016220 
#    y 0.000000 1.960710 0.000000 
#    z 0.016220 0.000000 1.905550 
# 
# From -- ./inp_files/14223.got.cif
#   From: 2010.06.25/outbox.cif.g09.slc.cpg/sg9_8_cif.got.tgz:14223.got - 2010.06.27 21:40:51.
