data_PCOD8055635
_publ_section_title
;
Structure prediction by ZEFSAII (Michael W. Deem and Ramdas Pophale) SiO2 
 PCOD8055635
Probable space group: C C
;
_chemical_formula_sum "Si O2"
_cell_formula_units_Z 28
_cell_length_a 17.428982
_cell_length_b 8.783464
_cell_length_c 23.338502
_cell_angle_alpha 90.000000
_cell_angle_beta 19.145118
_cell_angle_gamma 90.000000
_cell_volume 1171.748009
_symmetry_space_group_name_H-M "C C"
_symmetry_group_IT_number 9
_symmetry_cell_setting 'monoclinic'
loop_
_space_group_symop_operation_xyz
x,y,z
x,-y,1/2+z
1/2+x,1/2+y,z
1/2+x,1/2-y,1/2+z
loop_
_atom_site_type_symbol
_atom_site_label
_atom_site_fract_x
_atom_site_fract_y
_atom_site_fract_z
Si Si1 0.843980 0.219363 0.815320
Si Si2 0.223992 0.727376 0.261481
Si Si3 0.901320 0.890081 0.960443
Si Si4 0.444835 0.736393 0.310974
Si Si5 0.014325 0.926182 0.646578
Si Si6 0.355931 0.076002 0.200400
Si Si7 0.239162 0.707345 0.119019
O O1 0.823425 0.372071 0.790391
O O2 0.982594 0.250201 0.777100
O O3 0.010809 0.105557 0.661390
O O4 0.600921 0.136199 0.001869
O O5 0.355615 0.598967 0.203692
O O6 0.277803 0.696270 0.158525
O O7 0.950802 0.678570 0.455792
O O8 0.317958 0.892944 0.219700
O O9 0.899273 0.886404 0.892705
O O10 0.153444 0.841609 0.806710
O O11 0.715409 0.780692 0.121735
O O12 0.832025 0.059478 0.021949
O O13 0.395519 0.664044 0.283752
O O14 0.279195 0.880141 0.442838
#
# Coordination Sequence:
#
# PCOD8055635 Si02
#       7
#     4   4   4   4   4   4   4
#     4  12  27  43  72 108 141 185 241 304 353 418
#     4  11  25  49  71 102 143 194 235 288 362 434
#     4  10  24  45  71 104 144 192 234 298 359 433
#     4  10  23  43  72 107 144 183 243 295 365 418
#     4  11  25  43  75 102 143 188 239 295 356 433
#     4  11  26  45  71 102 148 185 240 293 361 420
#     4  11  26  44  74 101 145 187 240 291 360 428
#
# _framework density 23.895924000000001
#
# number of rings (size 3 to 8) (size 9 to 14) (size 15 to 20)
#    0.000    1.143    0.000    4.286   14.000    3.429 
#    2.571    0.000    0.000    0.000    0.000    0.000 
#    0.000    0.000    0.000    0.000    0.000    0.000 
#
# Total GULP energy -173457.960667 kJ/mol
# GULP energy per Si atom -12389.854333 kJ/mol
# Density = 2.384154 g / cm^3
# Si number density = 23.895924 Si / 1000 Ang^3
#
#
#
# Elastic Constant Matrix: (Units=GPa)
#
#
# Indices 1 2 3 4 5 6 
#
# 1 159.6747 17.3387 46.6350 -0.1650 -13.4063 -0.1394
# 2 17.3387 95.0714 8.9349 -0.3543 -4.9299 -0.0740
# 3 46.6350 8.9349 124.9223 -0.3450 -13.8271 -0.1645
# 4 -0.1650 -0.3543 -0.3450 28.1564 -0.1508 7.2142
# 5 -13.4063 -4.9299 -13.8271 -0.1508 43.6586 -0.0813
# 6 -0.1394 -0.0740 -0.1645 7.2142 -0.0813 34.7199
#
#
#
# Elastic Compliance Matrix: (Units=1/GPa)
#
#
# Indices 1 2 3 4 5 6 
#
# 1 0.007205 -0.001014 -0.002472 0.000002 0.001315 0.000018
# 2 -0.001014 0.010774 -0.000302 0.000132 0.000810 -0.000008
# 3 -0.002472 -0.000302 0.009184 0.000101 0.002116 0.000017
# 4 0.000002 0.000132 0.000101 0.037517 0.000163 -0.007794
# 5 0.001315 0.000810 0.002116 0.000163 0.024071 0.000040
# 6 0.000018 -0.000008 0.000017 -0.007794 0.000040 0.030422
#
#
# Mechanical properties :
#
#
# Convention : Reuss Voigt Hill
#
# Bulk Modulus (GPa) = 51.05104 58.38731 54.71918
# Shear Modulus (GPa) = 37.51594 41.75764 39.63679
#
# Velocity S-wave (km/s) = 3.96659 4.18482 4.07716
# Velocity P-wave (km/s) = 6.51066 6.91646 6.71662
#
# Compressibility (1/GPa) = 0.01958824
#
# Stress axis : x y z
#
# Youngs Moduli (GPa) = 138.79024 92.81472 108.88749
#
# Poissons Ratio (x) = 0.09407 0.26913
# Poissons Ratio (y) = 0.14067 0.03291
# Poissons Ratio (z) = 0.34304 0.02805
#
# Static dielectric constant tensor:
#      x y z
#    x 4.653270 -0.000010 -0.337430 
#    y -0.000010 4.070400 -0.001660 
#    z -0.337430 -0.001660 4.820230 
# 
# 
# High freq. dielectric constant tensor:
#      x y z
#    x 1.961980 0.000000 -0.000250 
#    y 0.000000 1.928520 0.000030 
#    z -0.000250 0.000030 1.971050 
# 
# From -- ./inp_files/11389.got.cif
#   From: 2010.06.25/outbox.cif.g09.slc.cpg/sg9_6_cif.got.tgz:11389.got - 2010.06.27 21:40:51.
