data_PCOD8055164
_publ_section_title
;
Structure prediction by ZEFSAII (Michael W. Deem and Ramdas Pophale) SiO2 
 PCOD8055164
Probable space group: C C
;
_chemical_formula_sum "Si O2"
_cell_formula_units_Z 28
_cell_length_a 6.870121
_cell_length_b 25.701734
_cell_length_c 7.906684
_cell_angle_alpha 90.000000
_cell_angle_beta 109.916307
_cell_angle_gamma 90.000000
_cell_volume 1312.615054
_symmetry_space_group_name_H-M "C C"
_symmetry_group_IT_number 9
_symmetry_cell_setting 'monoclinic'
loop_
_space_group_symop_operation_xyz
x,y,z
x,-y,1/2+z
1/2+x,1/2+y,z
1/2+x,1/2-y,1/2+z
loop_
_atom_site_type_symbol
_atom_site_label
_atom_site_fract_x
_atom_site_fract_y
_atom_site_fract_z
Si Si1 0.545920 0.496444 0.619490
Si Si2 0.819922 0.695375 0.068620
Si Si3 0.439133 0.804769 0.227670
Si Si4 0.879679 0.765153 0.398120
Si Si5 0.224574 0.502582 0.777667
Si Si6 0.371771 0.923818 0.204778
Si Si7 0.390359 0.076267 0.102365
O O1 0.470021 0.504436 0.790448
O O2 0.300202 0.489458 0.493425
O O3 0.663423 0.547584 0.579054
O O4 0.692991 0.446158 0.646005
O O5 0.877513 0.714154 0.896804
O O6 0.571028 0.697976 0.002713
O O7 0.898834 0.637840 0.131743
O O8 0.925572 0.730935 0.243970
O O9 0.687794 0.802164 0.295675
O O10 0.363538 0.862969 0.165325
O O11 0.333658 0.770092 0.050294
O O12 0.074233 0.550157 0.677604
O O13 0.104180 0.552255 0.234743
O O14 0.374909 0.937982 0.402514
#
# Coordination Sequence:
#
# PCOD8055164 Si02
#       7
#     4   4   4   4   4   4   4
#     4  11  22  37  58  85 119 155 196 246 295 357
#     4  10  22  40  63  88 123 158 202 254 303 361
#     4  10  22  40  63  88 123 158 202 254 303 361
#     4  10  22  40  62  92 120 160 204 252 306 358
#     4  11  22  37  58  85 119 155 196 246 295 357
#     4  10  22  38  59  88 118 158 201 242 300 364
#     4  10  22  38  59  88 118 158 201 242 300 364
#
# _framework density 21.331462999999999
#
# number of rings (size 3 to 8) (size 9 to 14) (size 15 to 20)
#    0.000    1.714    2.857    0.857    2.000    2.286 
#    0.000    7.143    0.000    0.000    0.000    0.000 
#    0.000    0.000    0.000    0.000    0.000    0.000 
#
# Total GULP energy -173472.795990 kJ/mol
# GULP energy per Si atom -12390.913999 kJ/mol
# Density = 2.128291 g / cm^3
# Si number density = 21.331463 Si / 1000 Ang^3
#
#
#
# Elastic Constant Matrix: (Units=GPa)
#
#
# Indices 1 2 3 4 5 6 
#
# 1 110.6362 34.7578 12.9000 0.0000 1.1504 0.0000
# 2 34.7578 85.3248 22.1256 0.0000 -3.4480 0.0000
# 3 12.9000 22.1256 55.5624 0.0000 -2.4769 0.0000
# 4 0.0000 0.0000 0.0000 22.8159 0.0000 0.5557
# 5 1.1504 -3.4480 -2.4769 0.0000 41.7143 0.0000
# 6 0.0000 0.0000 0.0000 0.5557 0.0000 25.8873
#
#
#
# Elastic Compliance Matrix: (Units=1/GPa)
#
#
# Indices 1 2 3 4 5 6 
#
# 1 0.010417 -0.004054 -0.000834 0.000000 -0.000672 0.000000
# 2 -0.004054 0.014672 -0.004855 0.000000 0.001036 0.000000
# 3 -0.000834 -0.004855 0.020161 0.000000 0.000819 0.000000
# 4 0.000000 0.000000 0.000000 0.043852 0.000000 -0.000941
# 5 -0.000672 0.001036 0.000819 0.000000 0.024125 0.000000
# 6 0.000000 0.000000 0.000000 -0.000941 0.000000 0.038649
#
#
# Mechanical properties :
#
#
# Convention : Reuss Voigt Hill
#
# Bulk Modulus (GPa) = 38.81467 43.45447 41.13457
# Shear Modulus (GPa) = 27.78530 30.19950 28.99240
#
# Velocity S-wave (km/s) = 3.61300 3.76669 3.69065
# Velocity P-wave (km/s) = 5.96997 6.27157 6.12263
#
# Compressibility (1/GPa) = 0.02576345
#
# Stress axis : x y z
#
# Youngs Moduli (GPa) = 96.00130 68.15559 49.59996
#
# Poissons Ratio (x) = 0.27631 0.04136
# Poissons Ratio (y) = 0.38921 0.24082
# Poissons Ratio (z) = 0.08006 0.33091
#
# Static dielectric constant tensor:
#      x y z
#    x 3.770580 0.000000 -0.158700 
#    y 0.000000 3.539620 0.000000 
#    z -0.158700 0.000000 4.028310 
# 
# 
# High freq. dielectric constant tensor:
#      x y z
#    x 1.847540 0.000000 -0.004790 
#    y 0.000000 1.814480 0.000000 
#    z -0.004790 0.000000 1.857000 
# 
# From -- ./inp_files/4191.got.cif
#   From: 2010.06.25/outbox.cif.g09.slc.cpg/sg9_3_cif.got.tgz:4191.got - 2010.06.27 21:40:51.
