data_PCOD8055636
_publ_section_title
;
Structure prediction by ZEFSAII (Michael W. Deem and Ramdas Pophale) SiO2 
 PCOD8055636
Probable space group: C C
;
_chemical_formula_sum "Si O2"
_cell_formula_units_Z 32
_cell_length_a 11.069173
_cell_length_b 9.842515
_cell_length_c 13.169082
_cell_angle_alpha 90.000000
_cell_angle_beta 69.126816
_cell_angle_gamma 90.000000
_cell_volume 1340.590906
_symmetry_space_group_name_H-M "C C"
_symmetry_group_IT_number 9
_symmetry_cell_setting 'monoclinic'
loop_
_space_group_symop_operation_xyz
x,y,z
x,-y,1/2+z
1/2+x,1/2+y,z
1/2+x,1/2-y,1/2+z
loop_
_atom_site_type_symbol
_atom_site_label
_atom_site_fract_x
_atom_site_fract_y
_atom_site_fract_z
Si Si1 0.522860 0.004569 0.415360
Si Si2 0.863213 0.716873 0.575390
Si Si3 0.160265 0.608074 0.061582
Si Si4 0.652533 0.264620 0.311028
Si Si5 0.991226 0.151178 0.699557
Si Si6 0.038874 0.144078 0.170911
Si Si7 0.867496 0.739192 0.890267
Si Si8 0.262247 0.341063 0.125186
O O1 0.406288 0.076408 0.511757
O O2 0.610424 0.106679 0.323855
O O3 0.621474 0.931757 0.460966
O O4 0.457323 0.894075 0.362015
O O5 0.798377 0.815736 0.511509
O O6 0.758399 0.697121 0.694750
O O7 0.993093 0.784343 0.580668
O O8 0.177734 0.475288 0.128238
O O9 0.052705 0.709952 0.138318
O O10 0.520868 0.344205 0.314260
O O11 0.720181 0.301558 0.398368
O O12 0.842711 0.143059 0.706347
O O13 0.061769 0.014308 0.638947
O O14 0.170497 0.211861 0.169955
O O15 0.928035 0.155640 0.291244
O O16 0.860126 0.809217 0.002631
#
# Coordination Sequence:
#
# PCOD8055636 Si02
#       8
#     4   4   4   4   4   4   4   4
#     4  12  24  46  72 109 146 192 241 297 363 424
#     4  10  23  43  73 102 144 193 232 299 366 416
#     4  11  23  43  75 102 138 189 243 288 358 426
#     4  10  25  45  67 107 149 183 237 306 354 421
#     4  11  26  45  72 108 141 193 245 284 369 435
#     4  11  25  45  74 108 146 187 238 301 361 424
#     4  11  26  45  76 106 144 190 241 294 365 427
#     4  12  24  48  77 100 148 193 239 299 356 429
#
# _framework density 23.870069999999998
#
# number of rings (size 3 to 8) (size 9 to 14) (size 15 to 20)
#    0.000    1.000    5.000    0.000    7.000    2.000 
#    6.750    0.000    0.000    0.000    0.000    0.000 
#    0.000    0.000    0.000    0.000    0.000    0.000 
#
# Total GULP energy -198257.845767 kJ/mol
# GULP energy per Si atom -12391.115360 kJ/mol
# Density = 2.381574 g / cm^3
# Si number density = 23.870070 Si / 1000 Ang^3
#
#
#
# Elastic Constant Matrix: (Units=GPa)
#
#
# Indices 1 2 3 4 5 6 
#
# 1 164.0837 52.2358 22.6159 0.0000 39.9508 0.0000
# 2 52.2358 117.5251 2.0096 0.0000 12.4432 0.0000
# 3 22.6159 2.0096 32.9306 0.0000 -3.7241 0.0000
# 4 0.0000 0.0000 0.0000 39.7578 0.0000 -2.5352
# 5 39.9508 12.4432 -3.7241 0.0000 45.8104 0.0000
# 6 0.0000 0.0000 0.0000 -2.5352 0.0000 53.4619
#
#
#
# Elastic Compliance Matrix: (Units=1/GPa)
#
#
# Indices 1 2 3 4 5 6 
#
# 1 0.010483 -0.003590 -0.007978 0.000000 -0.008816 0.000000
# 2 -0.003590 0.010011 0.001918 0.000000 0.000567 0.000000
# 3 -0.007978 0.001918 0.036795 0.000000 0.009427 0.000000
# 4 0.000000 0.000000 0.000000 0.025229 0.000000 0.001196
# 5 -0.008816 0.000567 0.009427 0.000000 0.030130 0.000000
# 6 0.000000 0.000000 0.000000 0.001196 0.000000 0.018762
#
#
# Mechanical properties :
#
#
# Convention : Reuss Voigt Hill
#
# Bulk Modulus (GPa) = 26.32138 52.02910 39.17524
# Shear Modulus (GPa) = 30.60526 43.65122 37.12824
#
# Velocity S-wave (km/s) = 3.58461 4.28097 3.94817
# Velocity P-wave (km/s) = 5.30881 6.80292 6.10177
#
# Compressibility (1/GPa) = 0.03799193
#
# Stress axis : x y z
#
# Youngs Moduli (GPa) = 95.39061 99.88579 27.17784
#
# Poissons Ratio (x) = 0.35855 0.21681
# Poissons Ratio (y) = 0.34242 -0.05214
# Poissons Ratio (z) = 0.76098 -0.19162
#
# Static dielectric constant tensor:
#      x y z
#    x 4.909630 0.000000 0.485750 
#    y 0.000000 4.233480 0.000000 
#    z 0.485750 0.000000 4.089510 
# 
# 
# High freq. dielectric constant tensor:
#      x y z
#    x 1.968810 0.000000 0.015040 
#    y 0.000000 1.943900 0.000000 
#    z 0.015040 0.000000 1.925190 
# 
# From -- ./inp_files/24177.got.cif
#   From: 2010.06.25/outbox.cif.g09.slc.cpg/sg9_13_cif.got.tgz:24177.got - 2010.06.27 21:40:51.
