data_PCOD8055257
_publ_section_title
;
Structure prediction by ZEFSAII (Michael W. Deem and Ramdas Pophale) SiO2 
 PCOD8055257
Probable space group: C C
;
_chemical_formula_sum "Si O2"
_cell_formula_units_Z 32
_cell_length_a 10.288104
_cell_length_b 23.844257
_cell_length_c 7.565465
_cell_angle_alpha 90.000000
_cell_angle_beta 56.184660
_cell_angle_gamma 90.000000
_cell_volume 1541.948296
_symmetry_space_group_name_H-M "C C"
_symmetry_group_IT_number 9
_symmetry_cell_setting 'monoclinic'
loop_
_space_group_symop_operation_xyz
x,y,z
x,-y,1/2+z
1/2+x,1/2+y,z
1/2+x,1/2-y,1/2+z
loop_
_atom_site_type_symbol
_atom_site_label
_atom_site_fract_x
_atom_site_fract_y
_atom_site_fract_z
Si Si1 0.326620 0.114163 0.531490
Si Si2 0.011945 0.496739 0.874808
Si Si3 0.320593 0.809346 0.723786
Si Si4 0.454799 0.691325 0.509520
Si Si5 0.307112 0.897100 0.446232
Si Si6 0.759501 0.996544 0.939061
Si Si7 0.465054 0.603760 0.790319
Si Si8 0.445527 0.613042 0.206993
O O1 0.439042 0.063659 0.392415
O O2 0.375069 0.168408 0.376577
O O3 0.342409 0.128936 0.726388
O O4 0.149848 0.094789 0.622192
O O5 0.066452 0.503284 0.039021
O O6 0.205269 0.501266 0.685806
O O7 0.891415 0.543920 0.906528
O O8 0.389146 0.750909 0.611953
O O9 0.375420 0.854421 0.537454
O O10 0.137838 0.801406 0.866179
O O11 0.398177 0.648288 0.702442
O O12 0.400019 0.667832 0.358691
O O13 0.122258 0.906787 0.615312
O O14 0.829406 0.936286 0.845924
O O15 0.883145 0.045167 0.807716
O O16 0.426736 0.627380 0.014590
#
# Coordination Sequence:
#
# PCOD8055257 Si02
#       8
#     4   4   4   4   4   4   4   4
#     4  10  22  41  62  87 122 167 207 241 304 374
#     4  12  22  36  58  94 131 156 198 254 308 358
#     4  10  23  42  63  89 118 159 209 256 304 361
#     4  10  23  42  63  89 118 159 209 256 304 361
#     4  10  22  41  63  86 124 167 203 245 301 376
#     4  12  22  36  58  94 131 156 198 254 308 358
#     4  10  22  41  63  86 124 167 203 245 301 376
#     4  10  22  41  62  87 122 167 207 241 304 374
#
# _framework density 20.752966000000001
#
# number of rings (size 3 to 8) (size 9 to 14) (size 15 to 20)
#    0.000    1.500    2.500    2.250    0.000    4.000 
#    0.000    0.000    0.000    0.000    0.000    0.000 
#    0.000    0.000    0.000    0.000    0.000    0.000 
#
# Total GULP energy -198275.294235 kJ/mol
# GULP energy per Si atom -12392.205890 kJ/mol
# Density = 2.070573 g / cm^3
# Si number density = 20.752966 Si / 1000 Ang^3
#
#
#
# Elastic Constant Matrix: (Units=GPa)
#
#
# Indices 1 2 3 4 5 6 
#
# 1 71.8271 37.6412 28.2177 0.0000 12.8500 0.0000
# 2 37.6412 117.1790 63.4675 0.0000 4.0023 0.0000
# 3 28.2177 63.4675 114.7860 0.0000 4.1428 0.0000
# 4 0.0000 0.0000 0.0000 46.5862 0.0000 -0.4971
# 5 12.8500 4.0023 4.1428 0.0000 22.9419 0.0000
# 6 0.0000 0.0000 0.0000 -0.4971 0.0000 26.4233
#
#
#
# Elastic Compliance Matrix: (Units=1/GPa)
#
#
# Indices 1 2 3 4 5 6 
#
# 1 0.018765 -0.004843 -0.001597 0.000000 -0.009377 0.000000
# 2 -0.004843 0.013451 -0.006301 0.000000 0.001504 0.000000
# 3 -0.001597 -0.006301 0.012599 0.000000 -0.000281 0.000000
# 4 0.000000 0.000000 0.000000 0.021470 0.000000 0.000404
# 5 -0.009377 0.001504 -0.000281 0.000000 0.048629 0.000000
# 6 0.000000 0.000000 0.000000 0.000404 0.000000 0.037853
#
#
# Mechanical properties :
#
#
# Convention : Reuss Voigt Hill
#
# Bulk Modulus (GPa) = 51.72432 62.49389 57.10911
# Shear Modulus (GPa) = 27.07197 30.82132 28.94664
#
# Velocity S-wave (km/s) = 3.61569 3.85795 3.73878
# Velocity P-wave (km/s) = 6.51221 7.07274 6.79825
#
# Compressibility (1/GPa) = 0.01933326
#
# Stress axis : x y z
#
# Youngs Moduli (GPa) = 53.29033 74.34344 79.37354
#
# Poissons Ratio (x) = 0.36002 0.12676
# Poissons Ratio (y) = 0.25807 0.50015
# Poissons Ratio (z) = 0.08510 0.46845
#
# Static dielectric constant tensor:
#      x y z
#    x 3.949840 0.000000 0.446140 
#    y 0.000000 3.732260 0.000000 
#    z 0.446140 0.000000 4.382750 
# 
# 
# High freq. dielectric constant tensor:
#      x y z
#    x 1.820220 0.000000 0.017680 
#    y 0.000000 1.791720 0.000000 
#    z 0.017680 0.000000 1.846710 
# 
# From -- ./inp_files/8370.got.cif
#   From: 2010.06.25/outbox.cif.g09.slc.cpg/sg9_5_cif.got.tgz:8370.got - 2010.06.27 21:40:51.
