data_PCOD8055947
_publ_section_title
;
Structure prediction by ZEFSAII (Michael W. Deem and Ramdas Pophale) SiO2 
 PCOD8055947
Probable space group: C C
;
_chemical_formula_sum "Si O2"
_cell_formula_units_Z 28
_cell_length_a 12.705484
_cell_length_b 13.325471
_cell_length_c 9.207705
_cell_angle_alpha 90.000000
_cell_angle_beta 104.081672
_cell_angle_gamma 90.000000
_cell_volume 1512.078989
_symmetry_space_group_name_H-M "C C"
_symmetry_group_IT_number 9
_symmetry_cell_setting 'monoclinic'
loop_
_space_group_symop_operation_xyz
x,y,z
x,-y,1/2+z
1/2+x,1/2+y,z
1/2+x,1/2-y,1/2+z
loop_
_atom_site_type_symbol
_atom_site_label
_atom_site_fract_x
_atom_site_fract_y
_atom_site_fract_z
Si Si1 0.574740 0.094033 0.501480
Si Si2 0.844887 0.628191 0.934025
Si Si3 0.946652 0.022157 0.956191
Si Si4 0.100126 0.807349 0.385018
Si Si5 0.939450 0.492008 0.208908
Si Si6 0.460852 0.315059 0.063561
Si Si7 0.810531 0.960387 0.146495
O O1 0.594877 0.211857 0.488371
O O2 0.497894 0.082691 0.615664
O O3 0.683479 0.030710 0.571943
O O4 0.526008 0.050527 0.336711
O O5 0.868063 0.568018 0.089910
O O6 0.930033 0.720473 0.953818
O O7 0.722513 0.662839 0.899424
O O8 0.859657 0.566871 0.790381
O O9 0.837929 0.021550 0.822231
O O10 0.036473 0.101958 0.941783
O O11 0.888238 0.043000 0.091315
O O12 0.001820 0.910217 0.979650
O O13 0.051172 0.783160 0.210830
O O14 0.351105 0.349153 0.111695
#
# Coordination Sequence:
#
# PCOD8055947 Si02
#       7
#     4   4   4   4   4   4   4
#     4  11  20  40  62  88 117 164 197 246 299 353
#     4  11  22  42  61  85 124 161 195 247 302 358
#     4   9  20  34  58  91 113 146 198 245 289 354
#     4  11  21  37  67  85 121 158 195 248 309 351
#     4  10  25  38  59  88 123 155 209 240 290 367
#     4   9  20  38  59  87 116 153 193 246 295 346
#     4   9  18  35  58  86 114 149 193 242 292 341
#
# _framework density 18.517551000000001
#
# number of rings (size 3 to 8) (size 9 to 14) (size 15 to 20)
#    0.857    1.143    2.857    0.857    2.000    1.143 
#    0.000    0.000    6.286    0.000    0.000    0.000 
#    0.000    0.000    0.000    0.000    0.000    0.000 
#
# Total GULP energy -173454.164045 kJ/mol
# GULP energy per Si atom -12389.583146 kJ/mol
# Density = 1.847540 g / cm^3
# Si number density = 18.517551 Si / 1000 Ang^3
#
#
#
# Elastic Constant Matrix: (Units=GPa)
#
#
# Indices 1 2 3 4 5 6 
#
# 1 98.8864 46.0248 38.8318 0.0000 12.8628 0.0000
# 2 46.0248 91.9575 29.4493 0.0000 -7.1849 0.0000
# 3 38.8318 29.4493 77.6525 0.0000 2.4314 0.0000
# 4 0.0000 0.0000 0.0000 30.5843 0.0000 -3.2355
# 5 12.8628 -7.1849 2.4314 0.0000 24.4454 0.0000
# 6 0.0000 0.0000 0.0000 -3.2355 0.0000 27.4699
#
#
#
# Elastic Compliance Matrix: (Units=1/GPa)
#
#
# Indices 1 2 3 4 5 6 
#
# 1 0.017224 -0.007758 -0.005333 0.000000 -0.010813 0.000000
# 2 -0.007758 0.016299 -0.002588 0.000000 0.009130 0.000000
# 3 -0.005333 -0.002588 0.016513 0.000000 0.000403 0.000000
# 4 0.000000 0.000000 0.000000 0.033109 0.000000 0.003900
# 5 -0.010813 0.009130 0.000403 0.000000 0.049240 0.000000
# 6 0.000000 0.000000 0.000000 0.003900 0.000000 0.036863
#
#
# Mechanical properties :
#
#
# Convention : Reuss Voigt Hill
#
# Bulk Modulus (GPa) = 53.53214 55.23423 54.38319
# Shear Modulus (GPa) = 24.17427 26.77930 25.47678
#
# Velocity S-wave (km/s) = 3.61706 3.80696 3.71323
# Velocity P-wave (km/s) = 6.81291 7.01547 6.91493
#
# Compressibility (1/GPa) = 0.01868037
#
# Stress axis : x y z
#
# Youngs Moduli (GPa) = 58.05948 61.35193 60.55689
#
# Poissons Ratio (x) = 0.47594 0.32292
# Poissons Ratio (y) = 0.45040 0.15672
# Poissons Ratio (z) = 0.30960 0.15878
#
# Static dielectric constant tensor:
#      x y z
#    x 3.152520 0.000000 0.086600 
#    y 0.000000 3.362500 0.000000 
#    z 0.086600 0.000000 3.479940 
# 
# 
# High freq. dielectric constant tensor:
#      x y z
#    x 1.705830 0.000000 0.009770 
#    y 0.000000 1.711170 0.000000 
#    z 0.009770 0.000000 1.730080 
# 
# From -- ./inp_files/7223.got.cif
#   From: 2010.06.25/outbox.cif.g09.slc.cpg/sg9_4_cif.got.tgz:7223.got - 2010.06.27 21:40:51.
