data_PCOD8055139
_publ_section_title
;
Structure prediction by ZEFSAII (Michael W. Deem and Ramdas Pophale) SiO2 
 PCOD8055139
Probable space group: C C
;
_chemical_formula_sum "Si O2"
_cell_formula_units_Z 32
_cell_length_a 6.015023
_cell_length_b 13.542503
_cell_length_c 15.761285
_cell_angle_alpha 90.000000
_cell_angle_beta 85.526445
_cell_angle_gamma 90.000000
_cell_volume 1279.978667
_symmetry_space_group_name_H-M "C C"
_symmetry_group_IT_number 9
_symmetry_cell_setting 'monoclinic'
loop_
_space_group_symop_operation_xyz
x,y,z
x,-y,1/2+z
1/2+x,1/2+y,z
1/2+x,1/2-y,1/2+z
loop_
_atom_site_type_symbol
_atom_site_label
_atom_site_fract_x
_atom_site_fract_y
_atom_site_fract_z
Si Si1 0.228800 0.770468 0.302950
Si Si2 0.841938 0.489072 0.352207
Si Si3 0.971511 0.866843 0.918599
Si Si4 0.674244 0.992651 0.193897
Si Si5 0.371889 0.717469 0.688518
Si Si6 0.984319 0.838570 0.658323
Si Si7 0.750553 0.283590 0.046471
Si Si8 0.077610 0.539813 0.515095
O O1 0.279448 0.688935 0.372503
O O2 0.396947 0.750282 0.220952
O O3 0.974407 0.755113 0.277754
O O4 0.252323 0.880583 0.336334
O O5 0.633189 0.564410 0.357493
O O6 0.011472 0.527057 0.274415
O O7 0.961202 0.482499 0.440838
O O8 0.838020 0.936601 0.988292
O O9 0.122677 0.783109 0.960325
O O10 0.907491 0.054626 0.195085
O O11 0.713706 0.876871 0.202993
O O12 0.568956 0.019830 0.104640
O O13 0.570458 0.684455 0.621599
O O14 0.249004 0.815762 0.653703
O O15 0.871128 0.820076 0.568375
O O16 0.950102 0.359928 0.037181
#
# Coordination Sequence:
#
# PCOD8055139 Si02
#       8
#     4   4   4   4   4   4   4   4
#     4  11  26  46  73 107 153 201 259 326 380 467
#     4  11  27  49  77 114 153 207 260 322 400 463
#     4  11  25  47  72 110 154 204 259 327 391 465
#     4  12  24  50  80 111 159 201 261 323 395 470
#     4  11  23  49  72 108 154 200 260 315 384 466
#     4  11  24  43  74 111 139 208 253 309 393 461
#     4  10  21  46  70 101 154 195 250 318 382 456
#     4  11  24  50  74 114 156 202 258 332 393 470
#
# _framework density 25.000413999999999
#
# number of rings (size 3 to 8) (size 9 to 14) (size 15 to 20)
#    0.000    1.000    3.750    1.500    5.250    4.000 
#    9.000    0.000    0.000    0.000    0.000    0.000 
#    0.000    0.000    0.000    0.000    0.000    0.000 
#
# Total GULP energy -198297.749533 kJ/mol
# GULP energy per Si atom -12393.609346 kJ/mol
# Density = 2.494351 g / cm^3
# Si number density = 25.000414 Si / 1000 Ang^3
#
#
#
# Elastic Constant Matrix: (Units=GPa)
#
#
# Indices 1 2 3 4 5 6 
#
# 1 107.2012 34.9565 42.9641 0.0000 7.4729 0.0000
# 2 34.9565 86.2274 28.4931 0.0000 12.2483 0.0000
# 3 42.9641 28.4931 129.9967 0.0000 15.5456 0.0000
# 4 0.0000 0.0000 0.0000 32.8707 0.0000 1.0231
# 5 7.4729 12.2483 15.5456 0.0000 55.1601 0.0000
# 6 0.0000 0.0000 0.0000 1.0231 0.0000 33.6081
#
#
#
# Elastic Compliance Matrix: (Units=1/GPa)
#
#
# Indices 1 2 3 4 5 6 
#
# 1 0.011787 -0.003776 -0.003081 0.000000 0.000110 0.000000
# 2 -0.003776 0.013946 -0.001552 0.000000 -0.002148 0.000000
# 3 -0.003081 -0.001552 0.009272 0.000000 -0.001851 0.000000
# 4 0.000000 0.000000 0.000000 0.030451 0.000000 -0.000927
# 5 0.000110 -0.002148 -0.001851 0.000000 0.019113 0.000000
# 6 0.000000 0.000000 0.000000 -0.000927 0.000000 0.029783
#
#
# Mechanical properties :
#
#
# Convention : Reuss Voigt Hill
#
# Bulk Modulus (GPa) = 54.98366 59.58362 57.28364
# Shear Modulus (GPa) = 36.43474 38.79522 37.61498
#
# Velocity S-wave (km/s) = 3.82169 3.94354 3.88309
# Velocity P-wave (km/s) = 6.44318 6.67983 6.56257
#
# Compressibility (1/GPa) = 0.01818722
#
# Stress axis : x y z
#
# Youngs Moduli (GPa) = 84.84183 71.70584 107.84772
#
# Poissons Ratio (x) = 0.27075 0.33228
# Poissons Ratio (y) = 0.32035 0.16738
# Poissons Ratio (z) = 0.26140 0.11128
#
# Static dielectric constant tensor:
#      x y z
#    x 4.669980 0.000000 0.340550 
#    y 0.000000 4.123510 0.000000 
#    z 0.340550 0.000000 4.944610 
# 
# 
# High freq. dielectric constant tensor:
#      x y z
#    x 2.005930 0.000000 0.012240 
#    y 0.000000 1.979110 0.000000 
#    z 0.012240 0.000000 2.000730 
# 
# From -- ./inp_files/28605.got.cif
#   From: 2010.06.25/outbox.cif.g09.slc.cpg/sg9_15_cif.got.tgz:28605.got - 2010.06.27 21:40:51.
