data_PCOD8055074
_publ_section_title
;
Structure prediction by ZEFSAII (Michael W. Deem and Ramdas Pophale) SiO2 
 PCOD8055074
Probable space group: C C
;
_chemical_formula_sum "Si O2"
_cell_formula_units_Z 32
_cell_length_a 26.128024
_cell_length_b 6.677298
_cell_length_c 16.091145
_cell_angle_alpha 90.000000
_cell_angle_beta 30.693831
_cell_angle_gamma 90.000000
_cell_volume 1433.005201
_symmetry_space_group_name_H-M "C C"
_symmetry_group_IT_number 9
_symmetry_cell_setting 'monoclinic'
loop_
_space_group_symop_operation_xyz
x,y,z
x,-y,1/2+z
1/2+x,1/2+y,z
1/2+x,1/2-y,1/2+z
loop_
_atom_site_type_symbol
_atom_site_label
_atom_site_fract_x
_atom_site_fract_y
_atom_site_fract_z
Si Si1 0.066160 0.164947 0.636270
Si Si2 0.754708 0.909804 0.370096
Si Si3 0.435154 0.231095 0.019229
Si Si4 0.151545 0.224927 0.947846
Si Si5 0.359924 0.169464 0.355482
Si Si6 0.990017 0.419847 0.064600
Si Si7 0.478944 0.643295 0.925225
Si Si8 0.313329 0.899308 0.099519
O O1 0.087206 0.928629 0.592750
O O2 0.159686 0.285768 0.469808
O O3 0.056973 0.225985 0.747076
O O4 0.965358 0.224826 0.728925
O O5 0.848449 0.861548 0.182251
O O6 0.786641 0.835664 0.417434
O O7 0.726734 0.146619 0.402260
O O8 0.508091 0.112987 0.980652
O O9 0.387971 0.079189 0.019410
O O10 0.501535 0.405453 0.886424
O O11 0.209863 0.098452 0.795017
O O12 0.077800 0.385044 0.007477
O O13 0.298568 0.088391 0.520984
O O14 0.385387 0.978208 0.259127
O O15 0.986235 0.226745 0.009180
O O16 0.367501 0.690745 0.046743
#
# Coordination Sequence:
#
# PCOD8055074 Si02
#       8
#     4   4   4   4   4   4   4   4
#     4  11  25  44  65 101 133 175 225 279 331 405
#     4  11  23  43  66  97 136 175 221 280 337 396
#     4  10  21  43  68  90 132 177 219 273 339 395
#     4  12  24  40  68  96 135 178 222 275 336 398
#     4  10  24  45  68  97 139 174 225 284 336 402
#     4  10  24  39  67  96 130 172 221 268 340 395
#     4  10  23  42  67  93 132 172 221 274 330 400
#     4  10  22  42  65  98 129 173 222 277 333 395
#
# _framework density 22.330693
#
# number of rings (size 3 to 8) (size 9 to 14) (size 15 to 20)
#    0.000    1.500    3.750    0.000    7.000    1.000 
#    0.000    0.000    0.000    0.000    0.000    0.000 
#    0.000    0.000    0.000    0.000    0.000    0.000 
#
# Total GULP energy -198235.204465 kJ/mol
# GULP energy per Si atom -12389.700279 kJ/mol
# Density = 2.227987 g / cm^3
# Si number density = 22.330693 Si / 1000 Ang^3
#
#
#
# Elastic Constant Matrix: (Units=GPa)
#
#
# Indices 1 2 3 4 5 6 
#
# 1 95.5096 34.6793 25.2948 0.0060 14.5188 0.0151
# 2 34.6793 117.4161 22.1207 0.0121 6.0889 0.0256
# 3 25.2948 22.1207 60.7459 0.0369 7.3304 0.0042
# 4 0.0060 0.0121 0.0369 29.8845 -0.0262 -3.0562
# 5 14.5188 6.0889 7.3304 -0.0262 38.4922 -0.0030
# 6 0.0151 0.0256 0.0042 -3.0562 -0.0030 19.8946
#
#
#
# Elastic Compliance Matrix: (Units=1/GPa)
#
#
# Indices 1 2 3 4 5 6 
#
# 1 0.013156 -0.002947 -0.003953 0.000000 -0.003743 -0.000006
# 2 -0.002947 0.009830 -0.002353 -0.000002 0.000005 -0.000010
# 3 -0.003953 -0.002353 0.019181 -0.000024 -0.001789 -0.000002
# 4 0.000000 -0.000002 -0.000024 0.033996 0.000028 0.005222
# 5 -0.003743 0.000005 -0.001789 0.000028 0.027731 0.000012
# 6 -0.000006 -0.000010 -0.000002 0.005222 0.000012 0.051067
#
#
# Mechanical properties :
#
#
# Convention : Reuss Voigt Hill
#
# Bulk Modulus (GPa) = 42.26437 48.65124 45.45781
# Shear Modulus (GPa) = 27.57008 30.42604 28.99806
#
# Velocity S-wave (km/s) = 3.51754 3.69524 3.60748
# Velocity P-wave (km/s) = 5.95526 6.32775 6.14433
#
# Compressibility (1/GPa) = 0.02366059
#
# Stress axis : x y z
#
# Youngs Moduli (GPa) = 76.00970 101.72780 52.13461
#
# Poissons Ratio (x) = 0.29977 0.20611
# Poissons Ratio (y) = 0.22399 0.12268
# Poissons Ratio (z) = 0.30050 0.23938
#
# Static dielectric constant tensor:
#      x y z
#    x 3.970630 -0.000060 0.172150 
#    y -0.000060 4.014460 0.000010 
#    z 0.172150 0.000010 3.999410 
# 
# 
# High freq. dielectric constant tensor:
#      x y z
#    x 1.871460 0.000000 0.009450 
#    y 0.000000 1.878030 0.000000 
#    z 0.009450 0.000000 1.871890 
# 
# From -- ./inp_files/26391.got.cif
#   From: 2010.06.25/outbox.cif.g09.slc.cpg/sg9_14_cif.got.tgz:26391.got - 2010.06.27 21:40:51.
