data_PCOD8055400
_publ_section_title
;
Structure prediction by ZEFSAII (Michael W. Deem and Ramdas Pophale) SiO2 
 PCOD8055400
Probable space group: C C
;
_chemical_formula_sum "Si O2"
_cell_formula_units_Z 32
_cell_length_a 25.421669
_cell_length_b 11.313488
_cell_length_c 14.285510
_cell_angle_alpha 90.000000
_cell_angle_beta 158.938448
_cell_angle_gamma 90.000000
_cell_volume 1476.518742
_symmetry_space_group_name_H-M "C C"
_symmetry_group_IT_number 9
_symmetry_cell_setting 'monoclinic'
loop_
_space_group_symop_operation_xyz
x,y,z
x,-y,1/2+z
1/2+x,1/2+y,z
1/2+x,1/2-y,1/2+z
loop_
_atom_site_type_symbol
_atom_site_label
_atom_site_fract_x
_atom_site_fract_y
_atom_site_fract_z
Si Si1 0.042150 0.504486 0.864330
Si Si2 0.791264 0.826127 0.843204
Si Si3 0.598384 0.993312 0.742771
Si Si4 0.418977 0.414148 0.237128
Si Si5 0.549156 0.192539 0.524060
Si Si6 0.853698 0.722705 0.571341
Si Si7 0.615750 0.382261 0.011549
Si Si8 0.863188 0.680501 0.797839
O O1 0.062936 0.470612 0.791201
O O2 0.006664 0.388084 0.864853
O O3 0.900752 0.588352 0.630493
O O4 0.185403 0.563957 0.146323
O O5 0.694571 0.710578 0.714399
O O6 0.879140 0.792700 0.894235
O O7 0.908180 0.860836 0.115044
O O8 0.514779 0.892759 0.543674
O O9 0.542840 0.120146 0.611350
O O10 0.772044 0.985186 0.016331
O O11 0.440931 0.306071 0.346562
O O12 0.561343 0.499913 0.474011
O O13 0.709901 0.246162 0.774347
O O14 0.823807 0.735720 0.632706
O O15 0.975210 0.814377 0.736052
O O16 0.730586 0.404852 0.116485
#
# Coordination Sequence:
#
# PCOD8055400 Si02
#       8
#     4   4   4   4   4   4   4   4
#     4  11  23  44  72  96 139 183 226 292 342 407
#     4   9  20  42  69  94 129 180 225 280 347 395
#     4  12  24  46  66 101 146 175 235 288 349 417
#     4  12  24  45  66 103 140 175 230 288 339 420
#     4  12  26  42  71 101 136 183 228 279 351 411
#     4  11  21  44  70  96 141 176 232 288 341 411
#     4   9  22  40  68  96 131 178 227 278 343 402
#     4  10  22  43  70  99 132 186 227 287 344 407
#
# _framework density 21.672599999999999
#
# number of rings (size 3 to 8) (size 9 to 14) (size 15 to 20)
#    0.750    0.500    3.750    2.250    1.750    1.000 
#    4.500    0.000    0.000    0.000    0.000    0.000 
#    0.000    0.000    0.000    0.000    0.000    0.000 
#
# Total GULP energy -198332.245476 kJ/mol
# GULP energy per Si atom -12395.765342 kJ/mol
# Density = 2.162327 g / cm^3
# Si number density = 21.672600 Si / 1000 Ang^3
#
#
#
# Elastic Constant Matrix: (Units=GPa)
#
#
# Indices 1 2 3 4 5 6 
#
# 1 68.1076 8.9160 2.6876 0.0000 -1.9439 0.0000
# 2 8.9160 97.0054 21.1173 0.0000 -6.6485 0.0000
# 3 2.6876 21.1173 55.2647 0.0000 1.3018 0.0000
# 4 0.0000 0.0000 0.0000 27.8930 0.0000 1.0545
# 5 -1.9439 -6.6485 1.3018 0.0000 25.3644 0.0000
# 6 0.0000 0.0000 0.0000 1.0545 0.0000 27.6665
#
#
#
# Elastic Compliance Matrix: (Units=1/GPa)
#
#
# Indices 1 2 3 4 5 6 
#
# 1 0.014881 -0.001254 -0.000264 0.000000 0.000825 0.000000
# 2 -0.001254 0.011610 -0.004450 0.000000 0.003176 0.000000
# 3 -0.000264 -0.004450 0.019860 0.000000 -0.002206 0.000000
# 4 0.000000 0.000000 0.000000 0.035903 0.000000 -0.001368
# 5 0.000825 0.003176 -0.002206 0.000000 0.040434 0.000000
# 6 0.000000 0.000000 0.000000 -0.001368 0.000000 0.036197
#
#
# Mechanical properties :
#
#
# Convention : Reuss Voigt Hill
#
# Bulk Modulus (GPa) = 29.05703 31.75774 30.40738
# Shear Modulus (GPa) = 27.42834 28.69523 28.06179
#
# Velocity S-wave (km/s) = 3.56135 3.64267 3.60224
# Velocity P-wave (km/s) = 5.50884 5.69011 5.60021
#
# Compressibility (1/GPa) = 0.03441508
#
# Stress axis : x y z
#
# Youngs Moduli (GPa) = 67.20093 86.12982 50.35230
#
# Poissons Ratio (x) = 0.10798 0.01330
# Poissons Ratio (y) = 0.08425 0.22408
# Poissons Ratio (z) = 0.01775 0.38330
#
# Static dielectric constant tensor:
#      x y z
#    x 3.693520 0.000000 0.032350 
#    y 0.000000 3.922980 0.000000 
#    z 0.032350 0.000000 3.853900 
# 
# 
# High freq. dielectric constant tensor:
#      x y z
#    x 1.831860 0.000000 0.001560 
#    y 0.000000 1.853560 0.000000 
#    z 0.001560 0.000000 1.845720 
# 
# From -- ./inp_files/28112.got.cif
#   From: 2010.06.25/outbox.cif.g09.slc.cpg/sg9_15_cif.got.tgz:28112.got - 2010.06.27 21:40:51.
