data_PCOD8055742
_publ_section_title
;
Structure prediction by ZEFSAII (Michael W. Deem and Ramdas Pophale) SiO2 
 PCOD8055742
Probable space group: C C
;
_chemical_formula_sum "Si O2"
_cell_formula_units_Z 32
_cell_length_a 26.397535
_cell_length_b 8.430526
_cell_length_c 16.056691
_cell_angle_alpha 90.000000
_cell_angle_beta 20.129597
_cell_angle_gamma 90.000000
_cell_volume 1229.745515
_symmetry_space_group_name_H-M "C C"
_symmetry_group_IT_number 9
_symmetry_cell_setting 'monoclinic'
loop_
_space_group_symop_operation_xyz
x,y,z
x,-y,1/2+z
1/2+x,1/2+y,z
1/2+x,1/2-y,1/2+z
loop_
_atom_site_type_symbol
_atom_site_label
_atom_site_fract_x
_atom_site_fract_y
_atom_site_fract_z
Si Si1 0.873600 0.744901 0.926010
Si Si2 0.070031 0.464174 0.242079
Si Si3 0.438500 0.002082 0.612949
Si Si4 0.182300 0.015109 0.761202
Si Si5 0.899033 0.227903 0.966789
Si Si6 0.888163 0.846896 0.724691
Si Si7 0.209220 0.541477 0.804020
Si Si8 0.172003 0.847958 0.955498
O O1 0.943553 0.805827 0.732904
O O2 0.993156 0.656147 0.797706
O O3 0.747823 0.614464 0.096562
O O4 0.797717 0.889469 0.089951
O O5 0.037204 0.419878 0.388176
O O6 0.013769 0.645720 0.326852
O O7 0.239962 0.447738 0.956520
O O8 0.385060 0.182885 0.677602
O O9 0.538951 0.995547 0.541141
O O10 0.286626 0.901139 0.850799
O O11 0.270456 0.180608 0.615102
O O12 0.205290 0.946084 0.819796
O O13 0.014425 0.039068 0.993106
O O14 0.003400 0.121410 0.744877
O O15 0.808628 0.115662 0.172911
O O16 0.197343 0.659130 0.900439
#
# Coordination Sequence:
#
# PCOD8055742 Si02
#       8
#     4   4   4   4   4   4   4   4
#     4  10  23  46  75  97 148 186 230 290 368 416
#     4  11  26  47  69 110 145 181 245 301 348 442
#     4  12  25  45  70 111 141 187 251 290 357 438
#     4  10  23  46  69 104 143 182 234 300 349 427
#     4  11  24  45  71 102 138 191 238 289 364 424
#     4  12  26  43  77 102 143 195 237 298 366 422
#     4  11  23  46  75  99 150 186 235 300 359 424
#     4  11  26  46  72 105 146 186 238 302 361 427
#
# _framework density 26.021642
#
# number of rings (size 3 to 8) (size 9 to 14) (size 15 to 20)
#    0.000    1.000    6.250    0.750    7.000    3.000 
#    2.250    0.000    0.000    0.000    0.000    0.000 
#    0.000    0.000    0.000    0.000    0.000    0.000 
#
# Total GULP energy -198318.496127 kJ/mol
# GULP energy per Si atom -12394.906008 kJ/mol
# Density = 2.596242 g / cm^3
# Si number density = 26.021642 Si / 1000 Ang^3
#
#
#
# Elastic Constant Matrix: (Units=GPa)
#
#
# Indices 1 2 3 4 5 6 
#
# 1 45.6490 18.0562 20.4544 0.0000 -26.7258 0.0000
# 2 18.0562 101.7732 41.4650 0.0000 -37.5784 0.0000
# 3 20.4544 41.4650 155.8993 0.0000 -37.7736 0.0000
# 4 0.0000 0.0000 0.0000 50.2378 0.0000 0.5472
# 5 -26.7258 -37.5784 -37.7736 0.0000 43.6350 0.0000
# 6 0.0000 0.0000 0.0000 0.5472 0.0000 27.3113
#
#
#
# Elastic Compliance Matrix: (Units=1/GPa)
#
#
# Indices 1 2 3 4 5 6 
#
# 1 0.034613 0.002399 0.000579 0.000000 0.023767 0.000000
# 2 0.002399 0.014709 -0.001014 0.000000 0.013258 0.000000
# 3 0.000579 -0.001014 0.008203 0.000000 0.006582 0.000000
# 4 0.000000 0.000000 0.000000 0.019910 0.000000 -0.000399
# 5 0.023767 0.013258 0.006582 0.000000 0.054591 0.000000
# 6 0.000000 0.000000 0.000000 -0.000399 0.000000 0.036623
#
#
# Mechanical properties :
#
#
# Convention : Reuss Voigt Hill
#
# Bulk Modulus (GPa) = 16.27286 51.47475 33.87380
# Shear Modulus (GPa) = 26.99719 39.12656 33.06187
#
# Velocity S-wave (km/s) = 3.22450 3.88186 3.56835
# Velocity P-wave (km/s) = 4.48669 6.31793 5.47935
#
# Compressibility (1/GPa) = 0.06145202
#
# Stress axis : x y z
#
# Youngs Moduli (GPa) = 28.89124 67.98555 121.90547
#
# Poissons Ratio (x) = -0.16308 -0.07063
# Poissons Ratio (y) = -0.06930 0.12367
# Poissons Ratio (z) = -0.01674 0.06897
#
# Static dielectric constant tensor:
#      x y z
#    x 4.279930 0.000000 0.103620 
#    y 0.000000 4.815110 0.000000 
#    z 0.103620 0.000000 4.965900 
# 
# 
# High freq. dielectric constant tensor:
#      x y z
#    x 2.010910 0.000000 -0.000490 
#    y 0.000000 2.050200 0.000000 
#    z -0.000490 0.000000 2.062550 
# 
# From -- ./inp_files/31841.got.cif
#   From: 2010.06.25/outbox.cif.g09.slc.cpg/sg9_16_cif.got.tgz:31841.got - 2010.06.27 21:40:51.
