data_PCOD8055702
_publ_section_title
;
Structure prediction by ZEFSAII (Michael W. Deem and Ramdas Pophale) SiO2 
 PCOD8055702
Probable space group: C C
;
_chemical_formula_sum "Si O2"
_cell_formula_units_Z 32
_cell_length_a 27.558913
_cell_length_b 9.278540
_cell_length_c 16.074609
_cell_angle_alpha 90.000000
_cell_angle_beta 19.860151
_cell_angle_gamma 90.000000
_cell_volume 1396.401459
_symmetry_space_group_name_H-M "C C"
_symmetry_group_IT_number 9
_symmetry_cell_setting 'monoclinic'
loop_
_space_group_symop_operation_xyz
x,y,z
x,-y,1/2+z
1/2+x,1/2+y,z
1/2+x,1/2-y,1/2+z
loop_
_atom_site_type_symbol
_atom_site_label
_atom_site_fract_x
_atom_site_fract_y
_atom_site_fract_z
Si Si1 0.051220 0.181574 0.040840
Si Si2 0.771152 0.338565 0.050139
Si Si3 0.425241 0.599608 0.710435
Si Si4 0.235654 0.218338 0.222968
Si Si5 0.266685 0.538855 0.809132
Si Si6 0.803637 0.354257 0.437703
Si Si7 0.798985 0.716642 0.758698
Si Si8 0.958777 0.535858 0.384401
O O1 0.976065 0.337402 0.173553
O O2 0.119023 0.175846 0.839726
O O3 0.161940 0.146866 0.934598
O O4 0.921465 0.064771 0.249661
O O5 0.801327 0.194395 0.951064
O O6 0.763431 0.477734 0.002533
O O7 0.895102 0.358606 0.917489
O O8 0.581143 0.651276 0.488491
O O9 0.391959 0.605726 0.665034
O O10 0.248892 0.364499 0.255028
O O11 0.233758 0.238611 0.125645
O O12 0.368193 0.113124 0.032200
O O13 0.316532 0.380825 0.698834
O O14 0.124934 0.517113 0.094881
O O15 0.764720 0.288031 0.411462
O O16 0.936004 0.620283 0.509438
#
# Coordination Sequence:
#
# PCOD8055702 Si02
#       8
#     4   4   4   4   4   4   4   4
#     4  11  24  48  67 101 145 179 240 298 347 435
#     4  10  23  45  69  96 143 187 228 298 360 418
#     4  12  24  44  73 108 140 186 249 293 355 440
#     4  11  25  50  71 104 153 190 234 313 362 427
#     4  12  27  46  72 110 141 192 255 287 363 450
#     4  11  24  46  70 104 142 185 238 299 363 426
#     4  11  24  45  74 102 139 192 237 298 365 426
#     4  10  23  48  70  99 145 187 241 296 365 428
#
# _framework density 22.916043999999999
#
# number of rings (size 3 to 8) (size 9 to 14) (size 15 to 20)
#    0.000    1.000    6.250    1.500    3.500    4.000 
#    0.000    0.000    0.000    0.000    0.000    0.000 
#    0.000    0.000    0.000    0.000    0.000    0.000 
#
# Total GULP energy -198272.719421 kJ/mol
# GULP energy per Si atom -12392.044964 kJ/mol
# Density = 2.286389 g / cm^3
# Si number density = 22.916044 Si / 1000 Ang^3
#
#
#
# Elastic Constant Matrix: (Units=GPa)
#
#
# Indices 1 2 3 4 5 6 
#
# 1 108.9560 46.9596 10.6073 0.0000 19.5124 0.0000
# 2 46.9596 114.2940 50.1849 0.0000 24.6761 0.0000
# 3 10.6073 50.1849 87.3407 0.0000 13.0687 0.0000
# 4 0.0000 0.0000 0.0000 26.6946 0.0000 4.1555
# 5 19.5124 24.6761 13.0687 0.0000 31.4956 0.0000
# 6 0.0000 0.0000 0.0000 4.1555 0.0000 36.4839
#
#
#
# Elastic Compliance Matrix: (Units=1/GPa)
#
#
# Indices 1 2 3 4 5 6 
#
# 1 0.011833 -0.004773 0.001965 0.000000 -0.004407 0.000000
# 2 -0.004773 0.015174 -0.007253 0.000000 -0.005922 0.000000
# 3 0.001965 -0.007253 0.015684 0.000000 -0.002043 0.000000
# 4 0.000000 0.000000 0.000000 0.038137 0.000000 -0.004344
# 5 -0.004407 -0.005922 -0.002043 0.000000 0.039967 0.000000
# 6 0.000000 0.000000 0.000000 -0.004344 0.000000 0.027904
#
#
# Mechanical properties :
#
#
# Convention : Reuss Voigt Hill
#
# Bulk Modulus (GPa) = 44.31016 58.45494 51.38255
# Shear Modulus (GPa) = 28.35365 32.45740 30.40553
#
# Velocity S-wave (km/s) = 3.52132 3.76754 3.64651
# Velocity P-wave (km/s) = 5.99256 6.67004 6.34036
#
# Compressibility (1/GPa) = 0.02256819
#
# Stress axis : x y z
#
# Youngs Moduli (GPa) = 84.50865 65.90390 63.76001
#
# Poissons Ratio (x) = 0.31457 -0.12528
# Poissons Ratio (y) = 0.40338 0.46244
# Poissons Ratio (z) = -0.16605 0.47799
#
# Static dielectric constant tensor:
#      x y z
#    x 4.051410 0.000000 0.081120 
#    y 0.000000 4.187470 0.000000 
#    z 0.081120 0.000000 4.205990 
# 
# 
# High freq. dielectric constant tensor:
#      x y z
#    x 1.900870 0.000000 -0.000500 
#    y 0.000000 1.904320 0.000000 
#    z -0.000500 0.000000 1.902440 
# 
# From -- ./inp_files/24181.got.cif
#   From: 2010.06.25/outbox.cif.g09.slc.cpg/sg9_13_cif.got.tgz:24181.got - 2010.06.27 21:40:51.
