data_PCOD8055708
_publ_section_title
;
Structure prediction by ZEFSAII (Michael W. Deem and Ramdas Pophale) SiO2 
 PCOD8055708
Probable space group: C C
;
_chemical_formula_sum "Si O2"
_cell_formula_units_Z 32
_cell_length_a 9.310008
_cell_length_b 10.976886
_cell_length_c 14.756184
_cell_angle_alpha 90.000000
_cell_angle_beta 114.193781
_cell_angle_gamma 90.000000
_cell_volume 1375.550332
_symmetry_space_group_name_H-M "C C"
_symmetry_group_IT_number 9
_symmetry_cell_setting 'monoclinic'
loop_
_space_group_symop_operation_xyz
x,y,z
x,-y,1/2+z
1/2+x,1/2+y,z
1/2+x,1/2-y,1/2+z
loop_
_atom_site_type_symbol
_atom_site_label
_atom_site_fract_x
_atom_site_fract_y
_atom_site_fract_z
Si Si1 0.425550 0.402980 0.574980
Si Si2 0.258380 0.919993 0.602015
Si Si3 0.794613 0.065248 0.857999
Si Si4 0.527874 0.497250 0.283244
Si Si5 0.032594 0.266025 0.340831
Si Si6 0.093442 0.654627 0.247244
Si Si7 0.777711 0.663319 0.902637
Si Si8 0.766467 0.299861 0.138433
O O1 0.603626 0.353717 0.602508
O O2 0.364758 0.481208 0.472990
O O3 0.438691 0.492958 0.664635
O O4 0.307446 0.289680 0.564563
O O5 0.407854 0.876397 0.700358
O O6 0.287180 0.875003 0.508200
O O7 0.220007 0.065593 0.591534
O O8 0.685583 0.972471 0.774508
O O9 0.934880 0.098118 0.824473
O O10 0.706278 0.187894 0.864565
O O11 0.529118 0.621451 0.339637
O O12 0.705935 0.446720 0.321059
O O13 0.956978 0.309123 0.417116
O O14 0.925753 0.319828 0.234263
O O15 0.157034 0.724467 0.353232
O O16 0.136063 0.735011 0.169117
#
# Coordination Sequence:
#
# PCOD8055708 Si02
#       8
#     4   4   4   4   4   4   4   4
#     4  11  25  43  72 107 140 192 242 297 363 432
#     4  12  26  47  72 106 143 191 248 294 366 439
#     4  12  23  44  74 106 139 189 244 291 362 434
#     4  11  24  48  68  98 152 187 231 305 362 422
#     4  10  23  45  70  98 141 188 234 290 363 421
#     4  11  25  48  72 104 148 188 240 301 367 433
#     4  11  25  45  70 107 140 190 236 305 362 426
#     4  10  23  48  70  98 141 195 233 293 365 425
#
# _framework density 23.263417
#
# number of rings (size 3 to 8) (size 9 to 14) (size 15 to 20)
#    0.000    1.000    6.250    1.500    3.500    4.000 
#    2.250    0.000    0.000    0.000    0.000    0.000 
#    0.000    0.000    0.000    0.000    0.000    0.000 
#
# Total GULP energy -198258.208432 kJ/mol
# GULP energy per Si atom -12391.138027 kJ/mol
# Density = 2.321047 g / cm^3
# Si number density = 23.263417 Si / 1000 Ang^3
#
#
#
# Elastic Constant Matrix: (Units=GPa)
#
#
# Indices 1 2 3 4 5 6 
#
# 1 118.0986 39.1283 12.9413 0.0000 -4.3595 0.0000
# 2 39.1283 47.1153 7.3695 0.0000 0.0001 0.0000
# 3 12.9413 7.3695 72.0811 0.0000 -14.4359 0.0000
# 4 0.0000 0.0000 0.0000 33.2895 0.0000 -1.1330
# 5 -4.3595 0.0001 -14.4359 0.0000 33.9640 0.0000
# 6 0.0000 0.0000 0.0000 -1.1330 0.0000 31.0759
#
#
#
# Elastic Compliance Matrix: (Units=1/GPa)
#
#
# Indices 1 2 3 4 5 6 
#
# 1 0.011812 -0.009668 -0.000906 0.000000 0.001131 0.000000
# 2 -0.009668 0.029515 -0.001673 0.000000 -0.001952 0.000000
# 3 -0.000906 -0.001673 0.015503 0.000000 0.006473 0.000000
# 4 0.000000 0.000000 0.000000 0.030077 0.000000 0.001097
# 5 0.001131 -0.001952 0.006473 0.000000 0.032339 0.000000
# 6 0.000000 0.000000 0.000000 0.001097 0.000000 0.032219
#
#
# Mechanical properties :
#
#
# Convention : Reuss Voigt Hill
#
# Bulk Modulus (GPa) = 30.92372 39.57480 35.24926
# Shear Modulus (GPa) = 26.77567 31.52295 29.14931
#
# Velocity S-wave (km/s) = 3.39629 3.68509 3.54363
# Velocity P-wave (km/s) = 5.35737 5.92917 5.65050
#
# Compressibility (1/GPa) = 0.03233764
#
# Stress axis : x y z
#
# Youngs Moduli (GPa) = 84.66275 33.88110 64.50248
#
# Poissons Ratio (x) = 0.32755 0.05842
# Poissons Ratio (y) = 0.81849 0.10790
# Poissons Ratio (z) = 0.07668 0.05668
#
# Static dielectric constant tensor:
#      x y z
#    x 4.458170 0.000000 0.085240 
#    y 0.000000 4.110640 0.000000 
#    z 0.085240 0.000000 4.181150 
# 
# 
# High freq. dielectric constant tensor:
#      x y z
#    x 1.926890 0.000000 0.001720 
#    y 0.000000 1.902720 0.000000 
#    z 0.001720 0.000000 1.925500 
# 
# From -- ./inp_files/22729.got.cif
#   From: 2010.06.25/outbox.cif.g09.slc.cpg/sg9_12_cif.got.tgz:22729.got - 2010.06.27 21:40:51.
