data_PCOD8055966
_publ_section_title
;
Structure prediction by ZEFSAII (Michael W. Deem and Ramdas Pophale) SiO2 
 PCOD8055966
Probable space group: C C
;
_chemical_formula_sum "Si O2"
_cell_formula_units_Z 28
_cell_length_a 13.162774
_cell_length_b 9.333238
_cell_length_c 18.795308
_cell_angle_alpha 90.000000
_cell_angle_beta 149.085663
_cell_angle_gamma 90.000000
_cell_volume 1186.276904
_symmetry_space_group_name_H-M "C C"
_symmetry_group_IT_number 9
_symmetry_cell_setting 'monoclinic'
loop_
_space_group_symop_operation_xyz
x,y,z
x,-y,1/2+z
1/2+x,1/2+y,z
1/2+x,1/2-y,1/2+z
loop_
_atom_site_type_symbol
_atom_site_label
_atom_site_fract_x
_atom_site_fract_y
_atom_site_fract_z
Si Si1 0.738270 0.522041 0.651920
Si Si2 0.795556 0.640139 0.972033
Si Si3 0.821342 0.075963 0.042542
Si Si4 0.425546 0.883285 0.126783
Si Si5 0.512438 0.166690 0.387578
Si Si6 0.861136 0.129870 0.905723
Si Si7 0.637647 0.336391 0.225528
O O1 0.895106 0.538636 0.683593
O O2 0.511931 0.505151 0.487559
O O3 0.756733 0.647273 0.722811
O O4 0.799848 0.371975 0.726381
O O5 0.605244 0.708215 0.895442
O O6 0.783723 0.680767 0.881067
O O7 0.802206 0.469266 0.991494
O O8 0.990781 0.703204 0.127606
O O9 0.845554 0.224795 0.098709
O O10 0.795624 0.138892 0.947855
O O11 0.018678 0.982992 0.167495
O O12 0.641333 0.980374 0.964844
O O13 0.655055 0.891043 0.239802
O O14 0.472608 0.227700 0.442988
#
# Coordination Sequence:
#
# PCOD8055966 Si02
#       7
#     4   4   4   4   4   4   4
#     4  11  24  45  73 105 150 197 256 325 385 464
#     4  11  25  46  79 107 149 199 258 315 389 467
#     4  10  25  44  73 103 154 190 259 317 385 462
#     4  12  25  47  72 110 153 197 259 328 385 468
#     4  11  23  46  75 103 143 203 254 310 395 457
#     4  11  23  46  73 108 144 202 246 320 387 459
#     4  10  25  46  71 110 147 198 256 315 386 467
#
# _framework density 23.603256999999999
#
# number of rings (size 3 to 8) (size 9 to 14) (size 15 to 20)
#    0.000    1.143    2.857    2.571   10.000    1.143 
#    0.000    0.000    0.000    0.000    0.000    0.000 
#    0.000    0.000    0.000    0.000    0.000    0.000 
#
# Total GULP energy -173479.947540 kJ/mol
# GULP energy per Si atom -12391.424824 kJ/mol
# Density = 2.354953 g / cm^3
# Si number density = 23.603257 Si / 1000 Ang^3
#
#
#
# Elastic Constant Matrix: (Units=GPa)
#
#
# Indices 1 2 3 4 5 6 
#
# 1 114.1866 28.6548 37.5371 0.0002 -1.7417 0.0000
# 2 28.6548 115.8371 37.3482 0.0009 -0.2154 0.0001
# 3 37.5371 37.3482 89.3038 0.0032 -3.1204 0.0007
# 4 0.0002 0.0009 0.0032 28.6427 0.0008 -1.2963
# 5 -1.7417 -0.2154 -3.1204 0.0008 37.1434 0.0001
# 6 0.0000 0.0001 0.0007 -1.2963 0.0001 42.6334
#
#
#
# Elastic Compliance Matrix: (Units=1/GPa)
#
#
# Indices 1 2 3 4 5 6 
#
# 1 0.010339 -0.001338 -0.003780 0.000000 0.000159 0.000000
# 2 -0.001338 0.010155 -0.003695 0.000000 -0.000314 0.000000
# 3 -0.003780 -0.003695 0.014367 -0.000002 0.001008 0.000000
# 4 0.000000 0.000000 -0.000002 0.034961 -0.000001 0.001063
# 5 0.000159 -0.000314 0.001008 -0.000001 0.027013 0.000000
# 6 0.000000 0.000000 0.000000 0.001063 0.000000 0.023488
#
#
# Mechanical properties :
#
#
# Convention : Reuss Voigt Hill
#
# Bulk Modulus (GPa) = 58.02900 58.48977 58.25939
# Shear Modulus (GPa) = 34.79588 36.06971 35.43280
#
# Velocity S-wave (km/s) = 3.84369 3.91342 3.87871
# Velocity P-wave (km/s) = 6.65862 6.72711 6.69295
#
# Compressibility (1/GPa) = 0.01723276
#
# Stress axis : x y z
#
# Youngs Moduli (GPa) = 96.72483 98.47629 69.60206
#
# Poissons Ratio (x) = 0.13179 0.26312
# Poissons Ratio (y) = 0.12945 0.25720
# Poissons Ratio (z) = 0.36565 0.36390
#
# Static dielectric constant tensor:
#      x y z
#    x 4.180530 0.000000 0.058480 
#    y 0.000000 4.188390 0.000000 
#    z 0.058480 0.000000 4.157630 
# 
# 
# High freq. dielectric constant tensor:
#      x y z
#    x 1.930780 0.000000 0.006640 
#    y 0.000000 1.927280 0.000000 
#    z 0.006640 0.000000 1.929040 
# 
# From -- ./inp_files/20782.got.cif
#   From: 2010.06.25/outbox.cif.g09.slc.cpg/sg9_11_cif.got.tgz:20782.got - 2010.06.27 21:40:51.
