data_PCOD8055239
_publ_section_title
;
Structure prediction by ZEFSAII (Michael W. Deem and Ramdas Pophale) SiO2 
 PCOD8055239
Probable space group: C C
;
_chemical_formula_sum "Si O2"
_cell_formula_units_Z 32
_cell_length_a 11.488262
_cell_length_b 15.733015
_cell_length_c 8.735976
_cell_angle_alpha 90.000000
_cell_angle_beta 112.728640
_cell_angle_gamma 90.000000
_cell_volume 1456.368085
_symmetry_space_group_name_H-M "C C"
_symmetry_group_IT_number 9
_symmetry_cell_setting 'monoclinic'
loop_
_space_group_symop_operation_xyz
x,y,z
x,-y,1/2+z
1/2+x,1/2+y,z
1/2+x,1/2-y,1/2+z
loop_
_atom_site_type_symbol
_atom_site_label
_atom_site_fract_x
_atom_site_fract_y
_atom_site_fract_z
Si Si1 0.525260 0.185128 0.739880
Si Si2 0.788551 0.861926 0.464529
Si Si3 0.018842 0.177265 0.677653
Si Si4 0.486117 0.539890 0.895377
Si Si5 0.415175 0.796131 0.870173
Si Si6 0.949947 0.848583 0.821582
Si Si7 0.759846 0.433702 0.614409
Si Si8 0.291073 0.110569 0.785596
O O1 0.639763 0.127500 0.860550
O O2 0.504057 0.165612 0.549381
O O3 0.546058 0.287058 0.775343
O O4 0.404200 0.168185 0.783759
O O5 0.829584 0.778390 0.394149
O O6 0.817660 0.854224 0.660880
O O7 0.863376 0.944312 0.438509
O O8 0.969971 0.089805 0.728144
O O9 0.164747 0.166974 0.703333
O O10 0.002690 0.258721 0.779345
O O11 0.932050 0.189888 0.482923
O O12 0.510792 0.441867 0.869254
O O13 0.608443 0.579031 0.043216
O O14 0.323750 0.869007 0.763775
O O15 0.791361 0.529065 0.676860
O O16 0.812270 0.417736 0.470955
#
# Coordination Sequence:
#
# PCOD8055239 Si02
#       8
#     4   4   4   4   4   4   4   4
#     4  11  26  45  64  99 141 189 230 281 358 414
#     4  10  25  41  66  97 138 180 226 282 357 411
#     4  10  22  40  67 103 133 170 234 286 351 400
#     4  10  22  42  67 102 128 180 228 287 340 412
#     4  10  24  44  68  98 139 185 225 293 348 416
#     4  11  22  40  69  94 136 176 232 286 334 413
#     4  11  23  42  74  98 137 174 241 285 344 411
#     4  11  24  42  69 103 136 184 234 286 344 415
#
# _framework density 21.972467000000002
#
# number of rings (size 3 to 8) (size 9 to 14) (size 15 to 20)
#    0.000    1.500    1.250    2.250   12.250    0.000 
#    4.500    0.000    0.000    0.000    0.000    0.000 
#    0.000    0.000    0.000    0.000    0.000    0.000 
#
# Total GULP energy -198390.990679 kJ/mol
# GULP energy per Si atom -12399.436917 kJ/mol
# Density = 2.192246 g / cm^3
# Si number density = 21.972467 Si / 1000 Ang^3
#
#
#
# Elastic Constant Matrix: (Units=GPa)
#
#
# Indices 1 2 3 4 5 6 
#
# 1 119.6690 47.0001 64.4242 0.0000 3.6288 0.0000
# 2 47.0001 95.3224 46.2323 0.0000 9.1735 0.0000
# 3 64.4242 46.2323 197.4736 0.0000 7.6019 0.0000
# 4 0.0000 0.0000 0.0000 38.9665 0.0000 -3.0771
# 5 3.6288 9.1735 7.6019 0.0000 23.8475 0.0000
# 6 0.0000 0.0000 0.0000 -3.0771 0.0000 24.4495
#
#
#
# Elastic Compliance Matrix: (Units=1/GPa)
#
#
# Indices 1 2 3 4 5 6 
#
# 1 0.011564 -0.004441 -0.002765 0.000000 0.000830 0.000000
# 2 -0.004441 0.013874 -0.001640 0.000000 -0.004138 0.000000
# 3 -0.002765 -0.001640 0.006388 0.000000 -0.000985 0.000000
# 4 0.000000 0.000000 0.000000 0.025921 0.000000 0.003262
# 5 0.000830 -0.004138 -0.000985 0.000000 0.043713 0.000000
# 6 0.000000 0.000000 0.000000 0.003262 0.000000 0.041311
#
#
# Mechanical properties :
#
#
# Convention : Reuss Voigt Hill
#
# Bulk Modulus (GPa) = 70.74946 80.86423 75.80684
# Shear Modulus (GPa) = 30.27133 34.43992 32.35563
#
# Velocity S-wave (km/s) = 3.71576 3.96335 3.84155
# Velocity P-wave (km/s) = 7.11886 7.60438 7.36562
#
# Compressibility (1/GPa) = 0.01413438
#
# Stress axis : x y z
#
# Youngs Moduli (GPa) = 86.47719 72.07754 156.54609
#
# Poissons Ratio (x) = 0.32006 0.43284
# Poissons Ratio (y) = 0.38400 0.25676
# Poissons Ratio (z) = 0.23910 0.11822
#
# Static dielectric constant tensor:
#      x y z
#    x 3.642030 0.000000 -0.055460 
#    y 0.000000 3.953910 0.000000 
#    z -0.055460 0.000000 4.308030 
# 
# 
# High freq. dielectric constant tensor:
#      x y z
#    x 1.831630 0.000000 -0.006020 
#    y 0.000000 1.861530 0.000000 
#    z -0.006020 0.000000 1.888320 
# 
# From -- ./inp_files/7484.got.cif
#   From: 2010.06.25/outbox.cif.g09.slc.cpg/sg9_4_cif.got.tgz:7484.got - 2010.06.27 21:40:51.
