data_PCOD8055748
_publ_section_title
;
Structure prediction by ZEFSAII (Michael W. Deem and Ramdas Pophale) SiO2 
 PCOD8055748
Probable space group: C C
;
_chemical_formula_sum "Si O2"
_cell_formula_units_Z 28
_cell_length_a 24.901756
_cell_length_b 10.787702
_cell_length_c 14.723596
_cell_angle_alpha 90.000000
_cell_angle_beta 17.216793
_cell_angle_gamma 90.000000
_cell_volume 1170.703575
_symmetry_space_group_name_H-M "C C"
_symmetry_group_IT_number 9
_symmetry_cell_setting 'monoclinic'
loop_
_space_group_symop_operation_xyz
x,y,z
x,-y,1/2+z
1/2+x,1/2+y,z
1/2+x,1/2-y,1/2+z
loop_
_atom_site_type_symbol
_atom_site_label
_atom_site_fract_x
_atom_site_fract_y
_atom_site_fract_z
Si Si1 0.238350 0.136806 0.407350
Si Si2 0.860517 0.406054 0.303371
Si Si3 0.708798 0.879123 0.824394
Si Si4 0.499458 0.286117 0.864730
Si Si5 0.708316 0.034537 0.508305
Si Si6 0.426311 0.519585 0.334981
Si Si7 0.482036 0.803359 0.928388
O O1 0.118832 0.192952 0.681604
O O2 0.378535 0.043649 0.229864
O O3 0.338419 0.251237 0.195059
O O4 0.117137 0.054775 0.533071
O O5 0.651444 0.375318 0.666026
O O6 0.948407 0.308881 0.089951
O O7 0.988845 0.389512 0.183754
O O8 0.784209 0.737310 0.707375
O O9 0.768479 0.934857 0.631587
O O10 0.792581 0.968421 0.769742
O O11 0.597870 0.160957 0.679199
O O12 0.429978 0.350790 0.884265
O O13 0.868977 0.038921 0.322835
O O14 0.556587 0.930171 0.766805
#
# Coordination Sequence:
#
# PCOD8055748 Si02
#       7
#     4   4   4   4   4   4   4
#     4  10  23  46  71 104 141 183 230 288 352 413
#     4  11  23  45  72 101 143 178 235 293 341 421
#     4  11  24  45  72 100 138 188 231 290 350 414
#     4  11  23  43  71 103 141 184 229 291 350 413
#     4  12  24  43  71 104 139 185 234 287 355 415
#     4  10  24  46  68 102 144 179 237 295 337 423
#     4  11  23  44  71 100 140 183 234 282 347 415
#
# _framework density 23.917242000000002
#
# number of rings (size 3 to 8) (size 9 to 14) (size 15 to 20)
#    0.000    1.143    4.286    0.857    2.000    1.143 
#    7.714    1.429    0.000    0.000    0.000    0.000 
#    0.000    0.000    0.000    0.000    0.000    0.000 
#
# Total GULP energy -173504.211474 kJ/mol
# GULP energy per Si atom -12393.157962 kJ/mol
# Density = 2.386281 g / cm^3
# Si number density = 23.917242 Si / 1000 Ang^3
#
#
#
# Elastic Constant Matrix: (Units=GPa)
#
#
# Indices 1 2 3 4 5 6 
#
# 1 111.6999 36.5480 40.4698 -0.0007 -15.9348 0.0002
# 2 36.5480 111.4763 31.5661 -0.0013 -18.7013 0.0005
# 3 40.4698 31.5661 97.5546 -0.0027 -11.3781 0.0008
# 4 -0.0007 -0.0013 -0.0027 43.8978 0.0010 1.3605
# 5 -15.9348 -18.7013 -11.3781 0.0010 41.2094 -0.0002
# 6 0.0002 0.0005 0.0008 1.3605 -0.0002 26.4565
#
#
#
# Elastic Compliance Matrix: (Units=1/GPa)
#
#
# Indices 1 2 3 4 5 6 
#
# 1 0.011378 -0.002288 -0.003707 0.000000 0.002338 0.000000
# 2 -0.002288 0.010920 -0.002179 0.000000 0.003469 0.000000
# 3 -0.003707 -0.002179 0.012617 0.000001 0.001061 0.000000
# 4 0.000000 0.000000 0.000001 0.022817 0.000000 -0.001173
# 5 0.002338 0.003469 0.001061 0.000000 0.027037 0.000000
# 6 0.000000 0.000000 0.000000 -0.001173 0.000000 0.037858
#
#
# Mechanical properties :
#
#
# Convention : Reuss Voigt Hill
#
# Bulk Modulus (GPa) = 53.86316 59.76653 56.81484
# Shear Modulus (GPa) = 34.44344 36.45588 35.44966
#
# Velocity S-wave (km/s) = 3.79899 3.90840 3.85409
# Velocity P-wave (km/s) = 6.46627 6.73874 6.60391
#
# Compressibility (1/GPa) = 0.01856557
#
# Stress axis : x y z
#
# Youngs Moduli (GPa) = 87.89011 91.57604 79.25538
#
# Poissons Ratio (x) = 0.20957 0.29379
# Poissons Ratio (y) = 0.20113 0.17273
# Poissons Ratio (z) = 0.32580 0.19959
#
# Static dielectric constant tensor:
#      x y z
#    x 4.244490 0.000000 0.168820 
#    y 0.000000 4.538340 0.000000 
#    z 0.168820 0.000000 4.554630 
# 
# 
# High freq. dielectric constant tensor:
#      x y z
#    x 1.929600 0.000000 0.000280 
#    y 0.000000 1.959300 0.000000 
#    z 0.000280 0.000000 1.952740 
# 
# From -- ./inp_files/27780.got.cif
#   From: 2010.06.25/outbox.cif.g09.slc.cpg/sg9_14_cif.got.tgz:27780.got - 2010.06.27 21:40:51.
