data_PCOD8055834
_publ_section_title
;
Structure prediction by ZEFSAII (Michael W. Deem and Ramdas Pophale) SiO2 
 PCOD8055834
Probable space group: C C
;
_chemical_formula_sum "Si O2"
_cell_formula_units_Z 28
_cell_length_a 9.406641
_cell_length_b 19.827937
_cell_length_c 8.589024
_cell_angle_alpha 90.000000
_cell_angle_beta 49.689065
_cell_angle_gamma 90.000000
_cell_volume 1221.578338
_symmetry_space_group_name_H-M "C C"
_symmetry_group_IT_number 9
_symmetry_cell_setting 'monoclinic'
loop_
_space_group_symop_operation_xyz
x,y,z
x,-y,1/2+z
1/2+x,1/2+y,z
1/2+x,1/2-y,1/2+z
loop_
_atom_site_type_symbol
_atom_site_label
_atom_site_fract_x
_atom_site_fract_y
_atom_site_fract_z
Si Si1 0.605990 0.107720 0.042670
Si Si2 0.946645 0.798541 0.824388
Si Si3 0.182340 0.962520 0.168299
Si Si4 0.393857 0.614017 0.088534
Si Si5 0.582135 0.045558 0.504195
Si Si6 0.681090 0.402531 0.839253
Si Si7 0.589751 0.843149 0.227042
O O1 0.739638 0.142146 0.075910
O O2 0.389068 0.126421 0.213071
O O3 0.624765 0.027452 0.043326
O O4 0.679996 0.135554 0.826154
O O5 0.065568 0.836783 0.872925
O O6 0.945908 0.718058 0.848941
O O7 0.988207 0.824640 0.619017
O O8 0.733611 0.814112 0.002801
O O9 0.405714 0.949492 0.013442
O O10 0.063249 0.923745 0.383169
O O11 0.159010 0.042877 0.214843
O O12 0.112040 0.938425 0.048170
O O13 0.278154 0.565990 0.288004
O O14 0.510883 0.089561 0.702400
#
# Coordination Sequence:
#
# PCOD8055834 Si02
#       7
#     4   4   4   4   4   4   4
#     4  11  23  43  72 101 140 178 237 299 349 416
#     4  11  26  46  68 101 139 195 232 288 353 431
#     4  11  24  40  70 103 142 178 233 298 345 415
#     4  11  24  42  68 103 139 181 235 288 352 418
#     4  10  24  43  68 105 134 183 228 301 349 416
#     4  11  24  43  67 104 141 184 237 286 360 412
#     4  11  25  45  71  97 145 185 238 282 360 418
#
# _framework density 22.921167000000001
#
# number of rings (size 3 to 8) (size 9 to 14) (size 15 to 20)
#    0.000    1.143    1.429    3.429   18.000    0.000 
#    2.571    1.429    0.000    0.000    0.000    0.000 
#    0.000    0.000    0.000    0.000    0.000    0.000 
#
# Total GULP energy -173526.294272 kJ/mol
# GULP energy per Si atom -12394.735305 kJ/mol
# Density = 2.286900 g / cm^3
# Si number density = 22.921167 Si / 1000 Ang^3
#
#
#
# Elastic Constant Matrix: (Units=GPa)
#
#
# Indices 1 2 3 4 5 6 
#
# 1 90.6211 34.8110 12.2787 0.0000 21.5494 0.0000
# 2 34.8110 107.6176 20.7653 0.0000 15.7772 0.0000
# 3 12.2787 20.7653 81.3597 0.0000 9.0725 0.0000
# 4 0.0000 0.0000 0.0000 18.7439 0.0000 2.1190
# 5 21.5494 15.7772 9.0725 0.0000 39.9951 0.0000
# 6 0.0000 0.0000 0.0000 2.1190 0.0000 26.9442
#
#
#
# Elastic Compliance Matrix: (Units=1/GPa)
#
#
# Indices 1 2 3 4 5 6 
#
# 1 0.013875 -0.003510 -0.000532 0.000000 -0.005971 0.000000
# 2 -0.003510 0.011127 -0.002084 0.000000 -0.002025 0.000000
# 3 -0.000532 -0.002084 0.013111 0.000000 -0.001865 0.000000
# 4 0.000000 0.000000 0.000000 0.053829 0.000000 -0.004233
# 5 -0.005971 -0.002025 -0.001865 0.000000 0.029442 0.000000
# 6 0.000000 0.000000 0.000000 -0.004233 0.000000 0.037447
#
#
# Mechanical properties :
#
#
# Convention : Reuss Voigt Hill
#
# Bulk Modulus (GPa) = 38.67021 46.14539 42.40780
# Shear Modulus (GPa) = 27.82342 31.25287 29.53815
#
# Velocity S-wave (km/s) = 3.48785 3.69656 3.59372
# Velocity P-wave (km/s) = 5.75567 6.19639 5.98009
#
# Compressibility (1/GPa) = 0.02585970
#
# Stress axis : x y z
#
# Youngs Moduli (GPa) = 72.07069 89.87414 76.26958
#
# Poissons Ratio (x) = 0.31548 0.04060
# Poissons Ratio (y) = 0.25298 0.15897
# Poissons Ratio (z) = 0.03837 0.18732
#
# Static dielectric constant tensor:
#      x y z
#    x 4.125290 0.000000 0.053870 
#    y 0.000000 4.398060 0.000000 
#    z 0.053870 0.000000 4.268390 
# 
# 
# High freq. dielectric constant tensor:
#      x y z
#    x 1.908650 0.000000 0.001350 
#    y 0.000000 1.882810 0.000000 
#    z 0.001350 0.000000 1.917390 
# 
# From -- ./inp_files/5572.got.cif
#   From: 2010.06.25/outbox.cif.g09.slc.cpg/sg9_3_cif.got.tgz:5572.got - 2010.06.27 21:40:51.
