data_PCOD8055261
_publ_section_title
;
Structure prediction by ZEFSAII (Michael W. Deem and Ramdas Pophale) SiO2 
 PCOD8055261
Probable space group: C C
;
_chemical_formula_sum "Si O2"
_cell_formula_units_Z 32
_cell_length_a 5.299159
_cell_length_b 21.493818
_cell_length_c 15.610614
_cell_angle_alpha 90.000000
_cell_angle_beta 60.290846
_cell_angle_gamma 90.000000
_cell_volume 1544.317171
_symmetry_space_group_name_H-M "C C"
_symmetry_group_IT_number 9
_symmetry_cell_setting 'monoclinic'
loop_
_space_group_symop_operation_xyz
x,y,z
x,-y,1/2+z
1/2+x,1/2+y,z
1/2+x,1/2-y,1/2+z
loop_
_atom_site_type_symbol
_atom_site_label
_atom_site_fract_x
_atom_site_fract_y
_atom_site_fract_z
Si Si1 0.844540 0.331525 0.764220
Si Si2 0.522095 0.147764 0.542583
Si Si3 0.168534 0.903894 0.956369
Si Si4 0.128448 0.797310 0.246475
Si Si5 0.089701 0.414871 0.574774
Si Si6 0.100881 0.352585 0.404437
Si Si7 0.304611 0.742892 0.386677
Si Si8 0.709404 0.460606 0.496414
O O1 0.859838 0.366803 0.853812
O O2 0.517481 0.307407 0.806371
O O3 0.058382 0.272002 0.722986
O O4 0.911468 0.379753 0.678128
O O5 0.283643 0.106704 0.533566
O O6 0.397932 0.171450 0.653478
O O7 0.547171 0.207541 0.477085
O O8 0.827888 0.113164 0.506512
O O9 0.221056 0.977589 0.936147
O O10 0.196375 0.791295 0.334913
O O11 0.859138 0.846258 0.290482
O O12 0.207911 0.366444 0.483302
O O13 0.368948 0.446995 0.570439
O O14 0.871706 0.463856 0.562692
O O15 0.961818 0.283742 0.433229
O O16 0.871324 0.406275 0.414306
#
# Coordination Sequence:
#
# PCOD8055261 Si02
#       8
#     4   4   4   4   4   4   4   4
#     4  10  24  39  69  98 133 174 223 267 338 403
#     4  11  26  40  71  94 139 173 215 278 330 395
#     4  11  24  50  64  99 136 176 220 275 328 390
#     4  11  23  39  67 102 136 170 221 270 346 389
#     4  10  23  41  68 103 123 180 223 272 320 395
#     4   9  23  40  66  98 135 165 227 264 327 386
#     4  10  22  41  63 103 132 173 215 276 333 397
#     4  10  23  44  70  89 138 173 222 276 320 379
#
# _framework density 20.721132000000001
#
# number of rings (size 3 to 8) (size 9 to 14) (size 15 to 20)
#    0.750    1.000    1.250    1.500   10.500    0.000 
#    2.250    2.500    0.000    0.000    0.000    0.000 
#    0.000    0.000    0.000    0.000    0.000    0.000 
#
# Total GULP energy -198239.872789 kJ/mol
# GULP energy per Si atom -12389.992049 kJ/mol
# Density = 2.067397 g / cm^3
# Si number density = 20.721132 Si / 1000 Ang^3
#
#
#
# Elastic Constant Matrix: (Units=GPa)
#
#
# Indices 1 2 3 4 5 6 
#
# 1 119.3763 33.9894 29.7791 0.0000 -2.9398 0.0000
# 2 33.9894 100.6106 50.0007 0.0000 -12.0743 0.0000
# 3 29.7791 50.0007 87.9890 0.0000 -8.1742 0.0000
# 4 0.0000 0.0000 0.0000 26.4152 0.0000 2.7175
# 5 -2.9398 -12.0743 -8.1742 0.0000 27.1159 0.0000
# 6 0.0000 0.0000 0.0000 2.7175 0.0000 30.9845
#
#
#
# Elastic Compliance Matrix: (Units=1/GPa)
#
#
# Indices 1 2 3 4 5 6 
#
# 1 0.009509 -0.002308 -0.001961 0.000000 -0.000588 0.000000
# 2 -0.002308 0.014825 -0.007256 0.000000 0.004164 0.000000
# 3 -0.001961 -0.007256 0.016289 0.000000 0.001466 0.000000
# 4 0.000000 0.000000 0.000000 0.038202 0.000000 -0.003350
# 5 -0.000588 0.004164 0.001466 0.000000 0.039111 0.000000
# 6 0.000000 0.000000 0.000000 -0.003350 0.000000 0.032568
#
#
# Mechanical properties :
#
#
# Convention : Reuss Voigt Hill
#
# Bulk Modulus (GPa) = 56.91295 59.50159 58.20727
# Shear Modulus (GPa) = 27.86883 29.85024 28.85954
#
# Velocity S-wave (km/s) = 3.67133 3.79960 3.73602
# Velocity P-wave (km/s) = 6.74517 6.93016 6.83829
#
# Compressibility (1/GPa) = 0.01757069
#
# Stress axis : x y z
#
# Youngs Moduli (GPa) = 105.16532 67.45315 61.39271
#
# Poissons Ratio (x) = 0.15571 0.12039
# Poissons Ratio (y) = 0.24276 0.44550
# Poissons Ratio (z) = 0.20624 0.48947
#
# Static dielectric constant tensor:
#      x y z
#    x 3.795640 0.000000 -0.048470 
#    y 0.000000 3.674800 0.000000 
#    z -0.048470 0.000000 3.420660 
# 
# 
# High freq. dielectric constant tensor:
#      x y z
#    x 1.818780 0.000000 -0.004820 
#    y 0.000000 1.805690 0.000000 
#    z -0.004820 0.000000 1.788660 
# 
# From -- ./inp_files/22176.got.cif
#   From: 2010.06.25/outbox.cif.g09.slc.cpg/sg9_12_cif.got.tgz:22176.got - 2010.06.27 21:40:51.
