data_PCOD8055831
_publ_section_title
;
Structure prediction by ZEFSAII (Michael W. Deem and Ramdas Pophale) SiO2 
 PCOD8055831
Probable space group: C C
;
_chemical_formula_sum "Si O2"
_cell_formula_units_Z 32
_cell_length_a 10.417537
_cell_length_b 15.786387
_cell_length_c 15.986837
_cell_angle_alpha 90.000000
_cell_angle_beta 144.795079
_cell_angle_gamma 90.000000
_cell_volume 1515.694017
_symmetry_space_group_name_H-M "C C"
_symmetry_group_IT_number 9
_symmetry_cell_setting 'monoclinic'
loop_
_space_group_symop_operation_xyz
x,y,z
x,-y,1/2+z
1/2+x,1/2+y,z
1/2+x,1/2-y,1/2+z
loop_
_atom_site_type_symbol
_atom_site_label
_atom_site_fract_x
_atom_site_fract_y
_atom_site_fract_z
Si Si1 0.734530 0.397412 0.177600
Si Si2 0.958056 0.931038 0.544494
Si Si3 0.492560 0.223792 0.064085
Si Si4 0.282987 0.804350 0.780748
Si Si5 0.122901 0.597240 0.565844
Si Si6 0.507997 0.278910 0.249797
Si Si7 0.096923 0.641028 0.740528
Si Si8 0.628010 0.912498 0.518173
O O1 0.597860 0.484287 0.103300
O O2 0.556722 0.322273 0.090885
O O3 0.864319 0.380716 0.160465
O O4 0.907323 0.396442 0.345934
O O5 0.784627 0.921795 0.376561
O O6 0.838295 0.926573 0.570340
O O7 0.111696 0.848326 0.626024
O O8 0.479504 0.210739 0.158169
O O9 0.666941 0.162941 0.107255
O O10 0.266287 0.197892 0.896360
O O11 0.453025 0.757503 0.810882
O O12 0.169265 0.740049 0.787468
O O13 0.415582 0.876595 0.899007
O O14 0.353719 0.637539 0.653044
O O15 0.066916 0.629072 0.627242
O O16 0.120033 0.496808 0.568430
#
# Coordination Sequence:
#
# PCOD8055831 Si02
#       8
#     4   4   4   4   4   4   4   4
#     4  11  24  46  67  97 136 182 225 280 350 408
#     4  11  24  43  70  95 135 184 224 285 343 408
#     4  12  24  44  68 100 136 177 231 282 339 413
#     4  11  22  43  70  96 136 182 223 280 346 412
#     4  11  23  44  67 102 135 178 226 284 341 412
#     4  11  24  41  71 100 135 180 229 276 341 413
#     4  10  24  43  66 102 131 172 235 280 337 410
#     4  11  25  44  67  98 138 179 227 285 347 408
#
# _framework density 21.112439999999999
#
# number of rings (size 3 to 8) (size 9 to 14) (size 15 to 20)
#    0.000    1.000    3.750    3.000    1.750    3.000 
#    4.500    0.000    0.000    0.000    0.000    0.000 
#    0.000    0.000    0.000    0.000    0.000    0.000 
#
# Total GULP energy -198332.464773 kJ/mol
# GULP energy per Si atom -12395.779048 kJ/mol
# Density = 2.106439 g / cm^3
# Si number density = 21.112440 Si / 1000 Ang^3
#
#
#
# Elastic Constant Matrix: (Units=GPa)
#
#
# Indices 1 2 3 4 5 6 
#
# 1 100.9308 40.1980 29.9602 0.0017 5.9902 0.0004
# 2 40.1980 115.2240 6.8352 0.0003 7.0814 0.0000
# 3 29.9602 6.8352 61.6614 0.0047 2.5632 0.0009
# 4 0.0017 0.0003 0.0047 27.2034 0.0012 0.0012
# 5 5.9902 7.0814 2.5632 0.0012 31.6285 0.0001
# 6 0.0004 0.0000 0.0009 0.0012 0.0001 35.1422
#
#
#
# Elastic Compliance Matrix: (Units=1/GPa)
#
#
# Indices 1 2 3 4 5 6 
#
# 1 0.013462 -0.004271 -0.006021 0.000000 -0.001105 0.000000
# 2 -0.004271 0.010205 0.001009 0.000000 -0.001558 0.000000
# 3 -0.006021 0.001009 0.019058 -0.000003 -0.000630 0.000000
# 4 0.000000 0.000000 -0.000003 0.036760 -0.000001 -0.000001
# 5 -0.001105 -0.001558 -0.000630 -0.000001 0.032226 0.000000
# 6 0.000000 0.000000 0.000000 -0.000001 0.000000 0.028456
#
#
# Mechanical properties :
#
#
# Convention : Reuss Voigt Hill
#
# Bulk Modulus (GPa) = 41.39662 47.97810 44.68736
# Shear Modulus (GPa) = 29.97846 32.18301 31.08074
#
# Velocity S-wave (km/s) = 3.77230 3.90854 3.84103
# Velocity P-wave (km/s) = 6.21482 6.56836 6.39403
#
# Compressibility (1/GPa) = 0.02415656
#
# Stress axis : x y z
#
# Youngs Moduli (GPa) = 74.28356 97.99365 52.47230
#
# Poissons Ratio (x) = 0.41856 0.31596
# Poissons Ratio (y) = 0.31729 -0.05294
# Poissons Ratio (z) = 0.44730 -0.09887
#
# Static dielectric constant tensor:
#      x y z
#    x 3.998900 0.000000 0.074300 
#    y 0.000000 3.877770 0.000000 
#    z 0.074300 0.000000 3.774250 
# 
# 
# High freq. dielectric constant tensor:
#      x y z
#    x 1.840740 0.000000 0.001490 
#    y 0.000000 1.824530 0.000000 
#    z 0.001490 0.000000 1.827430 
# 
# From -- ./inp_files/7403.got.cif
#   From: 2010.06.25/outbox.cif.g09.slc.cpg/sg9_4_cif.got.tgz:7403.got - 2010.06.27 21:40:51.
