data_PCOD8055686
_publ_section_title
;
Structure prediction by ZEFSAII (Michael W. Deem and Ramdas Pophale) SiO2 
 PCOD8055686
Probable space group: C C
;
_chemical_formula_sum "Si O2"
_cell_formula_units_Z 32
_cell_length_a 14.548251
_cell_length_b 11.464266
_cell_length_c 18.164298
_cell_angle_alpha 90.000000
_cell_angle_beta 151.408538
_cell_angle_gamma 90.000000
_cell_volume 1449.816300
_symmetry_space_group_name_H-M "C C"
_symmetry_group_IT_number 9
_symmetry_cell_setting 'monoclinic'
loop_
_space_group_symop_operation_xyz
x,y,z
x,-y,1/2+z
1/2+x,1/2+y,z
1/2+x,1/2-y,1/2+z
loop_
_atom_site_type_symbol
_atom_site_label
_atom_site_fract_x
_atom_site_fract_y
_atom_site_fract_z
Si Si1 0.285920 0.902438 0.677960
Si Si2 0.099097 0.491572 0.610694
Si Si3 0.121375 0.328171 0.010980
Si Si4 0.841045 0.998617 0.559728
Si Si5 0.725494 0.572680 0.759604
Si Si6 0.892518 0.206165 0.324148
Si Si7 0.023205 0.468030 0.222510
Si Si8 0.315056 0.249212 0.616968
O O1 0.148752 0.809418 0.542215
O O2 0.185511 0.006103 0.653844
O O3 0.395081 0.955207 0.685693
O O4 0.413203 0.836450 0.828284
O O5 0.144088 0.619005 0.609440
O O6 0.297915 0.420129 0.747915
O O7 0.937371 0.446865 0.440961
O O8 0.025542 0.483909 0.641961
O O9 0.262991 0.393642 0.053209
O O10 0.736269 0.976124 0.407538
O O11 0.815144 0.879034 0.585269
O O12 0.061885 0.032908 0.701017
O O13 0.733761 0.712499 0.753449
O O14 0.109345 0.207043 0.507440
O O15 0.947579 0.254960 0.282216
O O16 0.925232 0.341085 0.141697
#
# Coordination Sequence:
#
# PCOD8055686 Si02
#       8
#     4   4   4   4   4   4   4   4
#     4  10  23  45  63  90 133 172 213 266 324 390
#     4  11  26  43  67 101 132 172 225 272 331 396
#     4  10  23  45  63  90 133 172 213 266 324 390
#     4  11  25  44  67  98 135 173 219 276 330 393
#     4  11  25  44  67  98 135 173 219 276 330 393
#     4  12  23  46  73  96 132 178 227 280 331 393
#     4  11  26  43  67 101 132 172 225 272 331 396
#     4  12  23  46  73  96 132 178 227 280 331 393
#
# _framework density 22.071760999999999
#
# number of rings (size 3 to 8) (size 9 to 14) (size 15 to 20)
#    0.000    1.000    5.000    0.750    7.000    3.000 
#    0.000    0.000    0.000    0.000    0.000    0.000 
#    0.000    0.000    0.000    0.000    0.000    0.000 
#
# Total GULP energy -198213.115172 kJ/mol
# GULP energy per Si atom -12388.319698 kJ/mol
# Density = 2.202152 g / cm^3
# Si number density = 22.071761 Si / 1000 Ang^3
#
#
#
# Elastic Constant Matrix: (Units=GPa)
#
#
# Indices 1 2 3 4 5 6 
#
# 1 82.1847 -5.9841 14.5662 0.0098 -10.3472 0.0021
# 2 -5.9841 48.0603 4.4763 0.0182 -8.5592 0.0035
# 3 14.5662 4.4763 23.1758 0.0099 -4.3667 0.0062
# 4 0.0098 0.0182 0.0099 33.0063 0.0084 5.8372
# 5 -10.3472 -8.5592 -4.3667 0.0084 38.7634 0.0023
# 6 0.0021 0.0035 0.0062 5.8372 0.0023 19.1626
#
#
#
# Elastic Compliance Matrix: (Units=1/GPa)
#
#
# Indices 1 2 3 4 5 6 
#
# 1 0.014459 0.003278 -0.009049 -0.000005 0.003564 0.000002
# 2 0.003278 0.022660 -0.005445 -0.000013 0.005265 0.000001
# 3 -0.009049 -0.005445 0.050273 -0.000008 0.002046 -0.000012
# 4 -0.000005 -0.000013 -0.000008 0.032022 -0.000011 -0.009755
# 5 0.003564 0.005265 0.002046 -0.000011 0.028142 -0.000002
# 6 0.000002 0.000001 -0.000012 -0.009755 -0.000002 0.055156
#
#
# Mechanical properties :
#
#
# Convention : Reuss Voigt Hill
#
# Bulk Modulus (GPa) = 15.39413 19.94864 17.67139
# Shear Modulus (GPa) = 20.25944 27.54394 23.90169
#
# Velocity S-wave (km/s) = 3.03296 3.53643 3.29433
# Velocity P-wave (km/s) = 4.38803 5.07276 4.74277
#
# Compressibility (1/GPa) = 0.06495981
#
# Stress axis : x y z
#
# Youngs Moduli (GPa) = 69.16131 44.13036 19.89133
#
# Poissons Ratio (x) = -0.14465 0.18000
# Poissons Ratio (y) = -0.22670 0.10831
# Poissons Ratio (z) = 0.62586 0.24028
#
# Static dielectric constant tensor:
#      x y z
#    x 3.833320 0.000000 -0.136450 
#    y 0.000000 3.993140 -0.000010 
#    z -0.136450 -0.000010 4.022490 
# 
# 
# High freq. dielectric constant tensor:
#      x y z
#    x 1.862720 0.000000 -0.010400 
#    y 0.000000 1.871910 0.000000 
#    z -0.010400 0.000000 1.873690 
# 
# From -- ./inp_files/9125.got.cif
#   From: 2010.06.25/outbox.cif.g09.slc.cpg/sg9_5_cif.got.tgz:9125.got - 2010.06.27 21:40:51.
