data_PCOD8055572
_publ_section_title
;
Structure prediction by ZEFSAII (Michael W. Deem and Ramdas Pophale) SiO2 
 PCOD8055572
Probable space group: C C
;
_chemical_formula_sum "Si O2"
_cell_formula_units_Z 28
_cell_length_a 5.331346
_cell_length_b 14.934433
_cell_length_c 15.222777
_cell_angle_alpha 90.000000
_cell_angle_beta 110.512019
_cell_angle_gamma 90.000000
_cell_volume 1135.201735
_symmetry_space_group_name_H-M "C C"
_symmetry_group_IT_number 9
_symmetry_cell_setting 'monoclinic'
loop_
_space_group_symop_operation_xyz
x,y,z
x,-y,1/2+z
1/2+x,1/2+y,z
1/2+x,1/2-y,1/2+z
loop_
_atom_site_type_symbol
_atom_site_label
_atom_site_fract_x
_atom_site_fract_y
_atom_site_fract_z
Si Si1 0.627620 0.792222 0.588660
Si Si2 0.971661 0.472347 0.627762
Si Si3 0.579143 0.472402 0.235179
Si Si4 0.813142 0.292211 0.274428
Si Si5 0.672944 0.773747 0.931529
Si Si6 0.957101 0.463259 0.931501
Si Si7 0.794329 0.875476 0.431588
O O1 0.455697 0.865089 0.621469
O O2 0.845233 0.749974 0.681561
O O3 0.432362 0.716145 0.525354
O O4 0.779364 0.839084 0.528097
O O5 0.272402 0.499173 0.690891
O O6 0.886196 0.512419 0.522871
O O7 0.753511 0.500850 0.672007
O O8 0.575823 0.365156 0.241587
O O9 0.703529 0.512605 0.340007
O O10 0.743904 0.216109 0.337565
O O11 0.086083 0.338909 0.335218
O O12 0.480862 0.855563 0.931637
O O13 0.570963 0.669092 0.931558
O O14 0.229025 0.517246 0.931501
#
# Coordination Sequence:
#
# PCOD8055572 Si02
#       7
#     4   4   4   4   4   4   4
#     4  10  23  42  64  98 136 177 236 294 349 432
#     4  11  26  45  71 106 141 190 237 294 365 432
#     4  11  26  45  71 106 141 190 237 294 365 432
#     4  10  23  42  64  98 136 177 236 294 349 432
#     4  11  23  43  69  97 135 189 232 297 366 422
#     4  10  24  46  69 104 144 189 243 301 361 437
#     4   9  23  41  64  99 135 180 233 298 355 429
#
# _framework density 24.665217999999999
#
# number of rings (size 3 to 8) (size 9 to 14) (size 15 to 20)
#    0.000    1.714    0.000    2.571   12.000    2.286 
#    0.000    0.000    0.000    0.000    0.000    0.000 
#    0.000    0.000    0.000    0.000    0.000    0.000 
#
# Total GULP energy -173449.148047 kJ/mol
# GULP energy per Si atom -12389.224861 kJ/mol
# Density = 2.460908 g / cm^3
# Si number density = 24.665218 Si / 1000 Ang^3
#
#
#
# Elastic Constant Matrix: (Units=GPa)
#
#
# Indices 1 2 3 4 5 6 
#
# 1 57.6652 -10.7926 26.4900 0.0000 0.1111 0.0000
# 2 -10.7926 71.3406 20.3281 0.0000 0.9185 0.0000
# 3 26.4900 20.3281 184.9792 0.0000 3.3868 0.0000
# 4 0.0000 0.0000 0.0000 23.3054 0.0000 -0.0641
# 5 0.1111 0.9185 3.3868 0.0000 17.2392 0.0000
# 6 0.0000 0.0000 0.0000 -0.0641 0.0000 24.0844
#
#
#
# Elastic Compliance Matrix: (Units=1/GPa)
#
#
# Indices 1 2 3 4 5 6 
#
# 1 0.019550 0.003874 -0.003231 0.000000 0.000302 0.000000
# 2 0.003874 0.015242 -0.002222 0.000000 -0.000400 0.000000
# 3 -0.003231 -0.002222 0.006132 0.000000 -0.001066 0.000000
# 4 0.000000 0.000000 0.000000 0.042909 0.000000 0.000114
# 5 0.000302 -0.000400 -0.001066 0.000000 0.058236 0.000000
# 6 0.000000 0.000000 0.000000 0.000114 0.000000 0.041521
#
#
# Mechanical properties :
#
#
# Convention : Reuss Voigt Hill
#
# Bulk Modulus (GPa) = 26.47861 42.89291 34.68576
# Shear Modulus (GPa) = 25.08309 31.45642 28.26976
#
# Velocity S-wave (km/s) = 3.19241 3.57506 3.38914
# Velocity P-wave (km/s) = 4.93428 5.87105 5.42293
#
# Compressibility (1/GPa) = 0.03776633
#
# Stress axis : x y z
#
# Youngs Moduli (GPa) = 51.15013 65.60892 163.06672
#
# Poissons Ratio (x) = -0.25419 0.52687
# Poissons Ratio (y) = -0.19817 0.36241
# Poissons Ratio (z) = 0.16527 0.14581
#
# Static dielectric constant tensor:
#      x y z
#    x 4.018820 0.000000 0.027620 
#    y 0.000000 4.589750 0.000000 
#    z 0.027620 0.000000 4.975480 
# 
# 
# High freq. dielectric constant tensor:
#      x y z
#    x 1.951230 0.000000 0.001890 
#    y 0.000000 1.978200 0.000000 
#    z 0.001890 0.000000 2.015770 
# 
# From -- ./inp_files/21726.got.cif
#   From: 2010.06.25/outbox.cif.g09.slc.cpg/sg9_11_cif.got.tgz:21726.got - 2010.06.27 21:40:51.
