data_PCOD8055579
_publ_section_title
;
Structure prediction by ZEFSAII (Michael W. Deem and Ramdas Pophale) SiO2 
 PCOD8055579
Probable space group: C C
;
_chemical_formula_sum "Si O2"
_cell_formula_units_Z 28
_cell_length_a 18.078219
_cell_length_b 6.729369
_cell_length_c 10.187854
_cell_angle_alpha 90.000000
_cell_angle_beta 92.431246
_cell_angle_gamma 90.000000
_cell_volume 1238.287789
_symmetry_space_group_name_H-M "C C"
_symmetry_group_IT_number 9
_symmetry_cell_setting 'monoclinic'
loop_
_space_group_symop_operation_xyz
x,y,z
x,-y,1/2+z
1/2+x,1/2+y,z
1/2+x,1/2-y,1/2+z
loop_
_atom_site_type_symbol
_atom_site_label
_atom_site_fract_x
_atom_site_fract_y
_atom_site_fract_z
Si Si1 0.800710 0.389842 0.191820
Si Si2 0.652540 0.805397 0.649890
Si Si3 0.295707 0.189516 0.975690
Si Si4 0.649166 0.120810 0.437548
Si Si5 0.384443 0.552462 0.055498
Si Si6 0.484979 0.206926 0.136986
Si Si7 0.980819 0.625669 0.427469
O O1 0.712273 0.370932 0.163671
O O2 0.819307 0.432197 0.346082
O O3 0.840062 0.184981 0.155798
O O4 0.828177 0.574332 0.105190
O O5 0.656594 0.936839 0.784097
O O6 0.569778 0.721272 0.629224
O O7 0.673386 0.933285 0.524963
O O8 0.206270 0.200790 0.974032
O O9 0.327604 0.412737 0.971199
O O10 0.565681 0.187686 0.466473
O O11 0.439883 0.410575 0.139111
O O12 0.428943 0.689785 0.958134
O O13 0.472177 0.081540 0.270842
O O14 0.460490 0.070664 0.010727
#
# Coordination Sequence:
#
# PCOD8055579 Si02
#       7
#     4   4   4   4   4   4   4
#     4  11  25  42  64  94 128 167 211 260 312 371
#     4   9  19  40  65  93 125 162 209 256 309 370
#     4  11  25  42  64  94 128 167 211 260 312 371
#     4   9  19  40  65  93 125 162 209 256 309 370
#     4  12  24  40  66  94 130 164 208 258 318 370
#     4  10  23  42  66  95 128 165 208 259 312 373
#     4  10  23  42  66  95 128 165 208 259 312 373
#
# _framework density 22.611868999999999
#
# number of rings (size 3 to 8) (size 9 to 14) (size 15 to 20)
#    0.000    1.714    1.429    1.714    2.000    8.000 
#    0.000    0.000    0.000    0.000    0.000    0.000 
#    0.000    0.000    0.000    0.000    0.000    0.000 
#
# Total GULP energy -173589.862916 kJ/mol
# GULP energy per Si atom -12399.275923 kJ/mol
# Density = 2.256040 g / cm^3
# Si number density = 22.611869 Si / 1000 Ang^3
#
#
#
# Elastic Constant Matrix: (Units=GPa)
#
#
# Indices 1 2 3 4 5 6 
#
# 1 72.5929 22.7394 20.7437 0.0000 -9.4931 0.0000
# 2 22.7394 79.4169 22.4934 0.0000 -2.5276 0.0000
# 3 20.7437 22.4934 100.1505 0.0000 7.7547 0.0000
# 4 0.0000 0.0000 0.0000 37.5316 0.0000 -0.8349
# 5 -9.4931 -2.5276 7.7547 0.0000 26.6664 0.0000
# 6 0.0000 0.0000 0.0000 -0.8349 0.0000 28.3958
#
#
#
# Elastic Compliance Matrix: (Units=1/GPa)
#
#
# Indices 1 2 3 4 5 6 
#
# 1 0.016672 -0.003681 -0.003130 0.000000 0.006496 0.000000
# 2 -0.003681 0.014387 -0.002530 0.000000 0.000789 0.000000
# 3 -0.003130 -0.002530 0.011567 0.000000 -0.004718 0.000000
# 4 0.000000 0.000000 0.000000 0.026662 0.000000 0.000784
# 5 0.006496 0.000789 -0.004718 0.000000 0.041260 0.000000
# 6 0.000000 0.000000 0.000000 0.000784 0.000000 0.035240
#
#
# Mechanical properties :
#
#
# Convention : Reuss Voigt Hill
#
# Bulk Modulus (GPa) = 41.76112 42.67923 42.22017
# Shear Modulus (GPa) = 28.99392 30.93100 29.96246
#
# Velocity S-wave (km/s) = 3.58473 3.70254 3.64411
# Velocity P-wave (km/s) = 5.97013 6.09869 6.03475
#
# Compressibility (1/GPa) = 0.02394572
#
# Stress axis : x y z
#
# Youngs Moduli (GPa) = 59.97991 69.50540 86.45484
#
# Poissons Ratio (x) = 0.25582 0.27057
# Poissons Ratio (y) = 0.22076 0.21874
# Poissons Ratio (z) = 0.18771 0.17586
#
# Static dielectric constant tensor:
#      x y z
#    x 4.498800 0.000000 -0.062720 
#    y 0.000000 3.555440 0.000000 
#    z -0.062720 0.000000 4.098610 
# 
# 
# High freq. dielectric constant tensor:
#      x y z
#    x 1.928160 0.000000 -0.001760 
#    y 0.000000 1.849230 0.000000 
#    z -0.001760 0.000000 1.898080 
# 
# From -- ./inp_files/19685.got.cif
#   From: 2010.06.25/outbox.cif.g09.slc.cpg/sg9_10_cif.got.tgz:19685.got - 2010.06.27 21:40:51.
