data_PCOD8055488
_publ_section_title
;
Structure prediction by ZEFSAII (Michael W. Deem and Ramdas Pophale) SiO2 
 PCOD8055488
Probable space group: C C
;
_chemical_formula_sum "Si O2"
_cell_formula_units_Z 32
_cell_length_a 14.811917
_cell_length_b 9.273094
_cell_length_c 23.846022
_cell_angle_alpha 90.000000
_cell_angle_beta 153.537892
_cell_angle_gamma 90.000000
_cell_volume 1459.495517
_symmetry_space_group_name_H-M "C C"
_symmetry_group_IT_number 9
_symmetry_cell_setting 'monoclinic'
loop_
_space_group_symop_operation_xyz
x,y,z
x,-y,1/2+z
1/2+x,1/2+y,z
1/2+x,1/2-y,1/2+z
loop_
_atom_site_type_symbol
_atom_site_label
_atom_site_fract_x
_atom_site_fract_y
_atom_site_fract_z
Si Si1 0.897910 0.049633 0.904680
Si Si2 0.106151 0.490133 0.331858
Si Si3 0.764961 0.613551 0.565845
Si Si4 0.512583 0.874848 0.397671
Si Si5 0.639937 0.812452 0.705476
Si Si6 0.511686 0.136871 0.477531
Si Si7 0.820069 0.512623 0.973615
Si Si8 0.982354 0.796304 0.235519
O O1 0.833699 0.012364 0.933188
O O2 0.743574 0.965780 0.778006
O O3 0.896514 0.220411 0.891745
O O4 0.126107 0.997251 0.022998
O O5 0.115013 0.417322 0.396720
O O6 0.021897 0.651489 0.293037
O O7 0.979905 0.394591 0.216339
O O8 0.672108 0.773625 0.519163
O O9 0.775957 0.567287 0.507286
O O10 0.304491 0.791143 0.268695
O O11 0.456725 0.010463 0.404305
O O12 0.464873 0.848050 0.563500
O O13 0.540454 0.735037 0.703596
O O14 0.751405 0.158182 0.613176
O O15 0.427698 0.099878 0.492261
O O16 0.612524 0.571044 0.831708
#
# Coordination Sequence:
#
# PCOD8055488 Si02
#       8
#     4   4   4   4   4   4   4   4
#     4  10  22  46  70  96 138 178 231 274 349 413
#     4  11  24  45  71 101 139 184 229 286 353 411
#     4  11  24  47  68 100 139 184 225 285 355 413
#     4  11  27  42  70 105 140 178 233 294 345 412
#     4  10  23  48  69  99 141 187 224 291 353 411
#     4  12  26  44  70 111 137 182 238 287 341 419
#     4  12  25  44  73 100 143 185 236 284 349 416
#     4  11  25  46  69 102 141 186 228 287 351 413
#
# _framework density 21.925384000000001
#
# number of rings (size 3 to 8) (size 9 to 14) (size 15 to 20)
#    0.000    1.000    5.000    0.750    8.750    1.000 
#    0.000    0.000    0.000    0.000    0.000    0.000 
#    0.000    0.000    0.000    0.000    0.000    0.000 
#
# Total GULP energy -198454.302580 kJ/mol
# GULP energy per Si atom -12403.393911 kJ/mol
# Density = 2.187548 g / cm^3
# Si number density = 21.925384 Si / 1000 Ang^3
#
#
#
# Elastic Constant Matrix: (Units=GPa)
#
#
# Indices 1 2 3 4 5 6 
#
# 1 136.1491 38.3967 24.2205 0.0000 7.9552 0.0000
# 2 38.3967 100.6805 14.3248 0.0001 0.6261 0.0000
# 3 24.2205 14.3248 59.2241 0.0049 11.3989 0.0003
# 4 0.0000 0.0001 0.0049 28.0826 0.0001 4.3410
# 5 7.9552 0.6261 11.3989 0.0001 31.7741 0.0000
# 6 0.0000 0.0000 0.0003 4.3410 0.0000 37.3945
#
#
#
# Elastic Compliance Matrix: (Units=1/GPa)
#
#
# Indices 1 2 3 4 5 6 
#
# 1 0.008710 -0.002941 -0.002623 0.000000 -0.001182 0.000000
# 2 -0.002941 0.011296 -0.001749 0.000000 0.001141 0.000000
# 3 -0.002623 -0.001749 0.019601 -0.000003 -0.006341 0.000000
# 4 0.000000 0.000000 -0.000003 0.036260 0.000001 -0.004209
# 5 -0.001182 0.001141 -0.006341 0.000001 0.034020 0.000000
# 6 0.000000 0.000000 0.000000 -0.004209 0.000000 0.027231
#
#
# Mechanical properties :
#
#
# Convention : Reuss Voigt Hill
#
# Bulk Modulus (GPa) = 40.03156 49.99307 45.01231
# Shear Modulus (GPa) = 31.23604 34.05770 32.64687
#
# Velocity S-wave (km/s) = 3.77855 3.94553 3.86294
# Velocity P-wave (km/s) = 6.11018 6.60357 6.36166
#
# Compressibility (1/GPa) = 0.02498029
#
# Stress axis : x y z
#
# Youngs Moduli (GPa) = 114.80954 88.52810 51.01711
#
# Poissons Ratio (x) = 0.26038 0.13383
# Poissons Ratio (y) = 0.33768 0.08923
# Poissons Ratio (z) = 0.30118 0.15483
#
# Static dielectric constant tensor:
#      x y z
#    x 4.120540 0.000000 0.263440 
#    y 0.000000 4.080030 0.000000 
#    z 0.263440 0.000000 3.798200 
# 
# 
# High freq. dielectric constant tensor:
#      x y z
#    x 1.876070 0.000000 0.019380 
#    y 0.000000 1.869280 0.000000 
#    z 0.019380 0.000000 1.848300 
# 
# From -- ./inp_files/17735.got.cif
#   From: 2010.06.25/outbox.cif.g09.slc.cpg/sg9_9_cif.got.tgz:17735.got - 2010.06.27 21:40:51.
