data_PCOD8055625
_publ_section_title
;
Structure prediction by ZEFSAII (Michael W. Deem and Ramdas Pophale) SiO2 
 PCOD8055625
Probable space group: C C
;
_chemical_formula_sum "Si O2"
_cell_formula_units_Z 28
_cell_length_a 10.660991
_cell_length_b 22.887887
_cell_length_c 5.251088
_cell_angle_alpha 90.000000
_cell_angle_beta 63.938196
_cell_angle_gamma 90.000000
_cell_volume 1151.022893
_symmetry_space_group_name_H-M "C C"
_symmetry_group_IT_number 9
_symmetry_cell_setting 'monoclinic'
loop_
_space_group_symop_operation_xyz
x,y,z
x,-y,1/2+z
1/2+x,1/2+y,z
1/2+x,1/2-y,1/2+z
loop_
_atom_site_type_symbol
_atom_site_label
_atom_site_fract_x
_atom_site_fract_y
_atom_site_fract_z
Si Si1 0.064880 0.021492 0.062920
Si Si2 0.612209 0.349641 0.440799
Si Si3 0.213431 0.260381 0.113226
Si Si4 0.564593 0.126610 0.852764
Si Si5 0.255799 0.472340 0.297277
Si Si6 0.388181 0.732763 0.963295
Si Si7 0.415569 0.861765 0.990532
O O1 0.148518 0.995198 0.230050
O O2 0.042314 0.091055 0.111761
O O3 0.921750 0.983572 0.156324
O O4 0.651200 0.305087 0.635621
O O5 0.503230 0.318287 0.348866
O O6 0.748477 0.366888 0.157712
O O7 0.092304 0.304349 0.309221
O O8 0.324629 0.259367 0.240845
O O9 0.277719 0.282437 0.786522
O O10 0.713424 0.094201 0.765948
O O11 0.488383 0.104795 0.662731
O O12 0.463298 0.111665 0.179128
O O13 0.189563 0.488435 0.629281
O O14 0.461736 0.793787 0.970714
#
# Coordination Sequence:
#
# PCOD8055625 Si02
#       7
#     4   4   4   4   4   4   4
#     4  10  25  45  71 106 142 192 256 312 369 421
#     4  11  26  49  74 108 163 192 259 306 375 465
#     4  11  26  41  72 110 144 198 237 316 377 427
#     4  12  24  45  71 102 156 184 249 296 377 448
#     4  10  23  43  69 104 138 182 252 313 356 427
#     4  11  25  42  71 107 147 190 246 297 373 440
#     4  11  25  45  66 109 146 200 227 298 385 446
#
# _framework density 24.326187000000001
#
# number of rings (size 3 to 8) (size 9 to 14) (size 15 to 20)
#    0.000    1.143    1.429    3.429   10.000    4.571 
#    0.000    4.286    0.000    0.000    0.000    0.000 
#    0.000    0.000    0.000    0.000    0.000    0.000 
#
# Total GULP energy -173524.907396 kJ/mol
# GULP energy per Si atom -12394.636243 kJ/mol
# Density = 2.427082 g / cm^3
# Si number density = 24.326187 Si / 1000 Ang^3
#
#
#
# Elastic Constant Matrix: (Units=GPa)
#
#
# Indices 1 2 3 4 5 6 
#
# 1 89.3049 33.1643 51.4762 0.0000 12.2299 0.0000
# 2 33.1643 99.8783 25.9060 0.0000 7.0367 0.0000
# 3 51.4762 25.9060 156.8231 0.0000 33.1000 0.0000
# 4 0.0000 0.0000 0.0000 22.5799 0.0000 3.3781
# 5 12.2299 7.0367 33.1000 0.0000 46.8202 0.0000
# 6 0.0000 0.0000 0.0000 3.3781 0.0000 47.8440
#
#
#
# Elastic Compliance Matrix: (Units=1/GPa)
#
#
# Indices 1 2 3 4 5 6 
#
# 1 0.015146 -0.003901 -0.004250 0.000000 -0.000365 0.000000
# 2 -0.003901 0.011472 -0.000547 0.000000 -0.000318 0.000000
# 3 -0.004250 -0.000547 0.008945 0.000000 -0.005131 0.000000
# 4 0.000000 0.000000 0.000000 0.044760 0.000000 -0.003160
# 5 -0.000365 -0.000318 -0.005131 0.000000 0.025129 0.000000
# 6 0.000000 0.000000 0.000000 -0.003160 0.000000 0.021124
#
#
# Mechanical properties :
#
#
# Convention : Reuss Voigt Hill
#
# Bulk Modulus (GPa) = 55.04776 63.01102 59.02939
# Shear Modulus (GPa) = 33.32678 39.14614 36.23646
#
# Velocity S-wave (km/s) = 3.70536 4.01586 3.86373
# Velocity P-wave (km/s) = 6.40191 6.88924 6.65004
#
# Compressibility (1/GPa) = 0.01816604
#
# Stress axis : x y z
#
# Youngs Moduli (GPa) = 66.02346 87.16924 111.79223
#
# Poissons Ratio (x) = 0.34006 0.47512
# Poissons Ratio (y) = 0.25757 0.06120
# Poissons Ratio (z) = 0.28060 0.04772
#
# Static dielectric constant tensor:
#      x y z
#    x 4.332440 0.000000 0.519400 
#    y 0.000000 4.235850 0.000000 
#    z 0.519400 0.000000 5.254720 
# 
# 
# High freq. dielectric constant tensor:
#      x y z
#    x 1.953470 0.000000 0.022310 
#    y 0.000000 1.946670 0.000000 
#    z 0.022310 0.000000 1.979680 
# 
# From -- ./inp_files/1834.got.cif
#   From: 2010.06.25/outbox.cif.g09.slc.cpg/sg9_1_cif.got.tgz:1834.got - 2010.06.27 21:40:51.
