data_PCOD8055592
_publ_section_title
;
Structure prediction by ZEFSAII (Michael W. Deem and Ramdas Pophale) SiO2 
 PCOD8055592
Probable space group: C C
;
_chemical_formula_sum "Si O2"
_cell_formula_units_Z 32
_cell_length_a 11.181486
_cell_length_b 18.872648
_cell_length_c 8.926361
_cell_angle_alpha 90.000000
_cell_angle_beta 55.150148
_cell_angle_gamma 90.000000
_cell_volume 1545.845259
_symmetry_space_group_name_H-M "C C"
_symmetry_group_IT_number 9
_symmetry_cell_setting 'monoclinic'
loop_
_space_group_symop_operation_xyz
x,y,z
x,-y,1/2+z
1/2+x,1/2+y,z
1/2+x,1/2-y,1/2+z
loop_
_atom_site_type_symbol
_atom_site_label
_atom_site_fract_x
_atom_site_fract_y
_atom_site_fract_z
Si Si1 0.733990 0.948461 0.034940
Si Si2 0.665570 0.583323 0.462806
Si Si3 0.162576 0.414378 0.424522
Si Si4 0.454530 0.163006 0.260209
Si Si5 0.676182 0.183144 0.369770
Si Si6 0.565367 0.447939 0.720478
Si Si7 0.505658 0.315853 0.555183
Si Si8 0.441441 0.325083 0.272207
O O1 0.682945 0.936092 0.239566
O O2 0.687862 0.881390 0.973517
O O3 0.905912 0.964930 0.901108
O O4 0.648270 0.015867 0.035675
O O5 0.817237 0.616230 0.410659
O O6 0.626330 0.513929 0.585075
O O7 0.674133 0.565540 0.280521
O O8 0.540368 0.642675 0.570094
O O9 0.292006 0.366116 0.390727
O O10 0.016349 0.369511 0.560611
O O11 0.577061 0.160337 0.300948
O O12 0.405954 0.243307 0.263162
O O13 0.605560 0.247365 0.514750
O O14 0.836947 0.205170 0.199718
O O15 0.560506 0.379605 0.618072
O O16 0.528129 0.336504 0.365519
#
# Coordination Sequence:
#
# PCOD8055592 Si02
#       8
#     4   4   4   4   4   4   4   4
#     4  11  23  42  71  94 127 177 224 271 321 393
#     4  12  25  43  67  98 133 176 221 272 327 390
#     4  12  23  43  68  97 131 175 221 271 326 392
#     4  11  26  42  64 102 135 169 218 273 335 383
#     4  10  23  44  67  98 132 171 220 269 332 392
#     4  11  23  44  67  97 130 174 225 269 324 393
#     4  10  23  42  69  97 130 173 219 271 328 395
#     4  11  22  42  69  93 130 177 220 264 323 398
#
# _framework density 20.700648999999999
#
# number of rings (size 3 to 8) (size 9 to 14) (size 15 to 20)
#    0.000    1.000    3.750    2.250    7.000    4.000 
#    4.500    0.000    0.000    0.000    0.000    0.000 
#    0.000    0.000    0.000    0.000    0.000    0.000 
#
# Total GULP energy -198461.891929 kJ/mol
# GULP energy per Si atom -12403.868246 kJ/mol
# Density = 2.065353 g / cm^3
# Si number density = 20.700649 Si / 1000 Ang^3
#
#
#
# Elastic Constant Matrix: (Units=GPa)
#
#
# Indices 1 2 3 4 5 6 
#
# 1 70.3882 56.5893 34.1751 0.0000 -5.7068 0.0000
# 2 56.5893 145.3379 79.4152 0.0000 -1.7039 0.0000
# 3 34.1751 79.4152 109.0548 0.0000 0.8944 0.0000
# 4 0.0000 0.0000 0.0000 37.1591 0.0000 -8.2390
# 5 -5.7068 -1.7039 0.8944 0.0000 36.3430 0.0000
# 6 0.0000 0.0000 0.0000 -8.2390 0.0000 29.4939
#
#
#
# Elastic Compliance Matrix: (Units=1/GPa)
#
#
# Indices 1 2 3 4 5 6 
#
# 1 0.021067 -0.007552 -0.001127 0.000000 0.002982 0.000000
# 2 -0.007552 0.014155 -0.007938 0.000000 -0.000327 0.000000
# 3 -0.001127 -0.007938 0.015311 0.000000 -0.000926 0.000000
# 4 0.000000 0.000000 0.000000 0.028688 0.000000 0.008014
# 5 0.002982 -0.000327 -0.000926 0.000000 0.027991 0.000000
# 6 0.000000 0.000000 0.000000 0.008014 0.000000 0.036144
#
#
# Mechanical properties :
#
#
# Convention : Reuss Voigt Hill
#
# Bulk Modulus (GPa) = 57.80794 73.90449 65.85622
# Shear Modulus (GPa) = 27.41851 30.90595 29.16223
#
# Velocity S-wave (km/s) = 3.64335 3.86812 3.75742
# Velocity P-wave (km/s) = 6.75906 7.46518 7.12088
#
# Compressibility (1/GPa) = 0.01729866
#
# Stress axis : x y z
#
# Youngs Moduli (GPa) = 47.46654 70.64656 65.31107
#
# Poissons Ratio (x) = 0.53354 0.07360
# Poissons Ratio (y) = 0.35848 0.51847
# Poissons Ratio (z) = 0.05349 0.56083
#
# Static dielectric constant tensor:
#      x y z
#    x 3.676750 0.000000 -0.075520 
#    y 0.000000 3.951170 0.000000 
#    z -0.075520 0.000000 3.899060 
# 
# 
# High freq. dielectric constant tensor:
#      x y z
#    x 1.797740 0.000000 -0.001180 
#    y 0.000000 1.828910 0.000000 
#    z -0.001180 0.000000 1.817040 
# 
# From -- ./inp_files/8010.got.cif
#   From: 2010.06.25/outbox.cif.g09.slc.cpg/sg9_5_cif.got.tgz:8010.got - 2010.06.27 21:40:51.
