data_PCOD8055588
_publ_section_title
;
Structure prediction by ZEFSAII (Michael W. Deem and Ramdas Pophale) SiO2 
 PCOD8055588
Probable space group: C C
;
_chemical_formula_sum "Si O2"
_cell_formula_units_Z 32
_cell_length_a 17.019594
_cell_length_b 13.218210
_cell_length_c 10.478283
_cell_angle_alpha 90.000000
_cell_angle_beta 37.420786
_cell_angle_gamma 90.000000
_cell_volume 1432.436819
_symmetry_space_group_name_H-M "C C"
_symmetry_group_IT_number 9
_symmetry_cell_setting 'monoclinic'
loop_
_space_group_symop_operation_xyz
x,y,z
x,-y,1/2+z
1/2+x,1/2+y,z
1/2+x,1/2-y,1/2+z
loop_
_atom_site_type_symbol
_atom_site_label
_atom_site_fract_x
_atom_site_fract_y
_atom_site_fract_z
Si Si1 0.060300 0.558495 0.086370
Si Si2 0.890637 0.707637 0.157759
Si Si3 0.989017 0.745720 0.757621
Si Si4 0.822020 0.570108 0.901041
Si Si5 0.937730 0.045823 0.219352
Si Si6 0.703319 0.541741 0.320063
Si Si7 0.219664 0.372223 0.836403
Si Si8 0.768333 0.133379 0.997990
O O1 0.130892 0.619471 0.107272
O O2 0.004795 0.636010 0.056927
O O3 0.944499 0.493370 0.293748
O O4 0.157951 0.482532 0.889078
O O5 0.755699 0.648917 0.304978
O O6 0.861334 0.793989 0.297685
O O7 0.955090 0.750908 0.949127
O O8 0.003120 0.864737 0.714494
O O9 0.128404 0.695793 0.545615
O O10 0.871123 0.687336 0.836272
O O11 0.723980 0.539048 0.140444
O O12 0.772821 0.543089 0.821682
O O13 0.861620 0.107677 0.208732
O O14 0.837340 0.976010 0.426662
O O15 0.049806 0.970921 0.026327
O O16 0.239407 0.318258 0.673776
#
# Coordination Sequence:
#
# PCOD8055588 Si02
#       8
#     4   4   4   4   4   4   4   4
#     4   9  22  42  71  94 133 174 227 274 330 409
#     4  10  24  45  71 101 130 180 228 275 342 410
#     4  10  24  43  70  97 135 177 229 272 336 414
#     4   9  21  42  70  97 129 182 226 272 336 410
#     4  11  27  43  66 101 138 174 224 286 340 399
#     4  10  23  42  68  99 135 177 223 282 337 408
#     4  10  25  45  67  99 134 184 224 279 340 402
#     4  11  26  42  67 100 136 176 223 286 341 394
#
# _framework density 22.339554
#
# number of rings (size 3 to 8) (size 9 to 14) (size 15 to 20)
#    0.000    2.000    0.000    0.000   19.250    3.000 
#    0.000    0.000    0.000    0.000    0.000    0.000 
#    0.000    0.000    0.000    0.000    0.000    0.000 
#
# Total GULP energy -198274.082359 kJ/mol
# GULP energy per Si atom -12392.130147 kJ/mol
# Density = 2.228871 g / cm^3
# Si number density = 22.339554 Si / 1000 Ang^3
#
#
#
# Elastic Constant Matrix: (Units=GPa)
#
#
# Indices 1 2 3 4 5 6 
#
# 1 62.9766 19.5788 50.6151 0.0000 1.5765 0.0000
# 2 19.5788 86.1220 33.1763 0.0000 3.2357 0.0000
# 3 50.6151 33.1763 124.9212 0.0000 3.3735 0.0000
# 4 0.0000 0.0000 0.0000 28.5442 0.0000 1.2398
# 5 1.5765 3.2357 3.3735 0.0000 40.6089 0.0000
# 6 0.0000 0.0000 0.0000 1.2398 0.0000 21.0311
#
#
#
# Elastic Compliance Matrix: (Units=1/GPa)
#
#
# Indices 1 2 3 4 5 6 
#
# 1 0.023820 -0.001890 -0.009149 0.000000 -0.000014 0.000000
# 2 -0.001890 0.013107 -0.002695 0.000000 -0.000747 0.000000
# 3 -0.009149 -0.002695 0.012440 0.000000 -0.000464 0.000000
# 4 0.000000 0.000000 0.000000 0.035123 0.000000 -0.002071
# 5 -0.000014 -0.000747 -0.000464 0.000000 0.024724 0.000000
# 6 0.000000 0.000000 0.000000 -0.002071 0.000000 0.047671
#
#
# Mechanical properties :
#
#
# Convention : Reuss Voigt Hill
#
# Bulk Modulus (GPa) = 45.66352 53.41780 49.54066
# Shear Modulus (GPa) = 26.08876 29.41348 27.75112
#
# Velocity S-wave (km/s) = 3.42106 3.63251 3.52837
# Velocity P-wave (km/s) = 6.00748 6.44649 6.23085
#
# Compressibility (1/GPa) = 0.02189932
#
# Stress axis : x y z
#
# Youngs Moduli (GPa) = 41.98151 76.29271 80.38449
#
# Poissons Ratio (x) = 0.14422 0.73543
# Poissons Ratio (y) = 0.07936 0.21663
# Poissons Ratio (z) = 0.38408 0.20561
#
# Static dielectric constant tensor:
#      x y z
#    x 4.022980 0.000000 -0.132440 
#    y 0.000000 4.126710 0.000000 
#    z -0.132440 0.000000 3.922080 
# 
# 
# High freq. dielectric constant tensor:
#      x y z
#    x 1.876800 0.000000 -0.010310 
#    y 0.000000 1.878250 0.000000 
#    z -0.010310 0.000000 1.881610 
# 
# From -- ./inp_files/19404.got.cif
#   From: 2010.06.25/outbox.cif.g09.slc.cpg/sg9_10_cif.got.tgz:19404.got - 2010.06.27 21:40:51.
