data_PCOD8055103
_publ_section_title
;
Structure prediction by ZEFSAII (Michael W. Deem and Ramdas Pophale) SiO2 
 PCOD8055103
Probable space group: C C
;
_chemical_formula_sum "Si O2"
_cell_formula_units_Z 32
_cell_length_a 28.776006
_cell_length_b 9.208592
_cell_length_c 8.969088
_cell_angle_alpha 90.000000
_cell_angle_beta 140.505921
_cell_angle_gamma 90.000000
_cell_volume 1511.569454
_symmetry_space_group_name_H-M "C C"
_symmetry_group_IT_number 9
_symmetry_cell_setting 'monoclinic'
loop_
_space_group_symop_operation_xyz
x,y,z
x,-y,1/2+z
1/2+x,1/2+y,z
1/2+x,1/2-y,1/2+z
loop_
_atom_site_type_symbol
_atom_site_label
_atom_site_fract_x
_atom_site_fract_y
_atom_site_fract_z
Si Si1 0.726110 0.137056 0.829190
Si Si2 0.604847 0.349488 0.912856
Si Si3 0.838078 0.164725 0.859751
Si Si4 0.837558 0.159901 0.334144
Si Si5 0.742362 0.812988 0.855528
Si Si6 0.470488 0.843496 0.576973
Si Si7 0.093210 0.838883 0.528006
Si Si8 0.981294 0.654629 0.752736
O O1 0.802297 0.167809 0.933415
O O2 0.659695 0.243127 0.627256
O O3 0.702177 0.970272 0.742551
O O4 0.753489 0.163510 0.065091
O O5 0.595404 0.351331 0.711658
O O6 0.548541 0.238982 0.847571
O O7 0.686657 0.308465 0.163142
O O8 0.592451 0.506993 0.948344
O O9 0.769441 0.217129 0.589797
O O10 0.868165 0.004214 0.889448
O O11 0.905855 0.271089 0.021236
O O12 0.820852 0.194640 0.464967
O O13 0.888709 0.280800 0.387082
O O14 0.493368 0.853195 0.460665
O O15 0.477759 0.997126 0.673084
O O16 0.518878 0.734619 0.792950
#
# Coordination Sequence:
#
# PCOD8055103 Si02
#       8
#     4   4   4   4   4   4   4   4
#     4  10  21  44  67  98 134 174 221 269 329 395
#     4  12  27  46  67  99 134 177 226 276 335 397
#     4  10  23  40  71  99 134 176 220 270 327 395
#     4  10  21  44  67  98 134 174 221 269 329 395
#     4  10  23  40  71  99 134 176 220 270 327 395
#     4  12  27  45  70  96 135 177 223 280 334 398
#     4  12  27  45  70  96 135 177 223 280 334 398
#     4  12  27  46  67  99 134 177 226 276 335 397
#
# _framework density 21.170048000000001
#
# number of rings (size 3 to 8) (size 9 to 14) (size 15 to 20)
#    0.000    1.000    2.500    3.000    7.000    2.000 
#    0.000    0.000    0.000    0.000    0.000    0.000 
#    0.000    0.000    0.000    0.000    0.000    0.000 
#
# Total GULP energy -198382.005801 kJ/mol
# GULP energy per Si atom -12398.875363 kJ/mol
# Density = 2.112186 g / cm^3
# Si number density = 21.170048 Si / 1000 Ang^3
#
#
#
# Elastic Constant Matrix: (Units=GPa)
#
#
# Indices 1 2 3 4 5 6 
#
# 1 81.4237 31.2312 25.2951 0.0000 -8.3843 0.0000
# 2 31.2312 122.1657 51.1128 0.0000 -2.2639 0.0000
# 3 25.2951 51.1128 103.2044 0.0000 -6.0214 0.0000
# 4 0.0000 0.0000 0.0000 44.7551 0.0000 5.8747
# 5 -8.3843 -2.2639 -6.0214 0.0000 30.7533 0.0000
# 6 0.0000 0.0000 0.0000 5.8747 0.0000 39.7178
#
#
#
# Elastic Compliance Matrix: (Units=1/GPa)
#
#
# Indices 1 2 3 4 5 6 
#
# 1 0.014290 -0.002784 -0.001930 0.000000 0.003313 0.000000
# 2 -0.002784 0.010869 -0.004753 0.000000 -0.000889 0.000000
# 3 -0.001930 -0.004753 0.012609 0.000000 0.001593 0.000000
# 4 0.000000 0.000000 0.000000 0.022786 0.000000 -0.003370
# 5 0.003313 -0.000889 0.001593 0.000000 0.033666 0.000000
# 6 0.000000 0.000000 0.000000 -0.003370 0.000000 0.025676
#
#
# Mechanical properties :
#
#
# Convention : Reuss Voigt Hill
#
# Bulk Modulus (GPa) = 53.09378 58.00801 55.55089
# Shear Modulus (GPa) = 34.45660 36.32222 35.38941
#
# Velocity S-wave (km/s) = 4.03874 4.14664 4.09305
# Velocity P-wave (km/s) = 6.84709 7.09835 6.97386
#
# Compressibility (1/GPa) = 0.01883460
#
# Stress axis : x y z
#
# Youngs Moduli (GPa) = 69.97813 92.00191 79.30648
#
# Poissons Ratio (x) = 0.25615 0.15308
# Poissons Ratio (y) = 0.19484 0.37691
# Poissons Ratio (z) = 0.13508 0.43725
#
# Static dielectric constant tensor:
#      x y z
#    x 3.872980 0.000000 -0.188230 
#    y 0.000000 3.684380 0.000000 
#    z -0.188230 0.000000 3.825000 
# 
# 
# High freq. dielectric constant tensor:
#      x y z
#    x 1.841620 0.000000 -0.011880 
#    y 0.000000 1.831490 0.000000 
#    z -0.011880 0.000000 1.840650 
# 
# From -- ./inp_files/12413.got.cif
#   From: 2010.06.25/outbox.cif.g09.slc.cpg/sg9_7_cif.got.tgz:12413.got - 2010.06.27 21:40:51.
