data_PCOD8055878
_publ_section_title
;
Structure prediction by ZEFSAII (Michael W. Deem and Ramdas Pophale) SiO2 
 PCOD8055878
Probable space group: C C
;
_chemical_formula_sum "Si O2"
_cell_formula_units_Z 32
_cell_length_a 5.596333
_cell_length_b 32.097945
_cell_length_c 8.750786
_cell_angle_alpha 90.000000
_cell_angle_beta 56.173549
_cell_angle_gamma 90.000000
_cell_volume 1305.829455
_symmetry_space_group_name_H-M "C C"
_symmetry_group_IT_number 9
_symmetry_cell_setting 'monoclinic'
loop_
_space_group_symop_operation_xyz
x,y,z
x,-y,1/2+z
1/2+x,1/2+y,z
1/2+x,1/2-y,1/2+z
loop_
_atom_site_type_symbol
_atom_site_label
_atom_site_fract_x
_atom_site_fract_y
_atom_site_fract_z
Si Si1 0.901700 0.058039 0.098020
Si Si2 0.741550 0.180447 0.871262
Si Si3 0.184800 0.492961 0.930594
Si Si4 0.649155 0.717967 0.988495
Si Si5 0.192201 0.691435 0.376969
Si Si6 0.477417 0.867897 0.717375
Si Si7 0.377614 0.370235 0.049738
Si Si8 0.476330 0.943409 0.264562
O O1 0.921647 0.035428 0.256390
O O2 0.675980 0.094664 0.202377
O O3 0.191667 0.079538 0.929691
O O4 0.836506 0.023251 0.994841
O O5 0.940317 0.161309 0.667063
O O6 0.495294 0.210374 0.881305
O O7 0.557721 0.143265 0.015199
O O8 0.979827 0.199590 0.900875
O O9 0.009991 0.518553 0.869009
O O10 0.959328 0.462782 0.100119
O O11 0.510673 0.700697 0.194812
O O12 0.578630 0.767078 0.999721
O O13 0.175089 0.653794 0.503122
O O14 0.001054 0.675482 0.303614
O O15 0.155783 0.884316 0.855115
O O16 0.234638 0.410803 0.173857
#
# Coordination Sequence:
#
# PCOD8055878 Si02
#       8
#     4   4   4   4   4   4   4   4
#     4  11  24  45  73 102 145 185 240 297 364 436
#     4  11  27  47  77 106 152 193 257 303 383 430
#     4  10  24  44  70 106 140 185 239 297 361 441
#     4  11  26  48  75 108 143 202 245 322 362 451
#     4  11  26  45  73 101 148 187 254 301 376 435
#     4  11  27  46  67 106 149 191 242 308 368 445
#     4  12  27  44  71 106 146 194 243 302 374 445
#     4  11  25  43  74 103 141 187 240 294 368 435
#
# _framework density 24.505495
#
# number of rings (size 3 to 8) (size 9 to 14) (size 15 to 20)
#    0.000    1.000    1.250    3.000    8.750   11.000 
#    0.000    0.000    0.000    0.000    0.000    0.000 
#    0.000    0.000    0.000    0.000    0.000    0.000 
#
# Total GULP energy -198281.157170 kJ/mol
# GULP energy per Si atom -12392.572323 kJ/mol
# Density = 2.444972 g / cm^3
# Si number density = 24.505495 Si / 1000 Ang^3
#
#
#
# Elastic Constant Matrix: (Units=GPa)
#
#
# Indices 1 2 3 4 5 6 
#
# 1 85.3203 19.7282 22.0795 0.0000 0.2385 0.0000
# 2 19.7282 101.4242 27.2571 0.0000 1.0326 0.0000
# 3 22.0795 27.2571 116.3073 0.0000 1.5996 0.0000
# 4 0.0000 0.0000 0.0000 16.4106 0.0000 -21.0146
# 5 0.2385 1.0326 1.5996 0.0000 42.7564 0.0000
# 6 0.0000 0.0000 0.0000 -21.0146 0.0000 14.6236
#
#
#
# Elastic Compliance Matrix: (Units=1/GPa)
#
#
# Indices 1 2 3 4 5 6 
#
# 1 0.012674 -0.001941 -0.001952 0.000000 0.000049 0.000000
# 2 -0.001941 0.010821 -0.002165 0.000000 -0.000169 0.000000
# 3 -0.001952 -0.002165 0.009480 0.000000 -0.000291 0.000000
# 4 0.000000 0.000000 0.000000 -0.072527 0.000000 -0.104223
# 5 0.000049 -0.000169 -0.000291 0.000000 0.023403 0.000000
# 6 0.000000 0.000000 0.000000 -0.104223 0.000000 -0.081389
#
#
# Mechanical properties :
#
#
# Convention : Reuss Voigt Hill
#
# Bulk Modulus (GPa) = 47.94156 49.02015 48.48085
# Shear Modulus (GPa) = -63.71940 30.35726 -16.68107
#
# Velocity S-wave (km/s) = -5.10476 3.52347 -2.61187
# Velocity P-wave (km/s) = 3.89084 6.04982 3.27579
#
# Compressibility (1/GPa) = 0.02085873
#
# Stress axis : x y z
#
# Youngs Moduli (GPa) = 78.89942 92.41504 105.48710
#
# Poissons Ratio (x) = 0.17940 0.20589
# Poissons Ratio (y) = 0.15317 0.22838
# Poissons Ratio (z) = 0.15400 0.20008
#
# Static dielectric constant tensor:
#      x y z
#    x 4.009510 0.000000 0.065200 
#    y 0.000000 4.415470 0.000000 
#    z 0.065200 0.000000 5.015740 
# 
# 
# High freq. dielectric constant tensor:
#      x y z
#    x 1.946380 0.000000 0.007170 
#    y 0.000000 1.977620 0.000000 
#    z 0.007170 0.000000 2.005810 
# 
# From -- ./inp_files/4449.got.cif
#   From: 2010.06.25/outbox.cif.g09.slc.cpg/sg9_3_cif.got.tgz:4449.got - 2010.06.27 21:40:51.
