data_PCOD8055441
_publ_section_title
;
Structure prediction by ZEFSAII (Michael W. Deem and Ramdas Pophale) SiO2 
 PCOD8055441
Probable space group: C C
;
_chemical_formula_sum "Si O2"
_cell_formula_units_Z 28
_cell_length_a 6.467742
_cell_length_b 14.308672
_cell_length_c 16.712697
_cell_angle_alpha 90.000000
_cell_angle_beta 126.689890
_cell_angle_gamma 90.000000
_cell_volume 1240.247969
_symmetry_space_group_name_H-M "C C"
_symmetry_group_IT_number 9
_symmetry_cell_setting 'monoclinic'
loop_
_space_group_symop_operation_xyz
x,y,z
x,-y,1/2+z
1/2+x,1/2+y,z
1/2+x,1/2-y,1/2+z
loop_
_atom_site_type_symbol
_atom_site_label
_atom_site_fract_x
_atom_site_fract_y
_atom_site_fract_z
Si Si1 0.954300 0.689658 0.102020
Si Si2 0.288782 0.041744 0.183140
Si Si3 0.927720 0.641681 0.367267
Si Si4 0.208026 0.408305 0.235366
Si Si5 0.813840 0.905859 0.080710
Si Si6 0.228757 0.182045 0.883417
Si Si7 0.964132 0.745454 0.779810
O O1 0.769412 0.624172 0.112853
O O2 0.879604 0.796857 0.097957
O O3 0.249669 0.681184 0.198904
O O4 0.921718 0.660420 0.001495
O O5 0.265017 0.081723 0.266552
O O6 0.573385 0.996388 0.245527
O O7 0.062457 0.967239 0.115519
O O8 0.713012 0.697568 0.369100
O O9 0.093508 0.575097 0.463563
O O10 0.114247 0.713757 0.364315
O O11 0.192206 0.430317 0.137727
O O12 0.504527 0.396297 0.331651
O O13 0.046033 0.316365 0.222196
O O14 0.372852 0.178475 0.831374
#
# Coordination Sequence:
#
# PCOD8055441 Si02
#       7
#     4   4   4   4   4   4   4
#     4  11  23  45  71 101 141 187 236 287 363 421
#     4  12  25  45  69 104 143 184 236 296 349 430
#     4  10  25  42  71 101 137 183 232 288 359 419
#     4  11  23  44  66 102 140 182 229 293 347 416
#     4  11  25  48  69 103 144 186 239 295 351 429
#     4  10  22  44  71 101 136 186 233 285 353 425
#     4  11  21  46  71  98 141 182 229 294 350 424
#
# _framework density 22.576128000000001
#
# number of rings (size 3 to 8) (size 9 to 14) (size 15 to 20)
#    0.000    1.143    4.286    0.857    6.000    0.000 
#    7.714    0.000    0.000    0.000    0.000    0.000 
#    0.000    0.000    0.000    0.000    0.000    0.000 
#
# Total GULP energy -173614.826208 kJ/mol
# GULP energy per Si atom -12401.059015 kJ/mol
# Density = 2.252474 g / cm^3
# Si number density = 22.576128 Si / 1000 Ang^3
#
#
#
# Elastic Constant Matrix: (Units=GPa)
#
#
# Indices 1 2 3 4 5 6 
#
# 1 123.4475 33.9587 49.2713 0.0001 -3.3344 0.0001
# 2 33.9587 81.8167 32.2922 0.0000 3.9066 0.0000
# 3 49.2713 32.2922 144.7150 0.0001 -4.4876 0.0001
# 4 0.0001 0.0000 0.0001 19.4584 0.0001 -3.3659
# 5 -3.3344 3.9066 -4.4876 0.0001 29.9520 0.0001
# 6 0.0001 0.0000 0.0001 -3.3659 0.0001 33.7492
#
#
#
# Elastic Compliance Matrix: (Units=1/GPa)
#
#
# Indices 1 2 3 4 5 6 
#
# 1 0.010078 -0.003176 -0.002687 0.000000 0.001134 0.000000
# 2 -0.003176 0.014551 -0.002246 0.000000 -0.002588 0.000000
# 3 -0.002687 -0.002246 0.008365 0.000000 0.001247 0.000000
# 4 0.000000 0.000000 0.000000 0.052294 0.000000 0.005215
# 5 0.001134 -0.002588 0.001247 0.000000 0.034037 0.000000
# 6 0.000000 0.000000 0.000000 0.005215 0.000000 0.030150
#
#
# Mechanical properties :
#
#
# Convention : Reuss Voigt Hill
#
# Bulk Modulus (GPa) = 59.61359 64.55817 62.08588
# Shear Modulus (GPa) = 29.19117 32.26239 30.72678
#
# Velocity S-wave (km/s) = 3.59975 3.78438 3.69322
# Velocity P-wave (km/s) = 6.61366 6.91037 6.76364
#
# Compressibility (1/GPa) = 0.01677470
#
# Stress axis : x y z
#
# Youngs Moduli (GPa) = 99.23090 68.72518 119.54815
#
# Poissons Ratio (x) = 0.21829 0.32125
# Poissons Ratio (y) = 0.31518 0.26847
# Poissons Ratio (z) = 0.26665 0.15434
#
# Static dielectric constant tensor:
#      x y z
#    x 4.117850 0.000000 0.055750 
#    y 0.000000 3.944110 0.000000 
#    z 0.055750 0.000000 4.260260 
# 
# 
# High freq. dielectric constant tensor:
#      x y z
#    x 1.894140 0.000000 0.000370 
#    y 0.000000 1.882920 0.000000 
#    z 0.000370 0.000000 1.886800 
# 
# From -- ./inp_files/21730.got.cif
#   From: 2010.06.25/outbox.cif.g09.slc.cpg/sg9_11_cif.got.tgz:21730.got - 2010.06.27 21:40:51.
