data_PCOD8055633
_publ_section_title
;
Structure prediction by ZEFSAII (Michael W. Deem and Ramdas Pophale) SiO2 
 PCOD8055633
Probable space group: C C
;
_chemical_formula_sum "Si O2"
_cell_formula_units_Z 28
_cell_length_a 6.683563
_cell_length_b 19.820379
_cell_length_c 10.397693
_cell_angle_alpha 90.000000
_cell_angle_beta 69.154639
_cell_angle_gamma 90.000000
_cell_volume 1287.232093
_symmetry_space_group_name_H-M "C C"
_symmetry_group_IT_number 9
_symmetry_cell_setting 'monoclinic'
loop_
_space_group_symop_operation_xyz
x,y,z
x,-y,1/2+z
1/2+x,1/2+y,z
1/2+x,1/2-y,1/2+z
loop_
_atom_site_type_symbol
_atom_site_label
_atom_site_fract_x
_atom_site_fract_y
_atom_site_fract_z
Si Si1 0.380740 0.080785 0.780060
Si Si2 0.986664 0.319621 0.891930
Si Si3 0.141170 0.468223 0.827468
Si Si4 0.854302 0.277622 0.399695
Si Si5 0.793282 0.960067 0.063778
Si Si6 0.602291 0.373488 0.128441
Si Si7 0.811405 0.754014 0.200578
O O1 0.332140 0.142109 0.887365
O O2 0.595534 0.091096 0.643463
O O3 0.181749 0.077234 0.725681
O O4 0.420428 0.012146 0.855807
O O5 0.896942 0.304758 0.771990
O O6 0.107136 0.389886 0.853335
O O7 0.144296 0.260552 0.899630
O O8 0.794413 0.325239 0.038353
O O9 0.294689 0.479745 0.669404
O O10 0.264110 0.492234 0.929269
O O11 0.893309 0.262068 0.539364
O O12 0.055139 0.253772 0.268577
O O13 0.014411 0.918710 0.029590
O O14 0.410646 0.325775 0.223490
#
# Coordination Sequence:
#
# PCOD8055633 Si02
#       7
#     4   4   4   4   4   4   4
#     4  10  23  43  70  95 145 186 237 294 369 431
#     4  12  25  41  72 102 142 180 249 294 364 433
#     4  10  23  46  64 100 140 190 232 304 364 441
#     4  12  25  46  68 104 144 190 234 308 361 435
#     4  10  23  43  72  93 146 187 241 298 372 435
#     4  12  22  47  72 101 139 202 233 301 377 435
#     4  12  25  40  72 103 140 183 246 293 363 428
#
# _framework density 21.752101
#
# number of rings (size 3 to 8) (size 9 to 14) (size 15 to 20)
#    0.857    0.000    5.714    1.714    2.000    1.143 
#    0.000    0.000    0.000    0.000    0.000    0.000 
#    0.000    0.000    0.000    0.000    0.000    0.000 
#
# Total GULP energy -173516.142516 kJ/mol
# GULP energy per Si atom -12394.010180 kJ/mol
# Density = 2.170259 g / cm^3
# Si number density = 21.752101 Si / 1000 Ang^3
#
#
#
# Elastic Constant Matrix: (Units=GPa)
#
#
# Indices 1 2 3 4 5 6 
#
# 1 101.1182 11.4526 24.7615 0.0000 15.3823 0.0000
# 2 11.4526 55.2409 3.7744 0.0000 8.0290 0.0000
# 3 24.7615 3.7744 73.4095 0.0000 16.5640 0.0000
# 4 0.0000 0.0000 0.0000 30.7206 0.0000 5.0878
# 5 15.3823 8.0290 16.5640 0.0000 47.5936 0.0000
# 6 0.0000 0.0000 0.0000 5.0878 0.0000 46.5169
#
#
#
# Elastic Compliance Matrix: (Units=1/GPa)
#
#
# Indices 1 2 3 4 5 6 
#
# 1 0.011209 -0.001784 -0.003190 0.000000 -0.002211 0.000000
# 2 -0.001784 0.018847 0.000239 0.000000 -0.002686 0.000000
# 3 -0.003190 0.000239 0.015695 0.000000 -0.004472 0.000000
# 4 0.000000 0.000000 0.000000 0.033152 0.000000 -0.003626
# 5 -0.002211 -0.002686 -0.004472 0.000000 0.023735 0.000000
# 6 0.000000 0.000000 0.000000 -0.003626 0.000000 0.021894
#
#
# Mechanical properties :
#
#
# Convention : Reuss Voigt Hill
#
# Bulk Modulus (GPa) = 27.56403 34.41618 30.99011
# Shear Modulus (GPa) = 34.22392 37.61822 35.92107
#
# Velocity S-wave (km/s) = 3.97087 4.16312 4.06813
# Velocity P-wave (km/s) = 5.80716 6.24221 6.02861
#
# Compressibility (1/GPa) = 0.03627916
#
# Stress axis : x y z
#
# Youngs Moduli (GPa) = 89.21289 53.06011 63.71475
#
# Poissons Ratio (x) = 0.09469 0.20326
# Poissons Ratio (y) = 0.15920 -0.01522
# Poissons Ratio (z) = 0.28460 -0.01268
#
# Static dielectric constant tensor:
#      x y z
#    x 4.039980 0.000000 0.173090 
#    y 0.000000 3.684990 0.000000 
#    z 0.173090 0.000000 3.839120 
# 
# 
# High freq. dielectric constant tensor:
#      x y z
#    x 1.867740 0.000000 0.016030 
#    y 0.000000 1.841510 0.000000 
#    z 0.016030 0.000000 1.842180 
# 
# From -- ./inp_files/13452.got.cif
#   From: 2010.06.25/outbox.cif.g09.slc.cpg/sg9_7_cif.got.tgz:13452.got - 2010.06.27 21:40:51.
