data_PCOD8055334
_publ_section_title
;
Structure prediction by ZEFSAII (Michael W. Deem and Ramdas Pophale) SiO2 
 PCOD8055334
Probable space group: C C
;
_chemical_formula_sum "Si O2"
_cell_formula_units_Z 32
_cell_length_a 9.130817
_cell_length_b 10.684942
_cell_length_c 14.770032
_cell_angle_alpha 90.000000
_cell_angle_beta 70.512438
_cell_angle_gamma 90.000000
_cell_volume 1358.448473
_symmetry_space_group_name_H-M "C C"
_symmetry_group_IT_number 9
_symmetry_cell_setting 'monoclinic'
loop_
_space_group_symop_operation_xyz
x,y,z
x,-y,1/2+z
1/2+x,1/2+y,z
1/2+x,1/2-y,1/2+z
loop_
_atom_site_type_symbol
_atom_site_label
_atom_site_fract_x
_atom_site_fract_y
_atom_site_fract_z
Si Si1 0.288540 0.893944 0.204150
Si Si2 0.426361 0.076418 0.492614
Si Si3 0.991421 0.003445 0.316402
Si Si4 0.313984 0.291579 0.250793
Si Si5 0.533914 0.156082 0.074392
Si Si6 0.156196 0.867838 0.925283
Si Si7 0.117686 0.481557 0.196158
Si Si8 0.204466 0.342328 0.831902
O O1 0.442133 0.934890 0.223792
O O2 0.202228 0.787677 0.279919
O O3 0.335291 0.852254 0.093032
O O4 0.155616 0.002862 0.226769
O O5 0.317263 0.072956 0.426677
O O6 0.588080 0.153264 0.442889
O O7 0.452613 0.931666 0.516180
O O8 0.882821 0.122107 0.315447
O O9 0.039243 0.022156 0.413725
O O10 0.899105 0.876601 0.310269
O O11 0.425770 0.190676 0.181894
O O12 0.180886 0.219930 0.332944
O O13 0.240222 0.368597 0.181864
O O14 0.663152 0.067675 0.098708
O O15 0.589235 0.284833 0.020378
O O16 0.123243 0.553232 0.288662
#
# Coordination Sequence:
#
# PCOD8055334 Si02
#       8
#     4   4   4   4   4   4   4   4
#     4  11  23  43  67  95 134 180 223 277 337 398
#     4  11  24  42  68 100 135 179 229 274 334 409
#     4  11  24  41  65  96 129 170 221 269 330 400
#     4  11  24  43  66  93 130 172 217 277 333 390
#     4  11  24  43  67  95 133 175 222 282 336 392
#     4  12  24  41  65  96 131 172 217 272 335 394
#     4  10  22  42  67  94 129 175 225 273 332 400
#     4  11  23  43  67  97 135 175 222 280 337 395
#
# _framework density 23.556286
#
# number of rings (size 3 to 8) (size 9 to 14) (size 15 to 20)
#    0.000    1.000    0.000    8.250    0.000    4.000 
#    0.000    8.750    0.000    0.000    0.000    0.000 
#    0.000    0.000    0.000    0.000    0.000    0.000 
#
# Total GULP energy -198245.955243 kJ/mol
# GULP energy per Si atom -12390.372203 kJ/mol
# Density = 2.350267 g / cm^3
# Si number density = 23.556286 Si / 1000 Ang^3
#
#
#
# Elastic Constant Matrix: (Units=GPa)
#
#
# Indices 1 2 3 4 5 6 
#
# 1 160.0124 44.7754 45.6462 0.0000 14.6148 0.0000
# 2 44.7754 76.9637 36.5550 0.0000 4.1856 0.0000
# 3 45.6462 36.5550 107.8728 0.0000 -7.3152 0.0000
# 4 0.0000 0.0000 0.0000 49.1632 0.0000 9.6783
# 5 14.6148 4.1856 -7.3152 0.0000 35.5666 0.0000
# 6 0.0000 0.0000 0.0000 9.6783 0.0000 35.0405
#
#
#
# Elastic Compliance Matrix: (Units=1/GPa)
#
#
# Indices 1 2 3 4 5 6 
#
# 1 0.008256 -0.003383 -0.002586 0.000000 -0.003526 0.000000
# 2 -0.003383 0.017182 -0.004496 0.000000 -0.001557 0.000000
# 3 -0.002586 -0.004496 0.012166 0.000000 0.004094 0.000000
# 4 0.000000 0.000000 0.000000 0.021510 0.000000 -0.005941
# 5 -0.003526 -0.001557 0.004094 0.000000 0.030591 0.000000
# 6 0.000000 0.000000 0.000000 -0.005941 0.000000 0.030179
#
#
# Mechanical properties :
#
#
# Convention : Reuss Voigt Hill
#
# Bulk Modulus (GPa) = 59.98015 66.53359 63.25687
# Shear Modulus (GPa) = 34.15954 38.47888 36.31921
#
# Velocity S-wave (km/s) = 3.81218 4.04603 3.93084
# Velocity P-wave (km/s) = 6.70035 7.08046 6.89303
#
# Compressibility (1/GPa) = 0.01667218
#
# Stress axis : x y z
#
# Youngs Moduli (GPa) = 121.12396 58.20200 82.19707
#
# Poissons Ratio (x) = 0.19690 0.21258
# Poissons Ratio (y) = 0.40976 0.36959
# Poissons Ratio (z) = 0.31326 0.26170
#
# Static dielectric constant tensor:
#      x y z
#    x 4.522300 0.000000 0.129950 
#    y 0.000000 4.295470 0.000000 
#    z 0.129950 0.000000 4.139320 
# 
# 
# High freq. dielectric constant tensor:
#      x y z
#    x 1.945960 0.000000 0.007210 
#    y 0.000000 1.929910 0.000000 
#    z 0.007210 0.000000 1.920820 
# 
# From -- ./inp_files/22693.got.cif
#   From: 2010.06.25/outbox.cif.g09.slc.cpg/sg9_12_cif.got.tgz:22693.got - 2010.06.27 21:40:51.
