data_PCOD8055492
_publ_section_title
;
Structure prediction by ZEFSAII (Michael W. Deem and Ramdas Pophale) SiO2 
 PCOD8055492
Probable space group: C C
;
_chemical_formula_sum "Si O2"
_cell_formula_units_Z 28
_cell_length_a 22.312610
_cell_length_b 5.053136
_cell_length_c 18.135820
_cell_angle_alpha 90.000000
_cell_angle_beta 142.555884
_cell_angle_gamma 90.000000
_cell_volume 1243.205980
_symmetry_space_group_name_H-M "C C"
_symmetry_group_IT_number 9
_symmetry_cell_setting 'monoclinic'
loop_
_space_group_symop_operation_xyz
x,y,z
x,-y,1/2+z
1/2+x,1/2+y,z
1/2+x,1/2-y,1/2+z
loop_
_atom_site_type_symbol
_atom_site_label
_atom_site_fract_x
_atom_site_fract_y
_atom_site_fract_z
Si Si1 0.962490 0.885274 0.142470
Si Si2 0.655587 0.642837 0.310868
Si Si3 0.742704 0.158788 0.174975
Si Si4 0.763787 0.146337 0.363536
Si Si5 0.945054 0.093031 0.288998
Si Si6 0.632129 0.666582 0.014749
Si Si7 0.070319 0.489904 0.336118
O O1 0.010673 0.596308 0.205792
O O2 0.928818 0.986901 0.190038
O O3 0.874375 0.884963 0.999139
O O4 0.042901 0.069697 0.179229
O O5 0.717959 0.374447 0.369918
O O6 0.704028 0.870791 0.308134
O O7 0.645920 0.757997 0.384960
O O8 0.764176 0.241975 0.279683
O O9 0.842874 0.093455 0.231104
O O10 0.697516 0.408184 0.088878
O O11 0.669065 0.905943 0.103161
O O12 0.995965 0.381329 0.327127
O O13 0.016700 0.913055 0.410638
O O14 0.637894 0.775886 0.935974
#
# Coordination Sequence:
#
# PCOD8055492 Si02
#       7
#     4   4   4   4   4   4   4
#     4  10  25  44  74 105 138 179 238 296 350 406
#     4  11  25  47  70 102 141 182 234 289 346 412
#     4  12  28  45  70 105 143 191 230 280 359 427
#     4  12  28  45  70 105 143 191 230 280 359 427
#     4  10  25  44  74 105 138 179 238 296 350 406
#     4  11  25  47  70 102 141 182 234 289 346 412
#     4  10  22  46  72 106 136 182 232 302 350 390
#
# _framework density 22.522414999999999
#
# number of rings (size 3 to 8) (size 9 to 14) (size 15 to 20)
#    0.000    1.143    2.857    0.857   10.000    2.286 
#    0.000    0.000    0.000    0.000    0.000    0.000 
#    0.000    0.000    0.000    0.000    0.000    0.000 
#
# Total GULP energy -173455.200328 kJ/mol
# GULP energy per Si atom -12389.657166 kJ/mol
# Density = 2.247115 g / cm^3
# Si number density = 22.522415 Si / 1000 Ang^3
#
#
#
# Elastic Constant Matrix: (Units=GPa)
#
#
# Indices 1 2 3 4 5 6 
#
# 1 30.4353 22.1242 62.3181 0.0017 -3.9086 0.0006
# 2 22.1242 151.7738 71.8977 0.0038 6.3753 0.0023
# 3 62.3181 71.8977 171.4193 0.0005 0.2603 0.0005
# 4 0.0017 0.0038 0.0005 29.8755 0.0000 1.4357
# 5 -3.9086 6.3753 0.2603 0.0000 14.1790 -0.0003
# 6 0.0006 0.0023 0.0005 1.4357 -0.0003 30.6546
#
#
#
# Elastic Compliance Matrix: (Units=1/GPa)
#
#
# Indices 1 2 3 4 5 6 
#
# 1 0.151347 0.002858 -0.056283 -0.000008 0.041468 -0.000002
# 2 0.002858 0.008468 -0.004586 -0.000001 -0.002935 -0.000001
# 3 -0.056283 -0.004586 0.028240 0.000003 -0.013971 0.000001
# 4 -0.000008 -0.000001 0.000003 0.033548 -0.000002 -0.001571
# 5 0.041468 -0.002935 -0.013971 -0.000002 0.083534 0.000000
# 6 -0.000002 -0.000001 0.000001 -0.001571 0.000000 0.032695
#
#
# Mechanical properties :
#
#
# Convention : Reuss Voigt Hill
#
# Bulk Modulus (GPa) = 13.88257 74.03428 43.95843
# Shear Modulus (GPa) = 10.46322 28.09436 19.27879
#
# Velocity S-wave (km/s) = 2.15772 3.53568 2.92889
# Velocity P-wave (km/s) = 3.51923 7.04349 5.56757
#
# Compressibility (1/GPa) = 0.07203278
#
# Stress axis : x y z
#
# Youngs Moduli (GPa) = 6.60734 118.09122 35.41123
#
# Poissons Ratio (x) = -0.33753 1.99304
# Poissons Ratio (y) = -0.01889 0.16241
# Poissons Ratio (z) = 0.37188 0.54161
#
# Static dielectric constant tensor:
#      x y z
#    x 3.873310 0.000000 0.039480 
#    y 0.000000 4.528030 -0.000010 
#    z 0.039480 -0.000010 4.065010 
# 
# 
# High freq. dielectric constant tensor:
#      x y z
#    x 1.861150 0.000000 0.008240 
#    y 0.000000 1.913770 0.000000 
#    z 0.008240 0.000000 1.883350 
# 
# From -- ./inp_files/31108.got.cif
#   From: 2010.06.25/outbox.cif.g09.slc.cpg/sg9_16_cif.got.tgz:31108.got - 2010.06.27 21:40:51.
