data_PCOD8055522
_publ_section_title
;
Structure prediction by ZEFSAII (Michael W. Deem and Ramdas Pophale) SiO2 
 PCOD8055522
Probable space group: C C
;
_chemical_formula_sum "Si O2"
_cell_formula_units_Z 32
_cell_length_a 14.843822
_cell_length_b 11.316416
_cell_length_c 8.659726
_cell_angle_alpha 90.000000
_cell_angle_beta 98.035707
_cell_angle_gamma 90.000000
_cell_volume 1440.367933
_symmetry_space_group_name_H-M "C C"
_symmetry_group_IT_number 9
_symmetry_cell_setting 'monoclinic'
loop_
_space_group_symop_operation_xyz
x,y,z
x,-y,1/2+z
1/2+x,1/2+y,z
1/2+x,1/2-y,1/2+z
loop_
_atom_site_type_symbol
_atom_site_label
_atom_site_fract_x
_atom_site_fract_y
_atom_site_fract_z
Si Si1 0.425250 0.471699 0.919970
Si Si2 0.138603 0.057790 0.501472
Si Si3 0.601646 0.029220 0.012000
Si Si4 0.690531 0.772431 0.692600
Si Si5 0.373390 0.664880 0.115983
Si Si6 0.524130 0.158943 0.692834
Si Si7 0.680174 0.335751 0.695472
Si Si8 0.263883 0.649424 0.523607
O O1 0.531673 0.446471 0.942933
O O2 0.387321 0.442421 0.741701
O O3 0.368640 0.388455 0.026568
O O4 0.405969 0.609332 0.959939
O O5 0.148875 0.144606 0.649631
O O6 0.194889 0.105399 0.366768
O O7 0.180496 0.933248 0.560922
O O8 0.561028 0.094155 0.853675
O O9 0.699782 0.966716 0.011825
O O10 0.613631 0.127346 0.149245
O O11 0.528289 0.933329 0.052413
O O12 0.768161 0.800231 0.583358
O O13 0.729893 0.770811 0.872992
O O14 0.423451 0.786691 0.179923
O O15 0.582586 0.274283 0.669861
O O16 0.754867 0.233840 0.672937
#
# Coordination Sequence:
#
# PCOD8055522 Si02
#       8
#     4   4   4   4   4   4   4   4
#     4  11  21  40  64  97 128 163 217 274 311 378
#     4  12  22  41  65  96 131 171 210 265 331 383
#     4  11  20  38  65  89 123 165 211 258 320 377
#     4  11  22  39  64  92 129 171 211 262 321 387
#     4  11  23  40  62  96 131 165 214 270 321 379
#     4  11  22  41  62  94 125 164 213 267 315 382
#     4  11  23  39  66  93 131 169 212 262 326 389
#     4  10  23  38  64  95 128 168 220 266 317 379
#
# _framework density 22.216546999999998
#
# number of rings (size 3 to 8) (size 9 to 14) (size 15 to 20)
#    0.000    1.000    6.250    0.750    0.000    1.000 
#    0.000    5.000    0.000    0.000    0.000    0.000 
#    0.000    0.000    0.000    0.000    0.000    0.000 
#
# Total GULP energy -198338.182324 kJ/mol
# GULP energy per Si atom -12396.136395 kJ/mol
# Density = 2.216598 g / cm^3
# Si number density = 22.216547 Si / 1000 Ang^3
#
#
#
# Elastic Constant Matrix: (Units=GPa)
#
#
# Indices 1 2 3 4 5 6 
#
# 1 24.5130 2.8913 -3.3117 0.0000 -8.4191 0.0000
# 2 2.8913 109.9513 28.6290 0.0000 -2.4239 0.0000
# 3 -3.3117 28.6290 57.5740 0.0000 -13.2570 0.0000
# 4 0.0000 0.0000 0.0000 52.2410 0.0000 -6.9176
# 5 -8.4191 -2.4239 -13.2570 0.0000 21.6465 0.0000
# 6 0.0000 0.0000 0.0000 -6.9176 0.0000 27.9615
#
#
#
# Elastic Compliance Matrix: (Units=1/GPa)
#
#
# Indices 1 2 3 4 5 6 
#
# 1 0.051734 -0.003600 0.010834 0.000000 0.026353 0.000000
# 2 -0.003600 0.010801 -0.006545 0.000000 -0.004199 0.000000
# 3 0.010834 -0.006545 0.025668 0.000000 0.019201 0.000000
# 4 0.000000 0.000000 0.000000 0.019790 0.000000 0.004896
# 5 0.026353 -0.004199 0.019201 0.000000 0.067735 0.000000
# 6 0.000000 0.000000 0.000000 0.004896 0.000000 0.036975
#
#
# Mechanical properties :
#
#
# Convention : Reuss Voigt Hill
#
# Bulk Modulus (GPa) = 11.16310 27.60617 19.38463
# Shear Modulus (GPa) = 20.73084 31.29178 26.01131
#
# Velocity S-wave (km/s) = 3.05803 3.75706 3.42542
# Velocity P-wave (km/s) = 4.18381 5.59228 4.93851
#
# Compressibility (1/GPa) = 0.08958087
#
# Stress axis : x y z
#
# Youngs Moduli (GPa) = 19.32955 92.58214 38.95928
#
# Poissons Ratio (x) = 0.33334 -0.42209
# Poissons Ratio (y) = 0.06960 0.25499
# Poissons Ratio (z) = -0.20942 0.60595
#
# Static dielectric constant tensor:
#      x y z
#    x 3.762090 0.000000 -0.208340 
#    y 0.000000 4.182420 0.000000 
#    z -0.208340 0.000000 3.955980 
# 
# 
# High freq. dielectric constant tensor:
#      x y z
#    x 1.845660 0.000000 -0.007490 
#    y 0.000000 1.886440 0.000000 
#    z -0.007490 0.000000 1.872920 
# 
# From -- ./inp_files/9170.got.cif
#   From: 2010.06.25/outbox.cif.g09.slc.cpg/sg9_5_cif.got.tgz:9170.got - 2010.06.27 21:40:51.
