data_PCOD8055012
_publ_section_title
;
Structure prediction by ZEFSAII (Michael W. Deem and Ramdas Pophale) SiO2 
 PCOD8055012
Probable space group: C C
;
_chemical_formula_sum "Si O2"
_cell_formula_units_Z 28
_cell_length_a 9.265482
_cell_length_b 12.386950
_cell_length_c 14.007031
_cell_angle_alpha 90.000000
_cell_angle_beta 58.002258
_cell_angle_gamma 90.000000
_cell_volume 1363.357241
_symmetry_space_group_name_H-M "C C"
_symmetry_group_IT_number 9
_symmetry_cell_setting 'monoclinic'
loop_
_space_group_symop_operation_xyz
x,y,z
x,-y,1/2+z
1/2+x,1/2+y,z
1/2+x,1/2-y,1/2+z
loop_
_atom_site_type_symbol
_atom_site_label
_atom_site_fract_x
_atom_site_fract_y
_atom_site_fract_z
Si Si1 0.421470 0.331379 0.542860
Si Si2 0.146002 0.159138 0.599120
Si Si3 0.772642 0.793238 0.244702
Si Si4 0.536081 0.803904 0.169028
Si Si5 0.317745 0.899876 0.857210
Si Si6 0.684889 0.599627 0.797436
Si Si7 0.171521 0.502631 0.209521
O O1 0.261686 0.264144 0.563948
O O2 0.548525 0.261228 0.565453
O O3 0.521395 0.365520 0.414056
O O4 0.345674 0.434633 0.625431
O O5 0.226831 0.079996 0.490725
O O6 0.137701 0.096246 0.702367
O O7 0.960602 0.200279 0.632515
O O8 0.642128 0.739005 0.213265
O O9 0.777481 0.722871 0.338926
O O10 0.709702 0.917857 0.283515
O O11 0.335978 0.814687 0.265506
O O12 0.614342 0.926992 0.138227
O O13 0.241378 0.980166 0.806327
O O14 0.521583 0.916116 0.794397
#
# Coordination Sequence:
#
# PCOD8055012 Si02
#       7
#     4   4   4   4   4   4   4
#     4  11  20  41  71  89 136 174 210 277 321 388
#     4  11  23  40  68  97 127 175 223 266 330 389
#     4  10  21  42  63  98 131 165 222 265 320 394
#     4   8  22  40  62  97 131 160 225 261 316 395
#     4  11  22  43  65  94 138 168 218 280 315 390
#     4  10  23  42  63  95 130 174 220 262 336 384
#     4   9  21  42  64  98 131 166 218 263 324 386
#
# _framework density 20.537534999999998
#
# number of rings (size 3 to 8) (size 9 to 14) (size 15 to 20)
#    0.857    1.143    1.429    1.714    2.000    3.429 
#    2.571    2.857    0.000    0.000    0.000    0.000 
#    0.000    0.000    0.000    0.000    0.000    0.000 
#
# Total GULP energy -173476.658203 kJ/mol
# GULP energy per Si atom -12391.189872 kJ/mol
# Density = 2.049079 g / cm^3
# Si number density = 20.537535 Si / 1000 Ang^3
#
#
#
# Elastic Constant Matrix: (Units=GPa)
#
#
# Indices 1 2 3 4 5 6 
#
# 1 114.8413 30.7260 46.6351 0.0000 -2.6264 0.0000
# 2 30.7260 82.5246 43.7405 0.0000 9.0572 0.0000
# 3 46.6351 43.7405 136.2776 0.0000 0.8420 0.0000
# 4 0.0000 0.0000 0.0000 24.5145 0.0000 5.5552
# 5 -2.6264 9.0572 0.8420 0.0000 21.9678 0.0000
# 6 0.0000 0.0000 0.0000 5.5552 0.0000 34.6808
#
#
#
# Elastic Compliance Matrix: (Units=1/GPa)
#
#
# Indices 1 2 3 4 5 6 
#
# 1 0.010628 -0.002769 -0.002764 0.000000 0.002518 0.000000
# 2 -0.002769 0.016113 -0.004182 0.000000 -0.006814 0.000000
# 3 -0.002764 -0.004182 0.009620 0.000000 0.001025 0.000000
# 4 0.000000 0.000000 0.000000 0.042329 0.000000 -0.006780
# 5 0.002518 -0.006814 0.001025 0.000000 0.048592 0.000000
# 6 0.000000 0.000000 0.000000 -0.006780 0.000000 0.029920
#
#
# Mechanical properties :
#
#
# Convention : Reuss Voigt Hill
#
# Bulk Modulus (GPa) = 59.06120 63.98297 61.52208
# Shear Modulus (GPa) = 27.43089 30.40206 28.91647
#
# Velocity S-wave (km/s) = 3.65861 3.85166 3.75638
# Velocity P-wave (km/s) = 6.83135 7.14158 6.98819
#
# Compressibility (1/GPa) = 0.01693159
#
# Stress axis : x y z
#
# Youngs Moduli (GPa) = 94.08728 62.06191 103.95170
#
# Poissons Ratio (x) = 0.17182 0.28733
# Poissons Ratio (y) = 0.26049 0.43475
# Poissons Ratio (z) = 0.26006 0.25955
#
# Static dielectric constant tensor:
#      x y z
#    x 3.873170 0.000000 -0.097470 
#    y 0.000000 3.640370 0.000000 
#    z -0.097470 0.000000 3.519950 
# 
# 
# High freq. dielectric constant tensor:
#      x y z
#    x 1.815990 0.000000 -0.012750 
#    y 0.000000 1.795960 0.000000 
#    z -0.012750 0.000000 1.775200 
# 
# From -- ./inp_files/14526.got.cif
#   From: 2010.06.25/outbox.cif.g09.slc.cpg/sg9_8_cif.got.tgz:14526.got - 2010.06.27 21:40:51.
