data_PCOD8055039
_publ_section_title
;
Structure prediction by ZEFSAII (Michael W. Deem and Ramdas Pophale) SiO2 
 PCOD8055039
Probable space group: C C
;
_chemical_formula_sum "Si O2"
_cell_formula_units_Z 28
_cell_length_a 13.549908
_cell_length_b 11.741947
_cell_length_c 9.495656
_cell_angle_alpha 90.000000
_cell_angle_beta 49.893633
_cell_angle_gamma 90.000000
_cell_volume 1155.520362
_symmetry_space_group_name_H-M "C C"
_symmetry_group_IT_number 9
_symmetry_cell_setting 'monoclinic'
loop_
_space_group_symop_operation_xyz
x,y,z
x,-y,1/2+z
1/2+x,1/2+y,z
1/2+x,1/2-y,1/2+z
loop_
_atom_site_type_symbol
_atom_site_label
_atom_site_fract_x
_atom_site_fract_y
_atom_site_fract_z
Si Si1 0.306690 0.814837 0.711100
Si Si2 0.005640 0.458189 0.375981
Si Si3 0.600115 0.489203 0.341782
Si Si4 0.870592 0.863413 0.941939
Si Si5 0.813866 0.336535 0.027341
Si Si6 0.141982 0.420344 0.969569
Si Si7 0.485584 0.714444 0.078856
O O1 0.441058 0.853098 0.517291
O O2 0.283983 0.696279 0.645493
O O3 0.194236 0.908232 0.799534
O O4 0.324095 0.788177 0.859613
O O5 0.910176 0.563246 0.475890
O O6 0.031769 0.442500 0.188030
O O7 0.134063 0.488848 0.349230
O O8 0.474460 0.544266 0.390503
O O9 0.671460 0.392126 0.180740
O O10 0.542283 0.414698 0.522826
O O11 0.938394 0.766209 0.783247
O O12 0.779231 0.930066 0.916252
O O13 0.862646 0.234570 0.085995
O O14 0.107667 0.296360 0.936824
#
# Coordination Sequence:
#
# PCOD8055039 Si02
#       7
#     4   4   4   4   4   4   4
#     4  11  23  44  72 102 139 186 239 295 353 425
#     4  10  21  42  70  99 135 184 235 291 354 421
#     4  11  26  46  72 106 145 189 241 299 357 426
#     4  12  26  43  69 103 143 188 233 294 360 425
#     4  10  23  44  73 101 139 186 240 293 358 423
#     4  11  23  43  69 101 139 184 236 291 359 430
#     4  11  24  46  71 104 140 187 240 293 363 426
#
# _framework density 24.231507000000001
#
# number of rings (size 3 to 8) (size 9 to 14) (size 15 to 20)
#    0.000    1.143    2.857    2.571    2.000    3.429 
#    0.000    0.000    0.000    0.000    0.000    0.000 
#    0.000    0.000    0.000    0.000    0.000    0.000 
#
# Total GULP energy -173454.272933 kJ/mol
# GULP energy per Si atom -12389.590924 kJ/mol
# Density = 2.417635 g / cm^3
# Si number density = 24.231507 Si / 1000 Ang^3
#
#
#
# Elastic Constant Matrix: (Units=GPa)
#
#
# Indices 1 2 3 4 5 6 
#
# 1 125.8114 43.3330 20.0408 0.0000 3.9342 0.0000
# 2 43.3330 84.2407 28.0192 0.0000 1.9194 0.0000
# 3 20.0408 28.0192 84.2541 0.0000 19.7996 0.0000
# 4 0.0000 0.0000 0.0000 34.8265 0.0000 -2.3595
# 5 3.9342 1.9194 19.7996 0.0000 41.7881 0.0000
# 6 0.0000 0.0000 0.0000 -2.3595 0.0000 41.4578
#
#
#
# Elastic Compliance Matrix: (Units=1/GPa)
#
#
# Indices 1 2 3 4 5 6 
#
# 1 0.009705 -0.004775 -0.000627 0.000000 -0.000397 0.000000
# 2 -0.004775 0.015801 -0.004562 0.000000 0.001885 0.000000
# 3 -0.000627 -0.004562 0.015160 0.000000 -0.006914 0.000000
# 4 0.000000 0.000000 0.000000 0.028825 0.000000 0.001640
# 5 -0.000397 0.001885 -0.006914 0.000000 0.027157 0.000000
# 6 0.000000 0.000000 0.000000 0.001640 0.000000 0.024214
#
#
# Mechanical properties :
#
#
# Convention : Reuss Voigt Hill
#
# Bulk Modulus (GPa) = 48.21974 53.01023 50.61498
# Shear Modulus (GPa) = 33.85148 37.14201 35.49675
#
# Velocity S-wave (km/s) = 3.74170 3.91934 3.83155
# Velocity P-wave (km/s) = 6.21369 6.51197 6.36458
#
# Compressibility (1/GPa) = 0.02073840
#
# Stress axis : x y z
#
# Youngs Moduli (GPa) = 103.03678 63.28618 65.96260
#
# Poissons Ratio (x) = 0.30217 0.04138
# Poissons Ratio (y) = 0.49196 0.30093
# Poissons Ratio (z) = 0.06464 0.28872
#
# Static dielectric constant tensor:
#      x y z
#    x 4.330270 0.000000 -0.021990 
#    y 0.000000 4.194440 0.000000 
#    z -0.021990 0.000000 4.444390 
# 
# 
# High freq. dielectric constant tensor:
#      x y z
#    x 1.960310 0.000000 -0.000960 
#    y 0.000000 1.956920 0.000000 
#    z -0.000960 0.000000 1.967640 
# 
# From -- ./inp_files/7642.got.cif
#   From: 2010.06.25/outbox.cif.g09.slc.cpg/sg9_4_cif.got.tgz:7642.got - 2010.06.27 21:40:51.
