data_PCOD8055471
_publ_section_title
;
Structure prediction by ZEFSAII (Michael W. Deem and Ramdas Pophale) SiO2 
 PCOD8055471
Probable space group: C C
;
_chemical_formula_sum "Si O2"
_cell_formula_units_Z 28
_cell_length_a 14.057175
_cell_length_b 11.868482
_cell_length_c 8.503655
_cell_angle_alpha 90.000000
_cell_angle_beta 64.154127
_cell_angle_gamma 90.000000
_cell_volume 1276.811843
_symmetry_space_group_name_H-M "C C"
_symmetry_group_IT_number 9
_symmetry_cell_setting 'monoclinic'
loop_
_space_group_symop_operation_xyz
x,y,z
x,-y,1/2+z
1/2+x,1/2+y,z
1/2+x,1/2-y,1/2+z
loop_
_atom_site_type_symbol
_atom_site_label
_atom_site_fract_x
_atom_site_fract_y
_atom_site_fract_z
Si Si1 0.697490 0.766034 0.382510
Si Si2 0.723615 0.846169 0.809095
Si Si3 0.766904 0.550471 0.203197
Si Si4 0.611931 0.349484 0.244787
Si Si5 0.416596 0.032691 0.366149
Si Si6 0.141111 0.448567 0.183617
Si Si7 0.391597 0.713386 0.960237
O O1 0.720218 0.676115 0.227202
O O2 0.622868 0.707186 0.565403
O O3 0.639499 0.869662 0.339390
O O4 0.805273 0.808197 0.386679
O O5 0.650678 0.735812 0.852457
O O6 0.842122 0.806979 0.670998
O O7 0.691908 0.934001 0.696369
O O8 0.712023 0.897017 0.991898
O O9 0.678077 0.463724 0.209077
O O10 0.805838 0.527908 0.351972
O O11 0.880898 0.544959 0.036576
O O12 0.488053 0.373702 0.364422
O O13 0.438139 0.159764 0.411649
O O14 0.520932 0.975735 0.214591
#
# Coordination Sequence:
#
# PCOD8055471 Si02
#       7
#     4   4   4   4   4   4   4
#     4  10  25  42  67  98 130 176 228 285 329 415
#     4  11  23  42  67 101 135 176 229 284 335 404
#     4  11  22  43  66  98 134 169 222 282 337 405
#     4  11  22  45  67  93 140 175 225 282 348 389
#     4  11  23  39  73  98 125 177 227 275 330 403
#     4  12  25  42  70 102 138 175 232 282 342 400
#     4  10  22  45  70  92 134 184 219 278 347 394
#
# _framework density 21.92962
#
# number of rings (size 3 to 8) (size 9 to 14) (size 15 to 20)
#    0.000    1.143    5.714    2.571    6.000    0.000 
#    5.143    0.000    3.143    0.000    0.000    0.000 
#    0.000    0.000    0.000    0.000    0.000    0.000 
#
# Total GULP energy -173500.896149 kJ/mol
# GULP energy per Si atom -12392.921154 kJ/mol
# Density = 2.187971 g / cm^3
# Si number density = 21.929620 Si / 1000 Ang^3
#
#
#
# Elastic Constant Matrix: (Units=GPa)
#
#
# Indices 1 2 3 4 5 6 
#
# 1 81.2655 20.2401 41.9908 0.0000 -32.5333 0.0000
# 2 20.2401 68.8460 21.8244 0.0000 -15.9575 0.0000
# 3 41.9908 21.8244 98.6049 0.0000 -28.0389 0.0000
# 4 0.0000 0.0000 0.0000 42.6076 0.0000 2.1008
# 5 -32.5333 -15.9575 -28.0389 0.0000 29.3796 0.0000
# 6 0.0000 0.0000 0.0000 2.1008 0.0000 26.9820
#
#
#
# Elastic Compliance Matrix: (Units=1/GPa)
#
#
# Indices 1 2 3 4 5 6 
#
# 1 0.022971 -0.000604 -0.003443 0.000000 0.021823 0.000000
# 2 -0.000604 0.016802 -0.001450 0.000000 0.007073 0.000000
# 3 -0.003443 -0.001450 0.014576 0.000000 0.009311 0.000000
# 4 0.000000 0.000000 0.000000 0.023560 0.000000 -0.001834
# 5 0.021823 0.007073 0.009311 0.000000 0.070930 0.000000
# 6 0.000000 0.000000 0.000000 -0.001834 0.000000 0.037205
#
#
# Mechanical properties :
#
#
# Convention : Reuss Voigt Hill
#
# Bulk Modulus (GPa) = 23.06527 46.31413 34.68970
# Shear Modulus (GPa) = 23.64165 30.77124 27.20644
#
# Velocity S-wave (km/s) = 3.28696 3.74997 3.52607
# Velocity P-wave (km/s) = 4.99461 6.31783 5.69478
#
# Compressibility (1/GPa) = 0.04335523
#
# Stress axis : x y z
#
# Youngs Moduli (GPa) = 43.53246 59.51702 68.60456
#
# Poissons Ratio (x) = 0.03592 0.23622
# Poissons Ratio (y) = 0.02627 0.09951
# Poissons Ratio (z) = 0.14989 0.08633
#
# Static dielectric constant tensor:
#      x y z
#    x 3.701470 0.000000 -0.084970 
#    y 0.000000 4.008510 0.000000 
#    z -0.084970 0.000000 3.965430 
# 
# 
# High freq. dielectric constant tensor:
#      x y z
#    x 1.842120 0.000000 -0.009110 
#    y 0.000000 1.859330 0.000000 
#    z -0.009110 0.000000 1.870540 
# 
# From -- ./inp_files/8910.got.cif
#   From: 2010.06.25/outbox.cif.g09.slc.cpg/sg9_5_cif.got.tgz:8910.got - 2010.06.27 21:40:51.
