data_PCOD8055783
_publ_section_title
;
Structure prediction by ZEFSAII (Michael W. Deem and Ramdas Pophale) SiO2 
 PCOD8055783
Probable space group: C C
;
_chemical_formula_sum "Si O2"
_cell_formula_units_Z 28
_cell_length_a 5.122720
_cell_length_b 8.885011
_cell_length_c 28.838274
_cell_angle_alpha 90.000000
_cell_angle_beta 68.827717
_cell_angle_gamma 90.000000
_cell_volume 1223.984884
_symmetry_space_group_name_H-M "C C"
_symmetry_group_IT_number 9
_symmetry_cell_setting 'monoclinic'
loop_
_space_group_symop_operation_xyz
x,y,z
x,-y,1/2+z
1/2+x,1/2+y,z
1/2+x,1/2-y,1/2+z
loop_
_atom_site_type_symbol
_atom_site_label
_atom_site_fract_x
_atom_site_fract_y
_atom_site_fract_z
Si Si1 0.415460 0.364448 0.723720
Si Si2 0.207930 0.857677 0.033417
Si Si3 0.795664 0.077959 0.487800
Si Si4 0.644563 0.841923 0.839250
Si Si5 0.988803 0.467210 0.186740
Si Si6 0.571291 0.509911 0.876897
Si Si7 0.269188 0.579074 0.078378
O O1 0.701342 0.449706 0.717873
O O2 0.265127 0.318255 0.780511
O O3 0.226688 0.478166 0.706551
O O4 0.464290 0.212846 0.691301
O O5 0.234557 0.759245 0.079207
O O6 0.508394 0.849145 0.987569
O O7 0.089922 0.017424 0.061633
O O8 0.992154 0.809185 0.005751
O O9 0.972418 0.001663 0.436084
O O10 0.666547 0.956793 0.532353
O O11 0.532845 0.681195 0.863529
O O12 0.887898 0.900299 0.857034
O O13 0.394378 0.962026 0.853402
O O14 0.069757 0.505720 0.129105
#
# Coordination Sequence:
#
# PCOD8055783 Si02
#       7
#     4   4   4   4   4   4   4
#     4  12  26  47  71 100 137 178 234 292 343 406
#     4  10  24  39  66  90 144 169 223 267 332 387
#     4  10  26  41  68  98 139 175 225 272 335 408
#     4  12  26  48  69 102 135 180 232 293 343 406
#     4  12  27  44  76 101 139 182 232 277 356 405
#     4  12  27  44  76 101 139 182 231 279 354 408
#     4  10  26  41  68  98 139 176 223 274 333 410
#
# _framework density 22.876097000000001
#
# number of rings (size 3 to 8) (size 9 to 14) (size 15 to 20)
#    0.857    0.000    0.000    6.000   10.000    0.000 
#    0.000    0.000    0.000    0.000    0.000    0.000 
#    0.000    0.000    0.000    0.000    0.000    0.000 
#
# Total GULP energy -173480.825304 kJ/mol
# GULP energy per Si atom -12391.487522 kJ/mol
# Density = 2.282403 g / cm^3
# Si number density = 22.876097 Si / 1000 Ang^3
#
#
#
# Elastic Constant Matrix: (Units=GPa)
#
#
# Indices 1 2 3 4 5 6 
#
# 1 127.3737 27.0848 25.8890 0.0000 -15.0322 0.0000
# 2 27.0848 79.4446 -2.2929 -0.0001 -1.5314 0.0000
# 3 25.8890 -2.2929 110.8234 -0.0002 2.2299 0.0000
# 4 0.0000 -0.0001 -0.0002 31.8001 0.0001 4.9308
# 5 -15.0322 -1.5314 2.2299 0.0001 28.9031 0.0000
# 6 0.0000 0.0000 0.0000 4.9308 0.0000 32.8771
#
#
#
# Elastic Compliance Matrix: (Units=1/GPa)
#
#
# Indices 1 2 3 4 5 6 
#
# 1 0.009627 -0.003255 -0.002417 0.000000 0.005021 0.000000
# 2 -0.003255 0.013708 0.001065 0.000000 -0.001049 0.000000
# 3 -0.002417 0.001065 0.009649 0.000000 -0.001945 0.000000
# 4 0.000000 0.000000 0.000000 0.032195 0.000000 -0.004829
# 5 0.005021 -0.001049 -0.001945 0.000000 0.037304 0.000000
# 6 0.000000 0.000000 0.000000 -0.004829 0.000000 0.031140
#
#
# Mechanical properties :
#
#
# Convention : Reuss Voigt Hill
#
# Bulk Modulus (GPa) = 42.07098 46.55594 44.31346
# Shear Modulus (GPa) = 33.16505 36.51346 34.83926
#
# Velocity S-wave (km/s) = 3.81171 3.99951 3.90674
# Velocity P-wave (km/s) = 6.14841 6.45938 6.30581
#
# Compressibility (1/GPa) = 0.02376935
#
# Stress axis : x y z
#
# Youngs Moduli (GPa) = 103.87525 72.95198 103.63518
#
# Poissons Ratio (x) = 0.23746 0.25051
# Poissons Ratio (y) = 0.33812 -0.11038
# Poissons Ratio (z) = 0.25110 -0.07770
#
# Static dielectric constant tensor:
#      x y z
#    x 4.228490 0.000000 -0.037470 
#    y 0.000000 4.140640 0.000000 
#    z -0.037470 0.000000 4.148110 
# 
# 
# High freq. dielectric constant tensor:
#      x y z
#    x 1.916930 0.000000 -0.004870 
#    y 0.000000 1.898060 0.000000 
#    z -0.004870 0.000000 1.910110 
# 
# From -- ./inp_files/36241.got.cif
#   From: 2010.06.25/outbox.cif.g09.slc.cpg/sg9_19_cif.got.tgz:36241.got - 2010.06.27 21:40:51.
