data_PCOD8055639
_publ_section_title
;
Structure prediction by ZEFSAII (Michael W. Deem and Ramdas Pophale) SiO2 
 PCOD8055639
Probable space group: C C
;
_chemical_formula_sum "Si O2"
_cell_formula_units_Z 28
_cell_length_a 11.225131
_cell_length_b 14.056323
_cell_length_c 8.545394
_cell_angle_alpha 90.000000
_cell_angle_beta 57.742303
_cell_angle_gamma 90.000000
_cell_volume 1140.221009
_symmetry_space_group_name_H-M "C C"
_symmetry_group_IT_number 9
_symmetry_cell_setting 'monoclinic'
loop_
_space_group_symop_operation_xyz
x,y,z
x,-y,1/2+z
1/2+x,1/2+y,z
1/2+x,1/2-y,1/2+z
loop_
_atom_site_type_symbol
_atom_site_label
_atom_site_fract_x
_atom_site_fract_y
_atom_site_fract_z
Si Si1 0.216650 0.960077 0.663410
Si Si2 0.373850 0.110144 0.337197
Si Si3 0.170537 0.637455 0.663925
Si Si4 0.642802 0.380356 0.427233
Si Si5 0.877961 0.802690 0.508380
Si Si6 0.883323 0.253383 0.337489
Si Si7 0.668809 0.058800 0.011614
O O1 0.307827 0.888854 0.708186
O O2 0.098805 0.905439 0.639300
O O3 0.321240 0.022398 0.479636
O O4 0.126870 0.024102 0.841109
O O5 0.328507 0.207398 0.455820
O O6 0.541116 0.107010 0.196537
O O7 0.314557 0.698800 0.535052
O O8 0.160551 0.555278 0.538475
O O9 0.045701 0.716181 0.741970
O O10 0.165707 0.583625 0.831214
O O11 0.549983 0.304433 0.396308
O O12 0.804381 0.351552 0.346411
O O13 0.844129 0.811035 0.715648
O O14 0.813314 0.896264 0.475457
#
# Coordination Sequence:
#
# PCOD8055639 Si02
#       7
#     4   4   4   4   4   4   4
#     4  10  23  43  75  99 144 190 256 301 384 460
#     4  11  23  44  74 110 141 200 256 318 377 466
#     4  12  29  51  83 112 159 201 266 316 398 460
#     4  11  23  44  69 108 143 197 242 318 380 453
#     4  12  27  43  72 109 156 195 255 318 384 452
#     4  12  25  49  78 112 152 203 251 323 386 465
#     4  12  28  48  77 110 153 206 258 320 385 472
#
# _framework density 24.556643000000001
#
# number of rings (size 3 to 8) (size 9 to 14) (size 15 to 20)
#    0.000    0.571    2.857    5.143    6.000    2.286 
#    0.000    1.429    0.000    0.000    0.000    0.000 
#    0.000    0.000    0.000    0.000    0.000    0.000 
#
# Total GULP energy -173434.002829 kJ/mol
# GULP energy per Si atom -12388.143059 kJ/mol
# Density = 2.450075 g / cm^3
# Si number density = 24.556643 Si / 1000 Ang^3
#
#
#
# Elastic Constant Matrix: (Units=GPa)
#
#
# Indices 1 2 3 4 5 6 
#
# 1 111.2606 50.3505 56.5518 0.0000 24.8472 0.0000
# 2 50.3505 100.5990 41.8608 0.0000 1.1747 0.0000
# 3 56.5518 41.8608 107.2924 0.0000 16.0866 0.0000
# 4 0.0000 0.0000 0.0000 42.4920 0.0000 7.2321
# 5 24.8472 1.1747 16.0866 0.0000 38.7587 0.0000
# 6 0.0000 0.0000 0.0000 7.2321 0.0000 39.4250
#
#
#
# Elastic Compliance Matrix: (Units=1/GPa)
#
#
# Indices 1 2 3 4 5 6 
#
# 1 0.015902 -0.005821 -0.004914 0.000000 -0.007978 0.000000
# 2 -0.005821 0.014100 -0.003123 0.000000 0.004600 0.000000
# 3 -0.004914 -0.003123 0.013481 0.000000 -0.002350 0.000000
# 4 0.000000 0.000000 0.000000 0.024292 0.000000 -0.004456
# 5 -0.007978 0.004600 -0.002350 0.000000 0.031751 0.000000
# 6 0.000000 0.000000 0.000000 -0.004456 0.000000 0.026182
#
#
# Mechanical properties :
#
#
# Convention : Reuss Voigt Hill
#
# Bulk Modulus (GPa) = 63.42421 68.51981 65.97201
# Shear Modulus (GPa) = 31.51014 35.49440 33.50227
#
# Velocity S-wave (km/s) = 3.58601 3.80598 3.69763
# Velocity P-wave (km/s) = 6.55971 6.87585 6.71964
#
# Compressibility (1/GPa) = 0.01576685
#
# Stress axis : x y z
#
# Youngs Moduli (GPa) = 62.88670 70.92446 74.17713
#
# Poissons Ratio (x) = 0.41284 0.36452
# Poissons Ratio (y) = 0.36605 0.23163
# Poissons Ratio (z) = 0.30904 0.22148
#
# Static dielectric constant tensor:
#      x y z
#    x 4.450050 0.000000 0.111160 
#    y 0.000000 4.546970 0.000000 
#    z 0.111160 0.000000 4.866780 
# 
# 
# High freq. dielectric constant tensor:
#      x y z
#    x 1.970820 0.000000 0.015810 
#    y 0.000000 1.984270 0.000000 
#    z 0.015810 0.000000 1.982840 
# 
# From -- ./inp_files/7344.got.cif
#   From: 2010.06.25/outbox.cif.g09.slc.cpg/sg9_4_cif.got.tgz:7344.got - 2010.06.27 21:40:51.
