data_PCOD8055480
_publ_section_title
;
Structure prediction by ZEFSAII (Michael W. Deem and Ramdas Pophale) SiO2 
 PCOD8055480
Probable space group: C C
;
_chemical_formula_sum "Si O2"
_cell_formula_units_Z 24
_cell_length_a 5.391239
_cell_length_b 15.913935
_cell_length_c 9.703759
_cell_angle_alpha 90.000000
_cell_angle_beta 78.811544
_cell_angle_gamma 90.000000
_cell_volume 816.718959
_symmetry_space_group_name_H-M "C C"
_symmetry_group_IT_number 9
_symmetry_cell_setting 'monoclinic'
loop_
_space_group_symop_operation_xyz
x,y,z
x,-y,1/2+z
1/2+x,1/2+y,z
1/2+x,1/2-y,1/2+z
loop_
_atom_site_type_symbol
_atom_site_label
_atom_site_fract_x
_atom_site_fract_y
_atom_site_fract_z
Si Si1 0.992380 0.578266 0.080560
Si Si2 0.139099 0.719790 0.817416
Si Si3 0.830409 0.565695 0.778331
Si Si4 0.069514 0.834837 0.079586
Si Si5 0.460627 0.643438 0.152871
Si Si6 0.363973 0.527406 0.405219
O O1 0.945751 0.525694 0.226503
O O2 0.744816 0.631977 0.063106
O O3 0.229709 0.643606 0.069123
O O4 0.079148 0.509522 0.954874
O O5 0.403037 0.715710 0.708787
O O6 0.020654 0.625909 0.850708
O O7 0.941186 0.771470 0.743248
O O8 0.188449 0.771519 0.953467
O O9 0.785820 0.616576 0.640852
O O10 0.574880 0.547865 0.895850
O O11 0.897974 0.904201 0.021669
O O12 0.400136 0.561603 0.249530
#
# Coordination Sequence:
#
# PCOD8055480 Si02
#       6
#     4   4   4   4   4   4
#     4  11  23  46  74 109 150 205 269 333 391 474
#     4  11  27  49  76 116 168 214 269 339 419 501
#     4  11  26  47  79 115 159 219 275 337 412 489
#     4  11  26  52  74 120 164 217 269 342 413 497
#     4  10  26  43  70 108 152 203 260 330 404 473
#     4  10  22  45  75 108 153 206 276 331 389 480
#
# _framework density 29.385871000000002
#
# number of rings (size 3 to 8) (size 9 to 14) (size 15 to 20)
#    0.000    1.333    1.667    2.000    4.667    9.333 
#    0.000    0.000    0.000    0.000    0.000    0.000 
#    0.000    0.000    0.000    0.000    0.000    0.000 
#
# Total GULP energy -148766.849719 kJ/mol
# GULP energy per Si atom -12397.237477 kJ/mol
# Density = 2.931899 g / cm^3
# Si number density = 29.385871 Si / 1000 Ang^3
#
#
#
# Elastic Constant Matrix: (Units=GPa)
#
#
# Indices 1 2 3 4 5 6 
#
# 1 138.3261 44.6083 32.3504 0.0000 -17.7256 0.0000
# 2 44.6083 124.0325 38.3946 0.0000 0.8228 0.0000
# 3 32.3504 38.3946 127.5340 0.0000 -21.5446 0.0000
# 4 0.0000 0.0000 0.0000 63.4304 0.0000 5.3495
# 5 -17.7256 0.8228 -21.5446 0.0000 51.4012 0.0000
# 6 0.0000 0.0000 0.0000 5.3495 0.0000 54.2329
#
#
#
# Elastic Compliance Matrix: (Units=1/GPa)
#
#
# Indices 1 2 3 4 5 6 
#
# 1 0.008707 -0.002873 -0.000892 0.000000 0.002675 0.000000
# 2 -0.002873 0.009928 -0.002641 0.000000 -0.002257 0.000000
# 3 -0.000892 -0.002641 0.009490 0.000000 0.003712 0.000000
# 4 0.000000 0.000000 0.000000 0.015898 0.000000 -0.001568
# 5 0.002675 -0.002257 0.003712 0.000000 0.021969 0.000000
# 6 0.000000 0.000000 0.000000 -0.001568 0.000000 0.018594
#
#
# Mechanical properties :
#
#
# Convention : Reuss Voigt Hill
#
# Bulk Modulus (GPa) = 65.30708 68.95546 67.13127
# Shear Modulus (GPa) = 48.77919 52.11552 50.44736
#
# Velocity S-wave (km/s) = 4.07867 4.21585 4.14783
# Velocity P-wave (km/s) = 6.66731 6.87127 6.77006
#
# Compressibility (1/GPa) = 0.01531228
#
# Stress axis : x y z
#
# Youngs Moduli (GPa) = 114.84735 100.72126 105.37867
#
# Poissons Ratio (x) = 0.28940 0.09398
# Poissons Ratio (y) = 0.32998 0.27835
# Poissons Ratio (z) = 0.10242 0.26605
#
# Static dielectric constant tensor:
#      x y z
#    x 5.365030 0.000000 0.054610 
#    y 0.000000 5.701960 0.000000 
#    z 0.054610 0.000000 5.503380 
# 
# 
# High freq. dielectric constant tensor:
#      x y z
#    x 2.189760 0.000000 0.009890 
#    y 0.000000 2.216230 0.000000 
#    z 0.009890 0.000000 2.223490 
# 
# From -- ./inp_files/13029.got.cif
#   From: 2010.06.25/outbox.cif.g09.slc.cpg/sg9_7_cif.got.tgz:13029.got - 2010.06.27 21:40:51.
