data_PCOD8055581
_publ_section_title
;
Structure prediction by ZEFSAII (Michael W. Deem and Ramdas Pophale) SiO2 
 PCOD8055581
Probable space group: C C
;
_chemical_formula_sum "Si O2"
_cell_formula_units_Z 24
_cell_length_a 5.159182
_cell_length_b 22.537016
_cell_length_c 9.813756
_cell_angle_alpha 90.000000
_cell_angle_beta 59.979625
_cell_angle_gamma 90.000000
_cell_volume 987.993180
_symmetry_space_group_name_H-M "C C"
_symmetry_group_IT_number 9
_symmetry_cell_setting 'monoclinic'
loop_
_space_group_symop_operation_xyz
x,y,z
x,-y,1/2+z
1/2+x,1/2+y,z
1/2+x,1/2-y,1/2+z
loop_
_atom_site_type_symbol
_atom_site_label
_atom_site_fract_x
_atom_site_fract_y
_atom_site_fract_z
Si Si1 0.203160 0.648202 0.492900
Si Si2 0.659976 0.228483 0.264303
Si Si3 0.372706 0.235436 0.057200
Si Si4 0.282335 0.523158 0.348636
Si Si5 0.297730 0.157263 0.845415
Si Si6 0.134094 0.034308 0.987396
O O1 0.041524 0.681817 0.408656
O O2 0.439346 0.695352 0.498867
O O3 0.339913 0.588160 0.397514
O O4 0.980667 0.628735 0.672392
O O5 0.514611 0.213362 0.159104
O O6 0.564152 0.294678 0.341621
O O7 0.016724 0.225567 0.156252
O O8 0.501602 0.195396 0.898767
O O9 0.388924 0.519828 0.165520
O O10 0.501720 0.481873 0.376118
O O11 0.941249 0.500156 0.441756
O O12 0.161591 0.105239 0.972661
#
# Coordination Sequence:
#
# PCOD8055581 Si02
#       6
#     4   4   4   4   4   4
#     4  10  23  42  68  99 135 175 224 278 335 398
#     4  10  23  42  66  97 134 177 221 271 332 399
#     4  10  23  42  66  97 134 177 221 271 332 399
#     4  12  27  48  72 100 136 180 230 282 340 405
#     4  10  23  42  68  99 135 175 224 278 335 398
#     4  12  27  48  72 100 136 180 230 282 340 405
#
# _framework density 24.291665999999999
#
# number of rings (size 3 to 8) (size 9 to 14) (size 15 to 20)
#    0.000    1.333    0.000    4.000    0.000   25.333 
#    0.000    0.000    0.000    0.000    0.000    0.000 
#    0.000    0.000    0.000    0.000    0.000    0.000 
#
# Total GULP energy -148688.826334 kJ/mol
# GULP energy per Si atom -12390.735528 kJ/mol
# Density = 2.423638 g / cm^3
# Si number density = 24.291666 Si / 1000 Ang^3
#
#
#
# Elastic Constant Matrix: (Units=GPa)
#
#
# Indices 1 2 3 4 5 6 
#
# 1 108.0214 4.5664 42.1220 0.0000 16.9929 0.0000
# 2 4.5664 105.0247 26.3786 0.0000 -2.2173 0.0000
# 3 42.1220 26.3786 137.9177 0.0000 20.1979 0.0000
# 4 0.0000 0.0000 0.0000 37.2008 0.0000 7.3428
# 5 16.9929 -2.2173 20.1979 0.0000 49.6536 0.0000
# 6 0.0000 0.0000 0.0000 7.3428 0.0000 -4.5102
#
#
#
# Elastic Compliance Matrix: (Units=1/GPa)
#
#
# Indices 1 2 3 4 5 6 
#
# 1 0.010799 0.000227 -0.002979 0.000000 -0.002474 0.000000
# 2 0.000227 0.010087 -0.002183 0.000000 0.001261 0.000000
# 3 -0.002979 -0.002183 0.008978 0.000000 -0.002730 0.000000
# 4 0.000000 0.000000 0.000000 0.020344 0.000000 0.033121
# 5 -0.002474 0.001261 -0.002730 0.000000 0.022153 0.000000
# 6 0.000000 0.000000 0.000000 0.033121 0.000000 -0.167799
#
#
# Mechanical properties :
#
#
# Convention : Reuss Voigt Hill
#
# Bulk Modulus (GPa) = 50.02022 55.23307 52.62664
# Shear Modulus (GPa) = -63.36786 34.99531 -14.18628
#
# Velocity S-wave (km/s) = -5.11301 3.79968 -2.41923
# Velocity P-wave (km/s) = 3.77107 6.48359 3.72934
#
# Compressibility (1/GPa) = 0.01999191
#
# Stress axis : x y z
#
# Youngs Moduli (GPa) = 92.60402 99.14094 111.38466
#
# Poissons Ratio (x) = -0.02246 0.33183
# Poissons Ratio (y) = -0.02098 0.24316
# Poissons Ratio (z) = 0.27588 0.21643
#
# Static dielectric constant tensor:
#      x y z
#    x 4.108810 0.000000 0.141380 
#    y 0.000000 4.502420 0.000000 
#    z 0.141380 0.000000 4.873910 
# 
# 
# High freq. dielectric constant tensor:
#      x y z
#    x 1.940610 0.000000 0.014280 
#    y 0.000000 1.962970 0.000000 
#    z 0.014280 0.000000 2.002570 
# 
# From -- ./inp_files/4067.got.cif
#   From: 2010.06.25/outbox.cif.g09.slc.cpg/sg9_3_cif.got.tgz:4067.got - 2010.06.27 21:40:51.
