data_PCOD8055789
_publ_section_title
;
Structure prediction by ZEFSAII (Michael W. Deem and Ramdas Pophale) SiO2 
 PCOD8055789
Probable space group: C C
;
_chemical_formula_sum "Si O2"
_cell_formula_units_Z 28
_cell_length_a 5.251475
_cell_length_b 8.776422
_cell_length_c 27.311144
_cell_angle_alpha 90.000000
_cell_angle_beta 101.447608
_cell_angle_gamma 90.000000
_cell_volume 1233.706933
_symmetry_space_group_name_H-M "C C"
_symmetry_group_IT_number 9
_symmetry_cell_setting 'monoclinic'
loop_
_space_group_symop_operation_xyz
x,y,z
x,-y,1/2+z
1/2+x,1/2+y,z
1/2+x,1/2-y,1/2+z
loop_
_atom_site_type_symbol
_atom_site_label
_atom_site_fract_x
_atom_site_fract_y
_atom_site_fract_z
Si Si1 0.745380 0.786682 0.717590
Si Si2 0.958436 0.924488 0.569326
Si Si3 0.897185 0.127723 0.869391
Si Si4 0.205324 0.048802 0.180765
Si Si5 0.564382 0.711967 0.523423
Si Si6 0.173915 0.075068 0.978465
Si Si7 0.860806 0.792543 0.832970
O O1 0.465142 0.865862 0.706813
O O2 0.741954 0.631511 0.686893
O O3 0.961658 0.899579 0.704141
O O4 0.817906 0.744192 0.775575
O O5 0.891517 0.099969 0.551799
O O6 0.074451 0.844359 0.524936
O O7 0.152530 0.914101 0.622134
O O8 0.705063 0.821174 0.568791
O O9 0.123352 0.232236 0.856217
O O10 0.630912 0.221187 0.861206
O O11 0.966503 0.080787 0.927262
O O12 0.868258 0.975379 0.836288
O O13 0.738739 0.601436 0.494719
O O14 0.424426 0.820489 0.477641
#
# Coordination Sequence:
#
# PCOD8055789 Si02
#       7
#     4   4   4   4   4   4   4
#     4  12  26  48  71 103 137 179 233 290 340 404
#     4  10  26  40  66  95 137 172 224 271 335 406
#     4  12  26  43  74 100 137 181 228 278 353 404
#     4  12  26  43  74 100 137 181 228 278 353 404
#     4  10  24  40  64  90 138 172 224 266 334 384
#     4  10  26  40  66  95 137 172 224 271 335 406
#     4  12  26  48  71 103 137 179 233 290 340 404
#
# _framework density 22.695827000000001
#
# number of rings (size 3 to 8) (size 9 to 14) (size 15 to 20)
#    0.857    0.000    0.000    6.000   10.000    0.000 
#    0.000    0.000    0.000    0.000    0.000    0.000 
#    0.000    0.000    0.000    0.000    0.000    0.000 
#
# Total GULP energy -173483.411386 kJ/mol
# GULP energy per Si atom -12391.672242 kJ/mol
# Density = 2.264417 g / cm^3
# Si number density = 22.695827 Si / 1000 Ang^3
#
#
#
# Elastic Constant Matrix: (Units=GPa)
#
#
# Indices 1 2 3 4 5 6 
#
# 1 79.4530 40.4160 29.8476 0.0000 16.8421 0.0000
# 2 40.4160 138.7735 8.4911 0.0000 22.3672 0.0000
# 3 29.8476 8.4911 110.7478 0.0000 3.9644 0.0000
# 4 0.0000 0.0000 0.0000 30.5701 0.0000 9.4054
# 5 16.8421 22.3672 3.9644 0.0000 37.4008 0.0000
# 6 0.0000 0.0000 0.0000 9.4054 0.0000 35.4728
#
#
#
# Elastic Compliance Matrix: (Units=1/GPa)
#
#
# Indices 1 2 3 4 5 6 
#
# 1 0.017210 -0.003962 -0.004158 0.000000 -0.004940 0.000000
# 2 -0.003962 0.008908 0.000513 0.000000 -0.003598 0.000000
# 3 -0.004158 0.000513 0.010093 0.000000 0.000495 0.000000
# 4 0.000000 0.000000 0.000000 0.035617 0.000000 -0.009444
# 5 -0.004940 -0.003598 0.000495 0.000000 0.031061 0.000000
# 6 0.000000 0.000000 0.000000 -0.009444 0.000000 0.030695
#
#
# Mechanical properties :
#
#
# Convention : Reuss Voigt Hill
#
# Bulk Modulus (GPa) = 47.61967 54.05375 50.83671
# Shear Modulus (GPa) = 32.09316 37.37003 34.73159
#
# Velocity S-wave (km/s) = 3.76447 4.06218 3.91616
# Velocity P-wave (km/s) = 6.31840 6.77275 6.54952
#
# Compressibility (1/GPa) = 0.02099972
#
# Stress axis : x y z
#
# Youngs Moduli (GPa) = 58.10447 112.25543 99.07870
#
# Poissons Ratio (x) = 0.44472 0.41195
# Poissons Ratio (y) = 0.23019 -0.05088
# Poissons Ratio (z) = 0.24159 -0.05764
#
# Static dielectric constant tensor:
#      x y z
#    x 4.098750 0.000000 0.083000 
#    y 0.000000 4.173570 0.000000 
#    z 0.083000 0.000000 4.122290 
# 
# 
# High freq. dielectric constant tensor:
#      x y z
#    x 1.880740 0.000000 0.008390 
#    y 0.000000 1.915730 0.000000 
#    z 0.008390 0.000000 1.905010 
# 
# From -- ./inp_files/36240.got.cif
#   From: 2010.06.25/outbox.cif.g09.slc.cpg/sg9_19_cif.got.tgz:36240.got - 2010.06.27 21:40:51.
