data_PCOD8055193
_publ_section_title
;
Structure prediction by ZEFSAII (Michael W. Deem and Ramdas Pophale) SiO2 
 PCOD8055193
Probable space group: C C
;
_chemical_formula_sum "Si O2"
_cell_formula_units_Z 28
_cell_length_a 14.514838
_cell_length_b 11.971940
_cell_length_c 8.440556
_cell_angle_alpha 90.000000
_cell_angle_beta 76.287884
_cell_angle_gamma 90.000000
_cell_volume 1424.918894
_symmetry_space_group_name_H-M "C C"
_symmetry_group_IT_number 9
_symmetry_cell_setting 'monoclinic'
loop_
_space_group_symop_operation_xyz
x,y,z
x,-y,1/2+z
1/2+x,1/2+y,z
1/2+x,1/2-y,1/2+z
loop_
_atom_site_type_symbol
_atom_site_label
_atom_site_fract_x
_atom_site_fract_y
_atom_site_fract_z
Si Si1 0.284830 0.460184 0.622010
Si Si2 0.377392 0.643785 0.382553
Si Si3 0.155907 0.592092 0.903883
Si Si4 0.279744 0.138633 0.071767
Si Si5 0.002226 0.410714 0.049505
Si Si6 0.079909 0.775980 0.723665
Si Si7 0.373369 0.959811 0.829443
O O1 0.361819 0.538671 0.504321
O O2 0.332102 0.377854 0.728556
O O3 0.207196 0.540116 0.731510
O O4 0.231023 0.384540 0.513437
O O5 0.328307 0.753951 0.472571
O O6 0.489819 0.652390 0.314184
O O7 0.109687 0.707125 0.867414
O O8 0.074316 0.511146 0.996478
O O9 0.166692 0.147279 0.132827
O O10 0.324763 0.125642 0.228303
O O11 0.296358 0.026122 0.965358
O O12 0.932716 0.443589 0.219668
O O13 0.056058 0.299360 0.080016
O O14 0.942769 0.387485 0.913959
#
# Coordination Sequence:
#
# PCOD8055193 Si02
#       7
#     4   4   4   4   4   4   4
#     4  10  22  39  64  87 129 158 200 262 314 352
#     4  11  23  43  63  92 125 164 205 257 307 368
#     4  11  18  36  63  94 114 161 213 262 297 350
#     4  11  23  43  63  92 125 164 205 257 307 368
#     4  11  18  36  63  94 114 161 213 262 297 350
#     4  12  22  36  66  88 124 164 212 246 304 376
#     4  10  22  39  64  87 129 158 200 262 314 352
#
# _framework density 19.65024
#
# number of rings (size 3 to 8) (size 9 to 14) (size 15 to 20)
#    0.000    1.143    5.714    1.714    0.000    2.286 
#    0.000    0.000    0.000    0.000    0.000    0.000 
#    0.000    0.000    0.000    0.000    0.000    0.000 
#
# Total GULP energy -173626.416671 kJ/mol
# GULP energy per Si atom -12401.886905 kJ/mol
# Density = 1.960552 g / cm^3
# Si number density = 19.650240 Si / 1000 Ang^3
#
#
#
# Elastic Constant Matrix: (Units=GPa)
#
#
# Indices 1 2 3 4 5 6 
#
# 1 130.7936 56.1530 62.4672 0.0000 0.8463 0.0000
# 2 56.1530 69.5984 39.8614 0.0000 15.7524 0.0000
# 3 62.4672 39.8614 103.0951 0.0000 17.8431 0.0000
# 4 0.0000 0.0000 0.0000 38.9519 0.0000 0.3409
# 5 0.8463 15.7524 17.8431 0.0000 48.0022 0.0000
# 6 0.0000 0.0000 0.0000 0.3409 0.0000 42.4378
#
#
#
# Elastic Compliance Matrix: (Units=1/GPa)
#
#
# Indices 1 2 3 4 5 6 
#
# 1 0.014549 -0.009423 -0.006052 0.000000 0.005085 0.000000
# 2 -0.009423 0.025172 -0.002803 0.000000 -0.007052 0.000000
# 3 -0.006052 -0.002803 0.015254 0.000000 -0.004644 0.000000
# 4 0.000000 0.000000 0.000000 0.025674 0.000000 -0.000206
# 5 0.005085 -0.007052 -0.004644 0.000000 0.024783 0.000000
# 6 0.000000 0.000000 0.000000 -0.000206 0.000000 0.023566
#
#
# Mechanical properties :
#
#
# Convention : Reuss Voigt Hill
#
# Bulk Modulus (GPa) = 54.28958 68.93892 61.61425
# Shear Modulus (GPa) = 29.12174 35.54544 32.33359
#
# Velocity S-wave (km/s) = 3.85386 4.25774 4.06082
# Velocity P-wave (km/s) = 6.89136 7.70261 7.30825
#
# Compressibility (1/GPa) = 0.01841974
#
# Stress axis : x y z
#
# Youngs Moduli (GPa) = 68.73480 39.72683 65.55548
#
# Poissons Ratio (x) = 0.37434 0.39675
# Poissons Ratio (y) = 0.64767 0.18373
# Poissons Ratio (z) = 0.41599 0.11134
#
# Static dielectric constant tensor:
#      x y z
#    x 3.775120 0.000000 0.056550 
#    y 0.000000 3.269170 0.000000 
#    z 0.056550 0.000000 3.878580 
# 
# 
# High freq. dielectric constant tensor:
#      x y z
#    x 1.775640 0.000000 0.001730 
#    y 0.000000 1.737140 0.000000 
#    z 0.001730 0.000000 1.782920 
# 
# From -- ./inp_files/6983.got.cif
#   From: 2010.06.25/outbox.cif.g09.slc.cpg/sg9_4_cif.got.tgz:6983.got - 2010.06.27 21:40:51.
