data_PCOD8055310
_publ_section_title
;
Structure prediction by ZEFSAII (Michael W. Deem and Ramdas Pophale) SiO2 
 PCOD8055310
Probable space group: C C
;
_chemical_formula_sum "Si O2"
_cell_formula_units_Z 28
_cell_length_a 9.034977
_cell_length_b 14.970314
_cell_length_c 14.848200
_cell_angle_alpha 90.000000
_cell_angle_beta 36.136251
_cell_angle_gamma 90.000000
_cell_volume 1184.318156
_symmetry_space_group_name_H-M "C C"
_symmetry_group_IT_number 9
_symmetry_cell_setting 'monoclinic'
loop_
_space_group_symop_operation_xyz
x,y,z
x,-y,1/2+z
1/2+x,1/2+y,z
1/2+x,1/2-y,1/2+z
loop_
_atom_site_type_symbol
_atom_site_label
_atom_site_fract_x
_atom_site_fract_y
_atom_site_fract_z
Si Si1 0.296600 0.654524 0.650190
Si Si2 0.583914 0.412034 0.850313
Si Si3 0.188491 0.441078 0.374118
Si Si4 0.737554 0.441526 0.157580
Si Si5 0.389447 0.709178 0.299157
Si Si6 0.872757 0.237633 0.110023
Si Si7 0.064204 0.690840 0.096986
O O1 0.396743 0.583709 0.527049
O O2 0.129167 0.603396 0.806592
O O3 0.532137 0.706301 0.580779
O O4 0.133712 0.728111 0.677790
O O5 0.704268 0.508784 0.770854
O O6 0.439656 0.381905 0.829397
O O7 0.796749 0.339807 0.767742
O O8 0.485287 0.465651 0.224858
O O9 0.154220 0.370369 0.471062
O O10 0.991077 0.522474 0.483633
O O11 0.761046 0.337457 0.165639
O O12 0.308831 0.688004 0.235555
O O13 0.170323 0.763177 0.455442
O O14 0.759091 0.182879 0.082741
#
# Coordination Sequence:
#
# PCOD8055310 Si02
#       7
#     4   4   4   4   4   4   4
#     4  11  22  44  71 100 127 191 231 273 338 425
#     4  10  23  45  70  94 140 182 228 265 355 412
#     4  11  24  45  74  98 145 178 235 277 358 407
#     4  11  25  46  66 102 140 185 217 293 340 418
#     4  11  24  41  69 101 134 177 228 292 327 408
#     4  12  24  42  69 104 139 166 237 286 342 383
#     4  10  22  41  73  99 129 183 228 282 326 417
#
# _framework density 23.642294
#
# number of rings (size 3 to 8) (size 9 to 14) (size 15 to 20)
#    0.000    1.143    2.857    3.429    6.000    0.000 
#    2.571    2.857    0.000    0.000    0.000    0.000 
#    0.000    0.000    0.000    0.000    0.000    0.000 
#
# Total GULP energy -173585.630974 kJ/mol
# GULP energy per Si atom -12398.973641 kJ/mol
# Density = 2.358848 g / cm^3
# Si number density = 23.642294 Si / 1000 Ang^3
#
#
#
# Elastic Constant Matrix: (Units=GPa)
#
#
# Indices 1 2 3 4 5 6 
#
# 1 104.8215 19.8148 47.9115 -0.0338 8.1648 0.0114
# 2 19.8148 41.8701 16.9509 0.0240 14.7318 -0.0112
# 3 47.9115 16.9509 114.8606 -0.0034 13.3909 -0.0238
# 4 -0.0338 0.0240 -0.0034 20.7978 -0.0101 1.8138
# 5 8.1648 14.7318 13.3909 -0.0101 53.5760 0.0070
# 6 0.0114 -0.0112 -0.0238 1.8138 0.0070 17.9376
#
#
#
# Elastic Compliance Matrix: (Units=1/GPa)
#
#
# Indices 1 2 3 4 5 6 
#
# 1 0.012398 -0.004143 -0.004607 0.000026 0.000401 -0.000019
# 2 -0.004143 0.028978 -0.001744 -0.000046 -0.006901 0.000026
# 3 -0.004607 -0.001744 0.011070 -0.000006 -0.001585 0.000018
# 4 0.000026 -0.000046 -0.000006 0.048510 0.000020 -0.004905
# 5 0.000401 -0.006901 -0.001585 0.000020 0.020898 -0.000017
# 6 -0.000019 0.000026 0.000018 -0.004905 -0.000017 0.056245
#
#
# Mechanical properties :
#
#
# Convention : Reuss Voigt Hill
#
# Bulk Modulus (GPa) = 31.78814 47.87851 39.83333
# Shear Modulus (GPa) = 23.85814 30.25394 27.05604
#
# Velocity S-wave (km/s) = 3.18013 3.58110 3.38656
# Velocity P-wave (km/s) = 5.19220 6.11508 5.67244
#
# Compressibility (1/GPa) = 0.03145827
#
# Stress axis : x y z
#
# Youngs Moduli (GPa) = 80.66058 34.50863 90.33461
#
# Poissons Ratio (x) = 0.14298 0.41615
# Poissons Ratio (y) = 0.33421 0.15752
# Poissons Ratio (z) = 0.37158 0.06017
#
# Static dielectric constant tensor:
#      x y z
#    x 4.292570 0.000010 -0.179600 
#    y 0.000010 3.989440 0.000020 
#    z -0.179600 0.000020 4.330160 
# 
# 
# High freq. dielectric constant tensor:
#      x y z
#    x 1.933070 0.000000 -0.006100 
#    y 0.000000 1.916150 0.000000 
#    z -0.006100 0.000000 1.945990 
# 
# From -- ./inp_files/5262.got.cif
#   From: 2010.06.25/outbox.cif.g09.slc.cpg/sg9_3_cif.got.tgz:5262.got - 2010.06.27 21:40:51.
