data_PCOD8055744
_publ_section_title
;
Structure prediction by ZEFSAII (Michael W. Deem and Ramdas Pophale) SiO2 
 PCOD8055744
Probable space group: C C
;
_chemical_formula_sum "Si O2"
_cell_formula_units_Z 20
_cell_length_a 9.142735
_cell_length_b 10.706959
_cell_length_c 16.219215
_cell_angle_alpha 90.000000
_cell_angle_beta 146.985090
_cell_angle_gamma 90.000000
_cell_volume 865.077162
_symmetry_space_group_name_H-M "C C"
_symmetry_group_IT_number 9
_symmetry_cell_setting 'monoclinic'
loop_
_space_group_symop_operation_xyz
x,y,z
x,-y,1/2+z
1/2+x,1/2+y,z
1/2+x,1/2-y,1/2+z
loop_
_atom_site_type_symbol
_atom_site_label
_atom_site_fract_x
_atom_site_fract_y
_atom_site_fract_z
Si Si1 0.155840 0.232434 0.412870
Si Si2 0.156167 0.854357 0.733899
Si Si3 0.939718 0.041897 0.428231
Si Si4 0.890656 0.359835 0.678697
Si Si5 0.608977 0.364776 0.176655
O O1 0.250330 0.206236 0.364144
O O2 0.393427 0.283130 0.580163
O O3 0.058499 0.099795 0.401629
O O4 0.918999 0.332388 0.309000
O O5 0.390372 0.832607 0.776798
O O6 0.091234 0.001461 0.713176
O O7 0.977243 0.134117 0.523942
O O8 0.614617 0.032313 0.264899
O O9 0.090271 0.910666 0.515046
O O10 0.952606 0.234506 0.658666
#
# Coordination Sequence:
#
# PCOD8055744 Si02
#       5
#     4   4   4   4   4
#     4  11  24  48  69 103 141 184 230 287 346 409
#     4  11  26  44  74 101 141 182 231 287 346 411
#     4  10  23  46  70 100 138 185 224 297 334 416
#     4  10  25  44  71 101 142 178 238 279 352 402
#     4  10  24  46  68 101 140 181 229 288 338 412
#
# _framework density 23.119323999999999
#
# number of rings (size 3 to 8) (size 9 to 14) (size 15 to 20)
#    0.000    1.600    2.000    0.000   14.000    3.200 
#   10.800    0.000    0.000    0.000    0.000    0.000 
#    0.000    0.000    0.000    0.000    0.000    0.000 
#
# Total GULP energy -123977.565611 kJ/mol
# GULP energy per Si atom -12397.756561 kJ/mol
# Density = 2.306670 g / cm^3
# Si number density = 23.119324 Si / 1000 Ang^3
#
#
#
# Elastic Constant Matrix: (Units=GPa)
#
#
# Indices 1 2 3 4 5 6 
#
# 1 135.9496 53.4125 8.5016 -0.0002 -0.7893 0.0000
# 2 53.4125 86.1200 9.6774 -0.0003 -0.8963 0.0001
# 3 8.5016 9.6774 34.3967 0.0006 -0.3097 -0.0001
# 4 -0.0002 -0.0003 0.0006 30.8754 0.0006 2.7088
# 5 -0.7893 -0.8963 -0.3097 0.0006 37.9823 -0.0001
# 6 0.0000 0.0001 -0.0001 2.7088 -0.0001 40.4454
#
#
#
# Elastic Compliance Matrix: (Units=1/GPa)
#
#
# Indices 1 2 3 4 5 6 
#
# 1 0.009743 -0.005960 -0.000731 0.000000 0.000056 0.000000
# 2 -0.005960 0.015639 -0.002925 0.000000 0.000221 0.000000
# 3 -0.000731 -0.002925 0.030078 -0.000001 0.000161 0.000000
# 4 0.000000 0.000000 -0.000001 0.032580 -0.000001 -0.002182
# 5 0.000056 0.000221 0.000161 -0.000001 0.026336 0.000000
# 6 0.000000 0.000000 0.000000 -0.002182 0.000000 0.024871
#
#
# Mechanical properties :
#
#
# Convention : Reuss Voigt Hill
#
# Bulk Modulus (GPa) = 27.60272 44.40546 36.00409
# Shear Modulus (GPa) = 29.31613 34.18560 31.75087
#
# Velocity S-wave (km/s) = 3.56481 3.84951 3.70989
# Velocity P-wave (km/s) = 5.37671 6.24556 5.82735
#
# Compressibility (1/GPa) = 0.03622831
#
# Stress axis : x y z
#
# Youngs Moduli (GPa) = 102.63380 63.94159 33.24736
#
# Poissons Ratio (x) = 0.38111 0.02430
# Poissons Ratio (y) = 0.61172 0.09725
# Poissons Ratio (z) = 0.07501 0.18702
#
# Static dielectric constant tensor:
#      x y z
#    x 4.382050 0.000000 0.075900 
#    y 0.000000 3.936620 0.000000 
#    z 0.075900 0.000000 4.132150 
# 
# 
# High freq. dielectric constant tensor:
#      x y z
#    x 1.927160 0.000000 0.009580 
#    y 0.000000 1.906730 0.000000 
#    z 0.009580 0.000000 1.914260 
# 
# From -- ./inp_files/4650.got.cif
#   From: 2010.06.25/outbox.cif.g09.slc.cpg/sg9_3_cif.got.tgz:4650.got - 2010.06.27 21:40:51.
