data_PCOD8055917
_publ_section_title
;
Structure prediction by ZEFSAII (Michael W. Deem and Ramdas Pophale) SiO2 
 PCOD8055917
Probable space group: C C
;
_chemical_formula_sum "Si O2"
_cell_formula_units_Z 32
_cell_length_a 14.756266
_cell_length_b 15.656706
_cell_length_c 8.908914
_cell_angle_alpha 90.000000
_cell_angle_beta 135.600940
_cell_angle_gamma 90.000000
_cell_volume 1440.069597
_symmetry_space_group_name_H-M "C C"
_symmetry_group_IT_number 9
_symmetry_cell_setting 'monoclinic'
loop_
_space_group_symop_operation_xyz
x,y,z
x,-y,1/2+z
1/2+x,1/2+y,z
1/2+x,1/2-y,1/2+z
loop_
_atom_site_type_symbol
_atom_site_label
_atom_site_fract_x
_atom_site_fract_y
_atom_site_fract_z
Si Si1 0.612460 0.793570 0.094570
Si Si2 0.441134 0.883494 0.655045
Si Si3 0.854029 0.316272 0.269368
Si Si4 0.679074 0.941615 0.749843
Si Si5 0.244575 0.984217 0.042367
Si Si6 0.296830 0.415751 0.192863
Si Si7 0.617484 0.201092 0.941178
Si Si8 0.089962 0.092135 0.098381
O O1 0.746771 0.819846 0.170661
O O2 0.611188 0.830414 0.262370
O O3 0.605930 0.691654 0.079249
O O4 0.493038 0.837876 0.866116
O O5 0.389282 0.806725 0.486827
O O6 0.548669 0.939444 0.694140
O O7 0.321849 0.945275 0.542338
O O8 0.970586 0.272686 0.312573
O O9 0.850099 0.418314 0.233753
O O10 0.713809 0.280944 0.062065
O O11 0.679821 0.867013 0.627254
O O12 0.697394 0.026439 0.673405
O O13 0.793373 0.931847 0.009020
O O14 0.144523 0.929509 0.825593
O O15 0.163727 0.032341 0.071210
O O16 0.439857 0.432182 0.419911
#
# Coordination Sequence:
#
# PCOD8055917 Si02
#       8
#     4   4   4   4   4   4   4   4
#     4  11  27  44  75 107 142 190 248 304 364 441
#     4  10  26  45  75 103 142 190 246 297 362 440
#     4  11  26  46  69 106 145 196 243 302 377 428
#     4  10  24  46  73 103 136 194 238 300 367 431
#     4  12  26  47  72 104 146 191 242 296 369 447
#     4  11  25  46  71 105 143 184 243 300 370 438
#     4  11  26  44  72 107 148 190 249 304 367 442
#     4  12  28  46  71 109 144 193 237 305 376 437
#
# _framework density 22.221150000000002
#
# number of rings (size 3 to 8) (size 9 to 14) (size 15 to 20)
#    0.000    1.000    2.500    1.500   15.750    3.000 
#    0.000    0.000    0.000    0.000    0.000    0.000 
#    0.000    0.000    0.000    0.000    0.000    0.000 
#
# Total GULP energy -198376.594915 kJ/mol
# GULP energy per Si atom -12398.537182 kJ/mol
# Density = 2.217057 g / cm^3
# Si number density = 22.221150 Si / 1000 Ang^3
#
#
#
# Elastic Constant Matrix: (Units=GPa)
#
#
# Indices 1 2 3 4 5 6 
#
# 1 93.1144 28.4297 46.8677 0.0000 -2.6367 0.0000
# 2 28.4297 64.2818 32.7542 0.0000 -8.1446 0.0000
# 3 46.8677 32.7542 158.0934 0.0000 -16.2199 0.0000
# 4 0.0000 0.0000 0.0000 35.8506 0.0000 -0.8737
# 5 -2.6367 -8.1446 -16.2199 0.0000 45.8465 0.0000
# 6 0.0000 0.0000 0.0000 -0.8737 0.0000 27.8073
#
#
#
# Elastic Compliance Matrix: (Units=1/GPa)
#
#
# Indices 1 2 3 4 5 6 
#
# 1 0.013735 -0.004569 -0.003245 0.000000 -0.001170 0.000000
# 2 -0.004569 0.019071 -0.002362 0.000000 0.002290 0.000000
# 3 -0.003245 -0.002362 0.008005 0.000000 0.002226 0.000000
# 4 0.000000 0.000000 0.000000 0.027915 0.000000 0.000877
# 5 -0.001170 0.002290 0.002226 0.000000 0.022939 0.000000
# 6 0.000000 0.000000 0.000000 0.000877 0.000000 0.035989
#
#
# Mechanical properties :
#
#
# Convention : Reuss Voigt Hill
#
# Bulk Modulus (GPa) = 48.87891 59.06586 53.97238
# Shear Modulus (GPa) = 32.29449 35.73009 34.01229
#
# Velocity S-wave (km/s) = 3.81638 4.01425 3.91657
# Velocity P-wave (km/s) = 6.43926 6.93716 6.69284
#
# Compressibility (1/GPa) = 0.02045872
#
# Stress axis : x y z
#
# Youngs Moduli (GPa) = 72.80778 52.43631 124.92059
#
# Poissons Ratio (x) = 0.23959 0.40538
# Poissons Ratio (y) = 0.33267 0.29502
# Poissons Ratio (z) = 0.23627 0.12384
#
# Static dielectric constant tensor:
#      x y z
#    x 3.939030 0.000000 -0.139210 
#    y 0.000000 3.856190 0.000000 
#    z -0.139210 0.000000 4.401180 
# 
# 
# High freq. dielectric constant tensor:
#      x y z
#    x 1.872620 0.000000 -0.008800 
#    y 0.000000 1.867820 0.000000 
#    z -0.008800 0.000000 1.901410 
# 
# From -- ./inp_files/9717.got.cif
#   From: 2010.06.25/outbox.cif.g09.slc.cpg/sg9_5_cif.got.tgz:9717.got - 2010.06.27 21:40:51.
