data_PCOD8055537
_publ_section_title
;
Structure prediction by ZEFSAII (Michael W. Deem and Ramdas Pophale) SiO2 
 PCOD8055537
Probable space group: C C
;
_chemical_formula_sum "Si O2"
_cell_formula_units_Z 20
_cell_length_a 6.782769
_cell_length_b 13.561603
_cell_length_c 14.422523
_cell_angle_alpha 90.000000
_cell_angle_beta 140.613740
_cell_angle_gamma 90.000000
_cell_volume 841.825056
_symmetry_space_group_name_H-M "C C"
_symmetry_group_IT_number 9
_symmetry_cell_setting 'monoclinic'
loop_
_space_group_symop_operation_xyz
x,y,z
x,-y,1/2+z
1/2+x,1/2+y,z
1/2+x,1/2-y,1/2+z
loop_
_atom_site_type_symbol
_atom_site_label
_atom_site_fract_x
_atom_site_fract_y
_atom_site_fract_z
Si Si1 0.217960 0.060144 0.909880
Si Si2 0.203752 0.502069 0.956419
Si Si3 0.819896 0.647938 0.416265
Si Si4 0.233132 0.731193 0.713184
Si Si5 0.380033 0.075693 0.174920
O O1 0.935163 0.133835 0.800737
O O2 0.470138 0.081281 0.920048
O O3 0.094340 0.945751 0.855571
O O4 0.404405 0.067112 0.074299
O O5 0.135836 0.396052 0.982077
O O6 0.136418 0.491237 0.821151
O O7 0.551425 0.537890 0.096991
O O8 0.654875 0.724637 0.286462
O O9 0.912585 0.702194 0.545449
O O10 0.416967 0.809912 0.716824
#
# Coordination Sequence:
#
# PCOD8055537 Si02
#       5
#     4   4   4   4   4
#     4  10  23  40  68  96 141 188 219 296 361 390
#     4   9  23  41  65 105 134 184 239 276 361 417
#     4   9  22  38  69  95 134 184 223 289 347 416
#     4  11  20  42  66 100 139 178 236 288 342 427
#     4  11  22  41  70 100 138 188 231 295 345 428
#
# _framework density 23.757905999999998
#
# number of rings (size 3 to 8) (size 9 to 14) (size 15 to 20)
#    1.200    0.800    2.000    1.200    2.800    0.000 
#    0.000    6.000    0.000    0.000    0.000    0.000 
#    0.000    0.000    0.000    0.000    0.000    0.000 
#
# Total GULP energy -123918.311546 kJ/mol
# GULP energy per Si atom -12391.831155 kJ/mol
# Density = 2.370383 g / cm^3
# Si number density = 23.757906 Si / 1000 Ang^3
#
#
#
# Elastic Constant Matrix: (Units=GPa)
#
#
# Indices 1 2 3 4 5 6 
#
# 1 55.2168 32.7712 29.8898 0.0003 -30.8763 0.0003
# 2 32.7712 144.4548 58.5963 0.0003 -21.8154 0.0002
# 3 29.8898 58.5963 106.1614 0.0008 -45.0825 0.0006
# 4 0.0003 0.0003 0.0008 44.6033 -0.0003 -3.6867
# 5 -30.8763 -21.8154 -45.0825 -0.0003 41.0997 -0.0001
# 6 0.0003 0.0002 0.0006 -3.6867 -0.0001 32.5656
#
#
#
# Elastic Compliance Matrix: (Units=1/GPa)
#
#
# Indices 1 2 3 4 5 6 
#
# 1 0.034999 -0.005896 0.006060 0.000000 0.029811 0.000000
# 2 -0.005896 0.009947 -0.006494 0.000000 -0.006273 0.000000
# 3 0.006060 -0.006494 0.022029 0.000000 0.025268 0.000000
# 4 0.000000 0.000000 0.000000 0.022632 0.000000 0.002562
# 5 0.029811 -0.006273 0.025268 0.000000 0.071114 0.000000
# 6 0.000000 0.000000 0.000000 0.002562 0.000000 0.030997
#
#
# Mechanical properties :
#
#
# Convention : Reuss Voigt Hill
#
# Bulk Modulus (GPa) = 18.41165 60.92754 39.66959
# Shear Modulus (GPa) = 22.47360 35.95877 29.21618
#
# Velocity S-wave (km/s) = 3.07895 3.89466 3.51058
# Velocity P-wave (km/s) = 4.51735 6.77682 5.75898
#
# Compressibility (1/GPa) = 0.05431343
#
# Stress axis : x y z
#
# Youngs Moduli (GPa) = 28.57221 100.53162 45.39554
#
# Poissons Ratio (x) = 0.59273 -0.27508
# Poissons Ratio (y) = 0.16846 0.29481
# Poissons Ratio (z) = -0.17314 0.65288
#
# Static dielectric constant tensor:
#      x y z
#    x 3.946500 0.000000 -0.490910 
#    y 0.000000 4.275270 0.000000 
#    z -0.490910 0.000000 4.161290 
# 
# 
# High freq. dielectric constant tensor:
#      x y z
#    x 1.917800 0.000000 -0.038070 
#    y 0.000000 1.938190 0.000000 
#    z -0.038070 0.000000 1.939230 
# 
# From -- ./inp_files/4967.got.cif
#   From: 2010.06.25/outbox.cif.g09.slc.cpg/sg9_3_cif.got.tgz:4967.got - 2010.06.27 21:40:51.
