data_PCOD8055332
_publ_section_title
;
Structure prediction by ZEFSAII (Michael W. Deem and Ramdas Pophale) SiO2 
 PCOD8055332
Probable space group: C C
;
_chemical_formula_sum "Si O2"
_cell_formula_units_Z 24
_cell_length_a 8.496056
_cell_length_b 15.069507
_cell_length_c 9.294769
_cell_angle_alpha 90.000000
_cell_angle_beta 75.175303
_cell_angle_gamma 90.000000
_cell_volume 1150.410021
_symmetry_space_group_name_H-M "C C"
_symmetry_group_IT_number 9
_symmetry_cell_setting 'monoclinic'
loop_
_space_group_symop_operation_xyz
x,y,z
x,-y,1/2+z
1/2+x,1/2+y,z
1/2+x,1/2-y,1/2+z
loop_
_atom_site_type_symbol
_atom_site_label
_atom_site_fract_x
_atom_site_fract_y
_atom_site_fract_z
Si Si1 0.350640 0.505303 0.052450
Si Si2 0.556279 0.656327 0.888862
Si Si3 0.625154 0.997249 0.356611
Si Si4 0.663316 0.574313 0.568651
Si Si5 0.413804 0.839374 0.819262
Si Si6 0.840123 0.609547 0.022998
O O1 0.289241 0.483827 0.227049
O O2 0.513000 0.446720 0.997175
O O3 0.405548 0.607402 0.006098
O O4 0.197323 0.474497 0.993690
O O5 0.606470 0.602280 0.737724
O O6 0.506706 0.753130 0.849887
O O7 0.714812 0.664529 0.953923
O O8 0.528734 0.076017 0.304487
O O9 0.512914 0.908572 0.400462
O O10 0.760845 0.650236 0.461613
O O11 0.772046 0.487913 0.573892
O O12 0.362724 0.833417 0.663639
#
# Coordination Sequence:
#
# PCOD8055332 Si02
#       6
#     4   4   4   4   4   4
#     4  11  22  41  68  98 127 172 221 259 315 396
#     4  11  25  42  64  98 133 170 214 272 331 378
#     4  11  22  40  70  97 129 170 219 261 316 399
#     4  10  22  42  67  93 130 176 215 262 322 393
#     4  11  25  41  65  97 134 169 214 274 329 380
#     4  10  22  44  66  93 129 177 215 262 321 392
#
# _framework density 20.862127999999998
#
# number of rings (size 3 to 8) (size 9 to 14) (size 15 to 20)
#    0.000    1.333    3.333    3.000    7.000    1.333 
#    0.000    1.667    0.000    0.000    0.000    0.000 
#    0.000    0.000    0.000    0.000    0.000    0.000 
#
# Total GULP energy -148765.241448 kJ/mol
# GULP energy per Si atom -12397.103454 kJ/mol
# Density = 2.081465 g / cm^3
# Si number density = 20.862128 Si / 1000 Ang^3
#
#
#
# Elastic Constant Matrix: (Units=GPa)
#
#
# Indices 1 2 3 4 5 6 
#
# 1 124.3512 34.3707 50.0215 0.0000 15.6319 0.0000
# 2 34.3707 72.0069 44.8025 0.0000 6.6208 0.0000
# 3 50.0215 44.8025 110.2811 0.0000 0.9669 0.0000
# 4 0.0000 0.0000 0.0000 19.6546 0.0000 8.7702
# 5 15.6319 6.6208 0.9669 0.0000 51.3870 0.0000
# 6 0.0000 0.0000 0.0000 8.7702 0.0000 25.6542
#
#
#
# Elastic Compliance Matrix: (Units=1/GPa)
#
#
# Indices 1 2 3 4 5 6 
#
# 1 0.010598 -0.002439 -0.003791 0.000000 -0.002838 0.000000
# 2 -0.002439 0.019411 -0.006765 0.000000 -0.001632 0.000000
# 3 -0.003791 -0.006765 0.013520 0.000000 0.001771 0.000000
# 4 0.000000 0.000000 0.000000 0.060037 0.000000 -0.020524
# 5 -0.002838 -0.001632 0.001771 0.000000 0.020501 0.000000
# 6 0.000000 0.000000 0.000000 -0.020524 0.000000 0.045996
#
#
# Mechanical properties :
#
#
# Convention : Reuss Voigt Hill
#
# Bulk Modulus (GPa) = 57.01793 62.78094 59.89943
# Shear Modulus (GPa) = 24.76475 31.16879 27.96677
#
# Velocity S-wave (km/s) = 3.44912 3.86947 3.66533
# Velocity P-wave (km/s) = 6.57663 7.07971 6.83280
#
# Compressibility (1/GPa) = 0.01753834
#
# Stress axis : x y z
#
# Youngs Moduli (GPa) = 94.36042 51.51698 73.96224
#
# Poissons Ratio (x) = 0.12563 0.28041
# Poissons Ratio (y) = 0.23011 0.50039
# Poissons Ratio (z) = 0.35775 0.34854
#
# Static dielectric constant tensor:
#      x y z
#    x 4.044660 0.000000 -0.109180 
#    y 0.000000 3.403230 0.000000 
#    z -0.109180 0.000000 3.887070 
# 
# 
# High freq. dielectric constant tensor:
#      x y z
#    x 1.840480 0.000000 0.000900 
#    y 0.000000 1.779060 0.000000 
#    z 0.000900 0.000000 1.830140 
# 
# From -- ./inp_files/4897.got.cif
#   From: 2010.06.25/outbox.cif.g09.slc.cpg/sg9_3_cif.got.tgz:4897.got - 2010.06.27 21:40:51.
