data_PCOD8055233
_publ_section_title
;
Structure prediction by ZEFSAII (Michael W. Deem and Ramdas Pophale) SiO2 
 PCOD8055233
Probable space group: C C
;
_chemical_formula_sum "Si O2"
_cell_formula_units_Z 28
_cell_length_a 13.786419
_cell_length_b 7.212795
_cell_length_c 13.717590
_cell_angle_alpha 90.000000
_cell_angle_beta 74.056711
_cell_angle_gamma 90.000000
_cell_volume 1311.588344
_symmetry_space_group_name_H-M "C C"
_symmetry_group_IT_number 9
_symmetry_cell_setting 'monoclinic'
loop_
_space_group_symop_operation_xyz
x,y,z
x,-y,1/2+z
1/2+x,1/2+y,z
1/2+x,1/2-y,1/2+z
loop_
_atom_site_type_symbol
_atom_site_label
_atom_site_fract_x
_atom_site_fract_y
_atom_site_fract_z
Si Si1 0.937610 0.253288 0.195840
Si Si2 0.663958 0.314956 0.914110
Si Si3 0.158594 0.301842 0.202288
Si Si4 0.834983 0.559065 0.099475
Si Si5 0.259605 0.509836 0.017555
Si Si6 0.950835 0.086993 0.562467
Si Si7 0.791320 0.656741 0.904723
O O1 0.875298 0.368031 0.131987
O O2 0.875322 0.257517 0.311993
O O3 0.049005 0.325961 0.185766
O O4 0.953577 0.045749 0.154649
O O5 0.652251 0.187419 0.821513
O O6 0.723786 0.502633 0.869183
O O7 0.723059 0.200899 0.981356
O O8 0.558618 0.378840 0.985911
O O9 0.218200 0.110346 0.158259
O O10 0.217284 0.479431 0.139976
O O11 0.906766 0.722989 0.119156
O O12 0.845904 0.551920 0.979546
O O13 0.224606 0.331097 0.962386
O O14 0.381090 0.499702 0.995181
#
# Coordination Sequence:
#
# PCOD8055233 Si02
#       7
#     4   4   4   4   4   4   4
#     4  12  22  40  67  94 132 174 221 277 336 398
#     4  12  22  45  66  96 138 177 223 281 337 399
#     4  10  22  40  65  97 130 174 224 272 336 400
#     4  10  22  44  60  95 135 168 222 279 328 401
#     4  10  24  43  65  94 137 174 223 282 330 404
#     4  10  23  39  66  94 128 173 223 273 330 400
#     4  10  23  39  67  94 132 178 218 280 339 394
#
# _framework density 21.34816
#
# number of rings (size 3 to 8) (size 9 to 14) (size 15 to 20)
#    0.000    1.714    1.429    5.143    4.000    0.000 
#    0.000    2.857    0.000    0.000    0.000    0.000 
#    0.000    0.000    0.000    0.000    0.000    0.000 
#
# Total GULP energy -173524.885929 kJ/mol
# GULP energy per Si atom -12394.634709 kJ/mol
# Density = 2.129957 g / cm^3
# Si number density = 21.348160 Si / 1000 Ang^3
#
#
#
# Elastic Constant Matrix: (Units=GPa)
#
#
# Indices 1 2 3 4 5 6 
#
# 1 98.7532 24.1334 26.2211 0.0000 -14.6879 0.0000
# 2 24.1334 73.2940 29.4575 0.0000 -10.9634 0.0000
# 3 26.2211 29.4575 123.6054 0.0000 -10.4257 0.0000
# 4 0.0000 0.0000 0.0000 31.3283 0.0000 5.8108
# 5 -14.6879 -10.9634 -10.4257 0.0000 31.3169 0.0000
# 6 0.0000 0.0000 0.0000 5.8108 0.0000 29.2428
#
#
#
# Elastic Compliance Matrix: (Units=1/GPa)
#
#
# Indices 1 2 3 4 5 6 
#
# 1 0.011789 -0.002658 -0.001522 0.000000 0.004092 0.000000
# 2 -0.002658 0.016246 -0.003018 0.000000 0.003436 0.000000
# 3 -0.001522 -0.003018 0.009243 0.000000 0.001306 0.000000
# 4 0.000000 0.000000 0.000000 0.033142 0.000000 -0.006586
# 5 0.004092 0.003436 0.001306 0.000000 0.035489 0.000000
# 6 0.000000 0.000000 0.000000 -0.006586 0.000000 0.035505
#
#
# Mechanical properties :
#
#
# Convention : Reuss Voigt Hill
#
# Bulk Modulus (GPa) = 43.70472 50.58630 47.14551
# Shear Modulus (GPa) = 30.59320 32.76697 31.68008
#
# Velocity S-wave (km/s) = 3.78968 3.92201 3.85642
# Velocity P-wave (km/s) = 6.29808 6.65258 6.47775
#
# Compressibility (1/GPa) = 0.02288083
#
# Stress axis : x y z
#
# Youngs Moduli (GPa) = 84.82829 61.55456 108.19423
#
# Poissons Ratio (x) = 0.16360 0.16470
# Poissons Ratio (y) = 0.22545 0.32654
# Poissons Ratio (z) = 0.12913 0.18577
#
# Static dielectric constant tensor:
#      x y z
#    x 3.890030 0.000000 -0.036310 
#    y 0.000000 3.754100 0.000000 
#    z -0.036310 0.000000 3.882750 
# 
# 
# High freq. dielectric constant tensor:
#      x y z
#    x 1.837520 0.000000 -0.002080 
#    y 0.000000 1.825960 0.000000 
#    z -0.002080 0.000000 1.840000 
# 
# From -- ./inp_files/25371.got.cif
#   From: 2010.06.25/outbox.cif.g09.slc.cpg/sg9_13_cif.got.tgz:25371.got - 2010.06.27 21:40:51.
