data_PCOD8055409
_publ_section_title
;
Structure prediction by ZEFSAII (Michael W. Deem and Ramdas Pophale) SiO2 
 PCOD8055409
Probable space group: C C
;
_chemical_formula_sum "Si O2"
_cell_formula_units_Z 28
_cell_length_a 10.834776
_cell_length_b 11.207187
_cell_length_c 16.996677
_cell_angle_alpha 90.000000
_cell_angle_beta 142.679126
_cell_angle_gamma 90.000000
_cell_volume 1251.274246
_symmetry_space_group_name_H-M "C C"
_symmetry_group_IT_number 9
_symmetry_cell_setting 'monoclinic'
loop_
_space_group_symop_operation_xyz
x,y,z
x,-y,1/2+z
1/2+x,1/2+y,z
1/2+x,1/2-y,1/2+z
loop_
_atom_site_type_symbol
_atom_site_label
_atom_site_fract_x
_atom_site_fract_y
_atom_site_fract_z
Si Si1 0.730370 0.095653 0.553730
Si Si2 0.255046 0.911198 0.188986
Si Si3 0.906387 0.498648 0.492996
Si Si4 0.573586 0.123808 0.723418
Si Si5 0.153577 0.802638 0.301925
Si Si6 0.325720 0.559868 0.430579
Si Si7 0.305915 0.146932 0.307094
O O1 0.629170 0.998667 0.562159
O O2 0.809335 0.028231 0.515559
O O3 0.545984 0.186788 0.433992
O O4 0.914847 0.163715 0.690715
O O5 0.442769 0.856183 0.235839
O O6 0.233946 0.830713 0.255592
O O7 0.285828 0.051051 0.226311
O O8 0.057200 0.900260 0.032983
O O9 0.932015 0.547651 0.593386
O O10 0.800783 0.368613 0.440297
O O11 0.752583 0.581710 0.363335
O O12 0.648902 0.243954 0.717828
O O13 0.776483 0.054197 0.852406
O O14 0.169128 0.662871 0.325765
#
# Coordination Sequence:
#
# PCOD8055409 Si02
#       7
#     4   4   4   4   4   4   4
#     4   9  21  43  69  89 132 183 216 285 340 402
#     4  10  24  47  62  99 139 179 221 286 348 394
#     4   9  23  41  62 102 123 176 229 274 345 407
#     4  12  24  40  72 100 132 179 236 275 334 427
#     4  10  22  44  66  94 138 176 220 283 353 399
#     4  11  24  40  69  97 132 180 222 283 342 413
#     4   9  22  45  66  95 136 175 224 284 342 396
#
# _framework density 22.377188
#
# number of rings (size 3 to 8) (size 9 to 14) (size 15 to 20)
#    0.857    1.143    1.429    0.000    8.000    3.429 
#    7.714    0.000    0.000    0.000    0.000    0.000 
#    0.000    0.000    0.000    0.000    0.000    0.000 
#
# Total GULP energy -173499.259333 kJ/mol
# GULP energy per Si atom -12392.804238 kJ/mol
# Density = 2.232626 g / cm^3
# Si number density = 22.377188 Si / 1000 Ang^3
#
#
#
# Elastic Constant Matrix: (Units=GPa)
#
#
# Indices 1 2 3 4 5 6 
#
# 1 78.1231 20.9407 13.9303 0.0000 10.3960 0.0000
# 2 20.9407 53.9284 4.7331 0.0001 9.7139 0.0000
# 3 13.9303 4.7331 83.0401 0.0002 12.2781 0.0001
# 4 0.0000 0.0001 0.0002 25.0978 0.0001 0.6071
# 5 10.3960 9.7139 12.2781 0.0001 35.6313 0.0000
# 6 0.0000 0.0000 0.0001 0.6071 0.0000 22.2241
#
#
#
# Elastic Compliance Matrix: (Units=1/GPa)
#
#
# Indices 1 2 3 4 5 6 
#
# 1 0.014823 -0.005184 -0.001855 0.000000 -0.002272 0.000000
# 2 -0.005184 0.021323 0.000306 0.000000 -0.004406 0.000000
# 3 -0.001855 0.000306 0.012927 0.000000 -0.003997 0.000000
# 4 0.000000 0.000000 0.000000 0.039870 0.000000 -0.001089
# 5 -0.002272 -0.004406 -0.003997 0.000000 0.031307 0.000000
# 6 0.000000 0.000000 0.000000 -0.001089 0.000000 0.045026
#
#
# Mechanical properties :
#
#
# Convention : Reuss Voigt Hill
#
# Bulk Modulus (GPa) = 28.08479 32.69999 30.39239
# Shear Modulus (GPa) = 26.23145 28.28982 27.26064
#
# Velocity S-wave (km/s) = 3.42751 3.55945 3.49411
# Velocity P-wave (km/s) = 5.31429 5.61585 5.46715
#
# Compressibility (1/GPa) = 0.03560646
#
# Stress axis : x y z
#
# Youngs Moduli (GPa) = 67.46282 46.89823 77.35697
#
# Poissons Ratio (x) = 0.24311 0.14351
# Poissons Ratio (y) = 0.34971 -0.02365
# Poissons Ratio (z) = 0.12516 -0.01434
#
# Static dielectric constant tensor:
#      x y z
#    x 3.863970 0.000000 0.110640 
#    y 0.000000 3.592350 0.000000 
#    z 0.110640 0.000000 4.073960 
# 
# 
# High freq. dielectric constant tensor:
#      x y z
#    x 1.874110 0.000000 0.003560 
#    y 0.000000 1.846280 0.000000 
#    z 0.003560 0.000000 1.890320 
# 
# From -- ./inp_files/29996.got.cif
#   From: 2010.06.25/outbox.cif.g09.slc.cpg/sg9_15_cif.got.tgz:29996.got - 2010.06.27 21:40:51.
