data_PCOD8055389
_publ_section_title
;
Structure prediction by ZEFSAII (Michael W. Deem and Ramdas Pophale) SiO2 
 PCOD8055389
Probable space group: C C
;
_chemical_formula_sum "Si O2"
_cell_formula_units_Z 32
_cell_length_a 21.639039
_cell_length_b 8.238404
_cell_length_c 13.243583
_cell_angle_alpha 90.000000
_cell_angle_beta 140.186526
_cell_angle_gamma 90.000000
_cell_volume 1511.692690
_symmetry_space_group_name_H-M "C C"
_symmetry_group_IT_number 9
_symmetry_cell_setting 'monoclinic'
loop_
_space_group_symop_operation_xyz
x,y,z
x,-y,1/2+z
1/2+x,1/2+y,z
1/2+x,1/2-y,1/2+z
loop_
_atom_site_type_symbol
_atom_site_label
_atom_site_fract_x
_atom_site_fract_y
_atom_site_fract_z
Si Si1 0.706790 0.290372 0.365600
Si Si2 0.876059 0.079034 0.518499
Si Si3 0.359417 0.400371 0.695253
Si Si4 0.503420 0.063813 0.419986
Si Si5 0.853866 0.429316 0.078393
Si Si6 0.005277 0.766645 0.033896
Si Si7 0.704558 0.139096 0.574312
Si Si8 0.874162 0.254911 0.901633
O O1 0.771214 0.162673 0.383482
O O2 0.761269 0.456191 0.459283
O O3 0.671739 0.209654 0.425886
O O4 0.614461 0.330889 0.180946
O O5 0.952786 0.212707 0.576751
O O6 0.899006 0.027324 0.661781
O O7 0.883870 0.926417 0.454669
O O8 0.323217 0.233506 0.599205
O O9 0.449722 0.373370 0.881390
O O10 0.267759 0.474838 0.638696
O O11 0.611800 0.102536 0.524983
O O12 0.455684 0.215797 0.418614
O O13 0.442531 0.018654 0.244142
O O14 0.503703 0.920001 0.501441
O O15 0.885029 0.386166 0.003805
O O16 0.769788 0.270790 0.716353
#
# Coordination Sequence:
#
# PCOD8055389 Si02
#       8
#     4   4   4   4   4   4   4   4
#     4  11  24  42  67  99 130 169 219 272 334 385
#     4  10  22  43  68  92 130 170 219 267 324 391
#     4   9  22  45  66  91 133 170 215 267 324 393
#     4  11  25  43  67  97 131 175 222 264 337 391
#     4  10  23  46  65  98 132 168 220 279 323 393
#     4  11  23  42  66  97 129 174 210 272 331 383
#     4  11  23  43  67  94 130 180 213 267 326 396
#     4  11  22  44  68  92 133 176 216 274 321 392
#
# _framework density 21.168323000000001
#
# number of rings (size 3 to 8) (size 9 to 14) (size 15 to 20)
#    0.000    1.500    2.500    1.500    3.500    1.000 
#    9.000    0.000    0.000    0.000    0.000    0.000 
#    0.000    0.000    0.000    0.000    0.000    0.000 
#
# Total GULP energy -198411.850638 kJ/mol
# GULP energy per Si atom -12400.740665 kJ/mol
# Density = 2.112014 g / cm^3
# Si number density = 21.168323 Si / 1000 Ang^3
#
#
#
# Elastic Constant Matrix: (Units=GPa)
#
#
# Indices 1 2 3 4 5 6 
#
# 1 164.5500 76.1533 71.1095 0.0000 20.0611 0.0000
# 2 76.1533 91.8840 57.8610 0.0000 2.7768 0.0000
# 3 71.1095 57.8610 150.7883 0.0000 16.9679 0.0000
# 4 0.0000 0.0000 0.0000 31.2601 0.0000 -0.2247
# 5 20.0611 2.7768 16.9679 0.0000 27.2296 0.0000
# 6 0.0000 0.0000 0.0000 -0.2247 0.0000 35.2219
#
#
#
# Elastic Compliance Matrix: (Units=1/GPa)
#
#
# Indices 1 2 3 4 5 6 
#
# 1 0.011342 -0.008309 -0.001415 0.000000 -0.006627 0.000000
# 2 -0.008309 0.020553 -0.004754 0.000000 0.006988 0.000000
# 3 -0.001415 -0.004754 0.009626 0.000000 -0.004472 0.000000
# 4 0.000000 0.000000 0.000000 0.031991 0.000000 0.000204
# 5 -0.006627 0.006988 -0.004472 0.000000 0.043681 0.000000
# 6 0.000000 0.000000 0.000000 0.000204 0.000000 0.028393
#
#
# Mechanical properties :
#
#
# Convention : Reuss Voigt Hill
#
# Bulk Modulus (GPa) = 79.58744 90.82999 85.20871
# Shear Modulus (GPa) = 27.97511 32.21555 30.09533
#
# Velocity S-wave (km/s) = 3.63926 3.90535 3.77465
# Velocity P-wave (km/s) = 7.43895 7.95847 7.70310
#
# Compressibility (1/GPa) = 0.01256480
#
# Stress axis : x y z
#
# Youngs Moduli (GPa) = 88.16919 48.65553 103.88024
#
# Poissons Ratio (x) = 0.40428 0.14694
# Poissons Ratio (y) = 0.73261 0.49390
# Poissons Ratio (z) = 0.12472 0.23133
#
# Static dielectric constant tensor:
#      x y z
#    x 3.939820 0.000000 -0.255650 
#    y 0.000000 3.900410 0.000000 
#    z -0.255650 0.000000 3.911970 
# 
# 
# High freq. dielectric constant tensor:
#      x y z
#    x 1.837180 0.000000 -0.017150 
#    y 0.000000 1.833100 0.000000 
#    z -0.017150 0.000000 1.829390 
# 
# From -- ./inp_files/26682.got.cif
#   From: 2010.06.25/outbox.cif.g09.slc.cpg/sg9_14_cif.got.tgz:26682.got - 2010.06.27 21:40:51.
