data_PCOD8055179
_publ_section_title
;
Structure prediction by ZEFSAII (Michael W. Deem and Ramdas Pophale) SiO2 
 PCOD8055179
Probable space group: C C
;
_chemical_formula_sum "Si O2"
_cell_formula_units_Z 32
_cell_length_a 21.016388
_cell_length_b 12.992678
_cell_length_c 9.384905
_cell_angle_alpha 90.000000
_cell_angle_beta 142.348775
_cell_angle_gamma 90.000000
_cell_volume 1565.393520
_symmetry_space_group_name_H-M "C C"
_symmetry_group_IT_number 9
_symmetry_cell_setting 'monoclinic'
loop_
_space_group_symop_operation_xyz
x,y,z
x,-y,1/2+z
1/2+x,1/2+y,z
1/2+x,1/2-y,1/2+z
loop_
_atom_site_type_symbol
_atom_site_label
_atom_site_fract_x
_atom_site_fract_y
_atom_site_fract_z
Si Si1 0.885100 0.598780 0.431330
Si Si2 0.348882 0.293483 0.549104
Si Si3 0.456094 0.499517 0.753071
Si Si4 0.733587 0.294343 0.101467
Si Si5 0.620897 0.914923 0.416479
Si Si6 0.285299 0.075056 0.948341
Si Si7 0.095545 0.019723 0.246912
Si Si8 0.729655 0.017770 0.845397
O O1 0.869980 0.715208 0.458355
O O2 0.817190 0.523700 0.409982
O O3 0.004949 0.568331 0.657093
O O4 0.857672 0.590684 0.215236
O O5 0.445859 0.373418 0.743023
O O6 0.327169 0.234514 0.659502
O O7 0.247196 0.362717 0.327874
O O8 0.540015 0.532107 0.783693
O O9 0.339278 0.545015 0.520146
O O10 0.499819 0.550478 0.974610
O O11 0.787082 0.326603 0.346161
O O12 0.651355 0.203898 0.980319
O O13 0.668630 0.386469 0.917956
O O14 0.699878 0.979583 0.458302
O O15 0.634572 0.965197 0.595510
O O16 0.166761 0.063605 0.792361
#
# Coordination Sequence:
#
# PCOD8055179 Si02
#       8
#     4   4   4   4   4   4   4   4
#     4  12  22  41  65  92 125 173 215 259 319 384
#     4   9  22  41  64  92 130 164 210 272 319 381
#     4  10  22  38  67  92 125 167 211 264 325 375
#     4  11  23  43  63  95 131 167 211 271 321 376
#     4  11  23  43  67  89 128 170 212 262 321 386
#     4  12  24  40  65  95 133 171 213 270 316 385
#     4  12  20  40  66  93 128 169 215 263 328 373
#     4   9  22  42  63  90 128 165 203 265 323 376
#
# _framework density 20.442145
#
# number of rings (size 3 to 8) (size 9 to 14) (size 15 to 20)
#    0.750    0.500    3.750    2.250    0.000    1.000 
#    2.250    0.000    2.750    0.000    0.000    0.000 
#    0.000    0.000    0.000    0.000    0.000    0.000 
#
# Total GULP energy -198295.862919 kJ/mol
# GULP energy per Si atom -12393.491432 kJ/mol
# Density = 2.039562 g / cm^3
# Si number density = 20.442145 Si / 1000 Ang^3
#
#
#
# Elastic Constant Matrix: (Units=GPa)
#
#
# Indices 1 2 3 4 5 6 
#
# 1 74.4550 14.0071 30.5858 0.0000 -2.0851 0.0000
# 2 14.0071 27.4148 20.3377 0.0000 -9.6305 0.0000
# 3 30.5858 20.3377 140.7518 0.0000 -13.8477 0.0000
# 4 0.0000 0.0000 0.0000 23.7606 0.0000 -9.1176
# 5 -2.0851 -9.6305 -13.8477 0.0000 37.9912 0.0000
# 6 0.0000 0.0000 0.0000 -9.1176 0.0000 20.4277
#
#
#
# Elastic Compliance Matrix: (Units=1/GPa)
#
#
# Indices 1 2 3 4 5 6 
#
# 1 0.015722 -0.006718 -0.002622 0.000000 -0.001796 0.000000
# 2 -0.006718 0.046564 -0.004297 0.000000 0.009869 0.000000
# 3 -0.002622 -0.004297 0.008478 0.000000 0.001857 0.000000
# 4 0.000000 0.000000 0.000000 0.050785 0.000000 0.022667
# 5 -0.001796 0.009869 0.001857 0.000000 0.029402 0.000000
# 6 0.000000 0.000000 0.000000 0.022667 0.000000 0.059070
#
#
# Mechanical properties :
#
#
# Convention : Reuss Voigt Hill
#
# Bulk Modulus (GPa) = 22.99485 41.38695 32.19090
# Shear Modulus (GPa) = 19.85762 28.28197 24.06980
#
# Velocity S-wave (km/s) = 3.12012 3.72360 3.43514
# Velocity P-wave (km/s) = 4.92477 6.22710 5.61383
#
# Compressibility (1/GPa) = 0.04348801
#
# Stress axis : x y z
#
# Youngs Moduli (GPa) = 63.60602 21.47581 117.94975
#
# Poissons Ratio (x) = 0.14428 0.30930
# Poissons Ratio (y) = 0.42732 0.50687
# Poissons Ratio (z) = 0.16680 0.09229
#
# Static dielectric constant tensor:
#      x y z
#    x 3.867800 0.000000 -0.023630 
#    y 0.000000 3.543930 0.000000 
#    z -0.023630 0.000000 3.619710 
# 
# 
# High freq. dielectric constant tensor:
#      x y z
#    x 1.815330 0.000000 -0.002800 
#    y 0.000000 1.775450 0.000000 
#    z -0.002800 0.000000 1.794100 
# 
# From -- ./inp_files/7615.got.cif
#   From: 2010.06.25/outbox.cif.g09.slc.cpg/sg9_4_cif.got.tgz:7615.got - 2010.06.27 21:40:51.
