data_PCOD8055954
_publ_section_title
;
Structure prediction by ZEFSAII (Michael W. Deem and Ramdas Pophale) SiO2 
 PCOD8055954
Probable space group: C C
;
_chemical_formula_sum "Si O2"
_cell_formula_units_Z 20
_cell_length_a 8.646550
_cell_length_b 9.817263
_cell_length_c 10.955533
_cell_angle_alpha 90.000000
_cell_angle_beta 81.928620
_cell_angle_gamma 90.000000
_cell_volume 920.753093
_symmetry_space_group_name_H-M "C C"
_symmetry_group_IT_number 9
_symmetry_cell_setting 'monoclinic'
loop_
_space_group_symop_operation_xyz
x,y,z
x,-y,1/2+z
1/2+x,1/2+y,z
1/2+x,1/2-y,1/2+z
loop_
_atom_site_type_symbol
_atom_site_label
_atom_site_fract_x
_atom_site_fract_y
_atom_site_fract_z
Si Si1 0.799630 0.919074 0.316260
Si Si2 0.458261 0.777231 0.972910
Si Si3 0.732389 0.739927 0.106976
Si Si4 0.953716 0.580751 0.925278
Si Si5 0.915854 0.795996 0.735004
O O1 0.934992 0.837660 0.372653
O O2 0.795706 0.869376 0.175836
O O3 0.639464 0.896307 0.408040
O O4 0.831069 0.079331 0.309163
O O5 0.640997 0.787256 0.993395
O O6 0.355133 0.737629 0.104448
O O7 0.406821 0.922141 0.922259
O O8 0.602244 0.666212 0.207447
O O9 0.877229 0.642713 0.057026
O O10 0.885357 0.659057 0.815696
#
# Coordination Sequence:
#
# PCOD8055954 Si02
#       5
#     4   4   4   4   4
#     4  11  24  44  71  94 137 180 213 279 330 388
#     4  10  25  43  68  96 133 180 215 276 330 387
#     4   9  24  43  65 101 133 170 229 266 327 399
#     4  11  23  44  69  97 135 169 228 269 328 393
#     4   9  24  44  65  98 136 169 223 266 331 393
#
# _framework density 21.721349
#
# number of rings (size 3 to 8) (size 9 to 14) (size 15 to 20)
#    1.200    0.800    0.000    1.200    8.400    4.800 
#    7.200    0.000    0.000    0.000    0.000    0.000 
#    0.000    0.000    0.000    0.000    0.000    0.000 
#
# Total GULP energy -123903.646898 kJ/mol
# GULP energy per Si atom -12390.364690 kJ/mol
# Density = 2.167191 g / cm^3
# Si number density = 21.721349 Si / 1000 Ang^3
#
#
#
# Elastic Constant Matrix: (Units=GPa)
#
#
# Indices 1 2 3 4 5 6 
#
# 1 64.1316 41.0985 46.6072 0.0000 -4.0570 0.0000
# 2 41.0985 162.4414 73.2076 0.0000 9.3142 0.0000
# 3 46.6072 73.2076 102.5472 0.0000 8.3133 0.0000
# 4 0.0000 0.0000 0.0000 46.3191 0.0000 -3.1324
# 5 -4.0570 9.3142 8.3133 0.0000 45.8566 0.0000
# 6 0.0000 0.0000 0.0000 -3.1324 0.0000 26.7156
#
#
#
# Elastic Compliance Matrix: (Units=1/GPa)
#
#
# Indices 1 2 3 4 5 6 
#
# 1 0.024422 -0.001869 -0.010120 0.000000 0.004375 0.000000
# 2 -0.001869 0.009240 -0.005665 0.000000 -0.001015 0.000000
# 3 -0.010120 -0.005665 0.018649 0.000000 -0.003126 0.000000
# 4 0.000000 0.000000 0.000000 0.021762 0.000000 0.002552
# 5 0.004375 -0.001015 -0.003126 0.000000 0.022967 0.000000
# 6 0.000000 0.000000 0.000000 0.002552 0.000000 0.037730
#
#
# Mechanical properties :
#
#
# Convention : Reuss Voigt Hill
#
# Bulk Modulus (GPa) = 58.81269 72.32744 65.57006
# Shear Modulus (GPa) = 28.45023 34.99206 31.72115
#
# Velocity S-wave (km/s) = 3.62302 4.01802 3.82562
# Velocity P-wave (km/s) = 6.68105 7.40919 7.05452
#
# Compressibility (1/GPa) = 0.01700313
#
# Stress axis : x y z
#
# Youngs Moduli (GPa) = 40.94639 108.22496 53.62344
#
# Poissons Ratio (x) = 0.20226 0.54268
# Poissons Ratio (y) = 0.07652 0.30376
# Poissons Ratio (z) = 0.41439 0.61306
#
# Static dielectric constant tensor:
#      x y z
#    x 3.675820 0.000000 -0.103480 
#    y 0.000000 3.675530 0.000000 
#    z -0.103480 0.000000 3.892050 
# 
# 
# High freq. dielectric constant tensor:
#      x y z
#    x 1.831720 0.000000 -0.013220 
#    y 0.000000 1.845590 0.000000 
#    z -0.013220 0.000000 1.855010 
# 
# From -- ./inp_files/13957.got.cif
#   From: 2010.06.25/outbox.cif.g09.slc.cpg/sg9_7_cif.got.tgz:13957.got - 2010.06.27 21:40:51.
