data_PCOD8055599
_publ_section_title
;
Structure prediction by ZEFSAII (Michael W. Deem and Ramdas Pophale) SiO2 
 PCOD8055599
Probable space group: C C
;
_chemical_formula_sum "Si O2"
_cell_formula_units_Z 28
_cell_length_a 15.820061
_cell_length_b 7.785317
_cell_length_c 20.306450
_cell_angle_alpha 90.000000
_cell_angle_beta 29.233819
_cell_angle_gamma 90.000000
_cell_volume 1221.438834
_symmetry_space_group_name_H-M "C C"
_symmetry_group_IT_number 9
_symmetry_cell_setting 'monoclinic'
loop_
_space_group_symop_operation_xyz
x,y,z
x,-y,1/2+z
1/2+x,1/2+y,z
1/2+x,1/2-y,1/2+z
loop_
_atom_site_type_symbol
_atom_site_label
_atom_site_fract_x
_atom_site_fract_y
_atom_site_fract_z
Si Si1 0.149440 0.641792 0.925100
Si Si2 0.074725 0.140558 0.858489
Si Si3 0.697629 0.754916 0.634137
Si Si4 0.084368 0.359458 0.206628
Si Si5 0.961463 0.245079 0.430978
Si Si6 0.009845 0.141709 0.639840
Si Si7 0.829592 0.814394 0.782517
O O1 0.014689 0.636869 0.956468
O O2 0.329628 0.733730 0.782434
O O3 0.192389 0.441313 0.913871
O O4 0.079770 0.750103 0.032390
O O5 0.115230 0.174389 0.754975
O O6 0.237267 0.195394 0.791913
O O7 0.040949 0.940754 0.891219
O O8 0.905076 0.244516 0.996791
O O9 0.644435 0.636819 0.608636
O O10 0.618171 0.940750 0.673858
O O11 0.043792 0.325673 0.310188
O O12 0.921850 0.304623 0.273176
O O13 0.254017 0.255469 0.068351
O O14 0.966874 0.941220 0.651105
#
# Coordination Sequence:
#
# PCOD8055599 Si02
#       7
#     4   4   4   4   4   4   4
#     4  10  23  42  71  98 135 178 225 275 339 400
#     4  11  26  45  72 102 138 179 233 279 340 406
#     4  11  25  46  71 100 136 185 227 280 342 407
#     4  11  26  45  72 102 138 179 233 279 340 406
#     4  11  25  46  71 100 136 185 227 280 342 407
#     4  10  23  42  71  98 135 178 225 275 339 400
#     4  10  26  44  68 104 138 176 226 286 340 396
#
# _framework density 22.923784999999999
#
# number of rings (size 3 to 8) (size 9 to 14) (size 15 to 20)
#    0.857    0.571    0.000    3.429   10.000    8.000 
#    0.000    0.000    0.000    0.000    0.000    0.000 
#    0.000    0.000    0.000    0.000    0.000    0.000 
#
# Total GULP energy -173586.283551 kJ/mol
# GULP energy per Si atom -12399.020254 kJ/mol
# Density = 2.287161 g / cm^3
# Si number density = 22.923785 Si / 1000 Ang^3
#
#
#
# Elastic Constant Matrix: (Units=GPa)
#
#
# Indices 1 2 3 4 5 6 
#
# 1 156.5947 53.7316 43.4889 -0.0010 -12.4081 0.0003
# 2 53.7316 53.1637 30.8986 -0.0080 -13.7954 0.0021
# 3 43.4889 30.8986 96.7574 -0.0067 6.9419 0.0014
# 4 -0.0010 -0.0080 -0.0067 -53.9843 -0.0014 -5.0861
# 5 -12.4081 -13.7954 6.9419 -0.0014 43.4796 0.0002
# 6 0.0003 0.0021 0.0014 -5.0861 0.0002 36.4982
#
#
#
# Elastic Compliance Matrix: (Units=1/GPa)
#
#
# Indices 1 2 3 4 5 6 
#
# 1 0.009964 -0.009090 -0.001591 0.000001 0.000213 0.000001
# 2 -0.009090 0.035081 -0.007819 -0.000004 0.009785 -0.000002
# 3 -0.001591 -0.007819 0.013917 0.000000 -0.005157 0.000000
# 4 0.000001 -0.000004 0.000000 -0.018284 -0.000001 -0.002548
# 5 0.000213 0.009785 -0.005157 -0.000001 0.026988 -0.000001
# 6 0.000001 -0.000002 0.000000 -0.002548 -0.000001 0.027044
#
#
# Mechanical properties :
#
#
# Convention : Reuss Voigt Hill
#
# Bulk Modulus (GPa) = 45.53447 62.52822 54.03135
# Shear Modulus (GPa) = 35.96367 17.09179 26.52773
#
# Velocity S-wave (km/s) = 3.96515 2.73352 3.40548
# Velocity P-wave (km/s) = 6.39295 6.10726 6.25173
#
# Compressibility (1/GPa) = 0.02196138
#
# Stress axis : x y z
#
# Youngs Moduli (GPa) = 100.36463 28.50584 71.85471
#
# Poissons Ratio (x) = 0.25913 0.11430
# Poissons Ratio (y) = 0.91234 0.56183
# Poissons Ratio (z) = 0.15965 0.22289
#
# Static dielectric constant tensor:
#      x y z
#    x 3.880260 0.000010 -0.115530 
#    y 0.000010 4.065680 -0.000010 
#    z -0.115530 -0.000010 4.201840 
# 
# 
# High freq. dielectric constant tensor:
#      x y z
#    x 1.910490 0.000000 -0.012750 
#    y 0.000000 1.908110 0.000000 
#    z -0.012750 0.000000 1.908190 
# 
# From -- ./inp_files/33690.got.cif
#   From: 2010.06.25/outbox.cif.g09.slc.cpg/sg9_17_cif.got.tgz:33690.got - 2010.06.27 21:40:51.
