data_PCOD8055600
_publ_section_title
;
Structure prediction by ZEFSAII (Michael W. Deem and Ramdas Pophale) SiO2 
 PCOD8055600
Probable space group: C C
;
_chemical_formula_sum "Si O2"
_cell_formula_units_Z 28
_cell_length_a 7.710940
_cell_length_b 18.045366
_cell_length_c 14.822570
_cell_angle_alpha 90.000000
_cell_angle_beta 144.373490
_cell_angle_gamma 90.000000
_cell_volume 1201.411546
_symmetry_space_group_name_H-M "C C"
_symmetry_group_IT_number 9
_symmetry_cell_setting 'monoclinic'
loop_
_space_group_symop_operation_xyz
x,y,z
x,-y,1/2+z
1/2+x,1/2+y,z
1/2+x,1/2-y,1/2+z
loop_
_atom_site_type_symbol
_atom_site_label
_atom_site_fract_x
_atom_site_fract_y
_atom_site_fract_z
Si Si1 0.850800 0.807669 0.204880
Si Si2 0.218180 0.174331 0.032701
Si Si3 0.333860 0.917586 0.939874
Si Si4 0.494154 0.013919 0.834307
Si Si5 0.963147 0.675463 0.868964
Si Si6 0.086185 0.994391 0.504631
Si Si7 0.322564 0.696982 0.189377
O O1 0.704756 0.730155 0.111815
O O2 0.980237 0.795465 0.359395
O O3 0.122425 0.832638 0.256393
O O4 0.606153 0.872266 0.097927
O O5 0.557105 0.170997 0.142212
O O6 0.123069 0.093509 0.022149
O O7 0.068284 0.866695 0.792251
O O8 0.443846 0.963563 0.900376
O O9 0.220092 0.972341 0.969976
O O10 0.597980 0.094674 0.910746
O O11 0.741989 0.981792 0.869897
O O12 0.209405 0.025258 0.651177
O O13 0.972353 0.726110 0.783983
O O14 0.182011 0.714584 0.032939
#
# Coordination Sequence:
#
# PCOD8055600 Si02
#       7
#     4   4   4   4   4   4   4
#     4  10  23  42  73 100 143 185 235 291 355 414
#     4  10  23  44  68 104 141 186 236 290 349 427
#     4  12  26  46  74 106 144 186 236 298 354 418
#     4  12  27  45  73 105 144 187 239 290 358 422
#     4  10  23  44  68 104 141 186 236 290 349 427
#     4  12  27  45  73 105 144 187 239 290 358 422
#     4  10  23  42  73 100 143 185 235 291 355 414
#
# _framework density 23.305918999999999
#
# number of rings (size 3 to 8) (size 9 to 14) (size 15 to 20)
#    0.000    1.143    0.000    5.143    6.000    4.571 
#    0.000    0.000    0.000    0.000    0.000    0.000 
#    0.000    0.000    0.000    0.000    0.000    0.000 
#
# Total GULP energy -173628.727916 kJ/mol
# GULP energy per Si atom -12402.051994 kJ/mol
# Density = 2.325287 g / cm^3
# Si number density = 23.305919 Si / 1000 Ang^3
#
#
#
# Elastic Constant Matrix: (Units=GPa)
#
#
# Indices 1 2 3 4 5 6 
#
# 1 117.9023 57.4975 36.2154 -0.0011 3.7833 0.0014
# 2 57.4975 130.8942 53.8552 0.0006 0.6506 0.0011
# 3 36.2154 53.8552 124.5248 0.0029 -0.2739 0.0042
# 4 -0.0011 0.0006 0.0029 40.2330 0.0023 -0.6649
# 5 3.7833 0.6506 -0.2739 0.0023 29.3217 0.0021
# 6 0.0014 0.0011 0.0042 -0.6649 0.0021 19.5134
#
#
#
# Elastic Compliance Matrix: (Units=1/GPa)
#
#
# Indices 1 2 3 4 5 6 
#
# 1 0.011029 -0.004278 -0.001360 0.000001 -0.001341 0.000000
# 2 -0.004278 0.010955 -0.003493 0.000000 0.000276 0.000000
# 3 -0.001360 -0.003493 0.009938 -0.000001 0.000346 -0.000002
# 4 0.000001 0.000000 -0.000001 0.024869 -0.000002 0.000847
# 5 -0.001341 0.000276 0.000346 -0.000002 0.034275 -0.000004
# 6 0.000000 0.000000 -0.000002 0.000847 -0.000004 0.051276
#
#
# Mechanical properties :
#
#
# Convention : Reuss Voigt Hill
#
# Bulk Modulus (GPa) = 73.21518 74.27304 73.74411
# Shear Modulus (GPa) = 30.27440 32.86386 31.56913
#
# Velocity S-wave (km/s) = 3.60807 3.75921 3.68442
# Velocity P-wave (km/s) = 6.98861 7.12602 7.05765
#
# Compressibility (1/GPa) = 0.01365837
#
# Stress axis : x y z
#
# Youngs Moduli (GPa) = 90.67156 91.28382 100.62888
#
# Poissons Ratio (x) = 0.39054 0.13687
# Poissons Ratio (y) = 0.38792 0.35149
# Poissons Ratio (z) = 0.12333 0.31885
#
# Static dielectric constant tensor:
#      x y z
#    x 4.239830 0.000000 0.140600 
#    y 0.000000 4.131310 0.000000 
#    z 0.140600 0.000000 4.401310 
# 
# 
# High freq. dielectric constant tensor:
#      x y z
#    x 1.932310 0.000000 0.008230 
#    y 0.000000 1.920800 0.000000 
#    z 0.008230 0.000000 1.941060 
# 
# From -- ./inp_files/23797.got.cif
#   From: 2010.06.25/outbox.cif.g09.slc.cpg/sg9_12_cif.got.tgz:23797.got - 2010.06.27 21:40:51.
