data_PCOD8055097
_publ_section_title
;
Structure prediction by ZEFSAII (Michael W. Deem and Ramdas Pophale) SiO2 
 PCOD8055097
Probable space group: C C
;
_chemical_formula_sum "Si O2"
_cell_formula_units_Z 32
_cell_length_a 12.157495
_cell_length_b 10.338431
_cell_length_c 13.780555
_cell_angle_alpha 90.000000
_cell_angle_beta 62.652575
_cell_angle_gamma 90.000000
_cell_volume 1538.489178
_symmetry_space_group_name_H-M "C C"
_symmetry_group_IT_number 9
_symmetry_cell_setting 'monoclinic'
loop_
_space_group_symop_operation_xyz
x,y,z
x,-y,1/2+z
1/2+x,1/2+y,z
1/2+x,1/2-y,1/2+z
loop_
_atom_site_type_symbol
_atom_site_label
_atom_site_fract_x
_atom_site_fract_y
_atom_site_fract_z
Si Si1 0.079070 0.080220 0.645790
Si Si2 0.174715 0.439635 0.132055
Si Si3 0.914182 0.846328 0.686760
Si Si4 0.343848 0.040018 0.035321
Si Si5 0.539194 0.842440 0.007443
Si Si6 0.637763 0.183350 0.251180
Si Si7 0.481536 0.189663 0.831569
Si Si8 0.924041 0.811151 0.042496
O O1 0.102804 0.174178 0.727768
O O2 0.034539 0.166345 0.573328
O O3 0.204030 0.002873 0.571324
O O4 0.969288 0.977931 0.711246
O O5 0.103245 0.574675 0.185020
O O6 0.324188 0.428966 0.084149
O O7 0.117008 0.338983 0.233363
O O8 0.145918 0.405445 0.031334
O O9 0.780373 0.857794 0.696198
O O10 0.897610 0.740610 0.777892
O O11 0.006929 0.798300 0.563757
O O12 0.350130 0.175725 0.092650
O O13 0.413104 0.062782 0.903604
O O14 0.415290 0.928998 0.065362
O O15 0.580087 0.832997 0.880157
O O16 0.492449 0.300038 0.910379
#
# Coordination Sequence:
#
# PCOD8055097 Si02
#       8
#     4   4   4   4   4   4   4   4
#     4  12  25  43  67  99 141 173 231 281 335 411
#     4  11  21  43  71  93 138 179 225 287 336 408
#     4  11  24  44  64  99 136 178 228 283 337 404
#     4  10  21  44  64  97 134 173 228 274 343 401
#     4  11  23  44  70  94 138 182 224 284 343 404
#     4  12  24  43  67 103 131 183 230 279 343 404
#     4   9  22  42  68  94 130 182 224 273 350 394
#     4  10  22  43  65  99 134 172 226 281 333 408
#
# _framework density 20.799626
#
# number of rings (size 3 to 8) (size 9 to 14) (size 15 to 20)
#    0.750    0.500    3.750    3.000    1.750    1.000 
#    4.500    0.000    0.000    0.000    0.000    0.000 
#    0.000    0.000    0.000    0.000    0.000    0.000 
#
# Total GULP energy -198242.416686 kJ/mol
# GULP energy per Si atom -12390.151043 kJ/mol
# Density = 2.075229 g / cm^3
# Si number density = 20.799626 Si / 1000 Ang^3
#
#
#
# Elastic Constant Matrix: (Units=GPa)
#
#
# Indices 1 2 3 4 5 6 
#
# 1 110.7564 29.0424 19.8372 0.0000 -5.9615 0.0000
# 2 29.0424 97.6685 26.6766 0.0000 -0.9476 0.0000
# 3 19.8372 26.6766 74.9463 0.0000 8.0444 0.0000
# 4 0.0000 0.0000 0.0000 27.5752 0.0000 0.9747
# 5 -5.9615 -0.9476 8.0444 0.0000 13.1340 0.0000
# 6 0.0000 0.0000 0.0000 0.9747 0.0000 42.8615
#
#
#
# Elastic Compliance Matrix: (Units=1/GPa)
#
#
# Indices 1 2 3 4 5 6 
#
# 1 0.010437 -0.002336 -0.002592 0.000000 0.006156 0.000000
# 2 -0.002336 0.012018 -0.003895 0.000000 0.002193 0.000000
# 3 -0.002592 -0.003895 0.016667 0.000000 -0.011666 0.000000
# 4 0.000000 0.000000 0.000000 0.036294 0.000000 -0.000825
# 5 0.006156 0.002193 -0.011666 0.000000 0.086236 0.000000
# 6 0.000000 0.000000 0.000000 -0.000825 0.000000 0.023350
#
#
# Mechanical properties :
#
#
# Convention : Reuss Voigt Hill
#
# Bulk Modulus (GPa) = 46.56030 48.27595 47.41812
# Shear Modulus (GPa) = 23.83143 30.56846 27.19995
#
# Velocity S-wave (km/s) = 3.38858 3.83778 3.62015
# Velocity P-wave (km/s) = 6.14359 6.54969 6.34989
#
# Compressibility (1/GPa) = 0.02147753
#
# Stress axis : x y z
#
# Youngs Moduli (GPa) = 95.81385 83.20565 59.99709
#
# Poissons Ratio (x) = 0.19435 0.15550
# Poissons Ratio (y) = 0.22380 0.23369
# Poissons Ratio (z) = 0.24834 0.32408
#
# Static dielectric constant tensor:
#      x y z
#    x 3.677960 0.000000 0.072690 
#    y 0.000000 3.859390 0.000000 
#    z 0.072690 0.000000 3.500660 
# 
# 
# High freq. dielectric constant tensor:
#      x y z
#    x 1.813660 0.000000 0.004350 
#    y 0.000000 1.816600 0.000000 
#    z 0.004350 0.000000 1.801130 
# 
# From -- ./inp_files/24631.got.cif
#   From: 2010.06.25/outbox.cif.g09.slc.cpg/sg9_13_cif.got.tgz:24631.got - 2010.06.27 21:40:51.
