data_PCOD8055165
_publ_section_title
;
Structure prediction by ZEFSAII (Michael W. Deem and Ramdas Pophale) SiO2 
 PCOD8055165
Probable space group: C C
;
_chemical_formula_sum "Si O2"
_cell_formula_units_Z 32
_cell_length_a 15.785060
_cell_length_b 19.994834
_cell_length_c 14.990467
_cell_angle_alpha 90.000000
_cell_angle_beta 161.242525
_cell_angle_gamma 90.000000
_cell_volume 1521.406535
_symmetry_space_group_name_H-M "C C"
_symmetry_group_IT_number 9
_symmetry_cell_setting 'monoclinic'
loop_
_space_group_symop_operation_xyz
x,y,z
x,-y,1/2+z
1/2+x,1/2+y,z
1/2+x,1/2-y,1/2+z
loop_
_atom_site_type_symbol
_atom_site_label
_atom_site_fract_x
_atom_site_fract_y
_atom_site_fract_z
Si Si1 0.034590 0.790427 0.224690
Si Si2 0.185099 0.457786 0.668807
Si Si3 0.179369 0.085257 0.762405
Si Si4 0.171875 0.703939 0.837382
Si Si5 0.105104 0.963677 0.796537
Si Si6 0.348564 0.398143 0.377465
Si Si7 0.058750 0.794222 0.451469
Si Si8 0.115806 0.413085 0.403889
O O1 0.227713 0.726818 0.405144
O O2 0.133187 0.839479 0.246184
O O3 0.062369 0.818721 0.352688
O O4 0.185187 0.539222 0.672441
O O5 0.083136 0.425406 0.475645
O O6 0.980718 0.428903 0.536835
O O7 0.479518 0.432116 0.982687
O O8 0.120791 0.041773 0.791620
O O9 0.150908 0.651355 0.734234
O O10 0.156349 0.664878 0.916935
O O11 0.951455 0.759767 0.609809
O O12 0.064449 0.923943 0.663482
O O13 0.863444 0.956610 0.622049
O O14 0.362873 0.937813 0.100233
O O15 0.506514 0.360069 0.457618
O O16 0.341539 0.762492 0.756310
#
# Coordination Sequence:
#
# PCOD8055165 Si02
#       8
#     4   4   4   4   4   4   4   4
#     4  10  22  41  62  89 123 163 212 256 311 381
#     4  11  25  41  65  95 128 158 217 273 311 376
#     4  11  22  42  64  90 123 165 210 266 315 371
#     4  11  22  38  64  89 126 170 205 255 310 387
#     4  10  22  39  65  89 126 164 209 247 318 382
#     4  10  22  40  64  96 129 164 208 254 326 376
#     4  10  22  38  59  94 131 162 203 254 307 389
#     4  11  23  43  61  94 126 166 212 263 312 380
#
# _framework density 21.033169000000001
#
# number of rings (size 3 to 8) (size 9 to 14) (size 15 to 20)
#    0.000    1.500    0.000    6.000    1.750    5.000 
#    4.500    3.750    0.000    0.000    0.000    0.000 
#    0.000    0.000    0.000    0.000    0.000    0.000 
#
# Total GULP energy -198401.234177 kJ/mol
# GULP energy per Si atom -12400.077136 kJ/mol
# Density = 2.098530 g / cm^3
# Si number density = 21.033169 Si / 1000 Ang^3
#
#
#
# Elastic Constant Matrix: (Units=GPa)
#
#
# Indices 1 2 3 4 5 6 
#
# 1 88.8466 49.5333 20.4555 0.0107 3.2730 0.0022
# 2 49.5333 88.2581 10.2949 0.0014 -5.3135 0.0004
# 3 20.4555 10.2949 93.4640 0.0172 9.2886 0.0057
# 4 0.0107 0.0014 0.0172 22.6735 0.0118 4.8832
# 5 3.2730 -5.3135 9.2886 0.0118 31.9066 0.0023
# 6 0.0022 0.0004 0.0057 4.8832 0.0023 40.4459
#
#
#
# Elastic Compliance Matrix: (Units=1/GPa)
#
#
# Indices 1 2 3 4 5 6 
#
# 1 0.017243 -0.009550 -0.002459 -0.000004 -0.002643 0.000000
# 2 -0.009550 0.016940 -0.000158 0.000002 0.003847 0.000000
# 3 -0.002459 -0.000158 0.011567 -0.000006 -0.003141 -0.000001
# 4 -0.000004 0.000002 -0.000006 0.045282 -0.000014 -0.005467
# 5 -0.002643 0.003847 -0.003141 -0.000014 0.033168 0.000000
# 6 0.000000 0.000000 -0.000001 -0.005467 0.000000 0.025384
#
#
# Mechanical properties :
#
#
# Convention : Reuss Voigt Hill
#
# Bulk Modulus (GPa) = 46.69384 47.90401 47.29893
# Shear Modulus (GPa) = 27.61565 31.69087 29.65326
#
# Velocity S-wave (km/s) = 3.62741 3.88585 3.75885
# Velocity P-wave (km/s) = 6.30812 6.55423 6.43235
#
# Compressibility (1/GPa) = 0.02141610
#
# Stress axis : x y z
#
# Youngs Moduli (GPa) = 57.99471 59.03195 86.45164
#
# Poissons Ratio (x) = 0.56373 0.21260
# Poissons Ratio (y) = 0.55382 0.01368
# Poissons Ratio (z) = 0.14262 0.00934
#
# Static dielectric constant tensor:
#      x y z
#    x 3.791280 -0.000020 0.061280 
#    y -0.000020 3.869220 -0.000010 
#    z 0.061280 -0.000010 3.807680 
# 
# 
# High freq. dielectric constant tensor:
#      x y z
#    x 1.819320 0.000000 0.010520 
#    y 0.000000 1.818960 0.000000 
#    z 0.010520 0.000000 1.834280 
# 
# From -- ./inp_files/2576.got.cif
#   From: 2010.06.25/outbox.cif.g09.slc.cpg/sg9_2_cif.got.tgz:2576.got - 2010.06.27 21:40:51.
