data_PCOD8055099
_publ_section_title
;
Structure prediction by ZEFSAII (Michael W. Deem and Ramdas Pophale) SiO2 
 PCOD8055099
Probable space group: C C
;
_chemical_formula_sum "Si O2"
_cell_formula_units_Z 28
_cell_length_a 10.248399
_cell_length_b 9.652013
_cell_length_c 26.084254
_cell_angle_alpha 90.000000
_cell_angle_beta 31.252585
_cell_angle_gamma 90.000000
_cell_volume 1338.635115
_symmetry_space_group_name_H-M "C C"
_symmetry_group_IT_number 9
_symmetry_cell_setting 'monoclinic'
loop_
_space_group_symop_operation_xyz
x,y,z
x,-y,1/2+z
1/2+x,1/2+y,z
1/2+x,1/2-y,1/2+z
loop_
_atom_site_type_symbol
_atom_site_label
_atom_site_fract_x
_atom_site_fract_y
_atom_site_fract_z
Si Si1 0.798580 0.485192 0.945190
Si Si2 0.425063 0.690868 0.913254
Si Si3 0.506912 0.873433 0.628720
Si Si4 0.287631 0.404027 0.639308
Si Si5 0.129681 0.875716 0.236105
Si Si6 0.238600 0.307365 0.290070
Si Si7 0.270775 0.969582 0.842921
O O1 0.946107 0.354934 0.920113
O O2 0.685041 0.434895 0.929080
O O3 0.973540 0.617201 0.875998
O O4 0.558483 0.528804 0.059475
O O5 0.451628 0.664300 0.843904
O O6 0.649598 0.613051 0.866072
O O7 0.152256 0.641124 0.025872
O O8 0.713850 0.899842 0.603784
O O9 0.351728 0.733674 0.696128
O O10 0.308845 0.997635 0.689474
O O11 0.302131 0.252346 0.660272
O O12 0.073373 0.492170 0.740522
O O13 0.933977 0.905539 0.255471
O O14 0.196593 0.159265 0.332107
#
# Coordination Sequence:
#
# PCOD8055099 Si02
#       7
#     4   4   4   4   4   4   4
#     4  12  25  41  67  99 130 167 223 264 326 390
#     4  12  22  41  68  97 126 172 220 261 322 393
#     4  10  22  41  69  94 128 172 222 258 325 393
#     4  10  22  41  65  93 132 169 212 271 323 377
#     4  10  21  44  65  94 131 169 215 270 325 380
#     4  10  24  45  64  94 136 167 209 275 322 379
#     4  10  22  45  64  91 131 174 215 265 325 380
#
# _framework density 20.916829
#
# number of rings (size 3 to 8) (size 9 to 14) (size 15 to 20)
#    0.000    1.714    7.143    0.000    4.000    1.143 
#    5.143    0.000    0.000    0.000    0.000    0.000 
#    0.000    0.000    0.000    0.000    0.000    0.000 
#
# Total GULP energy -173492.910142 kJ/mol
# GULP energy per Si atom -12392.350724 kJ/mol
# Density = 2.086922 g / cm^3
# Si number density = 20.916829 Si / 1000 Ang^3
#
#
#
# Elastic Constant Matrix: (Units=GPa)
#
#
# Indices 1 2 3 4 5 6 
#
# 1 48.6543 38.4208 24.4536 -0.0001 2.3256 -0.0001
# 2 38.4208 110.7273 60.9301 -0.0001 -16.2325 0.0003
# 3 24.4536 60.9301 137.8581 0.0013 -3.5001 0.0016
# 4 -0.0001 -0.0001 0.0013 38.4082 -0.0005 -5.5889
# 5 2.3256 -16.2325 -3.5001 -0.0005 33.4990 -0.0008
# 6 -0.0001 0.0003 0.0016 -5.5889 -0.0008 32.7429
#
#
#
# Elastic Compliance Matrix: (Units=1/GPa)
#
#
# Indices 1 2 3 4 5 6 
#
# 1 0.030073 -0.011240 -0.000559 0.000000 -0.007593 0.000000
# 2 -0.011240 0.017131 -0.005361 0.000000 0.008521 0.000000
# 3 -0.000559 -0.005361 0.009683 0.000000 -0.001547 -0.000001
# 4 0.000000 0.000000 0.000000 0.026699 0.000001 0.004557
# 5 -0.007593 0.008521 -0.001547 0.000001 0.034346 0.000001
# 6 0.000000 0.000000 -0.000001 0.004557 0.000001 0.031319
#
#
# Mechanical properties :
#
#
# Convention : Reuss Voigt Hill
#
# Bulk Modulus (GPa) = 44.31506 60.53872 52.42689
# Shear Modulus (GPa) = 26.16496 32.49239 29.32867
#
# Velocity S-wave (km/s) = 3.54065 3.94561 3.74860
# Velocity P-wave (km/s) = 6.16013 7.05425 6.62230
#
# Compressibility (1/GPa) = 0.02256569
#
# Stress axis : x y z
#
# Youngs Moduli (GPa) = 33.25197 58.37453 103.27077
#
# Poissons Ratio (x) = 0.65615 0.05776
# Poissons Ratio (y) = 0.37377 0.55366
# Poissons Ratio (z) = 0.01860 0.31296
#
# Static dielectric constant tensor:
#      x y z
#    x 3.602610 0.000000 0.198300 
#    y 0.000000 3.734950 0.000010 
#    z 0.198300 0.000010 3.990280 
# 
# 
# High freq. dielectric constant tensor:
#      x y z
#    x 1.797900 0.000000 0.012940 
#    y 0.000000 1.815010 0.000000 
#    z 0.012940 0.000000 1.832170 
# 
# From -- ./inp_files/24077.got.cif
#   From: 2010.06.25/outbox.cif.g09.slc.cpg/sg9_13_cif.got.tgz:24077.got - 2010.06.27 21:40:51.
