data_PCOD8055017
_publ_section_title
;
Structure prediction by ZEFSAII (Michael W. Deem and Ramdas Pophale) SiO2 
 PCOD8055017
Probable space group: C C
;
_chemical_formula_sum "Si O2"
_cell_formula_units_Z 32
_cell_length_a 8.304177
_cell_length_b 14.852017
_cell_length_c 22.956775
_cell_angle_alpha 90.000000
_cell_angle_beta 147.808847
_cell_angle_gamma 90.000000
_cell_volume 1508.387039
_symmetry_space_group_name_H-M "C C"
_symmetry_group_IT_number 9
_symmetry_cell_setting 'monoclinic'
loop_
_space_group_symop_operation_xyz
x,y,z
x,-y,1/2+z
1/2+x,1/2+y,z
1/2+x,1/2-y,1/2+z
loop_
_atom_site_type_symbol
_atom_site_label
_atom_site_fract_x
_atom_site_fract_y
_atom_site_fract_z
Si Si1 0.006000 0.113234 0.922510
Si Si2 0.186180 0.455068 0.880357
Si Si3 0.619147 0.276794 0.842466
Si Si4 0.007466 0.005483 0.186271
Si Si5 0.603955 0.587369 0.829163
Si Si6 0.063834 0.559581 0.469873
Si Si7 0.402097 0.268949 0.906849
Si Si8 0.671860 0.817640 0.602944
O O1 0.893870 0.101832 0.821240
O O2 0.804004 0.185659 0.893003
O O3 0.355921 0.142785 0.030194
O O4 0.952192 0.017171 0.936109
O O5 0.199556 0.356556 0.856293
O O6 0.853008 0.498266 0.770285
O O7 0.251289 0.450054 0.968310
O O8 0.562360 0.286754 0.894106
O O9 0.335438 0.273756 0.710262
O O10 0.828570 0.360481 0.889409
O O11 0.888142 0.106302 0.142349
O O12 0.950083 0.977259 0.235365
O O13 0.825990 0.926974 0.097190
O O14 0.684863 0.684601 0.828060
O O15 0.907626 0.534406 0.941382
O O16 0.611601 0.250076 0.029009
#
# Coordination Sequence:
#
# PCOD8055017 Si02
#       8
#     4   4   4   4   4   4   4   4
#     4  11  25  44  68 101 142 176 232 289 338 418
#     4  11  25  43  68 101 137 180 230 287 341 419
#     4  12  25  45  72 102 141 183 234 287 347 416
#     4  11  23  43  74  96 139 183 229 285 362 405
#     4  10  21  42  65  96 135 175 223 283 342 409
#     4  11  21  43  68  98 136 178 224 288 343 409
#     4  11  25  44  68 101 142 178 232 286 343 415
#     4  11  25  46  71  99 142 185 230 291 354 405
#
# _framework density 21.214714000000001
#
# number of rings (size 3 to 8) (size 9 to 14) (size 15 to 20)
#    0.000    1.000    5.000    3.750    0.000    6.000 
#    0.000    0.000    0.000    0.000    0.000    0.000 
#    0.000    0.000    0.000    0.000    0.000    0.000 
#
# Total GULP energy -198242.024637 kJ/mol
# GULP energy per Si atom -12390.126540 kJ/mol
# Density = 2.116643 g / cm^3
# Si number density = 21.214714 Si / 1000 Ang^3
#
#
#
# Elastic Constant Matrix: (Units=GPa)
#
#
# Indices 1 2 3 4 5 6 
#
# 1 40.9374 4.9859 65.7624 -0.0040 3.7444 0.0020
# 2 4.9859 91.3676 27.3618 -0.0006 2.7526 0.0011
# 3 65.7624 27.3618 116.7566 -0.0012 -25.3692 -0.0006
# 4 -0.0040 -0.0006 -0.0012 20.1285 -0.0021 4.7507
# 5 3.7444 2.7526 -25.3692 -0.0021 23.4572 0.0020
# 6 0.0020 0.0011 -0.0006 4.7507 0.0020 36.1919
#
#
#
# Elastic Compliance Matrix: (Units=1/GPa)
#
#
# Indices 1 2 3 4 5 6 
#
# 1 -0.053262 -0.012643 0.045924 -0.000002 0.059653 0.000001
# 2 -0.012643 0.009384 0.006695 -0.000001 0.008157 0.000000
# 3 0.045924 0.006695 -0.026972 0.000004 -0.037287 -0.000002
# 4 -0.000002 -0.000001 0.000004 0.051269 0.000010 -0.006730
# 5 0.059653 0.008157 -0.037287 0.000010 -0.008175 -0.000005
# 6 0.000001 0.000000 -0.000002 -0.006730 -0.000005 0.028514
#
#
# Mechanical properties :
#
#
# Convention : Reuss Voigt Hill
#
# Bulk Modulus (GPa) = 109.88649 49.47576 79.68113
# Shear Modulus (GPa) = -65.65220 26.01892 -19.81664
#
# Velocity S-wave (km/s) = -5.56900 3.50588 -3.05962
# Velocity P-wave (km/s) = 3.24933 6.30558 5.01590
#
# Compressibility (1/GPa) = 0.00910030
#
# Stress axis : x y z
#
# Youngs Moduli (GPa) = -18.77519 106.56267 -37.07505
#
# Poissons Ratio (x) = 1.34732 1.70263
# Poissons Ratio (y) = -0.23738 0.24821
# Poissons Ratio (z) = 0.86223 -0.71340
#
# Static dielectric constant tensor:
#      x y z
#    x 3.905140 0.000000 -0.217270 
#    y 0.000000 4.098890 -0.000020 
#    z -0.217270 -0.000020 3.905490 
# 
# 
# High freq. dielectric constant tensor:
#      x y z
#    x 1.839010 0.000000 -0.014530 
#    y 0.000000 1.841410 0.000000 
#    z -0.014530 0.000000 1.822940 
# 
# From -- ./inp_files/35074.got.cif
#   From: 2010.06.25/outbox.cif.g09.slc.cpg/sg9_18_cif.got.tgz:35074.got - 2010.06.27 21:40:51.
