data_PCOD8055558
_publ_section_title
;
Structure prediction by ZEFSAII (Michael W. Deem and Ramdas Pophale) SiO2 
 PCOD8055558
Probable space group: C C
;
_chemical_formula_sum "Si O2"
_cell_formula_units_Z 32
_cell_length_a 15.509925
_cell_length_b 11.359924
_cell_length_c 19.143174
_cell_angle_alpha 90.000000
_cell_angle_beta 25.326584
_cell_angle_gamma 90.000000
_cell_volume 1442.835427
_symmetry_space_group_name_H-M "C C"
_symmetry_group_IT_number 9
_symmetry_cell_setting 'monoclinic'
loop_
_space_group_symop_operation_xyz
x,y,z
x,-y,1/2+z
1/2+x,1/2+y,z
1/2+x,1/2-y,1/2+z
loop_
_atom_site_type_symbol
_atom_site_label
_atom_site_fract_x
_atom_site_fract_y
_atom_site_fract_z
Si Si1 0.502040 0.481305 0.741570
Si Si2 0.091965 0.607566 0.593723
Si Si3 0.297132 0.209543 0.046010
Si Si4 0.227066 0.599464 0.700097
Si Si5 0.926589 0.925056 0.647535
Si Si6 0.693483 0.702979 0.833571
Si Si7 0.458120 0.303620 0.362762
Si Si8 0.091968 0.583297 0.196092
O O1 0.636230 0.389198 0.687871
O O2 0.558448 0.462831 0.618622
O O3 0.550348 0.611298 0.735340
O O4 0.265147 0.457760 0.924300
O O5 0.193208 0.718529 0.558878
O O6 0.986477 0.516417 0.725860
O O7 0.915829 0.645315 0.670824
O O8 0.348283 0.294880 0.073791
O O9 0.499830 0.143184 0.876732
O O10 0.343225 0.552679 0.683017
O O11 0.233024 0.483561 0.647821
O O12 0.736832 0.843077 0.810566
O O13 0.060023 0.851505 0.493819
O O14 0.597421 0.681916 0.828663
O O15 0.231293 0.335466 0.546222
O O16 0.441800 0.169688 0.346878
#
# Coordination Sequence:
#
# PCOD8055558 Si02
#       8
#     4   4   4   4   4   4   4   4
#     4  11  25  42  66 100 139 182 232 283 347 415
#     4  10  23  43  67 101 137 177 236 289 337 403
#     4  11  23  41  70  95 131 183 231 282 340 411
#     4  11  24  44  67  99 135 177 235 288 342 410
#     4  12  26  42  66 107 139 182 233 290 347 409
#     4  12  23  41  70 101 138 179 234 291 338 412
#     4  11  23  44  65 101 138 182 225 281 349 418
#     4  10  23  41  67  98 139 178 226 280 346 414
#
# _framework density 22.178552
#
# number of rings (size 3 to 8) (size 9 to 14) (size 15 to 20)
#    0.000    1.000    5.000    0.750    5.250    2.000 
#    0.000    5.000    0.000    0.000    0.000    0.000 
#    0.000    0.000    0.000    0.000    0.000    0.000 
#
# Total GULP energy -198302.930327 kJ/mol
# GULP energy per Si atom -12393.933145 kJ/mol
# Density = 2.212807 g / cm^3
# Si number density = 22.178552 Si / 1000 Ang^3
#
#
#
# Elastic Constant Matrix: (Units=GPa)
#
#
# Indices 1 2 3 4 5 6 
#
# 1 78.4554 25.4946 7.1072 0.0005 16.7256 -0.0005
# 2 25.4946 90.6655 14.8054 -0.0155 15.1139 0.0054
# 3 7.1072 14.8054 69.9483 -0.0184 9.8983 0.0086
# 4 0.0005 -0.0155 -0.0184 39.8528 0.0052 7.0418
# 5 16.7256 15.1139 9.8983 0.0052 26.4249 -0.0012
# 6 -0.0005 0.0054 0.0086 7.0418 -0.0012 28.9136
#
#
#
# Elastic Compliance Matrix: (Units=1/GPa)
#
#
# Indices 1 2 3 4 5 6 
#
# 1 0.015441 -0.003023 0.000221 0.000000 -0.008127 0.000000
# 2 -0.003023 0.012974 -0.001753 0.000006 -0.004851 -0.000003
# 3 0.000221 -0.001753 0.015336 0.000008 -0.004882 -0.000006
# 4 0.000000 0.000006 0.000008 0.026221 -0.000012 -0.006386
# 5 -0.008127 -0.004851 -0.004882 -0.000012 0.047590 0.000007
# 6 0.000000 -0.000003 -0.000006 -0.006386 0.000007 0.036141
#
#
# Mechanical properties :
#
#
# Convention : Reuss Voigt Hill
#
# Bulk Modulus (GPa) = 28.86706 37.09817 32.98262
# Shear Modulus (GPa) = 28.67629 31.81572 30.24601
#
# Velocity S-wave (km/s) = 3.59970 3.79162 3.69691
# Velocity P-wave (km/s) = 5.50646 5.99432 5.75556
#
# Compressibility (1/GPa) = 0.03464156
#
# Stress axis : x y z
#
# Youngs Moduli (GPa) = 64.76230 77.07428 65.20765
#
# Poissons Ratio (x) = 0.23302 -0.01441
# Poissons Ratio (y) = 0.19579 0.11428
# Poissons Ratio (z) = -0.01432 0.13508
#
# Static dielectric constant tensor:
#      x y z
#    x 3.948300 0.000000 0.226270 
#    y 0.000000 4.313320 0.000010 
#    z 0.226270 0.000010 3.890040 
# 
# 
# High freq. dielectric constant tensor:
#      x y z
#    x 1.854340 0.000000 0.013030 
#    y 0.000000 1.885130 0.000000 
#    z 0.013030 0.000000 1.869320 
# 
# From -- ./inp_files/11630.got.cif
#   From: 2010.06.25/outbox.cif.g09.slc.cpg/sg9_6_cif.got.tgz:11630.got - 2010.06.27 21:40:51.
