data_PCOD8055512
_publ_section_title
;
Structure prediction by ZEFSAII (Michael W. Deem and Ramdas Pophale) SiO2 
 PCOD8055512
Probable space group: C C
;
_chemical_formula_sum "Si O2"
_cell_formula_units_Z 28
_cell_length_a 7.712779
_cell_length_b 12.255199
_cell_length_c 13.935421
_cell_angle_alpha 90.000000
_cell_angle_beta 70.534017
_cell_angle_gamma 90.000000
_cell_volume 1241.907134
_symmetry_space_group_name_H-M "C C"
_symmetry_group_IT_number 9
_symmetry_cell_setting 'monoclinic'
loop_
_space_group_symop_operation_xyz
x,y,z
x,-y,1/2+z
1/2+x,1/2+y,z
1/2+x,1/2-y,1/2+z
loop_
_atom_site_type_symbol
_atom_site_label
_atom_site_fract_x
_atom_site_fract_y
_atom_site_fract_z
Si Si1 0.960640 0.366115 0.736680
Si Si2 0.708680 0.801081 0.530943
Si Si3 0.895229 0.767710 0.956603
Si Si4 0.047989 0.094369 0.263551
Si Si5 0.519617 0.906404 0.296403
Si Si6 0.999117 0.266357 0.121169
Si Si7 0.899350 0.865928 0.312802
O O1 0.753859 0.364668 0.738263
O O2 0.003063 0.249710 0.779409
O O3 0.097584 0.382146 0.621771
O O4 0.992178 0.463331 0.806863
O O5 0.562247 0.723904 0.502734
O O6 0.824148 0.874671 0.435276
O O7 0.849533 0.725190 0.564237
O O8 0.922406 0.862750 0.873751
O O9 0.900987 0.649250 0.903044
O O10 0.701503 0.783579 0.042110
O O11 0.978565 0.147857 0.176725
O O12 0.040509 0.963407 0.264288
O O13 0.455537 0.862212 0.204775
O O14 0.732366 0.875121 0.269077
#
# Coordination Sequence:
#
# PCOD8055512 Si02
#       7
#     4   4   4   4   4   4   4
#     4  12  24  47  70 103 143 182 239 284 354 418
#     4  11  24  43  71 105 139 184 240 285 348 420
#     4  10  22  49  68 102 148 179 238 295 345 423
#     4  11  24  46  74  98 148 189 224 300 354 408
#     4  10  24  45  69 101 143 184 232 294 348 419
#     4  11  23  45  72 108 137 189 235 289 357 418
#     4  11  25  49  68 103 142 185 234 293 348 420
#
# _framework density 22.545967999999998
#
# number of rings (size 3 to 8) (size 9 to 14) (size 15 to 20)
#    0.000    1.143    5.714    0.857    6.000    2.286 
#    7.714    0.000    0.000    0.000    0.000    0.000 
#    0.000    0.000    0.000    0.000    0.000    0.000 
#
# Total GULP energy -173634.463080 kJ/mol
# GULP energy per Si atom -12402.461649 kJ/mol
# Density = 2.249465 g / cm^3
# Si number density = 22.545968 Si / 1000 Ang^3
#
#
#
# Elastic Constant Matrix: (Units=GPa)
#
#
# Indices 1 2 3 4 5 6 
#
# 1 99.3224 24.9693 46.8738 0.0000 14.5700 0.0000
# 2 24.9693 156.5504 30.8308 0.0000 3.6455 0.0000
# 3 46.8738 30.8308 105.1716 0.0000 -0.4547 0.0000
# 4 0.0000 0.0000 0.0000 21.2923 0.0000 -0.1480
# 5 14.5700 3.6455 -0.4547 0.0000 32.6304 0.0000
# 6 0.0000 0.0000 0.0000 -0.1480 0.0000 26.0129
#
#
#
# Elastic Compliance Matrix: (Units=1/GPa)
#
#
# Indices 1 2 3 4 5 6 
#
# 1 0.014059 -0.000910 -0.006026 0.000000 -0.006260 0.000000
# 2 -0.000910 0.006858 -0.001607 0.000000 -0.000382 0.000000
# 3 -0.006026 -0.001607 0.012678 0.000000 0.003047 0.000000
# 4 0.000000 0.000000 0.000000 0.046967 0.000000 0.000267
# 5 -0.006260 -0.000382 0.003047 0.000000 0.033527 0.000000
# 6 0.000000 0.000000 0.000000 0.000267 0.000000 0.038444
#
#
# Mechanical properties :
#
#
# Convention : Reuss Voigt Hill
#
# Bulk Modulus (GPa) = 60.56903 62.93248 61.75076
# Shear Modulus (GPa) = 28.55138 33.21181 30.88160
#
# Velocity S-wave (km/s) = 3.56246 3.84222 3.70498
# Velocity P-wave (km/s) = 6.62152 6.90342 6.76394
#
# Compressibility (1/GPa) = 0.01651009
#
# Stress axis : x y z
#
# Youngs Moduli (GPa) = 71.12697 145.81220 78.87467
#
# Poissons Ratio (x) = 0.13266 0.47534
# Poissons Ratio (y) = 0.06471 0.12672
# Poissons Ratio (z) = 0.42864 0.23426
#
# Static dielectric constant tensor:
#      x y z
#    x 4.015020 0.000000 0.048120 
#    y 0.000000 4.027260 0.000000 
#    z 0.048120 0.000000 4.185930 
# 
# 
# High freq. dielectric constant tensor:
#      x y z
#    x 1.893670 0.000000 -0.002020 
#    y 0.000000 1.871430 0.000000 
#    z -0.002020 0.000000 1.894590 
# 
# From -- ./inp_files/22545.got.cif
#   From: 2010.06.25/outbox.cif.g09.slc.cpg/sg9_12_cif.got.tgz:22545.got - 2010.06.27 21:40:51.
