data_PCOD8055270
_publ_section_title
;
Structure prediction by ZEFSAII (Michael W. Deem and Ramdas Pophale) SiO2 
 PCOD8055270
Probable space group: C C
;
_chemical_formula_sum "Si O2"
_cell_formula_units_Z 28
_cell_length_a 7.283939
_cell_length_b 22.598131
_cell_length_c 7.932956
_cell_angle_alpha 90.000000
_cell_angle_beta 62.424449
_cell_angle_gamma 90.000000
_cell_volume 1157.455225
_symmetry_space_group_name_H-M "C C"
_symmetry_group_IT_number 9
_symmetry_cell_setting 'monoclinic'
loop_
_space_group_symop_operation_xyz
x,y,z
x,-y,1/2+z
1/2+x,1/2+y,z
1/2+x,1/2-y,1/2+z
loop_
_atom_site_type_symbol
_atom_site_label
_atom_site_fract_x
_atom_site_fract_y
_atom_site_fract_z
Si Si1 0.782200 0.781361 0.003990
Si Si2 0.553099 0.330874 0.586197
Si Si3 0.052640 0.541655 0.286530
Si Si4 0.917689 0.638208 0.571100
Si Si5 0.457090 0.665689 0.750123
Si Si6 0.814595 0.957842 0.369243
Si Si7 0.216383 0.948591 0.402388
O O1 0.755330 0.711355 0.981544
O O2 0.555536 0.809749 0.088001
O O3 0.859946 0.786752 0.164436
O O4 0.930234 0.812409 0.805316
O O5 0.421563 0.323112 0.466727
O O6 0.628104 0.399348 0.572472
O O7 0.263620 0.510990 0.264718
O O8 0.032880 0.608005 0.364325
O O9 0.843854 0.504283 0.421766
O O10 0.103733 0.549257 0.068436
O O11 0.700961 0.666176 0.606955
O O12 0.884473 0.585681 0.718282
O O13 0.354113 0.602491 0.748764
O O14 0.024876 0.974723 0.377834
#
# Coordination Sequence:
#
# PCOD8055270 Si02
#       7
#     4   4   4   4   4   4   4
#     4  12  24  46  76  98 140 188 230 294 364 414
#     4  10  24  46  71 105 136 179 240 293 342 436
#     4  12  22  39  65  96 138 187 225 288 344 410
#     4  10  22  41  63  99 136 179 238 283 343 424
#     4  10  25  47  67 103 144 180 230 295 348 415
#     4  10  24  38  62  96 134 182 230 277 344 412
#     4  10  23  43  62  97 142 173 229 290 341 413
#
# _framework density 24.190999000000001
#
# number of rings (size 3 to 8) (size 9 to 14) (size 15 to 20)
#    0.000    1.714    1.429    4.286    4.000    3.429 
#    0.000    5.714    0.000    0.000    0.000    0.000 
#    0.000    0.000    0.000    0.000    0.000    0.000 
#
# Total GULP energy -173521.292980 kJ/mol
# GULP energy per Si atom -12394.378070 kJ/mol
# Density = 2.413594 g / cm^3
# Si number density = 24.190999 Si / 1000 Ang^3
#
#
#
# Elastic Constant Matrix: (Units=GPa)
#
#
# Indices 1 2 3 4 5 6 
#
# 1 94.2486 40.8694 1.1298 0.0000 3.2721 0.0000
# 2 40.8694 61.1415 -6.7642 0.0000 4.4541 0.0000
# 3 1.1298 -6.7642 82.9832 0.0000 -5.2282 0.0000
# 4 0.0000 0.0000 0.0000 30.5734 0.0000 -7.8735
# 5 3.2721 4.4541 -5.2282 0.0000 30.9052 0.0000
# 6 0.0000 0.0000 0.0000 -7.8735 0.0000 29.4916
#
#
#
# Elastic Compliance Matrix: (Units=1/GPa)
#
#
# Indices 1 2 3 4 5 6 
#
# 1 0.015031 -0.010141 -0.001051 0.000000 -0.000308 0.000000
# 2 -0.010141 0.023492 0.001928 0.000000 -0.001986 0.000000
# 3 -0.001051 0.001928 0.012343 0.000000 0.001921 0.000000
# 4 0.000000 0.000000 0.000000 0.035123 0.000000 0.009377
# 5 -0.000308 -0.001986 0.001921 0.000000 0.033001 0.000000
# 6 0.000000 0.000000 0.000000 0.009377 0.000000 0.036411
#
#
# Mechanical properties :
#
#
# Convention : Reuss Voigt Hill
#
# Bulk Modulus (GPa) = 30.92292 34.31593 32.61943
# Shear Modulus (GPa) = 27.06958 31.73658 29.40308
#
# Velocity S-wave (km/s) = 3.34877 3.62597 3.49012
# Velocity P-wave (km/s) = 5.26905 5.63440 5.45478
#
# Compressibility (1/GPa) = 0.03233847
#
# Stress axis : x y z
#
# Youngs Moduli (GPa) = 66.52891 42.56731 81.01664
#
# Poissons Ratio (x) = 0.43168 0.08512
# Poissons Ratio (y) = 0.67468 -0.15619
# Poissons Ratio (z) = 0.06990 -0.08206
#
# Static dielectric constant tensor:
#      x y z
#    x 4.236880 0.000000 -0.110030 
#    y 0.000000 4.361550 0.000000 
#    z -0.110030 0.000000 4.176360 
# 
# 
# High freq. dielectric constant tensor:
#      x y z
#    x 1.953450 0.000000 -0.013420 
#    y 0.000000 1.954780 0.000000 
#    z -0.013420 0.000000 1.961070 
# 
# From -- ./inp_files/5909.got.cif
#   From: 2010.06.25/outbox.cif.g09.slc.cpg/sg9_3_cif.got.tgz:5909.got - 2010.06.27 21:40:51.
