data_PCOD8055904
_publ_section_title
;
Structure prediction by ZEFSAII (Michael W. Deem and Ramdas Pophale) SiO2 
 PCOD8055904
Probable space group: C C
;
_chemical_formula_sum "Si O2"
_cell_formula_units_Z 28
_cell_length_a 8.969976
_cell_length_b 26.472860
_cell_length_c 8.778692
_cell_angle_alpha 90.000000
_cell_angle_beta 146.133920
_cell_angle_gamma 90.000000
_cell_volume 1161.648840
_symmetry_space_group_name_H-M "C C"
_symmetry_group_IT_number 9
_symmetry_cell_setting 'monoclinic'
loop_
_space_group_symop_operation_xyz
x,y,z
x,-y,1/2+z
1/2+x,1/2+y,z
1/2+x,1/2-y,1/2+z
loop_
_atom_site_type_symbol
_atom_site_label
_atom_site_fract_x
_atom_site_fract_y
_atom_site_fract_z
Si Si1 0.851350 0.782374 0.209620
Si Si2 0.603922 0.618685 0.408048
Si Si3 0.580775 0.126848 0.609813
Si Si4 0.842498 0.587615 0.134488
Si Si5 0.479349 0.717666 0.475617
Si Si6 0.457915 0.451822 0.519569
Si Si7 0.426458 0.434983 0.043013
O O1 0.794834 0.828358 0.278078
O O2 0.107466 0.756562 0.501342
O O3 0.898690 0.801196 0.076067
O O4 0.470026 0.669912 0.355168
O O5 0.459282 0.595015 0.139246
O O6 0.574268 0.575489 0.510058
O O7 0.911344 0.630129 0.622385
O O8 0.395669 0.133355 0.299041
O O9 0.713782 0.069886 0.707632
O O10 0.729509 0.542842 0.149426
O O11 0.113489 0.578442 0.271114
O O12 0.598661 0.597798 0.810727
O O13 0.273349 0.758271 0.233159
O O14 0.422532 0.504957 0.573187
#
# Coordination Sequence:
#
# PCOD8055904 Si02
#       7
#     4   4   4   4   4   4   4
#     4  10  24  45  75 105 140 191 246 297 363 448
#     4  11  28  44  74 111 150 192 240 307 377 426
#     4  11  26  48  72 108 151 187 248 300 375 439
#     4  11  26  46  71  98 136 196 238 298 349 437
#     4  10  24  46  72 106 144 186 243 298 362 440
#     4  11  27  47  69 107 148 192 248 302 366 440
#     4  12  27  46  75 101 145 196 253 298 364 428
#
# _framework density 24.103670999999999
#
# number of rings (size 3 to 8) (size 9 to 14) (size 15 to 20)
#    0.000    1.143    1.429    1.714   14.000    3.429 
#    0.000    0.000    0.000    0.000    0.000    0.000 
#    0.000    0.000    0.000    0.000    0.000    0.000 
#
# Total GULP energy -173454.739020 kJ/mol
# GULP energy per Si atom -12389.624216 kJ/mol
# Density = 2.404881 g / cm^3
# Si number density = 24.103671 Si / 1000 Ang^3
#
#
#
# Elastic Constant Matrix: (Units=GPa)
#
#
# Indices 1 2 3 4 5 6 
#
# 1 150.8928 48.1179 27.2492 0.0000 18.5989 0.0000
# 2 48.1179 102.0236 12.2806 0.0000 5.4546 0.0000
# 3 27.2492 12.2806 87.1879 0.0000 14.1283 0.0000
# 4 0.0000 0.0000 0.0000 25.4608 0.0000 -2.3157
# 5 18.5989 5.4546 14.1283 0.0000 34.5373 0.0000
# 6 0.0000 0.0000 0.0000 -2.3157 0.0000 43.2191
#
#
#
# Elastic Compliance Matrix: (Units=1/GPa)
#
#
# Indices 1 2 3 4 5 6 
#
# 1 0.008486 -0.003631 -0.001599 0.000000 -0.003342 0.000000
# 2 -0.003631 0.011562 -0.000551 0.000000 0.000355 0.000000
# 3 -0.001599 -0.000551 0.012738 0.000000 -0.004262 0.000000
# 4 0.000000 0.000000 0.000000 0.039468 0.000000 0.002115
# 5 -0.003342 0.000355 -0.004262 0.000000 0.032442 0.000000
# 6 0.000000 0.000000 0.000000 0.002115 0.000000 0.023251
#
#
# Mechanical properties :
#
#
# Convention : Reuss Voigt Hill
#
# Bulk Modulus (GPa) = 47.12007 57.26663 52.19335
# Shear Modulus (GPa) = 34.11041 37.47391 35.79216
#
# Velocity S-wave (km/s) = 3.76593 3.94724 3.85765
# Velocity P-wave (km/s) = 6.20492 6.67715 6.44536
#
# Compressibility (1/GPa) = 0.02122238
#
# Stress axis : x y z
#
# Youngs Moduli (GPa) = 117.84321 86.49361 78.50786
#
# Poissons Ratio (x) = 0.31406 0.12554
# Poissons Ratio (y) = 0.42790 0.04327
# Poissons Ratio (z) = 0.18844 0.04767
#
# Static dielectric constant tensor:
#      x y z
#    x 4.624490 0.000000 0.044460 
#    y 0.000000 3.964270 0.000000 
#    z 0.044460 0.000000 4.318770 
# 
# 
# High freq. dielectric constant tensor:
#      x y z
#    x 1.974030 0.000000 0.007260 
#    y 0.000000 1.938060 0.000000 
#    z 0.007260 0.000000 1.958210 
# 
# From -- ./inp_files/6406.got.cif
#   From: 2010.06.25/outbox.cif.g09.slc.cpg/sg9_4_cif.got.tgz:6406.got - 2010.06.27 21:40:51.
