data_PCOD8055040
_publ_section_title
;
Structure prediction by ZEFSAII (Michael W. Deem and Ramdas Pophale) SiO2 
 PCOD8055040
Probable space group: C C
;
_chemical_formula_sum "Si O2"
_cell_formula_units_Z 28
_cell_length_a 14.017768
_cell_length_b 13.314175
_cell_length_c 8.848329
_cell_angle_alpha 90.000000
_cell_angle_beta 39.545874
_cell_angle_gamma 90.000000
_cell_volume 1051.444587
_symmetry_space_group_name_H-M "C C"
_symmetry_group_IT_number 9
_symmetry_cell_setting 'monoclinic'
loop_
_space_group_symop_operation_xyz
x,y,z
x,-y,1/2+z
1/2+x,1/2+y,z
1/2+x,1/2-y,1/2+z
loop_
_atom_site_type_symbol
_atom_site_label
_atom_site_fract_x
_atom_site_fract_y
_atom_site_fract_z
Si Si1 0.920150 0.678769 0.968090
Si Si2 0.634408 0.103861 0.268893
Si Si3 0.086805 0.092923 0.583297
Si Si4 0.082691 0.794692 0.520005
Si Si5 0.837528 0.551996 0.785599
Si Si6 0.422834 0.460284 0.565321
Si Si7 0.145543 0.694345 0.941646
O O1 0.873505 0.584379 0.915724
O O2 0.036549 0.746491 0.732952
O O3 0.026720 0.640861 0.974923
O O4 0.787355 0.753948 0.184100
O O5 0.640614 0.214739 0.328645
O O6 0.476200 0.054239 0.501503
O O7 0.758505 0.030600 0.192918
O O8 0.672180 0.112209 0.042853
O O9 0.063986 0.211429 0.622157
O O10 0.262446 0.058981 0.346762
O O11 0.964816 0.058604 0.608356
O O12 0.049477 0.038747 0.783582
O O13 0.218271 0.869693 0.371607
O O14 0.936482 0.856246 0.641331
#
# Coordination Sequence:
#
# PCOD8055040 Si02
#       7
#     4   4   4   4   4   4   4
#     4  11  23  41  68 107 133 186 240 305 334 433
#     4  11  23  43  72 108 137 189 242 304 334 436
#     4  11  25  47  69 104 145 193 223 294 368 444
#     4  10  21  42  70  99 135 194 235 283 355 443
#     4  10  23  45  72  99 144 194 236 281 382 429
#     4  11  24  44  73 100 147 185 240 283 377 428
#     4  12  25  42  74 109 139 175 256 300 346 403
#
# _framework density 26.630029
#
# number of rings (size 3 to 8) (size 9 to 14) (size 15 to 20)
#    0.000    1.143    2.857    3.429    6.000    0.000 
#    0.000    8.571    0.000    0.000    0.000    0.000 
#    0.000    0.000    0.000    0.000    0.000    0.000 
#
# Total GULP energy -173532.504001 kJ/mol
# GULP energy per Si atom -12395.178857 kJ/mol
# Density = 2.656942 g / cm^3
# Si number density = 26.630029 Si / 1000 Ang^3
#
#
#
# Elastic Constant Matrix: (Units=GPa)
#
#
# Indices 1 2 3 4 5 6 
#
# 1 178.4822 32.8256 45.4090 0.0000 -4.5798 0.0000
# 2 32.8256 46.3807 -1.0191 0.0000 -8.0540 0.0000
# 3 45.4090 -1.0191 93.9905 0.0000 3.6091 0.0000
# 4 0.0000 0.0000 0.0000 61.7606 0.0000 -26.9181
# 5 -4.5798 -8.0540 3.6091 0.0000 47.0337 0.0000
# 6 0.0000 0.0000 0.0000 -26.9181 0.0000 50.2432
#
#
#
# Elastic Compliance Matrix: (Units=1/GPa)
#
#
# Indices 1 2 3 4 5 6 
#
# 1 0.007542 -0.005403 -0.003706 0.000000 0.000094 0.000000
# 2 -0.005403 0.026093 0.002750 0.000000 0.003731 0.000000
# 3 -0.003706 0.002750 0.012492 0.000000 -0.000849 0.000000
# 4 0.000000 0.000000 0.000000 0.021124 0.000000 0.011317
# 5 0.000094 0.003731 -0.000849 0.000000 0.021974 0.000000
# 6 0.000000 0.000000 0.000000 0.011317 0.000000 0.025967
#
#
# Mechanical properties :
#
#
# Convention : Reuss Voigt Hill
#
# Bulk Modulus (GPa) = 29.93179 52.58716 41.25947
# Shear Modulus (GPa) = 35.95950 47.91670 41.93810
#
# Velocity S-wave (km/s) = 3.67868 4.24647 3.97273
# Velocity P-wave (km/s) = 5.41367 6.62069 6.04737
#
# Compressibility (1/GPa) = 0.03340929
#
# Stress axis : x y z
#
# Youngs Moduli (GPa) = 132.59699 38.32480 80.05060
#
# Poissons Ratio (x) = 0.20706 0.29665
# Poissons Ratio (y) = 0.71639 -0.22013
# Poissons Ratio (z) = 0.49137 -0.10539
#
# Static dielectric constant tensor:
#      x y z
#    x 5.210530 0.000000 0.079950 
#    y 0.000000 2.200660 0.000000 
#    z 0.079950 0.000000 4.828650 
# 
# 
# High freq. dielectric constant tensor:
#      x y z
#    x 2.081880 0.000000 0.001590 
#    y 0.000000 2.068120 0.000000 
#    z 0.001590 0.000000 2.079120 
# 
# From -- ./inp_files/9754.got.cif
#   From: 2010.06.25/outbox.cif.g09.slc.cpg/sg9_5_cif.got.tgz:9754.got - 2010.06.27 21:40:51.
