data_PCOD8055501
_publ_section_title
;
Structure prediction by ZEFSAII (Michael W. Deem and Ramdas Pophale) SiO2 
 PCOD8055501
Probable space group: C C
;
_chemical_formula_sum "Si O2"
_cell_formula_units_Z 28
_cell_length_a 5.152247
_cell_length_b 19.985438
_cell_length_c 11.830800
_cell_angle_alpha 90.000000
_cell_angle_beta 86.638383
_cell_angle_gamma 90.000000
_cell_volume 1216.120303
_symmetry_space_group_name_H-M "C C"
_symmetry_group_IT_number 9
_symmetry_cell_setting 'monoclinic'
loop_
_space_group_symop_operation_xyz
x,y,z
x,-y,1/2+z
1/2+x,1/2+y,z
1/2+x,1/2-y,1/2+z
loop_
_atom_site_type_symbol
_atom_site_label
_atom_site_fract_x
_atom_site_fract_y
_atom_site_fract_z
Si Si1 0.223430 0.935160 0.263390
Si Si2 0.862646 0.185093 0.037482
Si Si3 0.825626 0.697378 0.179834
Si Si4 0.804335 0.673189 0.438768
Si Si5 0.424504 0.658727 0.638132
Si Si6 0.225489 0.558251 0.902120
Si Si7 0.555400 0.055233 0.561918
O O1 0.444399 0.935289 0.352680
O O2 0.159028 0.859254 0.219717
O O3 0.320506 0.973409 0.146529
O O4 0.960643 0.969465 0.317833
O O5 0.926857 0.256351 0.976682
O O6 0.814741 0.131054 0.941637
O O7 0.618247 0.186800 0.128628
O O8 0.780684 0.667709 0.305028
O O9 0.770531 0.776851 0.186245
O O10 0.616646 0.663327 0.102037
O O11 0.972445 0.608561 0.468912
O O12 0.523575 0.668978 0.506724
O O13 0.236444 0.594512 0.647155
O O14 0.204907 0.506892 0.005623
#
# Coordination Sequence:
#
# PCOD8055501 Si02
#       7
#     4   4   4   4   4   4   4
#     4  11  25  46  73 101 136 199 231 291 359 433
#     4  11  25  45  66 106 138 180 240 298 345 436
#     4  11  24  43  71 103 140 180 235 299 363 411
#     4  10  24  41  74  98 140 184 236 295 361 418
#     4  10  22  47  72 103 140 185 243 291 354 448
#     4  12  27  46  72 102 146 190 239 294 364 432
#     4  11  25  48  68 109 142 186 246 290 356 446
#
# _framework density 23.024038000000001
#
# number of rings (size 3 to 8) (size 9 to 14) (size 15 to 20)
#    0.000    1.143    2.857    1.714    6.000    1.143 
#    2.571    0.000    0.000    0.000    0.000    0.000 
#    0.000    0.000    0.000    0.000    0.000    0.000 
#
# Total GULP energy -173551.633061 kJ/mol
# GULP energy per Si atom -12396.545219 kJ/mol
# Density = 2.297163 g / cm^3
# Si number density = 23.024038 Si / 1000 Ang^3
#
#
#
# Elastic Constant Matrix: (Units=GPa)
#
#
# Indices 1 2 3 4 5 6 
#
# 1 117.2017 10.3377 33.3003 0.0000 2.6610 0.0000
# 2 10.3377 60.7001 18.5756 0.0000 -10.1919 0.0000
# 3 33.3003 18.5756 95.5346 0.0000 -15.8735 0.0000
# 4 0.0000 0.0000 0.0000 34.1477 0.0000 -2.9780
# 5 2.6610 -10.1919 -15.8735 0.0000 45.1337 0.0000
# 6 0.0000 0.0000 0.0000 -2.9780 0.0000 21.6060
#
#
#
# Elastic Compliance Matrix: (Units=1/GPa)
#
#
# Indices 1 2 3 4 5 6 
#
# 1 0.009660 -0.000904 -0.003526 0.000000 -0.002014 0.000000
# 2 -0.000904 0.017974 -0.002651 0.000000 0.003180 0.000000
# 3 -0.003526 -0.002651 0.012901 0.000000 0.004146 0.000000
# 4 0.000000 0.000000 0.000000 0.029641 0.000000 0.004085
# 5 -0.002014 0.003180 0.004146 0.000000 0.024451 0.000000
# 6 0.000000 0.000000 0.000000 0.004085 0.000000 0.046846
#
#
# Mechanical properties :
#
#
# Convention : Reuss Voigt Hill
#
# Bulk Modulus (GPa) = 37.91978 44.20707 41.06342
# Shear Modulus (GPa) = 30.40883 34.25900 32.33391
#
# Velocity S-wave (km/s) = 3.63814 3.86160 3.75154
# Velocity P-wave (km/s) = 5.84410 6.25497 6.05303
#
# Compressibility (1/GPa) = 0.02637146
#
# Stress axis : x y z
#
# Youngs Moduli (GPa) = 103.52447 55.63692 77.51436
#
# Poissons Ratio (x) = 0.05031 0.27330
# Poissons Ratio (y) = 0.09361 0.20551
# Poissons Ratio (z) = 0.36500 0.14751
#
# Static dielectric constant tensor:
#      x y z
#    x 4.291090 0.000000 -0.149020 
#    y 0.000000 3.947580 0.000000 
#    z -0.149020 0.000000 4.177780 
# 
# 
# High freq. dielectric constant tensor:
#      x y z
#    x 1.915900 0.000000 -0.007040 
#    y 0.000000 1.884340 0.000000 
#    z -0.007040 0.000000 1.922340 
# 
# From -- ./inp_files/13305.got.cif
#   From: 2010.06.25/outbox.cif.g09.slc.cpg/sg9_7_cif.got.tgz:13305.got - 2010.06.27 21:40:51.
