data_PCOD8055064
_publ_section_title
;
Structure prediction by ZEFSAII (Michael W. Deem and Ramdas Pophale) SiO2 
 PCOD8055064
Probable space group: C C
;
_chemical_formula_sum "Si O2"
_cell_formula_units_Z 32
_cell_length_a 12.990395
_cell_length_b 9.394257
_cell_length_c 12.710084
_cell_angle_alpha 90.000000
_cell_angle_beta 85.061446
_cell_angle_gamma 90.000000
_cell_volume 1545.318263
_symmetry_space_group_name_H-M "C C"
_symmetry_group_IT_number 9
_symmetry_cell_setting 'monoclinic'
loop_
_space_group_symop_operation_xyz
x,y,z
x,-y,1/2+z
1/2+x,1/2+y,z
1/2+x,1/2-y,1/2+z
loop_
_atom_site_type_symbol
_atom_site_label
_atom_site_fract_x
_atom_site_fract_y
_atom_site_fract_z
Si Si1 0.919520 0.610847 0.260910
Si Si2 0.092325 0.478698 0.592796
Si Si3 0.731312 0.245482 0.191129
Si Si4 0.034820 0.133609 0.824824
Si Si5 0.937996 0.162501 0.266130
Si Si6 0.944900 0.402988 0.433582
Si Si7 0.577300 0.296141 0.560482
Si Si8 0.772289 0.539422 0.107945
O O1 0.919899 0.550078 0.377850
O O2 0.805609 0.598783 0.220198
O O3 0.999283 0.517472 0.184715
O O4 0.953412 0.773331 0.266033
O O5 0.185427 0.381397 0.625119
O O6 0.129596 0.639827 0.565531
O O7 0.051559 0.412570 0.487710
O O8 0.648454 0.332435 0.269167
O O9 0.813769 0.167678 0.260717
O O10 0.780858 0.366575 0.110519
O O11 0.035971 0.168673 0.948186
O O12 0.990982 0.977330 0.808825
O O13 0.963872 0.278260 0.350774
O O14 0.981027 0.197493 0.147313
O O15 0.848006 0.382704 0.519138
O O16 0.656838 0.416506 0.590332
#
# Coordination Sequence:
#
# PCOD8055064 Si02
#       8
#     4   4   4   4   4   4   4   4
#     4  10  21  43  66  91 132 175 222 280 338 409
#     4  10  23  42  67  95 134 174 225 283 341 411
#     4  11  24  47  66 102 140 176 231 286 343 415
#     4  11  26  44  68 100 139 179 228 289 344 410
#     4  12  25  45  69  98 140 178 227 288 341 415
#     4  11  21  44  67  93 127 183 223 272 352 402
#     4  12  24  43  66 102 134 177 227 283 345 412
#     4  11  24  40  69  97 134 178 227 283 344 416
#
# _framework density 20.707709000000001
#
# number of rings (size 3 to 8) (size 9 to 14) (size 15 to 20)
#    0.000    1.000    5.000    1.500    3.500    1.000 
#    2.250    0.000    0.000    0.000    0.000    0.000 
#    0.000    0.000    0.000    0.000    0.000    0.000 
#
# Total GULP energy -198354.853120 kJ/mol
# GULP energy per Si atom -12397.178320 kJ/mol
# Density = 2.066058 g / cm^3
# Si number density = 20.707709 Si / 1000 Ang^3
#
#
#
# Elastic Constant Matrix: (Units=GPa)
#
#
# Indices 1 2 3 4 5 6 
#
# 1 78.0831 41.5435 32.1399 0.0000 20.4197 0.0000
# 2 41.5435 115.6350 46.2115 0.0000 3.6794 0.0000
# 3 32.1399 46.2115 116.8160 0.0000 14.4842 0.0000
# 4 0.0000 0.0000 0.0000 31.9602 0.0000 6.8793
# 5 20.4197 3.6794 14.4842 0.0000 31.8661 0.0000
# 6 0.0000 0.0000 0.0000 6.8793 0.0000 36.4871
#
#
#
# Elastic Compliance Matrix: (Units=1/GPa)
#
#
# Indices 1 2 3 4 5 6 
#
# 1 0.019596 -0.006037 -0.001624 0.000000 -0.011122 0.000000
# 2 -0.006037 0.012146 -0.003656 0.000000 0.004128 0.000000
# 3 -0.001624 -0.003656 0.010886 0.000000 -0.003485 0.000000
# 4 0.000000 0.000000 0.000000 0.032612 0.000000 -0.006149
# 5 -0.011122 0.004128 -0.003485 0.000000 0.039615 0.000000
# 6 0.000000 0.000000 0.000000 -0.006149 0.000000 0.028566
#
#
# Mechanical properties :
#
#
# Convention : Reuss Voigt Hill
#
# Bulk Modulus (GPa) = 50.01597 61.14712 55.58155
# Shear Modulus (GPa) = 28.94839 32.77195 30.86017
#
# Velocity S-wave (km/s) = 3.74298 3.98250 3.86460
# Velocity P-wave (km/s) = 6.54871 7.12319 6.84198
#
# Compressibility (1/GPa) = 0.01999361
#
# Stress axis : x y z
#
# Youngs Moduli (GPa) = 51.03114 82.32838 91.86375
#
# Poissons Ratio (x) = 0.49703 0.14921
# Poissons Ratio (y) = 0.30808 0.33584
# Poissons Ratio (z) = 0.08289 0.30098
#
# Static dielectric constant tensor:
#      x y z
#    x 3.653580 0.000000 0.103920 
#    y 0.000000 3.729520 0.000000 
#    z 0.103920 0.000000 3.894440 
# 
# 
# High freq. dielectric constant tensor:
#      x y z
#    x 1.803010 0.000000 0.013680 
#    y 0.000000 1.814400 0.000000 
#    z 0.013680 0.000000 1.820330 
# 
# From -- ./inp_files/17774.got.cif
#   From: 2010.06.25/outbox.cif.g09.slc.cpg/sg9_9_cif.got.tgz:17774.got - 2010.06.27 21:40:51.
