data_PCOD8055206
_publ_section_title
;
Structure prediction by ZEFSAII (Michael W. Deem and Ramdas Pophale) SiO2 
 PCOD8055206
Probable space group: C C
;
_chemical_formula_sum "Si O2"
_cell_formula_units_Z 28
_cell_length_a 5.082620
_cell_length_b 19.987283
_cell_length_c 13.226406
_cell_angle_alpha 90.000000
_cell_angle_beta 75.978428
_cell_angle_gamma 90.000000
_cell_volume 1303.606658
_symmetry_space_group_name_H-M "C C"
_symmetry_group_IT_number 9
_symmetry_cell_setting 'monoclinic'
loop_
_space_group_symop_operation_xyz
x,y,z
x,-y,1/2+z
1/2+x,1/2+y,z
1/2+x,1/2-y,1/2+z
loop_
_atom_site_type_symbol
_atom_site_label
_atom_site_fract_x
_atom_site_fract_y
_atom_site_fract_z
Si Si1 0.225760 0.269829 0.783410
Si Si2 0.169262 0.301879 0.368015
Si Si3 0.147088 0.448956 0.319226
Si Si4 0.601846 0.490464 0.910779
Si Si5 0.587638 0.831590 0.604812
Si Si6 0.598164 0.383049 0.766446
Si Si7 0.851923 0.970266 0.629175
O O1 0.428954 0.216937 0.813916
O O2 0.262057 0.278676 0.656996
O O3 0.317415 0.343243 0.817018
O O4 0.919431 0.249936 0.842972
O O5 0.262311 0.373964 0.318599
O O6 0.055957 0.305164 0.493769
O O7 0.329973 0.494177 0.374239
O O8 0.152503 0.477803 0.204292
O O9 0.833130 0.452727 0.381848
O O10 0.707796 0.418088 0.859587
O O11 0.519185 0.485349 0.034760
O O12 0.310263 0.831941 0.695964
O O13 0.705279 0.907082 0.589266
O O14 0.564625 0.442851 0.690133
#
# Coordination Sequence:
#
# PCOD8055206 Si02
#       7
#     4   4   4   4   4   4   4
#     4  11  26  44  65  99 131 181 236 281 325 406
#     4  12  25  43  71  95 137 182 229 279 342 414
#     4  11  23  40  65 101 134 163 229 278 333 415
#     4  11  22  40  67 101 131 172 217 280 346 406
#     4  11  22  46  73  93 133 188 226 278 351 411
#     4  10  22  44  70  96 137 174 235 278 340 414
#     4  10  22  39  69 101 131 176 218 282 353 410
#
# _framework density 21.478870000000001
#
# number of rings (size 3 to 8) (size 9 to 14) (size 15 to 20)
#    0.000    1.143    4.286    1.714    4.000    0.000 
#    5.143    0.000    0.000    0.000    0.000    0.000 
#    0.000    0.000    0.000    0.000    0.000    0.000 
#
# Total GULP energy -173469.690174 kJ/mol
# GULP energy per Si atom -12390.692155 kJ/mol
# Density = 2.142998 g / cm^3
# Si number density = 21.478870 Si / 1000 Ang^3
#
#
#
# Elastic Constant Matrix: (Units=GPa)
#
#
# Indices 1 2 3 4 5 6 
#
# 1 92.3324 24.4682 39.6279 0.0000 -7.1553 0.0000
# 2 24.4682 84.2770 67.4682 0.0000 3.3923 0.0000
# 3 39.6279 67.4682 139.4558 0.0000 -6.6701 0.0000
# 4 0.0000 0.0000 0.0000 36.6769 0.0000 -1.7525
# 5 -7.1553 3.3923 -6.6701 0.0000 30.0643 0.0000
# 6 0.0000 0.0000 0.0000 -1.7525 0.0000 34.5897
#
#
#
# Elastic Compliance Matrix: (Units=1/GPa)
#
#
# Indices 1 2 3 4 5 6 
#
# 1 0.012609 -0.001626 -0.002673 0.000000 0.002591 0.000000
# 2 -0.001626 0.020144 -0.009512 0.000000 -0.004770 0.000000
# 3 -0.002673 -0.009512 0.012688 0.000000 0.003252 0.000000
# 4 0.000000 0.000000 0.000000 0.027331 0.000000 0.001385
# 5 0.002591 -0.004770 0.003252 0.000000 0.035139 0.000000
# 6 0.000000 0.000000 0.000000 0.001385 0.000000 0.028981
#
#
# Mechanical properties :
#
#
# Convention : Reuss Voigt Hill
#
# Bulk Modulus (GPa) = 56.11438 64.35486 60.23462
# Shear Modulus (GPa) = 29.33371 32.56625 30.94998
#
# Velocity S-wave (km/s) = 3.69955 3.89806 3.80010
# Velocity P-wave (km/s) = 6.66566 7.09132 6.88178
#
# Compressibility (1/GPa) = 0.01782074
#
# Stress axis : x y z
#
# Youngs Moduli (GPa) = 79.30794 49.64135 78.81683
#
# Poissons Ratio (x) = 0.08069 0.21065
# Poissons Ratio (y) = 0.12892 0.74971
# Poissons Ratio (z) = 0.21196 0.47219
#
# Static dielectric constant tensor:
#      x y z
#    x 3.919200 0.000000 0.082390 
#    y 0.000000 3.974210 0.000000 
#    z 0.082390 0.000000 3.958330 
# 
# 
# High freq. dielectric constant tensor:
#      x y z
#    x 1.848100 0.000000 0.007570 
#    y 0.000000 1.830890 0.000000 
#    z 0.007570 0.000000 1.836250 
# 
# From -- ./inp_files/13169.got.cif
#   From: 2010.06.25/outbox.cif.g09.slc.cpg/sg9_7_cif.got.tgz:13169.got - 2010.06.27 21:40:51.
