data_PCOD8055797
_publ_section_title
;
Structure prediction by ZEFSAII (Michael W. Deem and Ramdas Pophale) SiO2 
 PCOD8055797
Probable space group: C C
;
_chemical_formula_sum "Si O2"
_cell_formula_units_Z 32
_cell_length_a 25.128944
_cell_length_b 8.937393
_cell_length_c 9.453138
_cell_angle_alpha 90.000000
_cell_angle_beta 138.010469
_cell_angle_gamma 90.000000
_cell_volume 1420.312272
_symmetry_space_group_name_H-M "C C"
_symmetry_group_IT_number 9
_symmetry_cell_setting 'monoclinic'
loop_
_space_group_symop_operation_xyz
x,y,z
x,-y,1/2+z
1/2+x,1/2+y,z
1/2+x,1/2-y,1/2+z
loop_
_atom_site_type_symbol
_atom_site_label
_atom_site_fract_x
_atom_site_fract_y
_atom_site_fract_z
Si Si1 0.161300 0.240757 0.788460
Si Si2 0.550071 0.000314 0.157112
Si Si3 0.442585 0.252284 0.345556
Si Si4 0.435006 0.240756 0.025713
Si Si5 0.153721 0.747716 0.968615
Si Si6 0.294562 0.843043 0.069175
Si Si7 0.046235 0.999686 0.157059
Si Si8 0.801743 0.656957 0.244997
O O1 0.099340 0.376834 0.668187
O O2 0.201253 0.242907 0.711326
O O3 0.115663 0.082840 0.708223
O O4 0.227036 0.255094 0.042138
O O5 0.480642 0.082839 0.105948
O O6 0.609915 0.911988 0.377890
O O7 0.508564 0.879288 0.972737
O O8 0.395053 0.242907 0.102845
O O9 0.486391 0.411988 0.436281
O O10 0.382943 0.239696 0.360952
O O11 0.496966 0.376834 0.145986
O O12 0.369270 0.255094 0.772034
O O13 0.213363 0.760303 0.953219
O O14 0.087741 0.879288 0.841434
O O15 0.298153 1.000000 0.157085
O O16 0.298153 0.861277 0.907086
#
# Coordination Sequence:
#
# PCOD8055797 Si02
#       8
#     4   4   4   4   4   4   4   4
#     4  11  23  43  69  98 133 173 218 270 325 388
#     4  10  24  40  68 102 134 168 218 268 326 388
#     4  11  23  43  69  98 133 173 218 270 325 388
#     4  11  23  43  69  98 133 173 218 270 325 388
#     4  11  23  43  69  98 133 173 218 270 325 388
#     4  12  26  43  66  95 130 174 220 270 328 393
#     4  10  24  40  68 102 134 168 218 268 326 388
#     4  12  26  43  66  95 130 174 220 270 328 393
#
# _framework density 22.530256999999999
#
# number of rings (size 3 to 8) (size 9 to 14) (size 15 to 20)
#    0.000    1.000    2.500    3.750    0.000   11.000 
#    0.000    0.000    0.000    0.000    0.000    0.000 
#    0.000    0.000    0.000    0.000    0.000    0.000 
#
# Total GULP energy -198362.938574 kJ/mol
# GULP energy per Si atom -12397.683661 kJ/mol
# Density = 2.247898 g / cm^3
# Si number density = 22.530257 Si / 1000 Ang^3
#
#
#
# Elastic Constant Matrix: (Units=GPa)
#
#
# Indices 1 2 3 4 5 6 
#
# 1 95.6491 14.5036 64.9142 0.0000 -16.0386 0.0000
# 2 14.5036 95.8671 24.4917 0.0000 4.5173 0.0000
# 3 64.9142 24.4917 138.2541 0.0000 -19.5246 0.0000
# 4 0.0000 0.0000 0.0000 23.8786 0.0000 6.8473
# 5 -16.0386 4.5173 -19.5246 0.0000 52.0428 0.0000
# 6 0.0000 0.0000 0.0000 6.8473 0.0000 15.0762
#
#
#
# Elastic Compliance Matrix: (Units=1/GPa)
#
#
# Indices 1 2 3 4 5 6 
#
# 1 0.015619 -0.000712 -0.006884 0.000000 0.002293 0.000000
# 2 -0.000712 0.011114 -0.001902 0.000000 -0.001898 0.000000
# 3 -0.006884 -0.001902 0.011115 0.000000 0.002214 0.000000
# 4 0.000000 0.000000 0.000000 0.048149 0.000000 -0.021869
# 5 0.002293 -0.001898 0.002214 0.000000 0.020917 0.000000
# 6 0.000000 0.000000 0.000000 -0.021869 0.000000 0.076262
#
#
# Mechanical properties :
#
#
# Convention : Reuss Voigt Hill
#
# Bulk Modulus (GPa) = 53.04694 59.73213 56.38953
# Shear Modulus (GPa) = 23.98579 33.25693 28.62136
#
# Velocity S-wave (km/s) = 3.26637 3.84617 3.56807
# Velocity P-wave (km/s) = 6.14991 6.80394 6.48517
#
# Compressibility (1/GPa) = 0.01885123
#
# Stress axis : x y z
#
# Youngs Moduli (GPa) = 64.02443 89.97375 89.97088
#
# Poissons Ratio (x) = 0.06410 0.61932
# Poissons Ratio (y) = 0.04561 0.17116
# Poissons Ratio (z) = 0.44072 0.17117
#
# Static dielectric constant tensor:
#      x y z
#    x 3.976480 0.000000 0.180330 
#    y 0.000000 4.179230 0.000000 
#    z 0.180330 0.000000 4.074800 
# 
# 
# High freq. dielectric constant tensor:
#      x y z
#    x 1.883380 0.000000 0.004480 
#    y 0.000000 1.889060 0.000000 
#    z 0.004480 0.000000 1.889100 
# 
# From -- ./inp_files/12453.got.cif
#   From: 2010.06.25/outbox.cif.g09.slc.cpg/sg9_7_cif.got.tgz:12453.got - 2010.06.27 21:40:51.
