data_PCOD8055192
_publ_section_title
;
Structure prediction by ZEFSAII (Michael W. Deem and Ramdas Pophale) SiO2 
 PCOD8055192
Probable space group: C C
;
_chemical_formula_sum "Si O2"
_cell_formula_units_Z 32
_cell_length_a 29.200903
_cell_length_b 8.532599
_cell_length_c 9.322998
_cell_angle_alpha 90.000000
_cell_angle_beta 36.562965
_cell_angle_gamma 90.000000
_cell_volume 1383.773642
_symmetry_space_group_name_H-M "C C"
_symmetry_group_IT_number 9
_symmetry_cell_setting 'monoclinic'
loop_
_space_group_symop_operation_xyz
x,y,z
x,-y,1/2+z
1/2+x,1/2+y,z
1/2+x,1/2-y,1/2+z
loop_
_atom_site_type_symbol
_atom_site_label
_atom_site_fract_x
_atom_site_fract_y
_atom_site_fract_z
Si Si1 0.707960 0.878246 0.284700
Si Si2 0.301564 0.142039 0.671643
Si Si3 0.297917 0.480243 0.787464
Si Si4 0.970797 0.022016 0.884204
Si Si5 0.974345 0.356239 0.747816
Si Si6 0.060740 0.125639 0.930826
Si Si7 0.058582 0.542405 0.304387
Si Si8 0.710573 0.460270 0.666488
O O1 0.637518 0.985847 0.518577
O O2 0.682582 0.698644 0.318316
O O3 0.772818 0.876330 0.246970
O O4 0.737433 0.960997 0.067190
O O5 0.297671 0.329409 0.684631
O O6 0.388853 0.088965 0.417969
O O7 0.243357 0.082239 0.698285
O O8 0.278706 0.078853 0.885701
O O9 0.381756 0.512410 0.643128
O O10 0.980472 0.170769 0.754750
O O11 0.007487 0.876665 0.706458
O O12 0.016505 0.038273 0.915268
O O13 0.035579 0.401864 0.469663
O O14 0.991167 0.437037 0.858362
O O15 0.073829 0.305622 0.863044
O O16 0.140284 0.036507 0.758828
#
# Coordination Sequence:
#
# PCOD8055192 Si02
#       8
#     4   4   4   4   4   4   4   4
#     4  11  23  41  64  92 126 161 207 257 310 373
#     4  10  22  39  62  91 126 164 207 256 311 368
#     4  10  23  41  64  92 123 163 207 259 314 368
#     4  10  22  42  65  91 124 162 210 259 309 369
#     4  10  22  40  61  92 127 163 206 257 310 368
#     4  11  23  41  63  90 124 165 210 254 308 372
#     4  11  23  40  63  91 126 165 207 252 309 372
#     4  11  22  40  64  91 126 165 208 258 309 370
#
# _framework density 23.125171999999999
#
# number of rings (size 3 to 8) (size 9 to 14) (size 15 to 20)
#    0.000    1.500    0.000    5.250    0.000    8.000 
#    0.000    0.000    0.000    0.000    0.000    0.000 
#    0.000    0.000    0.000    0.000    0.000    0.000 
#
# Total GULP energy -198450.756760 kJ/mol
# GULP energy per Si atom -12403.172298 kJ/mol
# Density = 2.307254 g / cm^3
# Si number density = 23.125172 Si / 1000 Ang^3
#
#
#
# Elastic Constant Matrix: (Units=GPa)
#
#
# Indices 1 2 3 4 5 6 
#
# 1 128.9844 26.8160 20.8131 0.0000 -18.9333 0.0000
# 2 26.8160 23.4657 18.6543 0.0000 -7.3830 0.0000
# 3 20.8131 18.6543 113.2582 0.0000 -14.8806 0.0000
# 4 0.0000 0.0000 0.0000 30.6868 0.0000 5.6531
# 5 -18.9333 -7.3830 -14.8806 0.0000 33.3561 0.0000
# 6 0.0000 0.0000 0.0000 5.6531 0.0000 38.3780
#
#
#
# Elastic Compliance Matrix: (Units=1/GPa)
#
#
# Indices 1 2 3 4 5 6 
#
# 1 0.010564 -0.011224 0.000392 0.000000 0.003687 0.000000
# 2 -0.011224 0.062897 -0.007760 0.000000 0.004089 0.000000
# 3 0.000392 -0.007760 0.010452 0.000000 0.003167 0.000000
# 4 0.000000 0.000000 0.000000 0.033496 0.000000 -0.004934
# 5 0.003687 0.004089 0.003167 0.000000 0.034390 0.000000
# 6 0.000000 0.000000 0.000000 -0.004934 0.000000 0.026783
#
#
# Mechanical properties :
#
#
# Convention : Reuss Voigt Hill
#
# Bulk Modulus (GPa) = 21.39997 44.25279 32.82638
# Shear Modulus (GPa) = 21.61285 33.77916 27.69601
#
# Velocity S-wave (km/s) = 3.06044 3.82607 3.46447
# Velocity P-wave (km/s) = 4.66503 6.22062 5.49812
#
# Compressibility (1/GPa) = 0.04672903
#
# Stress axis : x y z
#
# Youngs Moduli (GPa) = 94.65780 15.89894 95.67889
#
# Poissons Ratio (x) = 0.17845 -0.03748
# Poissons Ratio (y) = 1.06245 0.74244
# Poissons Ratio (z) = -0.03708 0.12337
#
# Static dielectric constant tensor:
#      x y z
#    x 4.226020 0.000000 -0.020840 
#    y 0.000000 3.971500 0.000000 
#    z -0.020840 0.000000 4.282660 
# 
# 
# High freq. dielectric constant tensor:
#      x y z
#    x 1.928800 0.000000 0.001030 
#    y 0.000000 1.891890 0.000000 
#    z 0.001030 0.000000 1.926080 
# 
# From -- ./inp_files/12403.got.cif
#   From: 2010.06.25/outbox.cif.g09.slc.cpg/sg9_7_cif.got.tgz:12403.got - 2010.06.27 21:40:51.
