data_PCOD8055935
_publ_section_title
;
Structure prediction by ZEFSAII (Michael W. Deem and Ramdas Pophale) SiO2 
 PCOD8055935
Probable space group: C C
;
_chemical_formula_sum "Si O2"
_cell_formula_units_Z 20
_cell_length_a 7.426050
_cell_length_b 9.598040
_cell_length_c 12.371618
_cell_angle_alpha 90.000000
_cell_angle_beta 67.884278
_cell_angle_gamma 90.000000
_cell_volume 816.915923
_symmetry_space_group_name_H-M "C C"
_symmetry_group_IT_number 9
_symmetry_cell_setting 'monoclinic'
loop_
_space_group_symop_operation_xyz
x,y,z
x,-y,1/2+z
1/2+x,1/2+y,z
1/2+x,1/2-y,1/2+z
loop_
_atom_site_type_symbol
_atom_site_label
_atom_site_fract_x
_atom_site_fract_y
_atom_site_fract_z
Si Si1 0.752790 0.998047 0.500000
Si Si2 0.746906 0.732212 0.893049
Si Si3 0.848900 0.495308 0.205832
Si Si4 0.098060 0.000018 0.070159
Si Si5 0.339193 0.212933 0.390375
O O1 0.852464 0.131745 0.418018
O O2 0.527518 0.014135 0.582223
O O3 0.873360 0.976542 0.585220
O O4 0.777711 0.875199 0.406112
O O5 0.863811 0.643264 0.777033
O O6 0.552468 0.799674 0.890118
O O7 0.716162 0.632027 0.000960
O O8 0.641793 0.490757 0.188489
O O9 0.846898 0.641385 0.270686
O O10 0.179679 0.859491 0.000590
#
# Coordination Sequence:
#
# PCOD8055935 Si02
#       5
#     4   4   4   4   4
#     4  11  25  49  73 101 147 187 231 298 350 413
#     4  10  24  48  68 109 141 181 243 289 344 432
#     4  11  25  49  73 101 147 188 231 294 357 410
#     4  10  24  48  70 105 145 180 240 293 345 424
#     4  10  24  48  70 106 144 180 241 292 342 429
#
# _framework density 24.482323000000001
#
# number of rings (size 3 to 8) (size 9 to 14) (size 15 to 20)
#    0.000    1.600    2.000    0.000    5.600    0.000 
#   28.800    0.000    0.000    0.000    0.000    0.000 
#    0.000    0.000    0.000    0.000    0.000    0.000 
#
# Total GULP energy -123927.861670 kJ/mol
# GULP energy per Si atom -12392.786167 kJ/mol
# Density = 2.442660 g / cm^3
# Si number density = 24.482323 Si / 1000 Ang^3
#
#
#
# Elastic Constant Matrix: (Units=GPa)
#
#
# Indices 1 2 3 4 5 6 
#
# 1 81.5208 27.4132 27.7062 0.0000 8.1966 0.0000
# 2 27.4132 186.7476 60.6025 0.0000 11.2245 0.0000
# 3 27.7062 60.6025 102.2827 0.0000 13.1683 0.0000
# 4 0.0000 0.0000 0.0000 26.7346 0.0000 6.5827
# 5 8.1966 11.2245 13.1683 0.0000 35.2955 0.0000
# 6 0.0000 0.0000 0.0000 6.5827 0.0000 34.2335
#
#
#
# Elastic Compliance Matrix: (Units=1/GPa)
#
#
# Indices 1 2 3 4 5 6 
#
# 1 0.013766 -0.000963 -0.002927 0.000000 -0.001799 0.000000
# 2 -0.000963 0.006712 -0.003645 0.000000 -0.000551 0.000000
# 3 -0.002927 -0.003645 0.013123 0.000000 -0.003057 0.000000
# 4 0.000000 0.000000 0.000000 0.039264 0.000000 -0.007550
# 5 -0.001799 -0.000551 -0.003057 0.000000 0.030066 0.000000
# 6 0.000000 0.000000 0.000000 -0.007550 0.000000 0.030663
#
#
# Mechanical properties :
#
#
# Convention : Reuss Voigt Hill
#
# Bulk Modulus (GPa) = 53.96218 66.88831 60.42525
# Shear Modulus (GPa) = 32.29118 36.24131 34.26624
#
# Velocity S-wave (km/s) = 3.63569 3.85165 3.74522
# Velocity P-wave (km/s) = 6.30186 6.86736 6.59068
#
# Compressibility (1/GPa) = 0.01853150
#
# Stress axis : x y z
#
# Youngs Moduli (GPa) = 72.64167 148.98212 76.20177
#
# Poissons Ratio (x) = 0.14345 0.22304
# Poissons Ratio (y) = 0.06994 0.27777
# Poissons Ratio (z) = 0.21262 0.54308
#
# Static dielectric constant tensor:
#      x y z
#    x 4.417060 0.000000 0.240640 
#    y 0.000000 4.657500 0.000000 
#    z 0.240640 0.000000 4.115040 
# 
# 
# High freq. dielectric constant tensor:
#      x y z
#    x 1.972370 0.000000 0.014570 
#    y 0.000000 1.990410 0.000000 
#    z 0.014570 0.000000 1.955170 
# 
# From -- ./inp_files/13954.got.cif
#   From: 2010.06.25/outbox.cif.g09.slc.cpg/sg9_7_cif.got.tgz:13954.got - 2010.06.27 21:40:51.
