data_PCOD8055652
_publ_section_title
;
Structure prediction by ZEFSAII (Michael W. Deem and Ramdas Pophale) SiO2 
 PCOD8055652
Probable space group: C C
;
_chemical_formula_sum "Si O2"
_cell_formula_units_Z 32
_cell_length_a 8.810035
_cell_length_b 18.341968
_cell_length_c 11.603600
_cell_angle_alpha 90.000000
_cell_angle_beta 130.588019
_cell_angle_gamma 90.000000
_cell_volume 1423.938143
_symmetry_space_group_name_H-M "C C"
_symmetry_group_IT_number 9
_symmetry_cell_setting 'monoclinic'
loop_
_space_group_symop_operation_xyz
x,y,z
x,-y,1/2+z
1/2+x,1/2+y,z
1/2+x,1/2-y,1/2+z
loop_
_atom_site_type_symbol
_atom_site_label
_atom_site_fract_x
_atom_site_fract_y
_atom_site_fract_z
Si Si1 0.614980 0.974537 0.279700
Si Si2 0.696488 0.304989 0.386933
Si Si3 0.410325 0.603417 0.069841
Si Si4 0.048478 0.811503 0.060868
Si Si5 0.455878 0.561690 0.346933
Si Si6 0.347078 0.261378 0.378383
Si Si7 0.739963 0.555850 0.061151
Si Si8 0.941094 0.323439 0.118311
O O1 0.725344 0.951602 0.452163
O O2 0.505020 0.905289 0.170996
O O3 0.774446 0.004684 0.266543
O O4 0.453945 0.037310 0.222449
O O5 0.591243 0.327330 0.215692
O O6 0.523434 0.265104 0.373128
O O7 0.766150 0.377379 0.486634
O O8 0.892538 0.254921 0.467369
O O9 0.440689 0.607407 0.221538
O O10 0.359076 0.680880 0.989246
O O11 0.605888 0.572847 0.104707
O O12 0.265969 0.794312 0.115220
O O13 0.953538 0.882390 0.953074
O O14 0.657441 0.513716 0.449193
O O15 0.131338 0.268824 0.214193
O O16 0.359358 0.182552 0.446490
#
# Coordination Sequence:
#
# PCOD8055652 Si02
#       8
#     4   4   4   4   4   4   4   4
#     4  10  23  44  67 105 140 187 235 292 367 438
#     4  11  27  47  73 104 148 188 248 304 369 439
#     4   9  23  43  67  99 136 183 237 293 351 441
#     4  12  27  47  71 111 144 194 245 315 368 439
#     4  11  25  44  71 102 142 189 240 298 365 435
#     4  10  23  45  70  97 142 186 235 297 365 438
#     4  10  23  46  68 102 141 186 232 296 362 433
#     4  11  23  44  69 104 141 187 242 293 371 439
#
# _framework density 22.472885000000002
#
# number of rings (size 3 to 8) (size 9 to 14) (size 15 to 20)
#    0.000    1.500    1.250    2.250    8.750    3.000 
#    0.000    0.000    0.000    0.000    0.000    0.000 
#    0.000    0.000    0.000    0.000    0.000    0.000 
#
# Total GULP energy -198353.435899 kJ/mol
# GULP energy per Si atom -12397.089744 kJ/mol
# Density = 2.242174 g / cm^3
# Si number density = 22.472885 Si / 1000 Ang^3
#
#
#
# Elastic Constant Matrix: (Units=GPa)
#
#
# Indices 1 2 3 4 5 6 
#
# 1 113.7723 47.0537 65.3566 0.0000 6.5504 0.0000
# 2 47.0537 88.6855 55.0606 0.0000 -1.4530 0.0000
# 3 65.3566 55.0606 105.0105 0.0000 -0.6276 0.0000
# 4 0.0000 0.0000 0.0000 47.1230 0.0000 8.8773
# 5 6.5504 -1.4530 -0.6276 0.0000 46.8654 0.0000
# 6 0.0000 0.0000 0.0000 8.8773 0.0000 37.9948
#
#
#
# Elastic Compliance Matrix: (Units=1/GPa)
#
#
# Indices 1 2 3 4 5 6 
#
# 1 0.014438 -0.003128 -0.007359 0.000000 -0.002214 0.000000
# 2 -0.003128 0.017403 -0.007173 0.000000 0.000881 0.000000
# 3 -0.007359 -0.007173 0.017871 0.000000 0.001046 0.000000
# 4 0.000000 0.000000 0.000000 0.022198 0.000000 -0.005186
# 5 -0.002214 0.000881 0.001046 0.000000 0.021688 0.000000
# 6 0.000000 0.000000 0.000000 -0.005186 0.000000 0.027531
#
#
# Mechanical properties :
#
#
# Convention : Reuss Voigt Hill
#
# Bulk Modulus (GPa) = 69.48551 71.37889 70.43220
# Shear Modulus (GPa) = 31.00839 35.72980 33.36910
#
# Velocity S-wave (km/s) = 3.71861 3.99169 3.85757
# Velocity P-wave (km/s) = 7.03024 7.28533 7.15892
#
# Compressibility (1/GPa) = 0.01439149
#
# Stress axis : x y z
#
# Youngs Moduli (GPa) = 69.26192 57.46080 55.95807
#
# Poissons Ratio (x) = 0.17971 0.41181
# Poissons Ratio (y) = 0.21662 0.40140
# Poissons Ratio (z) = 0.50971 0.41218
#
# Static dielectric constant tensor:
#      x y z
#    x 4.021500 0.000000 0.265270 
#    y 0.000000 4.086580 0.000000 
#    z 0.265270 0.000000 4.254860 
# 
# 
# High freq. dielectric constant tensor:
#      x y z
#    x 1.885700 0.000000 0.017170 
#    y 0.000000 1.889160 0.000000 
#    z 0.017170 0.000000 1.899030 
# 
# From -- ./inp_files/15487.got.cif
#   From: 2010.06.25/outbox.cif.g09.slc.cpg/sg9_8_cif.got.tgz:15487.got - 2010.06.27 21:40:51.
