data_PCOD8055769
_publ_section_title
;
Structure prediction by ZEFSAII (Michael W. Deem and Ramdas Pophale) SiO2 
 PCOD8055769
Probable space group: C C
;
_chemical_formula_sum "Si O2"
_cell_formula_units_Z 32
_cell_length_a 9.472306
_cell_length_b 26.170256
_cell_length_c 5.341928
_cell_angle_alpha 90.000000
_cell_angle_beta 112.102328
_cell_angle_gamma 90.000000
_cell_volume 1226.911957
_symmetry_space_group_name_H-M "C C"
_symmetry_group_IT_number 9
_symmetry_cell_setting 'monoclinic'
loop_
_space_group_symop_operation_xyz
x,y,z
x,-y,1/2+z
1/2+x,1/2+y,z
1/2+x,1/2-y,1/2+z
loop_
_atom_site_type_symbol
_atom_site_label
_atom_site_fract_x
_atom_site_fract_y
_atom_site_fract_z
Si Si1 0.006560 0.399854 0.202080
Si Si2 0.840466 0.260966 0.513944
Si Si3 0.073823 0.290335 0.058702
Si Si4 0.411268 0.516209 0.966191
Si Si5 0.405115 0.622922 0.745723
Si Si6 0.657352 0.932147 0.820412
Si Si7 0.950903 0.803742 0.691191
Si Si8 0.194282 0.145443 0.633992
O O1 0.075941 0.423424 0.501071
O O2 0.826060 0.393081 0.131212
O O3 0.088283 0.346347 0.185583
O O4 0.036288 0.434672 0.973569
O O5 0.726946 0.243305 0.656841
O O6 0.864171 0.203400 0.399850
O O7 0.759059 0.302883 0.291158
O O8 0.990750 0.287997 0.730860
O O9 0.972683 0.257394 0.181195
O O10 0.503708 0.495087 0.784623
O O11 0.377364 0.576008 0.921882
O O12 0.251398 0.484995 0.880433
O O13 0.576120 0.619394 0.749654
O O14 0.277677 0.615016 0.443800
O O15 0.370270 0.673696 0.888746
O O16 0.100666 0.838743 0.823307
#
# Coordination Sequence:
#
# PCOD8055769 Si02
#       8
#     4   4   4   4   4   4   4   4
#     4  12  28  47  78 111 166 209 264 330 404 480
#     4  12  25  46  65 106 164 221 277 322 378 462
#     4  12  27  43  67 102 163 220 266 327 385 469
#     4  10  23  48  81 116 150 187 256 345 403 474
#     4  11  27  46  83 114 154 206 276 333 404 479
#     4  11  27  49  80 121 147 203 266 338 418 479
#     4  12  26  44  71 108 160 219 275 318 388 471
#     4  12  27  47  69 112 160 215 262 327 394 484
#
# _framework density 26.081744
#
# number of rings (size 3 to 8) (size 9 to 14) (size 15 to 20)
#    0.000    0.500    3.750    3.000   10.500    1.000 
#    0.000    0.000    0.000   18.000    0.000    0.000 
#    0.000    0.000    0.000    0.000    0.000    0.000 
#
# Total GULP energy -198212.365481 kJ/mol
# GULP energy per Si atom -12388.272843 kJ/mol
# Density = 2.602238 g / cm^3
# Si number density = 26.081744 Si / 1000 Ang^3
#
#
#
# Elastic Constant Matrix: (Units=GPa)
#
#
# Indices 1 2 3 4 5 6 
#
# 1 133.4273 25.6758 38.8104 0.0000 -4.1117 0.0000
# 2 25.6758 77.4096 14.4064 0.0000 -5.2897 0.0000
# 3 38.8104 14.4064 136.0748 0.0000 -26.9860 0.0000
# 4 0.0000 0.0000 0.0000 41.2464 0.0000 -7.4965
# 5 -4.1117 -5.2897 -26.9860 0.0000 41.3921 0.0000
# 6 0.0000 0.0000 0.0000 -7.4965 0.0000 45.0501
#
#
#
# Elastic Compliance Matrix: (Units=1/GPa)
#
#
# Indices 1 2 3 4 5 6 
#
# 1 0.008642 -0.002489 -0.002405 0.000000 -0.001028 0.000000
# 2 -0.002489 0.013923 -0.000529 0.000000 0.001187 0.000000
# 3 -0.002405 -0.000529 0.009222 0.000000 0.005706 0.000000
# 4 0.000000 0.000000 0.000000 0.025001 0.000000 0.004160
# 5 -0.001028 0.001187 0.005706 0.000000 0.027929 0.000000
# 6 0.000000 0.000000 0.000000 0.004160 0.000000 0.022890
#
#
# Mechanical properties :
#
#
# Convention : Reuss Voigt Hill
#
# Bulk Modulus (GPa) = 47.75072 56.07745 51.91408
# Shear Modulus (GPa) = 39.86196 43.40566 41.63381
#
# Velocity S-wave (km/s) = 3.91365 4.08391 3.99968
# Velocity P-wave (km/s) = 6.22656 6.61703 6.42476
#
# Compressibility (1/GPa) = 0.02094209
#
# Stress axis : x y z
#
# Youngs Moduli (GPa) = 115.72008 71.82165 108.43116
#
# Poissons Ratio (x) = 0.17876 0.26077
# Poissons Ratio (y) = 0.28802 0.05733
# Poissons Ratio (z) = 0.27830 0.03797
#
# Static dielectric constant tensor:
#      x y z
#    x 5.062790 0.000000 -0.372520 
#    y 0.000000 4.685070 0.000000 
#    z -0.372520 0.000000 5.178140 
# 
# 
# High freq. dielectric constant tensor:
#      x y z
#    x 2.039550 0.000000 -0.023690 
#    y 0.000000 2.041650 0.000000 
#    z -0.023690 0.000000 2.059110 
# 
# From -- ./inp_files/1418.got.cif
#   From: 2010.06.25/outbox.cif.g09.slc.cpg/sg9_1_cif.got.tgz:1418.got - 2010.06.27 21:40:51.
