data_PCOD8055511
_publ_section_title
;
Structure prediction by ZEFSAII (Michael W. Deem and Ramdas Pophale) SiO2 
 PCOD8055511
Probable space group: C C
;
_chemical_formula_sum "Si O2"
_cell_formula_units_Z 32
_cell_length_a 10.935767
_cell_length_b 9.480047
_cell_length_c 14.512707
_cell_angle_alpha 90.000000
_cell_angle_beta 66.189201
_cell_angle_gamma 90.000000
_cell_volume 1376.492993
_symmetry_space_group_name_H-M "C C"
_symmetry_group_IT_number 9
_symmetry_cell_setting 'monoclinic'
loop_
_space_group_symop_operation_xyz
x,y,z
x,-y,1/2+z
1/2+x,1/2+y,z
1/2+x,1/2-y,1/2+z
loop_
_atom_site_type_symbol
_atom_site_label
_atom_site_fract_x
_atom_site_fract_y
_atom_site_fract_z
Si Si1 0.467810 0.427236 0.592880
Si Si2 0.864849 0.377322 0.121219
Si Si3 0.625598 0.374522 0.922961
Si Si4 0.580061 0.519290 0.747091
Si Si5 0.774151 0.170547 0.663533
Si Si6 0.985020 0.569318 0.779489
Si Si7 0.904970 0.727670 0.305885
Si Si8 0.406839 0.142619 0.995494
O O1 0.422414 0.273356 0.571773
O O2 0.590701 0.487142 0.494074
O O3 0.508297 0.428691 0.688567
O O4 0.337311 0.522704 0.614146
O O5 0.704330 0.394601 0.164880
O O6 0.901706 0.396700 0.215572
O O7 0.936309 0.493055 0.035098
O O8 0.622269 0.411919 0.814814
O O9 0.773855 0.318943 0.903880
O O10 0.528772 0.247610 0.980378
O O11 0.475727 0.631834 0.823139
O O12 0.625236 0.148217 0.744085
O O13 0.865109 0.243305 0.712783
O O14 0.773445 0.282098 0.577937
O O15 0.009836 0.401210 0.777823
O O16 0.891207 0.622043 0.891468
#
# Coordination Sequence:
#
# PCOD8055511 Si02
#       8
#     4   4   4   4   4   4   4   4
#     4  10  26  43  69 101 141 182 233 295 348 420
#     4  12  26  45  67 110 140 183 244 292 354 432
#     4  11  23  48  68 104 140 184 239 285 358 429
#     4  11  25  46  73  98 146 184 235 296 348 420
#     4  10  22  49  67 102 143 185 236 289 354 426
#     4  12  24  42  76  99 146 185 231 296 353 419
#     4  11  23  45  72 103 140 188 229 299 352 411
#     4  11  25  44  74 103 144 191 233 292 365 419
#
# _framework density 23.247485000000001
#
# number of rings (size 3 to 8) (size 9 to 14) (size 15 to 20)
#    0.000    1.000    3.750    1.500    5.250    0.000 
#    4.500    0.000    0.000    0.000    0.000    0.000 
#    0.000    0.000    0.000    0.000    0.000    0.000 
#
# Total GULP energy -198426.139583 kJ/mol
# GULP energy per Si atom -12401.633724 kJ/mol
# Density = 2.319457 g / cm^3
# Si number density = 23.247485 Si / 1000 Ang^3
#
#
#
# Elastic Constant Matrix: (Units=GPa)
#
#
# Indices 1 2 3 4 5 6 
#
# 1 65.9455 35.6047 14.9773 0.0000 -14.9626 0.0000
# 2 35.6047 163.1924 40.3231 0.0000 -20.4887 0.0000
# 3 14.9773 40.3231 102.1929 0.0000 -9.6516 0.0000
# 4 0.0000 0.0000 0.0000 40.3998 0.0000 -4.5831
# 5 -14.9626 -20.4887 -9.6516 0.0000 35.1550 0.0000
# 6 0.0000 0.0000 0.0000 -4.5831 0.0000 34.1775
#
#
#
# Elastic Compliance Matrix: (Units=1/GPa)
#
#
# Indices 1 2 3 4 5 6 
#
# 1 0.018329 -0.003042 -0.000941 0.000000 0.005770 0.000000
# 2 -0.003042 0.007691 -0.002349 0.000000 0.002543 0.000000
# 3 -0.000941 -0.002349 0.010967 0.000000 0.001242 0.000000
# 4 0.000000 0.000000 0.000000 0.025135 0.000000 0.003371
# 5 0.005770 0.002543 0.001242 0.000000 0.032724 0.000000
# 6 0.000000 0.000000 0.000000 0.003371 0.000000 0.029711
#
#
# Mechanical properties :
#
#
# Convention : Reuss Voigt Hill
#
# Bulk Modulus (GPa) = 41.11157 57.01569 49.06363
# Shear Modulus (GPa) = 34.40453 37.97482 36.18968
#
# Velocity S-wave (km/s) = 3.85115 4.04605 3.94980
# Velocity P-wave (km/s) = 6.12355 6.81220 6.47703
#
# Compressibility (1/GPa) = 0.02432405
#
# Stress axis : x y z
#
# Youngs Moduli (GPa) = 54.55720 130.02139 91.17972
#
# Poissons Ratio (x) = 0.39554 0.08580
# Poissons Ratio (y) = 0.16597 0.21415
# Poissons Ratio (z) = 0.05134 0.30538
#
# Static dielectric constant tensor:
#      x y z
#    x 4.049100 0.000000 -0.160870 
#    y 0.000000 4.533860 0.000000 
#    z -0.160870 0.000000 4.210810 
# 
# 
# High freq. dielectric constant tensor:
#      x y z
#    x 1.901290 0.000000 -0.007530 
#    y 0.000000 1.939190 0.000000 
#    z -0.007530 0.000000 1.921810 
# 
# From -- ./inp_files/24202.got.cif
#   From: 2010.06.25/outbox.cif.g09.slc.cpg/sg9_13_cif.got.tgz:24202.got - 2010.06.27 21:40:51.
