data_PCOD8055250
_publ_section_title
;
Structure prediction by ZEFSAII (Michael W. Deem and Ramdas Pophale) SiO2 
 PCOD8055250
Probable space group: C C
;
_chemical_formula_sum "Si O2"
_cell_formula_units_Z 28
_cell_length_a 13.193751
_cell_length_b 5.116980
_cell_length_c 19.351836
_cell_angle_alpha 90.000000
_cell_angle_beta 72.793543
_cell_angle_gamma 90.000000
_cell_volume 1248.012586
_symmetry_space_group_name_H-M "C C"
_symmetry_group_IT_number 9
_symmetry_cell_setting 'monoclinic'
loop_
_space_group_symop_operation_xyz
x,y,z
x,-y,1/2+z
1/2+x,1/2+y,z
1/2+x,1/2-y,1/2+z
loop_
_atom_site_type_symbol
_atom_site_label
_atom_site_fract_x
_atom_site_fract_y
_atom_site_fract_z
Si Si1 0.037930 0.793312 0.876580
Si Si2 0.114818 0.702869 0.170257
Si Si3 0.558605 0.699686 0.098401
Si Si4 0.334083 0.752960 0.192894
Si Si5 0.757197 0.911174 0.325044
Si Si6 0.091671 0.696101 0.436709
Si Si7 0.428440 0.051894 0.295355
O O1 0.158189 0.773909 0.822995
O O2 0.026517 0.575170 0.940306
O O3 0.953306 0.712708 0.834018
O O4 0.023432 0.084403 0.908992
O O5 0.230012 0.803259 0.169141
O O6 0.113141 0.413596 0.137292
O O7 0.038969 0.699503 0.253822
O O8 0.078829 0.908861 0.120648
O O9 0.431415 0.723118 0.120187
O O10 0.606976 0.727123 0.012601
O O11 0.314484 0.498301 0.243316
O O12 0.365802 0.987342 0.237574
O O13 0.846992 0.749912 0.350583
O O14 0.710459 0.153880 0.380203
#
# Coordination Sequence:
#
# PCOD8055250 Si02
#       7
#     4   4   4   4   4   4   4
#     4  10  23  42  70  95 140 174 226 289 345 405
#     4  11  24  42  70  98 134 175 227 281 336 407
#     4  11  25  45  69  94 137 186 221 280 343 399
#     4  11  24  41  69 101 132 170 234 279 338 410
#     4  10  22  40  68  99 134 174 228 286 338 413
#     4  10  23  46  66  97 144 179 230 284 341 419
#     4  11  23  40  72 102 135 178 226 289 359 397
#
# _framework density 22.435669999999998
#
# number of rings (size 3 to 8) (size 9 to 14) (size 15 to 20)
#    0.857    0.571    2.857    1.714    4.000    2.286 
#    2.571    0.000    0.000    0.000    0.000    0.000 
#    0.000    0.000    0.000    0.000    0.000    0.000 
#
# Total GULP energy -173489.283586 kJ/mol
# GULP energy per Si atom -12392.091685 kJ/mol
# Density = 2.238461 g / cm^3
# Si number density = 22.435670 Si / 1000 Ang^3
#
#
#
# Elastic Constant Matrix: (Units=GPa)
#
#
# Indices 1 2 3 4 5 6 
#
# 1 124.2678 32.9132 36.4882 0.0000 9.1269 -0.0001
# 2 32.9132 101.3735 21.8087 -0.0001 -2.1950 0.0000
# 3 36.4882 21.8087 86.3092 0.0000 -0.1277 0.0001
# 4 0.0000 -0.0001 0.0000 29.6589 0.0000 7.9989
# 5 9.1269 -2.1950 -0.1277 0.0000 20.1580 0.0000
# 6 -0.0001 0.0000 0.0001 7.9989 0.0000 35.4967
#
#
#
# Elastic Compliance Matrix: (Units=1/GPa)
#
#
# Indices 1 2 3 4 5 6 
#
# 1 0.010174 -0.002625 -0.003645 0.000000 -0.004915 0.000000
# 2 -0.002625 0.011134 -0.001700 0.000000 0.002390 0.000000
# 3 -0.003645 -0.001700 0.013559 0.000000 0.001551 0.000000
# 4 0.000000 0.000000 0.000000 0.035898 0.000000 -0.008089
# 5 -0.004915 0.002390 0.001551 0.000000 0.052104 0.000000
# 6 0.000000 0.000000 0.000000 -0.008089 0.000000 0.029994
#
#
# Mechanical properties :
#
#
# Convention : Reuss Voigt Hill
#
# Bulk Modulus (GPa) = 52.83605 54.93007 53.88306
# Shear Modulus (GPa) = 28.55295 31.77876 30.16586
#
# Velocity S-wave (km/s) = 3.57130 3.76764 3.67079
# Velocity P-wave (km/s) = 6.37234 6.59268 6.48345
#
# Compressibility (1/GPa) = 0.01892647
#
# Stress axis : x y z
#
# Youngs Moduli (GPa) = 98.29211 89.81174 73.75154
#
# Poissons Ratio (x) = 0.23579 0.26882
# Poissons Ratio (y) = 0.25806 0.12538
# Poissons Ratio (z) = 0.35827 0.15268
#
# Static dielectric constant tensor:
#      x y z
#    x 4.108890 0.000000 -0.088730 
#    y 0.000000 4.000670 0.000000 
#    z -0.088730 0.000000 3.684480 
# 
# 
# High freq. dielectric constant tensor:
#      x y z
#    x 1.884500 0.000000 0.003350 
#    y 0.000000 1.896400 0.000000 
#    z 0.003350 0.000000 1.846970 
# 
# From -- ./inp_files/32915.got.cif
#   From: 2010.06.25/outbox.cif.g09.slc.cpg/sg9_17_cif.got.tgz:32915.got - 2010.06.27 21:40:51.
