data_PCOD8055078
_publ_section_title
;
Structure prediction by ZEFSAII (Michael W. Deem and Ramdas Pophale) SiO2 
 PCOD8055078
Probable space group: C C
;
_chemical_formula_sum "Si O2"
_cell_formula_units_Z 28
_cell_length_a 17.121152
_cell_length_b 11.097787
_cell_length_c 8.483057
_cell_angle_alpha 90.000000
_cell_angle_beta 130.982060
_cell_angle_gamma 90.000000
_cell_volume 1216.801641
_symmetry_space_group_name_H-M "C C"
_symmetry_group_IT_number 9
_symmetry_cell_setting 'monoclinic'
loop_
_space_group_symop_operation_xyz
x,y,z
x,-y,1/2+z
1/2+x,1/2+y,z
1/2+x,1/2-y,1/2+z
loop_
_atom_site_type_symbol
_atom_site_label
_atom_site_fract_x
_atom_site_fract_y
_atom_site_fract_z
Si Si1 0.769030 0.928058 0.161710
Si Si2 0.300671 0.331364 0.552729
Si Si3 0.925564 0.382673 0.310972
Si Si4 0.031101 0.406505 0.772749
Si Si5 0.065104 0.967431 0.134756
Si Si6 0.959716 0.158829 0.773002
Si Si7 0.196881 0.116370 0.538406
O O1 0.782260 0.889224 0.358836
O O2 0.836063 0.839343 0.138158
O O3 0.814015 0.062938 0.198333
O O4 0.652500 0.926752 0.948018
O O5 0.405405 0.248559 0.700172
O O6 0.200770 0.249673 0.465212
O O7 0.814478 0.425446 0.235936
O O8 0.007283 0.374273 0.560366
O O9 0.968421 0.474511 0.237797
O O10 0.000234 0.294791 0.843191
O O11 0.983428 0.893765 0.131340
O O12 0.121965 0.877044 0.089819
O O13 0.155723 0.018626 0.362530
O O14 0.009286 0.077917 0.975477
#
# Coordination Sequence:
#
# PCOD8055078 Si02
#       7
#     4   4   4   4   4   4   4
#     4  12  26  50  74 108 157 201 257 314 388 450
#     4  10  26  45  77 106 153 198 248 316 379 453
#     4  10  26  46  72 113 147 195 253 313 377 454
#     4  12  27  47  76 108 152 201 252 312 389 452
#     4  10  21  43  69 111 148 199 250 312 380 443
#     4  11  27  43  74 107 148 201 257 312 374 459
#     4   9  21  42  72 105 151 189 251 309 375 449
#
# _framework density 23.011146
#
# number of rings (size 3 to 8) (size 9 to 14) (size 15 to 20)
#    0.857    0.571    0.000    3.429    6.000    5.714 
#    2.571    0.000    0.000    0.000    0.000    0.000 
#    0.000    0.000    0.000    0.000    0.000    0.000 
#
# Total GULP energy -173574.547951 kJ/mol
# GULP energy per Si atom -12398.181997 kJ/mol
# Density = 2.295877 g / cm^3
# Si number density = 23.011146 Si / 1000 Ang^3
#
#
#
# Elastic Constant Matrix: (Units=GPa)
#
#
# Indices 1 2 3 4 5 6 
#
# 1 121.6037 47.2067 52.8234 0.0000 -5.4036 0.0000
# 2 47.2067 135.4879 48.6017 0.0000 -6.1737 0.0000
# 3 52.8234 48.6017 135.0340 0.0000 -8.5975 0.0000
# 4 0.0000 0.0000 0.0000 29.5055 0.0000 -4.3379
# 5 -5.4036 -6.1737 -8.5975 0.0000 38.3778 0.0000
# 6 0.0000 0.0000 0.0000 -4.3379 0.0000 38.0658
#
#
#
# Elastic Compliance Matrix: (Units=1/GPa)
#
#
# Indices 1 2 3 4 5 6 
#
# 1 0.010620 -0.002528 -0.003221 0.000000 0.000367 0.000000
# 2 -0.002528 0.009095 -0.002246 0.000000 0.000604 0.000000
# 3 -0.003221 -0.002246 0.009558 0.000000 0.001326 0.000000
# 4 0.000000 0.000000 0.000000 0.034469 0.000000 0.003928
# 5 0.000367 0.000604 0.001326 0.000000 0.026503 0.000000
# 6 0.000000 0.000000 0.000000 0.003928 0.000000 0.026718
#
#
# Mechanical properties :
#
#
# Convention : Reuss Voigt Hill
#
# Bulk Modulus (GPa) = 75.28456 76.59880 75.94168
# Shear Modulus (GPa) = 36.39479 37.42275 36.90877
#
# Velocity S-wave (km/s) = 3.98127 4.03710 4.00928
# Velocity P-wave (km/s) = 7.34313 7.42232 7.38283
#
# Compressibility (1/GPa) = 0.01328294
#
# Stress axis : x y z
#
# Youngs Moduli (GPa) = 94.15790 109.95326 104.61896
#
# Poissons Ratio (x) = 0.27798 0.33701
# Poissons Ratio (y) = 0.23804 0.23497
# Poissons Ratio (z) = 0.30331 0.24695
#
# Static dielectric constant tensor:
#      x y z
#    x 4.243630 0.000000 0.086890 
#    y 0.000000 4.232730 0.000000 
#    z 0.086890 0.000000 3.999120 
# 
# 
# High freq. dielectric constant tensor:
#      x y z
#    x 1.913910 0.000000 0.003990 
#    y 0.000000 1.910120 0.000000 
#    z 0.003990 0.000000 1.912200 
# 
# From -- ./inp_files/9201.got.cif
#   From: 2010.06.25/outbox.cif.g09.slc.cpg/sg9_5_cif.got.tgz:9201.got - 2010.06.27 21:40:51.
