data_PCOD8055882
_publ_section_title
;
Structure prediction by ZEFSAII (Michael W. Deem and Ramdas Pophale) SiO2 
 PCOD8055882
Probable space group: C C
;
_chemical_formula_sum "Si O2"
_cell_formula_units_Z 28
_cell_length_a 12.515473
_cell_length_b 5.137410
_cell_length_c 15.817570
_cell_angle_alpha 90.000000
_cell_angle_beta 77.865522
_cell_angle_gamma 90.000000
_cell_volume 994.300685
_symmetry_space_group_name_H-M "C C"
_symmetry_group_IT_number 9
_symmetry_cell_setting 'monoclinic'
loop_
_space_group_symop_operation_xyz
x,y,z
x,-y,1/2+z
1/2+x,1/2+y,z
1/2+x,1/2-y,1/2+z
loop_
_atom_site_type_symbol
_atom_site_label
_atom_site_fract_x
_atom_site_fract_y
_atom_site_fract_z
Si Si1 0.939230 0.481466 0.187220
Si Si2 0.417224 0.990612 0.877907
Si Si3 0.751262 0.239080 0.638190
Si Si4 0.552466 0.372067 0.441000
Si Si5 0.051722 0.956528 0.117068
Si Si6 0.160229 0.298925 0.334514
Si Si7 0.757565 0.067714 0.464288
O O1 0.878119 0.518325 0.287406
O O2 0.863544 0.603346 0.127639
O O3 0.969151 0.179721 0.168142
O O4 0.042587 0.677594 0.165658
O O5 0.550017 0.030308 0.857746
O O6 0.349359 0.214016 0.933884
O O7 0.427703 0.720013 0.931115
O O8 0.673738 0.458722 0.613715
O O9 0.712243 0.132454 0.735357
O O10 0.762762 0.008482 0.564830
O O11 0.529508 0.578929 0.520226
O O12 0.617516 0.503522 0.351437
O O13 0.632470 0.160567 0.468940
O O14 0.254887 0.333452 0.394040
#
# Coordination Sequence:
#
# PCOD8055882 Si02
#       7
#     4   4   4   4   4   4   4
#     4  12  27  47  76 112 149 203 254 312 387 458
#     4  11  24  44  73 104 153 197 262 313 392 461
#     4  11  25  48  74 109 154 199 256 316 385 460
#     4  10  24  44  72 102 151 200 251 322 387 456
#     4  11  27  48  75 112 153 198 254 317 380 459
#     4  11  24  44  74 108 152 200 255 325 388 455
#     4  10  25  45  70 109 148 201 258 315 387 467
#
# _framework density 28.160492999999999
#
# number of rings (size 3 to 8) (size 9 to 14) (size 15 to 20)
#    0.000    1.143    1.429    2.571   10.000    3.429 
#    2.571    0.000    0.000    0.000    0.000    0.000 
#    0.000    0.000    0.000    0.000    0.000    0.000 
#
# Total GULP energy -173436.136533 kJ/mol
# GULP energy per Si atom -12388.295467 kJ/mol
# Density = 2.809640 g / cm^3
# Si number density = 28.160493 Si / 1000 Ang^3
#
#
#
# Elastic Constant Matrix: (Units=GPa)
#
#
# Indices 1 2 3 4 5 6 
#
# 1 87.4053 -11.5982 30.6072 0.0000 18.4677 0.0000
# 2 -11.5982 63.1915 43.2500 0.0000 -11.2160 0.0000
# 3 30.6072 43.2500 194.7323 0.0000 3.4985 0.0000
# 4 0.0000 0.0000 0.0000 36.4624 0.0000 1.7695
# 5 18.4677 -11.2160 3.4985 0.0000 43.1731 0.0000
# 6 0.0000 0.0000 0.0000 1.7695 0.0000 26.6169
#
#
#
# Elastic Compliance Matrix: (Units=1/GPa)
#
#
# Indices 1 2 3 4 5 6 
#
# 1 0.013973 0.003729 -0.002939 0.000000 -0.004770 0.000000
# 2 0.003729 0.020896 -0.005304 0.000000 0.004263 0.000000
# 3 -0.002939 -0.005304 0.006787 0.000000 -0.000671 0.000000
# 4 0.000000 0.000000 0.000000 0.027514 0.000000 -0.001829
# 5 -0.004770 0.004263 -0.000671 0.000000 0.026365 0.000000
# 6 0.000000 0.000000 0.000000 -0.001829 0.000000 0.037692
#
#
# Mechanical properties :
#
#
# Convention : Reuss Voigt Hill
#
# Bulk Modulus (GPa) = 30.64706 52.20522 41.42614
# Shear Modulus (GPa) = 32.65202 40.12183 36.38692
#
# Velocity S-wave (km/s) = 3.40883 3.77869 3.59852
# Velocity P-wave (km/s) = 5.13811 6.13324 5.65760
#
# Compressibility (1/GPa) = 0.03262956
#
# Stress axis : x y z
#
# Youngs Moduli (GPa) = 71.56801 47.85578 147.33674
#
# Poissons Ratio (x) = -0.17847 0.43299
# Poissons Ratio (y) = -0.26690 0.78144
# Poissons Ratio (z) = 0.21032 0.25382
#
# Static dielectric constant tensor:
#      x y z
#    x 5.446120 0.000000 0.276330 
#    y 0.000000 4.856450 0.000000 
#    z 0.276330 0.000000 5.668820 
# 
# 
# High freq. dielectric constant tensor:
#      x y z
#    x 2.173500 0.000000 0.012200 
#    y 0.000000 2.117470 0.000000 
#    z 0.012200 0.000000 2.152480 
# 
# From -- ./inp_files/25257.got.cif
#   From: 2010.06.25/outbox.cif.g09.slc.cpg/sg9_13_cif.got.tgz:25257.got - 2010.06.27 21:40:51.
