data_PCOD8055221
_publ_section_title
;
Structure prediction by ZEFSAII (Michael W. Deem and Ramdas Pophale) SiO2 
 PCOD8055221
Probable space group: C C
;
_chemical_formula_sum "Si O2"
_cell_formula_units_Z 32
_cell_length_a 8.440987
_cell_length_b 21.565730
_cell_length_c 11.986057
_cell_angle_alpha 90.000000
_cell_angle_beta 134.965960
_cell_angle_gamma 90.000000
_cell_volume 1543.748687
_symmetry_space_group_name_H-M "C C"
_symmetry_group_IT_number 9
_symmetry_cell_setting 'monoclinic'
loop_
_space_group_symop_operation_xyz
x,y,z
x,-y,1/2+z
1/2+x,1/2+y,z
1/2+x,1/2-y,1/2+z
loop_
_atom_site_type_symbol
_atom_site_label
_atom_site_fract_x
_atom_site_fract_y
_atom_site_fract_z
Si Si1 0.130560 0.608411 0.528980
Si Si2 0.202463 0.921879 0.690320
Si Si3 0.755447 0.371454 0.470661
Si Si4 0.795782 0.196415 0.776719
Si Si5 0.684046 0.789413 0.673595
Si Si6 0.062361 0.944555 0.182505
Si Si7 0.421578 0.327449 0.011404
Si Si8 0.460857 0.697946 0.095400
O O1 0.130732 0.641088 0.651231
O O2 0.314434 0.553302 0.615330
O O3 0.198225 0.663849 0.475732
O O4 0.897755 0.579503 0.378713
O O5 0.272797 0.903680 0.600257
O O6 0.019912 0.873826 0.644599
O O7 0.110441 0.991208 0.646127
O O8 0.548980 0.321382 0.360407
O O9 0.730981 0.425360 0.365881
O O10 0.990508 0.339761 0.560585
O O11 0.688829 0.262191 0.683165
O O12 0.791993 0.200766 0.907645
O O13 0.570306 0.724307 0.647056
O O14 0.858108 0.809230 0.855031
O O15 0.825730 0.777317 0.633023
O O16 0.063347 0.891774 0.085641
#
# Coordination Sequence:
#
# PCOD8055221 Si02
#       8
#     4   4   4   4   4   4   4   4
#     4   9  21  41  65  91 118 169 211 264 308 377
#     4  11  22  41  67  91 124 173 219 255 316 385
#     4  10  22  40  68  89 123 174 215 262 314 390
#     4  10  22  40  62  91 127 162 218 259 321 380
#     4  12  23  40  63  99 131 163 210 268 331 374
#     4   9  22  41  58  97 120 160 218 263 305 370
#     4  10  23  38  66  93 125 166 209 266 312 384
#     4  11  25  37  61  97 134 163 206 273 325 372
#
# _framework density 20.728762
#
# number of rings (size 3 to 8) (size 9 to 14) (size 15 to 20)
#    0.750    1.000    1.250    2.250    5.250    2.000 
#    0.000    8.750    0.000    0.000    0.000    0.000 
#    0.000    0.000    0.000    0.000    0.000    0.000 
#
# Total GULP energy -198273.887029 kJ/mol
# GULP energy per Si atom -12392.117939 kJ/mol
# Density = 2.068158 g / cm^3
# Si number density = 20.728762 Si / 1000 Ang^3
#
#
#
# Elastic Constant Matrix: (Units=GPa)
#
#
# Indices 1 2 3 4 5 6 
#
# 1 52.0825 24.4385 21.7149 0.0000 -4.9345 0.0000
# 2 24.4385 134.3691 50.6786 0.0000 8.1862 0.0000
# 3 21.7149 50.6786 143.0442 0.0000 -1.0275 0.0000
# 4 0.0000 0.0000 0.0000 29.6695 0.0000 2.4161
# 5 -4.9345 8.1862 -1.0275 0.0000 20.6936 0.0000
# 6 0.0000 0.0000 0.0000 2.4161 0.0000 26.2789
#
#
#
# Elastic Compliance Matrix: (Units=1/GPa)
#
#
# Indices 1 2 3 4 5 6 
#
# 1 0.022433 -0.003720 -0.002039 0.000000 0.006720 0.000000
# 2 -0.003720 0.009476 -0.002827 0.000000 -0.004776 0.000000
# 3 -0.002039 -0.002827 0.008309 0.000000 0.001045 0.000000
# 4 0.000000 0.000000 0.000000 0.033959 0.000000 -0.003122
# 5 0.006720 -0.004776 0.001045 0.000000 0.051868 0.000000
# 6 0.000000 0.000000 0.000000 -0.003122 0.000000 0.038340
#
#
# Mechanical properties :
#
#
# Convention : Reuss Voigt Hill
#
# Bulk Modulus (GPa) = 43.39187 58.12890 50.76039
# Shear Modulus (GPa) = 26.42159 30.83933 28.63046
#
# Velocity S-wave (km/s) = 3.57408 3.86133 3.72047
# Velocity P-wave (km/s) = 6.16528 6.92700 6.55721
#
# Compressibility (1/GPa) = 0.02304579
#
# Stress axis : x y z
#
# Youngs Moduli (GPa) = 44.57761 105.53060 120.34607
#
# Poissons Ratio (x) = 0.39261 0.24540
# Poissons Ratio (y) = 0.16584 0.34019
# Poissons Ratio (z) = 0.09090 0.29831
#
# Static dielectric constant tensor:
#      x y z
#    x 3.346900 0.000000 0.019800 
#    y 0.000000 3.583450 0.000000 
#    z 0.019800 0.000000 3.973470 
# 
# 
# High freq. dielectric constant tensor:
#      x y z
#    x 1.779680 0.000000 -0.001890 
#    y 0.000000 1.798200 0.000000 
#    z -0.001890 0.000000 1.834360 
# 
# From -- ./inp_files/15439.got.cif
#   From: 2010.06.25/outbox.cif.g09.slc.cpg/sg9_8_cif.got.tgz:15439.got - 2010.06.27 21:40:51.
