data_PCOD8055503
_publ_section_title
;
Structure prediction by ZEFSAII (Michael W. Deem and Ramdas Pophale) SiO2 
 PCOD8055503
Probable space group: C C
;
_chemical_formula_sum "Si O2"
_cell_formula_units_Z 32
_cell_length_a 12.968084
_cell_length_b 15.363576
_cell_length_c 8.699251
_cell_angle_alpha 90.000000
_cell_angle_beta 53.696053
_cell_angle_gamma 90.000000
_cell_volume 1396.768422
_symmetry_space_group_name_H-M "C C"
_symmetry_group_IT_number 9
_symmetry_cell_setting 'monoclinic'
loop_
_space_group_symop_operation_xyz
x,y,z
x,-y,1/2+z
1/2+x,1/2+y,z
1/2+x,1/2-y,1/2+z
loop_
_atom_site_type_symbol
_atom_site_label
_atom_site_fract_x
_atom_site_fract_y
_atom_site_fract_z
Si Si1 0.004960 0.403804 0.331260
Si Si2 0.787450 0.527954 0.574903
Si Si3 0.928715 0.314565 0.093646
Si Si4 0.645952 0.585302 0.408169
Si Si5 0.195218 0.271783 0.227480
Si Si6 0.227051 0.531328 0.147402
Si Si7 0.200678 0.302985 0.860131
Si Si8 0.360857 0.397541 0.229820
O O1 0.082389 0.340278 0.381042
O O2 0.092163 0.488323 0.213555
O O3 0.866438 0.436981 0.505116
O O4 0.978865 0.336500 0.218109
O O5 0.882426 0.594719 0.569160
O O6 0.753891 0.569409 0.441308
O O7 0.660308 0.499051 0.782284
O O8 0.814447 0.246819 0.173361
O O9 0.062061 0.273565 0.908615
O O10 0.662662 0.673172 0.296102
O O11 0.511941 0.589784 0.614725
O O12 0.321986 0.299345 0.212238
O O13 0.219828 0.284206 0.023640
O O14 0.210610 0.595082 0.309191
O O15 0.321238 0.456491 0.120367
O O16 0.289676 0.581024 0.950199
#
# Coordination Sequence:
#
# PCOD8055503 Si02
#       8
#     4   4   4   4   4   4   4   4
#     4  10  22  47  75 101 136 187 244 292 361 440
#     4  12  25  45  71 103 142 192 243 295 367 437
#     4  11  24  45  69 109 140 190 242 297 367 427
#     4  12  28  45  71 105 148 193 239 305 369 434
#     4  10  26  45  73 105 140 190 239 299 368 433
#     4  11  23  47  76 103 137 194 244 297 362 446
#     4  11  25  45  74 106 144 191 242 306 363 436
#     4  11  25  45  69 104 145 185 245 299 367 435
#
# _framework density 22.910025000000001
#
# number of rings (size 3 to 8) (size 9 to 14) (size 15 to 20)
#    0.000    1.000    2.500    3.750    8.750    2.000 
#    0.000    0.000    0.000    0.000    0.000    0.000 
#    0.000    0.000    0.000    0.000    0.000    0.000 
#
# Total GULP energy -198245.938597 kJ/mol
# GULP energy per Si atom -12390.371162 kJ/mol
# Density = 2.285788 g / cm^3
# Si number density = 22.910025 Si / 1000 Ang^3
#
#
#
# Elastic Constant Matrix: (Units=GPa)
#
#
# Indices 1 2 3 4 5 6 
#
# 1 93.4758 43.7734 31.8183 0.0000 -22.6307 0.0000
# 2 43.7734 85.6990 26.6739 0.0000 -10.8168 0.0000
# 3 31.8183 26.6739 74.3924 0.0000 -11.8656 0.0000
# 4 0.0000 0.0000 0.0000 29.6337 0.0000 -3.9883
# 5 -22.6307 -10.8168 -11.8656 0.0000 38.8763 0.0000
# 6 0.0000 0.0000 0.0000 -3.9883 0.0000 40.9614
#
#
#
# Elastic Compliance Matrix: (Units=1/GPa)
#
#
# Indices 1 2 3 4 5 6 
#
# 1 0.016633 -0.006489 -0.003712 0.000000 0.006744 0.000000
# 2 -0.006489 0.015870 -0.002957 0.000000 -0.000264 0.000000
# 3 -0.003712 -0.002957 0.016413 0.000000 0.002026 0.000000
# 4 0.000000 0.000000 0.000000 0.034193 0.000000 0.003329
# 5 0.006744 -0.000264 0.002026 0.000000 0.030193 0.000000
# 6 0.000000 0.000000 0.000000 0.003329 0.000000 0.024737
#
#
# Mechanical properties :
#
#
# Convention : Reuss Voigt Hill
#
# Bulk Modulus (GPa) = 44.24675 50.89980 47.57328
# Shear Modulus (GPa) = 29.08833 31.98104 30.53468
#
# Velocity S-wave (km/s) = 3.56712 3.74028 3.65473
# Velocity P-wave (km/s) = 6.02669 6.39675 6.21448
#
# Compressibility (1/GPa) = 0.02260053
#
# Stress axis : x y z
#
# Youngs Moduli (GPa) = 60.12156 63.01037 60.92670
#
# Poissons Ratio (x) = 0.40890 0.22614
# Poissons Ratio (y) = 0.39015 0.18016
# Poissons Ratio (z) = 0.22315 0.18633
#
# Static dielectric constant tensor:
#      x y z
#    x 4.454170 0.000000 -0.441800 
#    y 0.000000 4.156450 0.000000 
#    z -0.441800 0.000000 4.225730 
# 
# 
# High freq. dielectric constant tensor:
#      x y z
#    x 1.913950 0.000000 -0.012340 
#    y 0.000000 1.905120 0.000000 
#    z -0.012340 0.000000 1.892790 
# 
# From -- ./inp_files/7543.got.cif
#   From: 2010.06.25/outbox.cif.g09.slc.cpg/sg9_4_cif.got.tgz:7543.got - 2010.06.27 21:40:51.
