data_PCOD8055746
_publ_section_title
;
Structure prediction by ZEFSAII (Michael W. Deem and Ramdas Pophale) SiO2 
 PCOD8055746
Probable space group: C C
;
_chemical_formula_sum "Si O2"
_cell_formula_units_Z 32
_cell_length_a 15.031375
_cell_length_b 11.676104
_cell_length_c 9.778613
_cell_angle_alpha 90.000000
_cell_angle_beta 127.647946
_cell_angle_gamma 90.000000
_cell_volume 1358.869607
_symmetry_space_group_name_H-M "C C"
_symmetry_group_IT_number 9
_symmetry_cell_setting 'monoclinic'
loop_
_space_group_symop_operation_xyz
x,y,z
x,-y,1/2+z
1/2+x,1/2+y,z
1/2+x,1/2-y,1/2+z
loop_
_atom_site_type_symbol
_atom_site_label
_atom_site_fract_x
_atom_site_fract_y
_atom_site_fract_z
Si Si1 0.774720 0.153601 0.674640
Si Si2 0.420715 0.268146 0.087325
Si Si3 0.263430 0.072734 0.844431
Si Si4 0.475421 0.072597 0.504934
Si Si5 0.951480 0.998067 0.948436
Si Si6 0.580403 0.083203 0.315765
Si Si7 0.591982 0.290096 0.671935
Si Si8 0.634403 0.562561 0.440864
O O1 0.878960 0.219774 0.704814
O O2 0.828609 0.056237 0.822324
O O3 0.707906 0.093676 0.486427
O O4 0.693397 0.241727 0.675116
O O5 0.539695 0.203357 0.211112
O O6 0.329306 0.191940 0.921350
O O7 0.440016 0.388813 0.034369
O O8 0.196656 0.080651 0.641986
O O9 0.351024 0.967517 0.921532
O O10 0.185551 0.044096 0.902307
O O11 0.501716 0.049181 0.370806
O O12 0.485871 0.205471 0.559305
O O13 0.570449 0.011470 0.688306
O O14 0.001587 0.961398 0.847186
O O15 0.049733 0.083136 0.093208
O O16 0.640368 0.313885 0.869074
#
# Coordination Sequence:
#
# PCOD8055746 Si02
#       8
#     4   4   4   4   4   4   4   4
#     4  11  25  44  76 102 150 200 242 305 385 446
#     4  11  26  46  74 107 152 194 253 307 378 448
#     4  11  25  47  78 106 147 202 250 302 383 448
#     4  10  23  46  70 110 142 193 247 307 361 452
#     4  12  27  47  73 114 149 195 253 314 369 449
#     4  10  24  44  74 103 147 192 246 307 372 443
#     4  11  26  44  74 105 152 190 252 306 378 443
#     4  12  26  46  77 111 149 194 253 310 374 451
#
# _framework density 23.548984999999998
#
# number of rings (size 3 to 8) (size 9 to 14) (size 15 to 20)
#    0.000    1.000    1.250    4.500    8.750    4.000 
#    0.000    0.000    0.000    0.000    0.000    0.000 
#    0.000    0.000    0.000    0.000    0.000    0.000 
#
# Total GULP energy -198368.475072 kJ/mol
# GULP energy per Si atom -12398.029692 kJ/mol
# Density = 2.349539 g / cm^3
# Si number density = 23.548985 Si / 1000 Ang^3
#
#
#
# Elastic Constant Matrix: (Units=GPa)
#
#
# Indices 1 2 3 4 5 6 
#
# 1 100.3791 51.3225 24.5634 0.0000 -1.9746 0.0000
# 2 51.3225 142.7559 47.5495 0.0000 -10.7441 0.0000
# 3 24.5634 47.5495 124.3941 0.0000 -6.0816 0.0000
# 4 0.0000 0.0000 0.0000 46.1141 0.0000 1.3313
# 5 -1.9746 -10.7441 -6.0816 0.0000 34.0636 0.0000
# 6 0.0000 0.0000 0.0000 1.3313 0.0000 31.6919
#
#
#
# Elastic Compliance Matrix: (Units=1/GPa)
#
#
# Indices 1 2 3 4 5 6 
#
# 1 0.012302 -0.004192 -0.000864 0.000000 -0.000763 0.000000
# 2 -0.004192 0.009593 -0.002727 0.000000 0.002296 0.000000
# 3 -0.000864 -0.002727 0.009289 0.000000 0.000748 0.000000
# 4 0.000000 0.000000 0.000000 0.021712 0.000000 -0.000912
# 5 -0.000763 0.002296 0.000748 0.000000 0.030170 0.000000
# 6 0.000000 0.000000 0.000000 -0.000912 0.000000 0.031592
#
#
# Mechanical properties :
#
#
# Convention : Reuss Voigt Hill
#
# Bulk Modulus (GPa) = 64.03183 68.26666 66.14925
# Shear Modulus (GPa) = 36.91926 38.64683 37.78304
#
# Velocity S-wave (km/s) = 3.96380 4.05547 4.00990
# Velocity P-wave (km/s) = 6.94254 7.14012 7.04202
#
# Compressibility (1/GPa) = 0.01561723
#
# Stress axis : x y z
#
# Youngs Moduli (GPa) = 81.28634 104.23954 107.65988
#
# Poissons Ratio (x) = 0.43702 0.09302
# Poissons Ratio (y) = 0.34079 0.29358
# Poissons Ratio (z) = 0.07023 0.28425
#
# Static dielectric constant tensor:
#      x y z
#    x 4.334270 0.000000 0.027820 
#    y 0.000000 4.324010 0.000000 
#    z 0.027820 0.000000 4.406050 
# 
# 
# High freq. dielectric constant tensor:
#      x y z
#    x 1.931570 0.000000 0.004650 
#    y 0.000000 1.932580 0.000000 
#    z 0.004650 0.000000 1.947110 
# 
# From -- ./inp_files/9328.got.cif
#   From: 2010.06.25/outbox.cif.g09.slc.cpg/sg9_5_cif.got.tgz:9328.got - 2010.06.27 21:40:51.
