data_PCOD8055687
_publ_section_title
;
Structure prediction by ZEFSAII (Michael W. Deem and Ramdas Pophale) SiO2 
 PCOD8055687
Probable space group: C C
;
_chemical_formula_sum "Si O2"
_cell_formula_units_Z 32
_cell_length_a 9.600999
_cell_length_b 9.952917
_cell_length_c 15.205138
_cell_angle_alpha 90.000000
_cell_angle_beta 116.430751
_cell_angle_gamma 90.000000
_cell_volume 1301.096969
_symmetry_space_group_name_H-M "C C"
_symmetry_group_IT_number 9
_symmetry_cell_setting 'monoclinic'
loop_
_space_group_symop_operation_xyz
x,y,z
x,-y,1/2+z
1/2+x,1/2+y,z
1/2+x,1/2-y,1/2+z
loop_
_atom_site_type_symbol
_atom_site_label
_atom_site_fract_x
_atom_site_fract_y
_atom_site_fract_z
Si Si1 0.443410 0.336964 0.188500
Si Si2 0.415743 0.713693 0.122837
Si Si3 0.644741 0.284088 0.541989
Si Si4 0.158863 0.196419 0.345307
Si Si5 0.988601 0.035588 0.875054
Si Si6 0.450730 0.887490 0.824105
Si Si7 0.242442 0.533796 0.952488
Si Si8 0.733322 0.560055 0.661181
O O1 0.292924 0.316182 0.082257
O O2 0.403401 0.438801 0.257741
O O3 0.488848 0.194785 0.245941
O O4 0.583464 0.388947 0.170396
O O5 0.509017 0.775948 0.065977
O O6 0.534172 0.680704 0.232957
O O7 0.287122 0.821522 0.112427
O O8 0.329915 0.573560 0.068400
O O9 0.574949 0.322127 0.425989
O O10 0.689446 0.428903 0.594538
O O11 0.331684 0.189962 0.354357
O O12 0.147828 0.336683 0.391804
O O13 0.121136 0.078041 0.403502
O O14 0.866321 0.986414 0.913873
O O15 0.608383 0.919536 0.925418
O O16 0.368817 0.026153 0.769539
#
# Coordination Sequence:
#
# PCOD8055687 Si02
#       8
#     4   4   4   4   4   4   4   4
#     4  11  22  43  65  94 129 170 213 263 325 384
#     4  11  22  42  66  96 127 170 218 266 321 388
#     4  10  23  45  63  94 135 165 217 267 322 385
#     4  12  22  45  67  90 136 171 208 272 331 374
#     4  11  23  42  68  96 128 175 213 267 326 384
#     4  11  23  41  64  91 131 167 211 269 317 385
#     4  11  25  42  66  98 129 169 224 261 325 397
#     4  11  22  42  65  91 127 171 214 265 321 381
#
# _framework density 24.594629999999999
#
# number of rings (size 3 to 8) (size 9 to 14) (size 15 to 20)
#    0.000    1.000    6.250    0.750    1.750    1.000 
#    6.750    1.250    0.000    0.000    0.000    0.000 
#    0.000    0.000    0.000    0.000    0.000    0.000 
#
# Total GULP energy -198429.571901 kJ/mol
# GULP energy per Si atom -12401.848244 kJ/mol
# Density = 2.453865 g / cm^3
# Si number density = 24.594630 Si / 1000 Ang^3
#
#
#
# Elastic Constant Matrix: (Units=GPa)
#
#
# Indices 1 2 3 4 5 6 
#
# 1 82.1659 9.4504 16.4291 0.0000 6.3340 0.0000
# 2 9.4504 31.5519 -21.0140 0.0000 1.6964 0.0000
# 3 16.4291 -21.0140 98.2468 0.0000 25.1579 0.0000
# 4 0.0000 0.0000 0.0000 30.8953 0.0000 7.9515
# 5 6.3340 1.6964 25.1579 0.0000 39.3102 0.0000
# 6 0.0000 0.0000 0.0000 7.9515 0.0000 45.2691
#
#
#
# Elastic Compliance Matrix: (Units=1/GPa)
#
#
# Indices 1 2 3 4 5 6 
#
# 1 0.013670 -0.006695 -0.003861 0.000000 0.000557 0.000000
# 2 -0.006695 0.042444 0.012427 0.000000 -0.008706 0.000000
# 3 -0.003861 0.012427 0.016098 0.000000 -0.010217 0.000000
# 4 0.000000 0.000000 0.000000 0.033900 0.000000 -0.005955
# 5 0.000557 -0.008706 -0.010217 0.000000 0.032263 0.000000
# 6 0.000000 0.000000 0.000000 -0.005955 0.000000 0.023136
#
#
# Mechanical properties :
#
#
# Convention : Reuss Voigt Hill
#
# Bulk Modulus (GPa) = 13.16572 24.63283 18.89928
# Shear Modulus (GPa) = 27.30941 36.90153 32.10547
#
# Velocity S-wave (km/s) = 3.33585 3.87769 3.61693
# Velocity P-wave (km/s) = 4.49466 5.48506 5.01437
#
# Compressibility (1/GPa) = 0.07595482
#
# Stress axis : x y z
#
# Youngs Moduli (GPa) = 73.15518 23.56035 62.11800
#
# Poissons Ratio (x) = 0.15775 0.23981
# Poissons Ratio (y) = 0.48981 -0.77197
# Poissons Ratio (z) = 0.28242 -0.29279
#
# Static dielectric constant tensor:
#      x y z
#    x 4.346630 0.000000 0.212960 
#    y 0.000000 4.533800 0.000000 
#    z 0.212960 0.000000 4.883630 
# 
# 
# High freq. dielectric constant tensor:
#      x y z
#    x 1.967220 0.000000 0.015620 
#    y 0.000000 1.992700 0.000000 
#    z 0.015620 0.000000 2.001440 
# 
# From -- ./inp_files/22718.got.cif
#   From: 2010.06.25/outbox.cif.g09.slc.cpg/sg9_12_cif.got.tgz:22718.got - 2010.06.27 21:40:51.
