data_PCOD8055566
_publ_section_title
;
Structure prediction by ZEFSAII (Michael W. Deem and Ramdas Pophale) SiO2 
 PCOD8055566
Probable space group: C C
;
_chemical_formula_sum "Si O2"
_cell_formula_units_Z 24
_cell_length_a 7.448773
_cell_length_b 22.600142
_cell_length_c 8.800726
_cell_angle_alpha 90.000000
_cell_angle_beta 126.617325
_cell_angle_gamma 90.000000
_cell_volume 1189.141857
_symmetry_space_group_name_H-M "C C"
_symmetry_group_IT_number 9
_symmetry_cell_setting 'monoclinic'
loop_
_space_group_symop_operation_xyz
x,y,z
x,-y,1/2+z
1/2+x,1/2+y,z
1/2+x,1/2-y,1/2+z
loop_
_atom_site_type_symbol
_atom_site_label
_atom_site_fract_x
_atom_site_fract_y
_atom_site_fract_z
Si Si1 0.919290 0.676423 0.689270
Si Si2 0.449299 0.996819 0.371145
Si Si3 0.711747 0.425998 0.516074
Si Si4 0.186830 0.574014 0.726218
Si Si5 0.979344 0.676415 0.053232
Si Si6 0.449303 0.710462 0.371261
O O1 0.082076 0.640408 0.659468
O O2 0.664931 0.668776 0.499772
O O3 0.975174 0.746949 0.733855
O O4 0.949374 0.647011 0.871270
O O5 0.629915 0.037849 0.546576
O O6 0.312200 0.957774 0.419966
O O7 0.586553 0.957802 0.322417
O O8 0.268516 0.037792 0.195599
O O9 0.816521 0.359610 0.582970
O O10 0.449298 0.419154 0.371084
O O11 0.233679 0.668774 0.242773
O O12 0.923424 0.746939 0.008643
#
# Coordination Sequence:
#
# PCOD8055566 Si02
#       6
#     4   4   4   4   4   4
#     4   9  17  35  59  84 111 153 188 230 286 337
#     4  10  23  42  56  86 118 156 187 240 294 332
#     4  11  22  39  61  87 116 151 195 237 287 344
#     4  11  22  39  61  87 116 151 195 237 287 344
#     4   9  17  35  59  84 111 153 188 230 286 337
#     4   8  17  34  60  84 112 154 187 228 290 340
#
# _framework density 20.182621999999999
#
# number of rings (size 3 to 8) (size 9 to 14) (size 15 to 20)
#    1.000    1.333    1.667    1.000    0.000    2.667 
#   12.000    1.667    0.000    0.000    0.000    0.000 
#    0.000    0.000    0.000    0.000    0.000    0.000 
#
# Total GULP energy -148688.990758 kJ/mol
# GULP energy per Si atom -12390.749230 kJ/mol
# Density = 2.013669 g / cm^3
# Si number density = 20.182622 Si / 1000 Ang^3
#
#
#
# Elastic Constant Matrix: (Units=GPa)
#
#
# Indices 1 2 3 4 5 6 
#
# 1 85.5701 43.1033 61.1967 0.0000 37.5749 0.0000
# 2 43.1033 73.5672 37.0411 0.0000 22.0951 0.0000
# 3 61.1967 37.0411 135.8736 0.0000 45.0767 0.0000
# 4 0.0000 0.0000 0.0000 8.4363 0.0000 15.4098
# 5 37.5749 22.0951 45.0767 0.0000 48.3473 0.0000
# 6 0.0000 0.0000 0.0000 15.4098 0.0000 21.5945
#
#
#
# Elastic Compliance Matrix: (Units=1/GPa)
#
#
# Indices 1 2 3 4 5 6 
#
# 1 0.024066 -0.008479 -0.005224 0.000000 -0.009958 0.000000
# 2 -0.008479 0.019492 -0.001051 0.000000 -0.001338 0.000000
# 3 -0.005224 -0.001051 0.012296 0.000000 -0.006924 0.000000
# 4 0.000000 0.000000 0.000000 -0.390612 0.000000 0.278740
# 5 -0.009958 -0.001338 -0.006924 0.000000 0.035490 0.000000
# 6 0.000000 0.000000 0.000000 0.278740 0.000000 -0.152600
#
#
# Mechanical properties :
#
#
# Convention : Reuss Voigt Hill
#
# Bulk Modulus (GPa) = 37.95607 64.18813 51.07210
# Shear Modulus (GPa) = -12.08966 25.92027 6.91530
#
# Velocity S-wave (km/s) = -2.45013 3.58758 1.85305
# Velocity P-wave (km/s) = 3.29286 7.00241 5.47159
#
# Compressibility (1/GPa) = 0.02634625
#
# Stress axis : x y z
#
# Youngs Moduli (GPa) = 41.55154 51.30268 81.32562
#
# Poissons Ratio (x) = 0.43502 0.42485
# Poissons Ratio (y) = 0.35233 0.08545
# Poissons Ratio (z) = 0.21707 0.05391
#
# Static dielectric constant tensor:
#      x y z
#    x 3.340460 0.000000 -0.004220 
#    y 0.000000 3.599080 0.000000 
#    z -0.004220 0.000000 3.793970 
# 
# 
# High freq. dielectric constant tensor:
#      x y z
#    x 1.751960 0.000000 0.016830 
#    y 0.000000 1.784900 0.000000 
#    z 0.016830 0.000000 1.798790 
# 
# From -- ./inp_files/4097.got.cif
#   From: 2010.06.25/outbox.cif.g09.slc.cpg/sg9_3_cif.got.tgz:4097.got - 2010.06.27 21:40:51.
