data_PCOD8055622
_publ_section_title
;
Structure prediction by ZEFSAII (Michael W. Deem and Ramdas Pophale) SiO2 
 PCOD8055622
Probable space group: C C
;
_chemical_formula_sum "Si O2"
_cell_formula_units_Z 32
_cell_length_a 8.201855
_cell_length_b 22.352627
_cell_length_c 14.738984
_cell_angle_alpha 90.000000
_cell_angle_beta 146.460519
_cell_angle_gamma 90.000000
_cell_volume 1492.964559
_symmetry_space_group_name_H-M "C C"
_symmetry_group_IT_number 9
_symmetry_cell_setting 'monoclinic'
loop_
_space_group_symop_operation_xyz
x,y,z
x,-y,1/2+z
1/2+x,1/2+y,z
1/2+x,1/2-y,1/2+z
loop_
_atom_site_type_symbol
_atom_site_label
_atom_site_fract_x
_atom_site_fract_y
_atom_site_fract_z
Si Si1 0.859510 0.867487 0.116180
Si Si2 0.298952 0.784223 0.399091
Si Si3 0.139088 0.847910 0.512179
Si Si4 0.346000 0.426546 0.741146
Si Si5 0.661236 0.550387 0.896142
Si Si6 0.712485 0.674715 0.342742
Si Si7 0.247017 0.645430 0.370127
Si Si8 0.822645 0.781803 0.515791
O O1 0.003804 0.803648 0.209524
O O2 0.024948 0.921181 0.242679
O O3 0.518722 0.859603 0.979754
O O4 0.885308 0.884630 0.023178
O O5 0.285069 0.809971 0.495801
O O6 0.342401 0.714079 0.419269
O O7 0.573525 0.809997 0.466922
O O8 0.033765 0.911673 0.422579
O O9 0.392632 0.858626 0.704020
O O10 0.869813 0.817441 0.441906
O O11 0.560359 0.482664 0.852784
O O12 0.471360 0.378542 0.728403
O O13 0.379426 0.391592 0.850194
O O14 0.017241 0.446125 0.560731
O O15 0.723567 0.715195 0.439245
O O16 0.627910 0.716802 0.216457
#
# Coordination Sequence:
#
# PCOD8055622 Si02
#       8
#     4   4   4   4   4   4   4   4
#     4  11  24  41  68 101 139 184 230 282 349 405
#     4  11  23  41  66 100 148 185 221 283 346 417
#     4  10  23  43  68  96 141 186 226 282 348 412
#     4  11  24  49  73  95 137 183 235 290 351 408
#     4  10  24  48  72  96 134 185 235 290 347 406
#     4  12  25  42  68 103 144 183 228 284 345 423
#     4  11  20  41  65  99 137 179 225 282 346 409
#     4  12  25  41  64 108 140 183 232 279 346 420
#
# _framework density 21.433865000000001
#
# number of rings (size 3 to 8) (size 9 to 14) (size 15 to 20)
#    0.000    1.000    2.500    5.250    5.250    0.000 
#    4.500    1.250    0.000    0.000    0.000    0.000 
#    0.000    0.000    0.000    0.000    0.000    0.000 
#
# Total GULP energy -198273.256266 kJ/mol
# GULP energy per Si atom -12392.078517 kJ/mol
# Density = 2.138508 g / cm^3
# Si number density = 21.433865 Si / 1000 Ang^3
#
#
#
# Elastic Constant Matrix: (Units=GPa)
#
#
# Indices 1 2 3 4 5 6 
#
# 1 100.9168 38.2612 38.3530 0.0004 0.0418 -0.0001
# 2 38.2612 135.8314 56.7050 -0.0003 -0.1369 0.0000
# 3 38.3530 56.7050 127.8156 0.0014 -11.0262 -0.0001
# 4 0.0004 -0.0003 0.0014 19.5696 0.0015 8.8364
# 5 0.0418 -0.1369 -11.0262 0.0015 35.6011 0.0000
# 6 -0.0001 0.0000 -0.0001 8.8364 0.0000 23.4473
#
#
#
# Elastic Compliance Matrix: (Units=1/GPa)
#
#
# Indices 1 2 3 4 5 6 
#
# 1 0.011743 -0.002219 -0.002611 0.000000 -0.000831 0.000000
# 2 -0.002219 0.009508 -0.003647 0.000001 -0.001090 0.000000
# 3 -0.002611 -0.003647 0.010505 -0.000001 0.003243 0.000001
# 4 0.000000 0.000001 -0.000001 0.061578 -0.000003 -0.023206
# 5 -0.000831 -0.001090 0.003243 -0.000003 0.029090 0.000001
# 6 0.000000 0.000000 0.000001 -0.023206 0.000001 0.051394
#
#
# Mechanical properties :
#
#
# Convention : Reuss Voigt Hill
#
# Bulk Modulus (GPa) = 67.55188 70.13356 68.84272
# Shear Modulus (GPa) = 25.54856 31.13992 28.34424
#
# Velocity S-wave (km/s) = 3.45624 3.81575 3.64043
# Velocity P-wave (km/s) = 6.89292 7.22531 7.06107
#
# Compressibility (1/GPa) = 0.01480344
#
# Stress axis : x y z
#
# Youngs Moduli (GPa) = 85.15739 105.17178 95.19448
#
# Poissons Ratio (x) = 0.23333 0.24856
# Poissons Ratio (y) = 0.18893 0.34714
# Poissons Ratio (z) = 0.22235 0.38352
#
# Static dielectric constant tensor:
#      x y z
#    x 3.922600 -0.000010 -0.111460 
#    y -0.000010 4.121810 -0.000010 
#    z -0.111460 -0.000010 4.028060 
# 
# 
# High freq. dielectric constant tensor:
#      x y z
#    x 1.839210 0.000000 -0.005090 
#    y 0.000000 1.824310 0.000000 
#    z -0.005090 0.000000 1.856490 
# 
# From -- ./inp_files/6091.got.cif
#   From: 2010.06.25/outbox.cif.g09.slc.cpg/sg9_4_cif.got.tgz:6091.got - 2010.06.27 21:40:51.
