data_PCOD8055786
_publ_section_title
;
Structure prediction by ZEFSAII (Michael W. Deem and Ramdas Pophale) SiO2 
 PCOD8055786
Probable space group: C C
;
_chemical_formula_sum "Si O2"
_cell_formula_units_Z 20
_cell_length_a 5.113644
_cell_length_b 18.516019
_cell_length_c 10.144925
_cell_angle_alpha 90.000000
_cell_angle_beta 62.287057
_cell_angle_gamma 90.000000
_cell_volume 850.377613
_symmetry_space_group_name_H-M "C C"
_symmetry_group_IT_number 9
_symmetry_cell_setting 'monoclinic'
loop_
_space_group_symop_operation_xyz
x,y,z
x,-y,1/2+z
1/2+x,1/2+y,z
1/2+x,1/2-y,1/2+z
loop_
_atom_site_type_symbol
_atom_site_label
_atom_site_fract_x
_atom_site_fract_y
_atom_site_fract_z
Si Si1 0.576080 0.811073 0.880690
Si Si2 0.672511 0.802044 0.569612
Si Si3 0.942124 0.158791 0.547373
Si Si4 0.383414 0.516568 0.707827
Si Si5 0.545037 0.041663 0.046290
O O1 0.755843 0.814855 0.703227
O O2 0.281366 0.859496 0.930990
O O3 0.476720 0.727555 0.932626
O O4 0.758242 0.845982 0.956400
O O5 0.421228 0.738773 0.617846
O O6 0.541876 0.871740 0.525721
O O7 0.722588 0.995716 0.385069
O O8 0.834449 0.099841 0.677490
O O9 0.228142 0.466979 0.636928
O O10 0.723867 0.493092 0.637893
#
# Coordination Sequence:
#
# PCOD8055786 Si02
#       5
#     4   4   4   4   4
#     4  10  24  39  76 100 140 182 238 302 358 429
#     4  10  26  44  74 105 139 187 247 298 368 428
#     4  10  25  45  71  99 146 179 245 298 364 421
#     4  12  28  49  71 111 146 200 238 311 362 450
#     4  12  29  47  76 105 153 190 254 293 380 434
#
# _framework density 23.518967
#
# number of rings (size 3 to 8) (size 9 to 14) (size 15 to 20)
#    1.200    0.000    0.000    3.600   14.000    0.000 
#    0.000    0.000    0.000    0.000    0.000    0.000 
#    0.000    0.000    0.000    0.000    0.000    0.000 
#
# Total GULP energy -123955.265342 kJ/mol
# GULP energy per Si atom -12395.526534 kJ/mol
# Density = 2.346544 g / cm^3
# Si number density = 23.518967 Si / 1000 Ang^3
#
#
#
# Elastic Constant Matrix: (Units=GPa)
#
#
# Indices 1 2 3 4 5 6 
#
# 1 131.1692 16.4777 57.9892 0.0000 10.7000 0.0000
# 2 16.4777 105.8503 21.9496 0.0000 -5.7000 0.0000
# 3 57.9892 21.9496 139.3908 0.0000 -3.5589 0.0000
# 4 0.0000 0.0000 0.0000 35.1360 0.0000 2.9198
# 5 10.7000 -5.7000 -3.5589 0.0000 35.1416 0.0000
# 6 0.0000 0.0000 0.0000 2.9198 0.0000 21.3035
#
#
#
# Elastic Compliance Matrix: (Units=1/GPa)
#
#
# Indices 1 2 3 4 5 6 
#
# 1 0.009805 -0.000881 -0.004031 0.000000 -0.003536 0.000000
# 2 -0.000881 0.009918 -0.001150 0.000000 0.001760 0.000000
# 3 -0.004031 -0.001150 0.009082 0.000000 0.001960 0.000000
# 4 0.000000 0.000000 0.000000 0.028789 0.000000 -0.003946
# 5 -0.003536 0.001760 0.001960 0.000000 0.030017 0.000000
# 6 0.000000 0.000000 0.000000 -0.003946 0.000000 0.047482
#
#
# Mechanical properties :
#
#
# Convention : Reuss Voigt Hill
#
# Bulk Modulus (GPa) = 59.94839 63.24924 61.59882
# Shear Modulus (GPa) = 32.72768 36.98248 34.85508
#
# Velocity S-wave (km/s) = 3.73439 3.96972 3.85385
# Velocity P-wave (km/s) = 6.64371 6.92552 6.78608
#
# Compressibility (1/GPa) = 0.01668102
#
# Stress axis : x y z
#
# Youngs Moduli (GPa) = 101.99121 100.82915 110.10736
#
# Poissons Ratio (x) = 0.08883 0.44379
# Poissons Ratio (y) = 0.08985 0.12666
# Poissons Ratio (z) = 0.41108 0.11598
#
# Static dielectric constant tensor:
#      x y z
#    x 3.997920 0.000000 0.053830 
#    y 0.000000 4.266660 0.000000 
#    z 0.053830 0.000000 4.057870 
# 
# 
# High freq. dielectric constant tensor:
#      x y z
#    x 1.917670 0.000000 0.011340 
#    y 0.000000 1.939690 0.000000 
#    z 0.011340 0.000000 1.931950 
# 
# From -- ./inp_files/3695.got.cif
#   From: 2010.06.25/outbox.cif.g09.slc.cpg/sg9_2_cif.got.tgz:3695.got - 2010.06.27 21:40:51.
