data_PCOD8055454
_publ_section_title
;
Structure prediction by ZEFSAII (Michael W. Deem and Ramdas Pophale) SiO2 
 PCOD8055454
Probable space group: C C
;
_chemical_formula_sum "Si O2"
_cell_formula_units_Z 32
_cell_length_a 30.235696
_cell_length_b 8.016906
_cell_length_c 12.436837
_cell_angle_alpha 90.000000
_cell_angle_beta 27.709920
_cell_angle_gamma 90.000000
_cell_volume 1401.797554
_symmetry_space_group_name_H-M "C C"
_symmetry_group_IT_number 9
_symmetry_cell_setting 'monoclinic'
loop_
_space_group_symop_operation_xyz
x,y,z
x,-y,1/2+z
1/2+x,1/2+y,z
1/2+x,1/2-y,1/2+z
loop_
_atom_site_type_symbol
_atom_site_label
_atom_site_fract_x
_atom_site_fract_y
_atom_site_fract_z
Si Si1 0.928790 0.009033 0.638850
Si Si2 0.972466 0.288569 0.376897
Si Si3 0.818832 0.461401 0.182065
Si Si4 0.073467 0.209016 0.935545
Si Si5 0.080273 0.450664 0.325279
Si Si6 0.473349 0.750467 0.726919
Si Si7 0.663278 0.425858 0.861261
Si Si8 0.761132 0.230781 0.483355
O O1 0.965153 0.117470 0.459642
O O2 0.923745 0.114429 0.758491
O O3 0.826022 0.932317 0.839153
O O4 0.998975 0.855296 0.507737
O O5 0.867051 0.357141 0.580558
O O6 0.025897 0.256293 0.151355
O O7 0.024963 0.436993 0.330957
O O8 0.714946 0.485517 0.350532
O O9 0.803693 0.392649 0.333903
O O10 0.888351 0.323270 0.980356
O O11 0.119030 0.366345 0.774590
O O12 0.150820 0.066537 0.794626
O O13 0.012476 0.400014 0.569943
O O14 0.165344 0.320653 0.128222
O O15 0.560060 0.661080 0.607928
O O16 0.735816 0.286106 0.659281
#
# Coordination Sequence:
#
# PCOD8055454 Si02
#       8
#     4   4   4   4   4   4   4   4
#     4  10  24  42  68  96 138 166 235 279 343 415
#     4  11  24  43  70 103 128 182 232 278 350 416
#     4  12  24  43  73  97 137 181 234 284 353 421
#     4  11  22  45  72  94 137 186 217 291 346 403
#     4  10  22  45  65  99 137 172 230 282 342 419
#     4   9  22  45  68  95 133 184 221 294 342 414
#     4  10  25  44  67  98 142 175 238 283 353 414
#     4  11  25  43  63 106 134 176 227 287 343 418
#
# _framework density 22.827831
#
# number of rings (size 3 to 8) (size 9 to 14) (size 15 to 20)
#    0.000    1.500    1.250    3.000    8.750    0.000 
#    4.500    0.000    0.000    0.000    0.000    0.000 
#    0.000    0.000    0.000    0.000    0.000    0.000 
#
# Total GULP energy -198343.640259 kJ/mol
# GULP energy per Si atom -12396.477516 kJ/mol
# Density = 2.277587 g / cm^3
# Si number density = 22.827831 Si / 1000 Ang^3
#
#
#
# Elastic Constant Matrix: (Units=GPa)
#
#
# Indices 1 2 3 4 5 6 
#
# 1 90.6582 30.4970 32.5395 0.0000 -8.4124 0.0000
# 2 30.4970 94.7596 21.3799 0.0000 7.0538 0.0001
# 3 32.5395 21.3799 65.2988 0.0000 0.8614 0.0000
# 4 0.0000 0.0000 0.0000 36.1610 0.0000 -4.7713
# 5 -8.4124 7.0538 0.8614 0.0000 25.1587 0.0000
# 6 0.0000 0.0001 0.0000 -4.7713 0.0000 34.9549
#
#
#
# Elastic Compliance Matrix: (Units=1/GPa)
#
#
# Indices 1 2 3 4 5 6 
#
# 1 0.015247 -0.003943 -0.006392 0.000000 0.006422 0.000000
# 2 -0.003943 0.012656 -0.002116 0.000000 -0.004794 0.000000
# 3 -0.006392 -0.002116 0.019221 0.000000 -0.002202 0.000000
# 4 0.000000 0.000000 0.000000 0.028161 0.000000 0.003844
# 5 0.006422 -0.004794 -0.002202 0.000000 0.043315 0.000000
# 6 0.000000 0.000000 0.000000 0.003844 0.000000 0.029133
#
#
# Mechanical properties :
#
#
# Convention : Reuss Voigt Hill
#
# Bulk Modulus (GPa) = 44.99714 46.61659 45.80687
# Shear Modulus (GPa) = 27.77136 30.34161 29.05648
#
# Velocity S-wave (km/s) = 3.49170 3.64971 3.57158
# Velocity P-wave (km/s) = 6.00086 6.18270 6.09246
#
# Compressibility (1/GPa) = 0.02222363
#
# Stress axis : x y z
#
# Youngs Moduli (GPa) = 65.58720 79.01222 52.02642
#
# Poissons Ratio (x) = 0.31155 0.33253
# Poissons Ratio (y) = 0.25861 0.11007
# Poissons Ratio (z) = 0.41920 0.16717
#
# Static dielectric constant tensor:
#      x y z
#    x 4.069220 0.000000 -0.132320 
#    y 0.000000 4.300100 0.000000 
#    z -0.132320 0.000000 3.858830 
# 
# 
# High freq. dielectric constant tensor:
#      x y z
#    x 1.900460 0.000000 -0.006240 
#    y 0.000000 1.913520 0.000000 
#    z -0.006240 0.000000 1.888030 
# 
# From -- ./inp_files/17801.got.cif
#   From: 2010.06.25/outbox.cif.g09.slc.cpg/sg9_9_cif.got.tgz:17801.got - 2010.06.27 21:40:51.
