data_PCOD8055240
_publ_section_title
;
Structure prediction by ZEFSAII (Michael W. Deem and Ramdas Pophale) SiO2 
 PCOD8055240
Probable space group: C C
;
_chemical_formula_sum "Si O2"
_cell_formula_units_Z 32
_cell_length_a 14.347725
_cell_length_b 8.231675
_cell_length_c 24.238360
_cell_angle_alpha 90.000000
_cell_angle_beta 29.833548
_cell_angle_gamma 90.000000
_cell_volume 1424.137226
_symmetry_space_group_name_H-M "C C"
_symmetry_group_IT_number 9
_symmetry_cell_setting 'monoclinic'
loop_
_space_group_symop_operation_xyz
x,y,z
x,-y,1/2+z
1/2+x,1/2+y,z
1/2+x,1/2-y,1/2+z
loop_
_atom_site_type_symbol
_atom_site_label
_atom_site_fract_x
_atom_site_fract_y
_atom_site_fract_z
Si Si1 0.213870 0.596484 0.420910
Si Si2 0.945996 0.104537 0.634458
Si Si3 0.423903 0.114933 0.761642
Si Si4 0.142392 0.580580 0.238255
Si Si5 0.090562 0.554028 0.875504
Si Si6 0.617604 0.551446 0.724657
Si Si7 0.426530 0.037638 0.145403
Si Si8 0.192032 0.883537 0.578493
O O1 0.259901 0.775474 0.373036
O O2 0.091140 0.508665 0.437307
O O3 0.400540 0.498211 0.341606
O O4 0.075630 0.597281 0.545289
O O5 0.790200 0.140981 0.762606
O O6 0.028616 0.285810 0.583595
O O7 0.837530 0.025007 0.637264
O O8 0.100095 0.971074 0.572633
O O9 0.364907 0.004468 0.739753
O O10 0.585156 0.227646 0.654573
O O11 0.493031 0.002461 0.775227
O O12 0.072160 0.587998 0.338206
O O13 0.168587 0.762075 0.206102
O O14 0.908850 0.668067 0.957516
O O15 0.733637 0.450968 0.710430
O O16 0.691361 0.519862 0.625776
#
# Coordination Sequence:
#
# PCOD8055240 Si02
#       8
#     4   4   4   4   4   4   4   4
#     4  11  24  44  68  96 134 177 218 274 336 382
#     4  10  22  42  63  96 129 168 222 273 321 394
#     4  11  24  43  62  99 133 170 225 273 322 403
#     4  10  23  42  66  91 134 170 213 275 323 381
#     4  10  22  40  67  90 130 172 216 261 339 379
#     4  11  21  42  64  94 133 168 217 273 318 392
#     4  12  25  41  72  96 133 177 222 269 335 391
#     4  11  21  40  68  90 134 170 213 274 330 382
#
# _framework density 22.469745
#
# number of rings (size 3 to 8) (size 9 to 14) (size 15 to 20)
#    0.750    0.500    3.750    3.750    3.500    0.000 
#    0.000    1.250    0.000    0.000    0.000    0.000 
#    0.000    0.000    0.000    0.000    0.000    0.000 
#
# Total GULP energy -198215.999568 kJ/mol
# GULP energy per Si atom -12388.499973 kJ/mol
# Density = 2.241860 g / cm^3
# Si number density = 22.469745 Si / 1000 Ang^3
#
#
#
# Elastic Constant Matrix: (Units=GPa)
#
#
# Indices 1 2 3 4 5 6 
#
# 1 116.3208 8.2266 20.8148 0.0001 0.2977 -0.0003
# 2 8.2266 69.4905 -9.7850 0.0003 8.9450 -0.0004
# 3 20.8148 -9.7850 65.7018 -0.0018 -14.0635 -0.0001
# 4 0.0001 0.0003 -0.0018 16.6089 -0.0003 5.7018
# 5 0.2977 8.9450 -14.0635 -0.0003 32.9468 -0.0002
# 6 -0.0003 -0.0004 -0.0001 5.7018 -0.0002 32.5190
#
#
#
# Elastic Compliance Matrix: (Units=1/GPa)
#
#
# Indices 1 2 3 4 5 6 
#
# 1 0.009311 -0.001434 -0.003410 0.000000 -0.001150 0.000000
# 2 -0.001434 0.015266 0.002029 0.000000 -0.003266 0.000000
# 3 -0.003410 0.002029 0.018150 0.000002 0.007227 0.000000
# 4 0.000000 0.000000 0.000002 0.064065 0.000002 -0.011233
# 5 -0.001150 -0.003266 0.007227 0.000002 0.034334 0.000000
# 6 0.000000 0.000000 0.000000 -0.011233 0.000000 0.032721
#
#
# Mechanical properties :
#
#
# Convention : Reuss Voigt Hill
#
# Bulk Modulus (GPa) = 26.95619 32.22510 29.59064
# Shear Modulus (GPa) = 26.06295 31.89872 28.98084
#
# Velocity S-wave (km/s) = 3.40944 3.77189 3.59523
# Velocity P-wave (km/s) = 5.24612 5.77427 5.51652
#
# Compressibility (1/GPa) = 0.03709723
#
# Stress axis : x y z
#
# Youngs Moduli (GPa) = 107.39454 65.50348 55.09734
#
# Poissons Ratio (x) = 0.09396 0.18787
# Poissons Ratio (y) = 0.15405 -0.11179
# Poissons Ratio (z) = 0.36619 -0.13291
#
# Static dielectric constant tensor:
#      x y z
#    x 4.402990 0.000000 0.015860 
#    y 0.000000 3.879350 0.000000 
#    z 0.015860 0.000000 3.945070 
# 
# 
# High freq. dielectric constant tensor:
#      x y z
#    x 1.902720 0.000000 -0.007830 
#    y 0.000000 1.869210 0.000000 
#    z -0.007830 0.000000 1.867940 
# 
# From -- ./inp_files/36710.got.cif
#   From: 2010.06.25/outbox.cif.g09.slc.cpg/sg9_19_cif.got.tgz:36710.got - 2010.06.27 21:40:51.
