data_PCOD8055008
_publ_section_title
;
Structure prediction by ZEFSAII (Michael W. Deem and Ramdas Pophale) SiO2 
 PCOD8055008
Probable space group: C C
;
_chemical_formula_sum "Si O2"
_cell_formula_units_Z 28
_cell_length_a 17.091327
_cell_length_b 7.604556
_cell_length_c 24.247005
_cell_angle_alpha 90.000000
_cell_angle_beta 158.808250
_cell_angle_gamma 90.000000
_cell_volume 1139.211661
_symmetry_space_group_name_H-M "C C"
_symmetry_group_IT_number 9
_symmetry_cell_setting 'monoclinic'
loop_
_space_group_symop_operation_xyz
x,y,z
x,-y,1/2+z
1/2+x,1/2+y,z
1/2+x,1/2-y,1/2+z
loop_
_atom_site_type_symbol
_atom_site_label
_atom_site_fract_x
_atom_site_fract_y
_atom_site_fract_z
Si Si1 0.710100 0.004144 0.579190
Si Si2 0.573220 0.885127 0.596668
Si Si3 0.589466 0.613559 0.024452
Si Si4 0.307363 0.941193 0.561134
Si Si5 0.112195 0.310931 0.203296
Si Si6 0.239088 0.035572 0.731891
Si Si7 0.612186 0.662371 0.816698
O O1 0.715067 0.201992 0.606976
O O2 0.941109 0.997036 0.698932
O O3 0.708197 0.869484 0.628797
O O4 0.498358 0.979256 0.403298
O O5 0.652887 0.731067 0.690686
O O6 0.318554 0.868329 0.412882
O O7 0.599462 0.076891 0.639146
O O8 0.616507 0.524688 0.980765
O O9 0.690065 0.485788 0.135352
O O10 0.342963 0.643338 0.881252
O O11 0.497634 0.838098 0.718965
O O12 0.209746 0.834587 0.444226
O O13 0.412872 0.128641 0.611623
O O14 0.110983 0.104568 0.186041
#
# Coordination Sequence:
#
# PCOD8055008 Si02
#       7
#     4   4   4   4   4   4   4
#     4  10  23  42  69 103 142 187 246 304 363 451
#     4  11  23  43  74  98 141 194 240 310 371 448
#     4  10  21  41  72  97 144 191 237 301 373 439
#     4  10  22  39  73 101 142 195 245 304 370 447
#     4  10  22  44  68 101 144 182 241 310 370 442
#     4  11  24  41  75 105 138 197 249 301 385 443
#     4  10  23  40  71 105 141 194 242 306 376 432
#
# _framework density 24.578399000000001
#
# number of rings (size 3 to 8) (size 9 to 14) (size 15 to 20)
#    0.000    1.714    1.429    1.714   16.000    0.000 
#    0.000    2.857   25.143    0.000    0.000    0.000 
#    0.000    0.000    0.000    0.000    0.000    0.000 
#
# Total GULP energy -173441.738843 kJ/mol
# GULP energy per Si atom -12388.695632 kJ/mol
# Density = 2.452246 g / cm^3
# Si number density = 24.578399 Si / 1000 Ang^3
#
#
#
# Elastic Constant Matrix: (Units=GPa)
#
#
# Indices 1 2 3 4 5 6 
#
# 1 75.4963 15.9359 9.4032 -0.1175 7.0086 -0.0047
# 2 15.9359 77.8885 29.8078 -0.0480 8.7150 0.0061
# 3 9.4032 29.8078 100.3445 -0.4001 7.9127 -0.0095
# 4 -0.1175 -0.0480 -0.4001 25.1899 -0.0549 0.6288
# 5 7.0086 8.7150 7.9127 -0.0549 42.3482 0.0110
# 6 -0.0047 0.0061 -0.0095 0.6288 0.0110 32.5415
#
#
#
# Elastic Compliance Matrix: (Units=1/GPa)
#
#
# Indices 1 2 3 4 5 6 
#
# 1 0.013988 -0.002505 -0.000431 0.000050 -0.001719 0.000002
# 2 -0.002505 0.015141 -0.004111 -0.000052 -0.001933 -0.000003
# 3 -0.000431 -0.004111 0.011322 0.000167 -0.001198 0.000001
# 4 0.000050 -0.000052 0.000167 0.039721 0.000023 -0.000767
# 5 -0.001719 -0.001933 -0.001198 0.000023 0.024520 -0.000009
# 6 0.000002 -0.000003 0.000001 -0.000767 -0.000009 0.030745
#
#
# Mechanical properties :
#
#
# Convention : Reuss Voigt Hill
#
# Bulk Modulus (GPa) = 37.93887 40.44701 39.19294
# Shear Modulus (GPa) = 31.58269 33.25475 32.41872
#
# Velocity S-wave (km/s) = 3.58855 3.68232 3.63573
# Velocity P-wave (km/s) = 5.71311 5.87974 5.79702
#
# Compressibility (1/GPa) = 0.02635819
#
# Stress axis : x y z
#
# Youngs Moduli (GPa) = 71.49142 66.04704 88.32129
#
# Poissons Ratio (x) = 0.16542 0.03807
# Poissons Ratio (y) = 0.17905 0.36306
# Poissons Ratio (z) = 0.03082 0.27150
#
# Static dielectric constant tensor:
#      x y z
#    x 4.719200 0.000110 0.406260 
#    y 0.000110 4.196700 0.000110 
#    z 0.406260 0.000110 4.724250 
# 
# 
# High freq. dielectric constant tensor:
#      x y z
#    x 1.972050 0.000000 0.004020 
#    y 0.000000 1.953990 0.000000 
#    z 0.004020 0.000000 1.988380 
# 
# From -- ./inp_files/35822.got.cif
#   From: 2010.06.25/outbox.cif.g09.slc.cpg/sg9_18_cif.got.tgz:35822.got - 2010.06.27 21:40:51.
