data_PCOD8055655
_publ_section_title
;
Structure prediction by ZEFSAII (Michael W. Deem and Ramdas Pophale) SiO2 
 PCOD8055655
Probable space group: C C
;
_chemical_formula_sum "Si O2"
_cell_formula_units_Z 28
_cell_length_a 13.397641
_cell_length_b 19.964265
_cell_length_c 8.869597
_cell_angle_alpha 90.000000
_cell_angle_beta 30.594484
_cell_angle_gamma 90.000000
_cell_volume 1207.446682
_symmetry_space_group_name_H-M "C C"
_symmetry_group_IT_number 9
_symmetry_cell_setting 'monoclinic'
loop_
_space_group_symop_operation_xyz
x,y,z
x,-y,1/2+z
1/2+x,1/2+y,z
1/2+x,1/2-y,1/2+z
loop_
_atom_site_type_symbol
_atom_site_label
_atom_site_fract_x
_atom_site_fract_y
_atom_site_fract_z
Si Si1 0.184220 0.049027 0.780020
Si Si2 0.183249 0.692956 0.086471
Si Si3 0.617046 0.656686 0.611897
Si Si4 0.255766 0.456189 0.938749
Si Si5 0.174994 0.899502 0.727742
Si Si6 0.972796 0.619869 0.602679
Si Si7 0.728911 0.089202 0.799515
O O1 0.154974 0.108357 0.700911
O O2 0.375478 0.060674 0.631750
O O3 0.217718 0.978759 0.652325
O O4 0.991855 0.047923 0.137431
O O5 0.209583 0.771080 0.024926
O O6 0.025024 0.681999 0.425822
O O7 0.387085 0.661390 0.876294
O O8 0.115579 0.653358 0.020287
O O9 0.730465 0.624943 0.322813
O O10 0.203753 0.531970 0.959225
O O11 0.157853 0.437235 0.227973
O O12 0.170337 0.406306 0.924569
O O13 0.312061 0.857318 0.435344
O O14 0.949633 0.885355 0.985337
#
# Coordination Sequence:
#
# PCOD8055655 Si02
#       7
#     4   4   4   4   4   4   4
#     4  11  23  44  70 102 141 180 226 304 346 419
#     4  11  25  45  69 101 142 195 232 287 357 426
#     4  11  24  49  69  99 148 189 236 287 357 423
#     4  11  23  41  69 103 141 176 234 301 343 414
#     4  10  24  42  72 102 139 182 237 294 356 410
#     4  12  24  41  68 108 133 184 240 279 359 419
#     4  10  23  44  67  99 144 186 231 296 354 409
#
# _framework density 23.189430000000002
#
# number of rings (size 3 to 8) (size 9 to 14) (size 15 to 20)
#    0.000    1.143    2.857    2.571   12.000    2.286 
#    2.571    1.429    0.000    0.000    0.000    0.000 
#    0.000    0.000    0.000    0.000    0.000    0.000 
#
# Total GULP energy -173597.606286 kJ/mol
# GULP energy per Si atom -12399.829020 kJ/mol
# Density = 2.313665 g / cm^3
# Si number density = 23.189430 Si / 1000 Ang^3
#
#
#
# Elastic Constant Matrix: (Units=GPa)
#
#
# Indices 1 2 3 4 5 6 
#
# 1 98.7706 37.2678 24.9010 -0.0021 22.1308 0.0021
# 2 37.2678 144.1768 45.8643 0.0002 32.7694 0.0002
# 3 24.9010 45.8643 101.3008 -0.0012 34.5031 0.0016
# 4 -0.0021 0.0002 -0.0012 28.9632 0.0010 4.8326
# 5 22.1308 32.7694 34.5031 0.0010 37.4367 -0.0014
# 6 0.0021 0.0002 0.0016 4.8326 -0.0014 31.9034
#
#
#
# Elastic Compliance Matrix: (Units=1/GPa)
#
#
# Indices 1 2 3 4 5 6 
#
# 1 0.012070 -0.001820 -0.000372 0.000001 -0.005199 -0.000001
# 2 -0.001820 0.009206 -0.001957 0.000000 -0.005179 0.000000
# 3 -0.000372 -0.001957 0.014853 0.000001 -0.011757 -0.000001
# 4 0.000001 0.000000 0.000001 0.035422 -0.000003 -0.005366
# 5 -0.005199 -0.005179 -0.011757 -0.000003 0.045154 0.000003
# 6 -0.000001 0.000000 -0.000001 -0.005366 0.000003 0.032157
#
#
# Mechanical properties :
#
#
# Convention : Reuss Voigt Hill
#
# Bulk Modulus (GPa) = 35.93017 62.25715 49.09366
# Shear Modulus (GPa) = 30.04144 35.40834 32.72489
#
# Velocity S-wave (km/s) = 3.60318 3.91182 3.76067
# Velocity P-wave (km/s) = 5.73048 6.87812 6.33036
#
# Compressibility (1/GPa) = 0.02783177
#
# Stress axis : x y z
#
# Youngs Moduli (GPa) = 82.85081 108.62608 67.32521
#
# Poissons Ratio (x) = 0.19768 0.02505
# Poissons Ratio (y) = 0.15077 0.13173
# Poissons Ratio (z) = 0.03083 0.21255
#
# Static dielectric constant tensor:
#      x y z
#    x 4.288420 0.000000 0.079870 
#    y 0.000000 3.897780 0.000000 
#    z 0.079870 0.000000 4.352020 
# 
# 
# High freq. dielectric constant tensor:
#      x y z
#    x 1.926170 0.000000 0.003960 
#    y 0.000000 1.887720 0.000000 
#    z 0.003960 0.000000 1.929020 
# 
# From -- ./inp_files/5561.got.cif
#   From: 2010.06.25/outbox.cif.g09.slc.cpg/sg9_3_cif.got.tgz:5561.got - 2010.06.27 21:40:51.
