data_PCOD8055536
_publ_section_title
;
Structure prediction by ZEFSAII (Michael W. Deem and Ramdas Pophale) SiO2 
 PCOD8055536
Probable space group: C C
;
_chemical_formula_sum "Si O2"
_cell_formula_units_Z 32
_cell_length_a 22.477352
_cell_length_b 5.129177
_cell_length_c 12.516318
_cell_angle_alpha 90.000000
_cell_angle_beta 106.260419
_cell_angle_gamma 90.000000
_cell_volume 1385.288347
_symmetry_space_group_name_H-M "C C"
_symmetry_group_IT_number 9
_symmetry_cell_setting 'monoclinic'
loop_
_space_group_symop_operation_xyz
x,y,z
x,-y,1/2+z
1/2+x,1/2+y,z
1/2+x,1/2-y,1/2+z
loop_
_atom_site_type_symbol
_atom_site_label
_atom_site_fract_x
_atom_site_fract_y
_atom_site_fract_z
Si Si1 0.996340 0.891461 0.901830
Si Si2 0.150899 0.032635 0.848047
Si Si3 0.855118 0.939433 0.835941
Si Si4 0.650429 0.982105 0.475318
Si Si5 0.581093 0.745052 0.625591
Si Si6 0.854410 0.555890 0.198953
Si Si7 0.496376 0.104047 0.264678
Si Si8 0.269605 0.267719 0.976258
O O1 0.925893 0.896043 0.907299
O O2 0.015032 0.610371 0.862184
O O3 0.006586 0.106916 0.816474
O O4 0.039671 0.933779 0.026534
O O5 0.118858 0.265538 0.902794
O O6 0.124838 0.048888 0.714844
O O7 0.225431 0.072554 0.885470
O O8 0.132332 0.762333 0.892030
O O9 0.836490 0.722499 0.739661
O O10 0.813793 0.927797 0.920564
O O11 0.844269 0.223979 0.782717
O O12 0.625732 0.940775 0.582460
O O13 0.725028 0.028535 0.517554
O O14 0.537185 0.921752 0.678347
O O15 0.925204 0.558184 0.194251
O O16 0.809711 0.596002 0.076677
#
# Coordination Sequence:
#
# PCOD8055536 Si02
#       8
#     4   4   4   4   4   4   4   4
#     4  10  23  42  65  98 130 157 222 260 325 380
#     4  10  26  41  60  93 130 160 225 248 314 376
#     4  10  23  41  67  98 124 169 206 274 318 385
#     4  10  26  43  58  96 124 167 216 264 294 394
#     4  12  23  43  70  87 133 178 203 266 333 363
#     4  10  23  40  68  94 129 164 215 259 334 366
#     4  10  23  42  63 100 125 164 213 272 307 399
#     4  10  25  42  65  90 133 163 218 259 313 383
#
# _framework density 23.099886000000001
#
# number of rings (size 3 to 8) (size 9 to 14) (size 15 to 20)
#    0.750    1.000    0.000    2.250    5.250    4.000 
#    0.000    7.500    0.000    0.000    0.000    0.000 
#    0.000    0.000    0.000    0.000    0.000    0.000 
#
# Total GULP energy -198435.065338 kJ/mol
# GULP energy per Si atom -12402.191584 kJ/mol
# Density = 2.304731 g / cm^3
# Si number density = 23.099886 Si / 1000 Ang^3
#
#
#
# Elastic Constant Matrix: (Units=GPa)
#
#
# Indices 1 2 3 4 5 6 
#
# 1 139.3785 24.8397 76.5660 0.0000 -16.7871 0.0000
# 2 24.8397 82.6965 8.4009 0.0000 5.9722 0.0000
# 3 76.5660 8.4009 122.8595 0.0000 18.2135 0.0000
# 4 0.0000 0.0000 0.0000 21.6848 0.0000 -0.2956
# 5 -16.7871 5.9722 18.2135 0.0000 51.0109 0.0000
# 6 0.0000 0.0000 0.0000 -0.2956 0.0000 27.5395
#
#
#
# Elastic Compliance Matrix: (Units=1/GPa)
#
#
# Indices 1 2 3 4 5 6 
#
# 1 0.014461 -0.003959 -0.010047 0.000000 0.008810 0.000000
# 2 -0.003959 0.013330 0.002091 0.000000 -0.003610 0.000000
# 3 -0.010047 0.002091 0.015611 0.000000 -0.009125 0.000000
# 4 0.000000 0.000000 0.000000 0.046122 0.000000 0.000495
# 5 0.008810 -0.003610 -0.009125 0.000000 0.026184 0.000000
# 6 0.000000 0.000000 0.000000 0.000495 0.000000 0.036317
#
#
# Mechanical properties :
#
#
# Convention : Reuss Voigt Hill
#
# Bulk Modulus (GPa) = 51.09705 62.72753 56.91229
# Shear Modulus (GPa) = 27.41563 35.72222 31.56893
#
# Velocity S-wave (km/s) = 3.44878 3.93673 3.70080
# Velocity P-wave (km/s) = 6.16659 6.91936 6.55379
#
# Compressibility (1/GPa) = 0.01957060
#
# Stress axis : x y z
#
# Youngs Moduli (GPa) = 69.15305 75.01922 64.05924
#
# Poissons Ratio (x) = 0.29701 0.64362
# Poissons Ratio (y) = 0.27379 -0.13395
# Poissons Ratio (z) = 0.69479 -0.15687
#
# Static dielectric constant tensor:
#      x y z
#    x 4.481200 0.000000 0.102000 
#    y 0.000000 3.943320 0.000000 
#    z 0.102000 0.000000 3.887090 
# 
# 
# High freq. dielectric constant tensor:
#      x y z
#    x 1.937830 0.000000 0.009350 
#    y 0.000000 1.906400 0.000000 
#    z 0.009350 0.000000 1.900870 
# 
# From -- ./inp_files/20598.got.cif
#   From: 2010.06.25/outbox.cif.g09.slc.cpg/sg9_11_cif.got.tgz:20598.got - 2010.06.27 21:40:51.
