data_PCOD8055538
_publ_section_title
;
Structure prediction by ZEFSAII (Michael W. Deem and Ramdas Pophale) SiO2 
 PCOD8055538
Probable space group: C C
;
_chemical_formula_sum "Si O2"
_cell_formula_units_Z 28
_cell_length_a 16.540924
_cell_length_b 9.887881
_cell_length_c 9.607508
_cell_angle_alpha 90.000000
_cell_angle_beta 128.862876
_cell_angle_gamma 90.000000
_cell_volume 1223.533782
_symmetry_space_group_name_H-M "C C"
_symmetry_group_IT_number 9
_symmetry_cell_setting 'monoclinic'
loop_
_space_group_symop_operation_xyz
x,y,z
x,-y,1/2+z
1/2+x,1/2+y,z
1/2+x,1/2-y,1/2+z
loop_
_atom_site_type_symbol
_atom_site_label
_atom_site_fract_x
_atom_site_fract_y
_atom_site_fract_z
Si Si1 0.656100 0.625587 0.039780
Si Si2 0.246859 0.070288 0.425176
Si Si3 0.936099 0.809918 0.230135
Si Si4 0.210153 0.599430 0.489001
Si Si5 0.040207 0.663215 0.094060
Si Si6 0.622070 0.805180 0.403819
Si Si7 0.956320 0.379077 0.009529
O O1 0.682381 0.555239 0.213144
O O2 0.676910 0.788506 0.069456
O O3 0.728158 0.565056 0.994680
O O4 0.535052 0.596604 0.874863
O O5 0.213199 0.199656 0.477863
O O6 0.367093 0.091568 0.524951
O O7 0.834420 0.902473 0.100917
O O8 0.915088 0.705505 0.333701
O O9 0.958648 0.734236 0.109149
O O10 0.152477 0.643699 0.286128
O O11 0.171567 0.451715 0.492109
O O12 0.994813 0.521182 0.992909
O O13 0.058674 0.745690 0.971472
O O14 0.548291 0.801988 0.189208
#
# Coordination Sequence:
#
# PCOD8055538 Si02
#       7
#     4   4   4   4   4   4   4
#     4  11  25  45  66 102 140 182 232 290 346 418
#     4  12  27  43  70 101 141 181 237 287 350 413
#     4  11  22  44  71  96 142 181 226 293 358 397
#     4  10  23  44  72  98 137 181 226 287 348 407
#     4  10  23  40  69 103 134 178 236 279 335 425
#     4  11  26  45  69 104 137 178 238 283 341 420
#     4  11  22  43  71  98 135 187 229 281 348 420
#
# _framework density 22.884533000000001
#
# number of rings (size 3 to 8) (size 9 to 14) (size 15 to 20)
#    0.000    1.143    2.857    3.429    8.000    2.286 
#    2.571    0.000    0.000    0.000    0.000    0.000 
#    0.000    0.000    0.000    0.000    0.000    0.000 
#
# Total GULP energy -173636.747016 kJ/mol
# GULP energy per Si atom -12402.624787 kJ/mol
# Density = 2.283245 g / cm^3
# Si number density = 22.884533 Si / 1000 Ang^3
#
#
#
# Elastic Constant Matrix: (Units=GPa)
#
#
# Indices 1 2 3 4 5 6 
#
# 1 128.6454 21.2631 30.2603 0.0000 2.3047 0.0000
# 2 21.2631 68.0848 23.5078 0.0000 -4.0421 0.0000
# 3 30.2603 23.5078 54.4129 0.0000 -11.1537 0.0000
# 4 0.0000 0.0000 0.0000 22.6515 0.0000 -0.4851
# 5 2.3047 -4.0421 -11.1537 0.0000 53.1563 0.0000
# 6 0.0000 0.0000 0.0000 -0.4851 0.0000 33.9140
#
#
#
# Elastic Compliance Matrix: (Units=1/GPa)
#
#
# Indices 1 2 3 4 5 6 
#
# 1 0.009151 -0.001274 -0.004849 0.000000 -0.001511 0.000000
# 2 -0.001274 0.017443 -0.006839 0.000000 -0.000053 0.000000
# 3 -0.004849 -0.006839 0.025043 0.000000 0.004945 0.000000
# 4 0.000000 0.000000 0.000000 0.044161 0.000000 0.000632
# 5 -0.001511 -0.000053 0.004945 0.000000 0.019911 0.000000
# 6 0.000000 0.000000 0.000000 0.000632 0.000000 0.029495
#
#
# Mechanical properties :
#
#
# Convention : Reuss Voigt Hill
#
# Bulk Modulus (GPa) = 38.88737 44.57837 41.73287
# Shear Modulus (GPa) = 27.82433 33.68515 30.75474
#
# Velocity S-wave (km/s) = 3.49070 3.84078 3.66991
# Velocity P-wave (km/s) = 5.76857 6.26025 6.01943
#
# Compressibility (1/GPa) = 0.02571529
#
# Stress axis : x y z
#
# Youngs Moduli (GPa) = 109.27250 57.32847 39.93194
#
# Poissons Ratio (x) = 0.07301 0.19362
# Poissons Ratio (y) = 0.13916 0.27308
# Poissons Ratio (z) = 0.52985 0.39205
#
# Static dielectric constant tensor:
#      x y z
#    x 4.172060 0.000000 0.070510 
#    y 0.000000 3.943480 0.000000 
#    z 0.070510 0.000000 4.024140 
# 
# 
# High freq. dielectric constant tensor:
#      x y z
#    x 1.918560 0.000000 -0.001700 
#    y 0.000000 1.884480 0.000000 
#    z -0.001700 0.000000 1.903810 
# 
# From -- ./inp_files/9022.got.cif
#   From: 2010.06.25/outbox.cif.g09.slc.cpg/sg9_5_cif.got.tgz:9022.got - 2010.06.27 21:40:51.
