data_PCOD8055896
_publ_section_title
;
Structure prediction by ZEFSAII (Michael W. Deem and Ramdas Pophale) SiO2 
 PCOD8055896
Probable space group: C C
;
_chemical_formula_sum "Si O2"
_cell_formula_units_Z 32
_cell_length_a 6.606656
_cell_length_b 29.113684
_cell_length_c 8.982462
_cell_angle_alpha 90.000000
_cell_angle_beta 119.056397
_cell_angle_gamma 90.000000
_cell_volume 1510.275834
_symmetry_space_group_name_H-M "C C"
_symmetry_group_IT_number 9
_symmetry_cell_setting 'monoclinic'
loop_
_space_group_symop_operation_xyz
x,y,z
x,-y,1/2+z
1/2+x,1/2+y,z
1/2+x,1/2-y,1/2+z
loop_
_atom_site_type_symbol
_atom_site_label
_atom_site_fract_x
_atom_site_fract_y
_atom_site_fract_z
Si Si1 0.679590 0.713766 0.802480
Si Si2 0.401858 0.776213 0.899735
Si Si3 0.396507 0.279797 0.662656
Si Si4 0.903559 0.056029 0.632796
Si Si5 0.437291 0.053737 0.905421
Si Si6 0.745905 0.842894 0.127722
Si Si7 0.170189 0.515066 0.270462
Si Si8 0.607835 0.151872 0.913694
O O1 0.568193 0.734200 0.911859
O O2 0.787545 0.760621 0.774948
O O3 0.469647 0.685542 0.649778
O O4 0.876632 0.675892 0.893782
O O5 0.169377 0.782764 0.723949
O O6 0.297850 0.760017 0.020108
O O7 0.530673 0.825182 0.952979
O O8 0.304912 0.331139 0.598028
O O9 0.768818 0.103054 0.613766
O O10 0.853442 0.043370 0.440367
O O11 0.170499 0.063675 0.772022
O O12 0.815242 0.017160 0.713152
O O13 0.588728 0.097343 0.911167
O O14 0.506803 0.011250 0.827308
O O15 0.497606 0.044904 0.102164
O O16 0.680177 0.831447 0.275412
#
# Coordination Sequence:
#
# PCOD8055896 Si02
#       8
#     4   4   4   4   4   4   4   4
#     4  12  22  41  68  84 132 176 218 269 330 380
#     4  12  24  41  62  93 130 173 225 270 322 392
#     4  12  24  41  62  93 130 173 225 270 322 392
#     4  11  23  45  72  98 136 172 217 277 340 401
#     4  11  23  45  72  98 136 172 217 277 340 401
#     4  12  24  42  64  96 131 173 220 272 328 396
#     4  10  24  45  70 106 128 168 222 271 344 414
#     4  12  24  42  64  96 131 173 220 272 328 396
#
# _framework density 21.188182999999999
#
# number of rings (size 3 to 8) (size 9 to 14) (size 15 to 20)
#    0.000    0.500    7.500    1.500    0.000    1.000 
#    4.500    1.250    0.000    0.000    0.000    0.000 
#    0.000    0.000    0.000    0.000    0.000    0.000 
#
# Total GULP energy -198212.115419 kJ/mol
# GULP energy per Si atom -12388.257214 kJ/mol
# Density = 2.113996 g / cm^3
# Si number density = 21.188183 Si / 1000 Ang^3
#
#
#
# Elastic Constant Matrix: (Units=GPa)
#
#
# Indices 1 2 3 4 5 6 
#
# 1 95.9217 35.6814 37.5365 0.0000 10.1568 0.0000
# 2 35.6814 99.2097 40.7800 0.0000 12.9943 0.0000
# 3 37.5365 40.7800 113.7911 0.0000 11.2407 0.0000
# 4 0.0000 0.0000 0.0000 30.6787 0.0000 7.7836
# 5 10.1568 12.9943 11.2407 0.0000 24.1239 0.0000
# 6 0.0000 0.0000 0.0000 7.7836 0.0000 26.5986
#
#
#
# Elastic Compliance Matrix: (Units=1/GPa)
#
#
# Indices 1 2 3 4 5 6 
#
# 1 0.012997 -0.003160 -0.002917 0.000000 -0.002411 0.000000
# 2 -0.003160 0.013098 -0.003235 0.000000 -0.004218 0.000000
# 3 -0.002917 -0.003235 0.011128 0.000000 -0.002215 0.000000
# 4 0.000000 0.000000 0.000000 0.035210 0.000000 -0.010304
# 5 -0.002411 -0.004218 -0.002215 0.000000 0.045771 0.000000
# 6 0.000000 0.000000 0.000000 -0.010304 0.000000 0.040611
#
#
# Mechanical properties :
#
#
# Convention : Reuss Voigt Hill
#
# Bulk Modulus (GPa) = 53.76245 59.65762 56.71004
# Shear Modulus (GPa) = 27.22711 29.27522 28.25116
#
# Velocity S-wave (km/s) = 3.58860 3.72112 3.65546
# Velocity P-wave (km/s) = 6.52684 6.83224 6.68129
#
# Compressibility (1/GPa) = 0.01860034
#
# Stress axis : x y z
#
# Youngs Moduli (GPa) = 76.93903 76.34571 89.86008
#
# Poissons Ratio (x) = 0.24124 0.26211
# Poissons Ratio (y) = 0.24311 0.29071
# Poissons Ratio (z) = 0.22442 0.24699
#
# Static dielectric constant tensor:
#      x y z
#    x 3.810430 0.000000 0.102550 
#    y 0.000000 3.756420 0.000000 
#    z 0.102550 0.000000 3.936240 
# 
# 
# High freq. dielectric constant tensor:
#      x y z
#    x 1.841100 0.000000 0.003950 
#    y 0.000000 1.827460 0.000000 
#    z 0.003950 0.000000 1.829940 
# 
# From -- ./inp_files/4323.got.cif
#   From: 2010.06.25/outbox.cif.g09.slc.cpg/sg9_3_cif.got.tgz:4323.got - 2010.06.27 21:40:51.
