data_PCOD8055680
_publ_section_title
;
Structure prediction by ZEFSAII (Michael W. Deem and Ramdas Pophale) SiO2 
 PCOD8055680
Probable space group: C C
;
_chemical_formula_sum "Si O2"
_cell_formula_units_Z 32
_cell_length_a 12.120754
_cell_length_b 15.838211
_cell_length_c 8.826650
_cell_angle_alpha 90.000000
_cell_angle_beta 54.864894
_cell_angle_gamma 90.000000
_cell_volume 1385.725832
_symmetry_space_group_name_H-M "C C"
_symmetry_group_IT_number 9
_symmetry_cell_setting 'monoclinic'
loop_
_space_group_symop_operation_xyz
x,y,z
x,-y,1/2+z
1/2+x,1/2+y,z
1/2+x,1/2-y,1/2+z
loop_
_atom_site_type_symbol
_atom_site_label
_atom_site_fract_x
_atom_site_fract_y
_atom_site_fract_z
Si Si1 0.427580 0.308044 0.481800
Si Si2 0.326182 0.908753 0.732226
Si Si3 0.888706 0.569002 0.839953
Si Si4 0.675813 0.849798 0.093524
Si Si5 0.521942 0.584525 0.463734
Si Si6 0.899009 0.947779 0.757751
Si Si7 0.225674 0.204319 0.816875
Si Si8 0.846675 0.788781 0.220657
O O1 0.415315 0.382455 0.610009
O O2 0.349320 0.227464 0.609553
O O3 0.587216 0.292625 0.330239
O O4 0.357789 0.331617 0.377791
O O5 0.353626 0.935897 0.541449
O O6 0.172582 0.926559 0.901924
O O7 0.360137 0.811348 0.732473
O O8 0.413883 0.972510 0.766338
O O9 0.762325 0.611493 0.851277
O O10 0.020066 0.626447 0.710077
O O11 0.714943 0.823864 0.235581
O O12 0.759101 0.929992 0.958922
O O13 0.709155 0.766870 0.971097
O O14 0.414882 0.536585 0.659301
O O15 0.516046 0.558358 0.291927
O O16 0.475029 0.682257 0.516391
#
# Coordination Sequence:
#
# PCOD8055680 Si02
#       8
#     4   4   4   4   4   4   4   4
#     4  11  24  40  70 109 145 188 249 309 373 451
#     4  12  28  43  72 108 146 196 247 314 380 444
#     4  12  27  46  73 108 152 193 249 318 380 455
#     4  10  24  47  74 107 145 205 247 307 391 449
#     4  11  23  46  72 104 144 191 251 303 381 453
#     4  10  23  44  74 105 138 193 246 308 374 456
#     4  11  22  44  72 100 148 196 247 307 380 452
#     4  11  27  44  73 107 148 198 254 310 373 464
#
# _framework density 23.092592
#
# number of rings (size 3 to 8) (size 9 to 14) (size 15 to 20)
#    0.000    1.000    2.500    3.000    5.250    2.000 
#    0.000    3.750    0.000    0.000    0.000    0.000 
#    0.000    0.000    0.000    0.000    0.000    0.000 
#
# Total GULP energy -198339.108664 kJ/mol
# GULP energy per Si atom -12396.194292 kJ/mol
# Density = 2.304003 g / cm^3
# Si number density = 23.092592 Si / 1000 Ang^3
#
#
#
# Elastic Constant Matrix: (Units=GPa)
#
#
# Indices 1 2 3 4 5 6 
#
# 1 117.2453 39.1988 46.6711 0.0000 11.5638 0.0000
# 2 39.1988 112.9043 47.1331 0.0000 0.5830 0.0000
# 3 46.6711 47.1331 93.8990 0.0000 12.1241 0.0000
# 4 0.0000 0.0000 0.0000 31.1501 0.0000 4.6068
# 5 11.5638 0.5830 12.1241 0.0000 47.3378 0.0000
# 6 0.0000 0.0000 0.0000 4.6068 0.0000 30.9632
#
#
#
# Elastic Compliance Matrix: (Units=1/GPa)
#
#
# Indices 1 2 3 4 5 6 
#
# 1 0.011071 -0.002054 -0.004267 0.000000 -0.001586 0.000000
# 2 -0.002054 0.011670 -0.005050 0.000000 0.001651 0.000000
# 3 -0.004267 -0.005050 0.015681 0.000000 -0.002912 0.000000
# 4 0.000000 0.000000 0.000000 0.032825 0.000000 -0.004884
# 5 -0.001586 0.001651 -0.002912 0.000000 0.022238 0.000000
# 6 0.000000 0.000000 0.000000 -0.004884 0.000000 0.033023
#
#
# Mechanical properties :
#
#
# Convention : Reuss Voigt Hill
#
# Bulk Modulus (GPa) = 63.77457 65.56162 64.66809
# Shear Modulus (GPa) = 32.36751 34.62658 33.49705
#
# Velocity S-wave (km/s) = 3.74791 3.87650 3.81275
# Velocity P-wave (km/s) = 6.81219 6.96338 6.88820
#
# Compressibility (1/GPa) = 0.01568023
#
# Stress axis : x y z
#
# Youngs Moduli (GPa) = 90.32789 85.69043 63.77065
#
# Poissons Ratio (x) = 0.17603 0.27208
# Poissons Ratio (y) = 0.18556 0.32204
# Poissons Ratio (z) = 0.38539 0.43273
#
# Static dielectric constant tensor:
#      x y z
#    x 4.221570 0.000000 0.021460 
#    y 0.000000 4.302380 0.000000 
#    z 0.021460 0.000000 4.205580 
# 
# 
# High freq. dielectric constant tensor:
#      x y z
#    x 1.908320 0.000000 0.009820 
#    y 0.000000 1.914550 0.000000 
#    z 0.009820 0.000000 1.918970 
# 
# From -- ./inp_files/7570.got.cif
#   From: 2010.06.25/outbox.cif.g09.slc.cpg/sg9_4_cif.got.tgz:7570.got - 2010.06.27 21:40:51.
