data_PCOD8055613
_publ_section_title
;
Structure prediction by ZEFSAII (Michael W. Deem and Ramdas Pophale) SiO2 
 PCOD8055613
Probable space group: C C
;
_chemical_formula_sum "Si O2"
_cell_formula_units_Z 28
_cell_length_a 11.152563
_cell_length_b 11.181568
_cell_length_c 11.126253
_cell_angle_alpha 90.000000
_cell_angle_beta 77.218544
_cell_angle_gamma 90.000000
_cell_volume 1353.098380
_symmetry_space_group_name_H-M "C C"
_symmetry_group_IT_number 9
_symmetry_cell_setting 'monoclinic'
loop_
_space_group_symop_operation_xyz
x,y,z
x,-y,1/2+z
1/2+x,1/2+y,z
1/2+x,1/2-y,1/2+z
loop_
_atom_site_type_symbol
_atom_site_label
_atom_site_fract_x
_atom_site_fract_y
_atom_site_fract_z
Si Si1 0.540730 0.096417 0.964410
Si Si2 0.915034 0.266190 0.287557
Si Si3 0.322020 0.336612 0.394313
Si Si4 0.994303 0.043709 0.413626
Si Si5 0.980958 0.797957 0.147117
Si Si6 0.191044 0.890273 0.258266
Si Si7 0.899243 0.633393 0.547699
O O1 0.498362 0.143814 0.845275
O O2 0.685263 0.116803 0.942562
O O3 0.475366 0.167884 0.087818
O O4 0.504803 0.957486 0.981468
O O5 0.771119 0.307047 0.332262
O O6 0.955169 0.277885 0.138252
O O7 0.934038 0.131435 0.328094
O O8 0.408327 0.429383 0.444628
O O9 0.353591 0.325408 0.245182
O O10 0.345404 0.207402 0.448058
O O11 0.006395 0.103257 0.540223
O O12 0.130041 0.003075 0.339450
O O13 0.088039 0.804540 0.222821
O O14 0.284084 0.938274 0.133699
#
# Coordination Sequence:
#
# PCOD8055613 Si02
#       7
#     4   4   4   4   4   4   4
#     4  11  23  42  68  95 136 178 223 278 342 407
#     4   9  23  41  63 101 127 169 233 263 338 412
#     4  11  25  42  67 100 139 172 226 289 334 410
#     4  10  23  43  70  96 132 180 221 282 340 400
#     4  10  23  43  66  94 133 182 223 279 348 397
#     4   9  21  41  68  94 134 172 222 283 323 412
#     4  10  24  42  66  98 135 177 222 280 339 398
#
# _framework density 20.693249000000002
#
# number of rings (size 3 to 8) (size 9 to 14) (size 15 to 20)
#    0.857    1.143    1.429    0.000    8.000    5.714 
#    0.000    4.286    0.000    0.000    0.000    0.000 
#    0.000    0.000    0.000    0.000    0.000    0.000 
#
# Total GULP energy -173527.774632 kJ/mol
# GULP energy per Si atom -12394.841045 kJ/mol
# Density = 2.064615 g / cm^3
# Si number density = 20.693249 Si / 1000 Ang^3
#
#
#
# Elastic Constant Matrix: (Units=GPa)
#
#
# Indices 1 2 3 4 5 6 
#
# 1 105.6590 57.2029 32.2743 0.0000 -8.5318 0.0000
# 2 57.2029 100.8186 39.6447 0.0000 -17.2683 0.0000
# 3 32.2743 39.6447 91.5021 0.0000 -8.9071 0.0000
# 4 0.0000 0.0000 0.0000 27.4888 0.0000 3.5499
# 5 -8.5318 -17.2683 -8.9071 0.0000 29.9714 0.0000
# 6 0.0000 0.0000 0.0000 3.5499 0.0000 41.6729
#
#
#
# Elastic Compliance Matrix: (Units=1/GPa)
#
#
# Indices 1 2 3 4 5 6 
#
# 1 0.013917 -0.007319 -0.001815 0.000000 -0.000794 0.000000
# 2 -0.007319 0.016758 -0.004060 0.000000 0.006365 0.000000
# 3 -0.001815 -0.004060 0.013439 0.000000 0.001138 0.000000
# 4 0.000000 0.000000 0.000000 0.036783 0.000000 -0.003133
# 5 -0.000794 0.006365 0.001138 0.000000 0.037145 0.000000
# 6 0.000000 0.000000 0.000000 -0.003133 0.000000 0.024263
#
#
# Mechanical properties :
#
#
# Convention : Reuss Voigt Hill
#
# Bulk Modulus (GPa) = 56.41191 61.80260 59.10725
# Shear Modulus (GPa) = 28.63690 31.08382 29.86036
#
# Velocity S-wave (km/s) = 3.72408 3.87993 3.80281
# Velocity P-wave (km/s) = 6.76845 7.07126 6.92151
#
# Compressibility (1/GPa) = 0.01772675
#
# Stress axis : x y z
#
# Youngs Moduli (GPa) = 71.85501 59.67363 74.41239
#
# Poissons Ratio (x) = 0.43672 0.13507
# Poissons Ratio (y) = 0.52587 0.30208
# Poissons Ratio (z) = 0.13043 0.24225
#
# Static dielectric constant tensor:
#      x y z
#    x 3.744090 0.000000 -0.057490 
#    y 0.000000 3.577900 0.000000 
#    z -0.057490 0.000000 3.783520 
# 
# 
# High freq. dielectric constant tensor:
#      x y z
#    x 1.807980 0.000000 0.004210 
#    y 0.000000 1.799550 0.000000 
#    z 0.004210 0.000000 1.811190 
# 
# From -- ./inp_files/16134.got.cif
#   From: 2010.06.25/outbox.cif.g09.slc.cpg/sg9_9_cif.got.tgz:16134.got - 2010.06.27 21:40:51.
