data_PCOD8055675
_publ_section_title
;
Structure prediction by ZEFSAII (Michael W. Deem and Ramdas Pophale) SiO2 
 PCOD8055675
Probable space group: C C
;
_chemical_formula_sum "Si O2"
_cell_formula_units_Z 32
_cell_length_a 12.211630
_cell_length_b 19.472369
_cell_length_c 8.388796
_cell_angle_alpha 90.000000
_cell_angle_beta 138.162169
_cell_angle_gamma 90.000000
_cell_volume 1330.558201
_symmetry_space_group_name_H-M "C C"
_symmetry_group_IT_number 9
_symmetry_cell_setting 'monoclinic'
loop_
_space_group_symop_operation_xyz
x,y,z
x,-y,1/2+z
1/2+x,1/2+y,z
1/2+x,1/2-y,1/2+z
loop_
_atom_site_type_symbol
_atom_site_label
_atom_site_fract_x
_atom_site_fract_y
_atom_site_fract_z
Si Si1 0.449580 0.165676 0.489590
Si Si2 0.576622 0.299559 0.529284
Si Si3 0.400571 0.200441 0.785949
Si Si4 0.921540 0.524830 0.313340
Si Si5 0.054940 0.412482 0.647733
Si Si6 0.027613 0.165676 0.325643
Si Si7 0.555654 0.475170 0.001893
Si Si8 0.422255 0.587518 0.667501
O O1 0.560145 0.216559 0.499428
O O2 0.263827 0.179777 0.238304
O O3 0.489993 0.178214 0.718514
O O4 0.486288 0.086757 0.494354
O O5 0.490173 0.336964 0.286104
O O6 0.487201 0.321786 0.596720
O O7 0.213366 0.179776 0.576931
O O8 0.487022 0.163036 0.029131
O O9 0.417048 0.283441 0.815806
O O10 0.043581 0.460808 0.478594
O O11 0.936087 0.550511 0.147581
O O12 0.738597 0.499999 0.157615
O O13 0.238598 0.404929 0.907617
O O14 0.990902 0.086758 0.320878
O O15 0.541108 0.449489 0.167654
O O16 0.433614 0.539192 0.836640
#
# Coordination Sequence:
#
# PCOD8055675 Si02
#       8
#     4   4   4   4   4   4   4   4
#     4  10  23  44  73 100 138 188 233 294 347 428
#     4  10  23  45  70 102 140 185 237 287 358 418
#     4  10  23  45  70 102 140 185 237 287 358 418
#     4  12  25  45  72 102 141 189 237 292 357 427
#     4  12  27  46  70 106 144 185 237 300 356 421
#     4  10  23  44  73 100 138 188 233 294 347 428
#     4  12  25  45  72 102 141 189 237 292 357 427
#     4  12  27  46  70 106 144 185 237 300 356 421
#
# _framework density 24.050056999999999
#
# number of rings (size 3 to 8) (size 9 to 14) (size 15 to 20)
#    0.000    1.000    2.500    3.000    7.000    1.000 
#    4.500    0.000    0.000    0.000    0.000    0.000 
#    0.000    0.000    0.000    0.000    0.000    0.000 
#
# Total GULP energy -198405.181235 kJ/mol
# GULP energy per Si atom -12400.323827 kJ/mol
# Density = 2.399532 g / cm^3
# Si number density = 24.050057 Si / 1000 Ang^3
#
#
#
# Elastic Constant Matrix: (Units=GPa)
#
#
# Indices 1 2 3 4 5 6 
#
# 1 66.4488 0.5097 19.7728 0.0000 -7.3956 0.0000
# 2 0.5097 94.6799 17.6392 0.0000 2.7164 0.0000
# 3 19.7728 17.6392 117.5763 0.0000 7.5021 0.0000
# 4 0.0000 0.0000 0.0000 42.2218 0.0000 -2.6971
# 5 -7.3956 2.7164 7.5021 0.0000 27.9061 0.0000
# 6 0.0000 0.0000 0.0000 -2.6971 0.0000 36.5253
#
#
#
# Elastic Compliance Matrix: (Units=1/GPa)
#
#
# Indices 1 2 3 4 5 6 
#
# 1 0.016570 0.000352 -0.003172 0.000000 0.005210 0.000000
# 2 0.000352 0.010884 -0.001659 0.000000 -0.000520 0.000000
# 3 -0.003172 -0.001659 0.009494 0.000000 -0.003231 0.000000
# 4 0.000000 0.000000 0.000000 0.023797 0.000000 0.001757
# 5 0.005210 -0.000520 -0.003231 0.000000 0.038134 0.000000
# 6 0.000000 0.000000 0.000000 0.001757 0.000000 0.027508
#
#
# Mechanical properties :
#
#
# Convention : Reuss Voigt Hill
#
# Bulk Modulus (GPa) = 35.72616 39.39426 37.56021
# Shear Modulus (GPa) = 34.56043 37.38287 35.97165
#
# Velocity S-wave (km/s) = 3.79492 3.94684 3.87162
# Velocity P-wave (km/s) = 5.83858 6.09801 5.96970
#
# Compressibility (1/GPa) = 0.02799070
#
# Stress axis : x y z
#
# Youngs Moduli (GPa) = 60.34951 91.87808 105.33433
#
# Poissons Ratio (x) = -0.03237 0.33411
# Poissons Ratio (y) = -0.02126 0.17474
# Poissons Ratio (z) = 0.19142 0.15242
#
# Static dielectric constant tensor:
#      x y z
#    x 4.256160 0.000000 -0.258320 
#    y 0.000000 4.766910 0.000000 
#    z -0.258320 0.000000 4.277910 
# 
# 
# High freq. dielectric constant tensor:
#      x y z
#    x 1.929000 0.000000 -0.003710 
#    y 0.000000 1.973150 0.000000 
#    z -0.003710 0.000000 1.956800 
# 
# From -- ./inp_files/10057.got.cif
#   From: 2010.06.25/outbox.cif.g09.slc.cpg/sg9_6_cif.got.tgz:10057.got - 2010.06.27 21:40:51.
