data_PCOD8055563
_publ_section_title
;
Structure prediction by ZEFSAII (Michael W. Deem and Ramdas Pophale) SiO2 
 PCOD8055563
Probable space group: C C
;
_chemical_formula_sum "Si O2"
_cell_formula_units_Z 28
_cell_length_a 12.281457
_cell_length_b 12.704673
_cell_length_c 9.729588
_cell_angle_alpha 90.000000
_cell_angle_beta 122.209884
_cell_angle_gamma 90.000000
_cell_volume 1284.488319
_symmetry_space_group_name_H-M "C C"
_symmetry_group_IT_number 9
_symmetry_cell_setting 'monoclinic'
loop_
_space_group_symop_operation_xyz
x,y,z
x,-y,1/2+z
1/2+x,1/2+y,z
1/2+x,1/2-y,1/2+z
loop_
_atom_site_type_symbol
_atom_site_label
_atom_site_fract_x
_atom_site_fract_y
_atom_site_fract_z
Si Si1 0.033110 0.960589 0.334150
Si Si2 0.274250 0.517657 0.271077
Si Si3 0.141372 0.827561 0.994845
Si Si4 0.412096 0.673590 0.528537
Si Si5 0.363016 0.945432 0.298970
Si Si6 0.800708 0.382333 0.555113
Si Si7 0.647528 0.104481 0.917843
O O1 0.144841 0.879668 0.456096
O O2 0.975903 0.924145 0.151149
O O3 0.094178 0.078223 0.362658
O O4 0.915180 0.962646 0.362332
O O5 0.291090 0.629801 0.359430
O O6 0.177104 0.443439 0.288478
O O7 0.221664 0.536788 0.083107
O O8 0.192714 0.726730 0.944940
O O9 0.252346 0.868525 0.169585
O O10 0.022473 0.781447 0.003935
O O11 0.358086 0.764789 0.591203
O O12 0.348986 0.949075 0.454660
O O13 0.496998 0.898146 0.342580
O O14 0.350587 0.062404 0.227576
#
# Coordination Sequence:
#
# PCOD8055563 Si02
#       7
#     4   4   4   4   4   4   4
#     4  10  23  45  66 100 133 172 229 281 326 408
#     4  11  25  43  66  99 135 178 225 279 330 402
#     4  10  23  41  72  94 130 185 222 271 340 405
#     4  11  21  44  73  93 128 182 229 265 340 408
#     4  11  23  42  63 101 130 171 222 283 325 398
#     4  11  23  41  72  97 130 175 225 277 338 399
#     4  12  24  42  68  98 138 177 224 276 337 396
#
# _framework density 21.798562
#
# number of rings (size 3 to 8) (size 9 to 14) (size 15 to 20)
#    0.000    1.143    4.286    1.714    2.000    0.000 
#    5.143    1.429    0.000    0.000    0.000    0.000 
#    0.000    0.000    0.000    0.000    0.000    0.000 
#
# Total GULP energy -173591.116181 kJ/mol
# GULP energy per Si atom -12399.365441 kJ/mol
# Density = 2.174895 g / cm^3
# Si number density = 21.798562 Si / 1000 Ang^3
#
#
#
# Elastic Constant Matrix: (Units=GPa)
#
#
# Indices 1 2 3 4 5 6 
#
# 1 98.9214 40.9431 11.8584 0.0000 10.3349 0.0000
# 2 40.9431 99.0805 27.3572 0.0000 -1.4894 0.0000
# 3 11.8584 27.3572 69.1157 0.0000 -3.0975 0.0000
# 4 0.0000 0.0000 0.0000 28.4956 0.0000 -6.9368
# 5 10.3349 -1.4894 -3.0975 0.0000 29.6869 0.0000
# 6 0.0000 0.0000 0.0000 -6.9368 0.0000 32.0400
#
#
#
# Elastic Compliance Matrix: (Units=1/GPa)
#
#
# Indices 1 2 3 4 5 6 
#
# 1 0.012833 -0.005286 -0.000323 0.000000 -0.004767 0.000000
# 2 -0.005286 0.013508 -0.004347 0.000000 0.002064 0.000000
# 3 -0.000323 -0.004347 0.016316 0.000000 0.001597 0.000000
# 4 0.000000 0.000000 0.000000 0.037046 0.000000 0.008020
# 5 -0.004767 0.002064 0.001597 0.000000 0.035614 0.000000
# 6 0.000000 0.000000 0.000000 0.008020 0.000000 0.032947
#
#
# Mechanical properties :
#
#
# Convention : Reuss Voigt Hill
#
# Bulk Modulus (GPa) = 43.96504 47.49278 45.72891
# Shear Modulus (GPa) = 28.44784 30.50843 29.47813
#
# Velocity S-wave (km/s) = 3.61644 3.74513 3.68135
# Velocity P-wave (km/s) = 6.13602 6.36677 6.25246
#
# Compressibility (1/GPa) = 0.02274535
#
# Stress axis : x y z
#
# Youngs Moduli (GPa) = 77.92137 74.02817 61.28820
#
# Poissons Ratio (x) = 0.39128 0.01982
# Poissons Ratio (y) = 0.41186 0.26645
# Poissons Ratio (z) = 0.02520 0.32184
#
# Static dielectric constant tensor:
#      x y z
#    x 4.056150 0.000000 0.147700 
#    y 0.000000 3.827970 0.000000 
#    z 0.147700 0.000000 3.893390 
# 
# 
# High freq. dielectric constant tensor:
#      x y z
#    x 1.862090 0.000000 0.014670 
#    y 0.000000 1.849650 0.000000 
#    z 0.014670 0.000000 1.848930 
# 
# From -- ./inp_files/7338.got.cif
#   From: 2010.06.25/outbox.cif.g09.slc.cpg/sg9_4_cif.got.tgz:7338.got - 2010.06.27 21:40:51.
