data_PCOD8055104
_publ_section_title
;
Structure prediction by ZEFSAII (Michael W. Deem and Ramdas Pophale) SiO2 
 PCOD8055104
Probable space group: C C
;
_chemical_formula_sum "Si O2"
_cell_formula_units_Z 32
_cell_length_a 9.012660
_cell_length_b 8.615650
_cell_length_c 18.712648
_cell_angle_alpha 90.000000
_cell_angle_beta 101.130984
_cell_angle_gamma 90.000000
_cell_volume 1425.701785
_symmetry_space_group_name_H-M "C C"
_symmetry_group_IT_number 9
_symmetry_cell_setting 'monoclinic'
loop_
_space_group_symop_operation_xyz
x,y,z
x,-y,1/2+z
1/2+x,1/2+y,z
1/2+x,1/2-y,1/2+z
loop_
_atom_site_type_symbol
_atom_site_label
_atom_site_fract_x
_atom_site_fract_y
_atom_site_fract_z
Si Si1 0.442660 0.129880 0.861930
Si Si2 0.910702 0.974030 0.805602
Si Si3 0.127814 0.349423 0.607296
Si Si4 0.469593 0.658422 0.164385
Si Si5 0.174940 0.465557 0.977665
Si Si6 0.577265 0.964306 0.236205
Si Si7 0.645221 0.622180 0.921107
Si Si8 0.516384 0.539403 0.535326
O O1 0.437876 0.313298 0.849557
O O2 0.447509 0.039734 0.785576
O O3 0.297093 0.079246 0.893130
O O4 0.592754 0.091093 0.920267
O O5 0.966167 0.963503 0.729179
O O6 0.735307 0.019370 0.792430
O O7 0.006631 0.107194 0.853090
O O8 0.297871 0.285227 0.633312
O O9 0.130218 0.500514 0.556012
O O10 0.055224 0.396348 0.677207
O O11 0.026807 0.216802 0.561870
O O12 0.574842 0.803961 0.192290
O O13 0.544521 0.573326 0.104538
O O14 0.128995 0.293028 0.951832
O O15 0.353691 0.487814 0.984030
O O16 0.639121 0.500516 0.986164
#
# Coordination Sequence:
#
# PCOD8055104 Si02
#       8
#     4   4   4   4   4   4   4   4
#     4  11  24  42  64  94 128 167 210 257 314 375
#     4  10  23  44  64  92 130 166 209 261 313 374
#     4  10  22  42  66  93 126 165 211 264 316 370
#     4   9  22  40  64  94 125 165 210 259 316 372
#     4  11  24  42  64  93 128 166 211 259 314 374
#     4  10  21  44  68  90 129 168 207 261 316 373
#     4  12  24  39  64  96 127 166 211 258 315 374
#     4  11  24  43  66  94 129 165 211 263 312 374
#
# _framework density 22.445087999999998
#
# number of rings (size 3 to 8) (size 9 to 14) (size 15 to 20)
#    0.000    1.500    0.000    4.500    0.000   11.000 
#    0.000    6.250    0.000    0.000    0.000    0.000 
#    0.000    0.000    0.000    0.000    0.000    0.000 
#
# Total GULP energy -198447.862567 kJ/mol
# GULP energy per Si atom -12402.991410 kJ/mol
# Density = 2.239400 g / cm^3
# Si number density = 22.445088 Si / 1000 Ang^3
#
#
#
# Elastic Constant Matrix: (Units=GPa)
#
#
# Indices 1 2 3 4 5 6 
#
# 1 111.4940 67.1493 79.8838 0.0000 -14.6324 0.0000
# 2 67.1493 109.4800 64.2973 0.0000 8.9446 0.0000
# 3 79.8838 64.2973 143.6190 0.0000 -6.2691 0.0000
# 4 0.0000 0.0000 0.0000 56.4452 0.0000 10.8278
# 5 -14.6324 8.9446 -6.2691 0.0000 37.7156 0.0000
# 6 0.0000 0.0000 0.0000 10.8278 0.0000 29.3996
#
#
#
# Elastic Compliance Matrix: (Units=1/GPa)
#
#
# Indices 1 2 3 4 5 6 
#
# 1 0.020859 -0.009449 -0.006971 0.000000 0.009175 0.000000
# 2 -0.009449 0.017266 -0.002834 0.000000 -0.008232 0.000000
# 3 -0.006971 -0.002834 0.012108 0.000000 -0.000020 0.000000
# 4 0.000000 0.000000 0.000000 0.019063 0.000000 -0.007021
# 5 0.009175 -0.008232 -0.000020 0.000000 0.032023 0.000000
# 6 0.000000 0.000000 0.000000 -0.007021 0.000000 0.036600
#
#
# Mechanical properties :
#
#
# Convention : Reuss Voigt Hill
#
# Bulk Modulus (GPa) = 85.28510 87.47265 86.37887
# Shear Modulus (GPa) = 27.72606 34.92960 31.32783
#
# Velocity S-wave (km/s) = 3.51847 3.94918 3.74003
# Velocity P-wave (km/s) = 7.38823 7.73635 7.56429
#
# Compressibility (1/GPa) = 0.01172538
#
# Stress axis : x y z
#
# Youngs Moduli (GPa) = 47.94095 57.91601 82.58871
#
# Poissons Ratio (x) = 0.54726 0.57576
# Poissons Ratio (y) = 0.45300 0.23402
# Poissons Ratio (z) = 0.33422 0.16411
#
# Static dielectric constant tensor:
#      x y z
#    x 3.904500 0.000000 -0.077490 
#    y 0.000000 3.821710 0.000000 
#    z -0.077490 0.000000 4.449520 
# 
# 
# High freq. dielectric constant tensor:
#      x y z
#    x 1.871090 0.000000 -0.005630 
#    y 0.000000 1.872040 0.000000 
#    z -0.005630 0.000000 1.916320 
# 
# From -- ./inp_files/32411.got.cif
#   From: 2010.06.25/outbox.cif.g09.slc.cpg/sg9_17_cif.got.tgz:32411.got - 2010.06.27 21:40:51.
