data_PCOD8055630
_publ_section_title
;
Structure prediction by ZEFSAII (Michael W. Deem and Ramdas Pophale) SiO2 
 PCOD8055630
Probable space group: C C
;
_chemical_formula_sum "Si O2"
_cell_formula_units_Z 32
_cell_length_a 11.133009
_cell_length_b 16.290944
_cell_length_c 9.357507
_cell_angle_alpha 90.000000
_cell_angle_beta 59.800661
_cell_angle_gamma 90.000000
_cell_volume 1466.809584
_symmetry_space_group_name_H-M "C C"
_symmetry_group_IT_number 9
_symmetry_cell_setting 'monoclinic'
loop_
_space_group_symop_operation_xyz
x,y,z
x,-y,1/2+z
1/2+x,1/2+y,z
1/2+x,1/2-y,1/2+z
loop_
_atom_site_type_symbol
_atom_site_label
_atom_site_fract_x
_atom_site_fract_y
_atom_site_fract_z
Si Si1 0.251180 0.699606 0.524800
Si Si2 0.460205 0.838168 0.317379
Si Si3 0.239039 0.418992 0.534793
Si Si4 0.602740 0.542107 0.663599
Si Si5 0.787941 0.482620 0.307668
Si Si6 0.400249 0.680755 0.721634
Si Si7 0.329514 0.445370 0.791002
Si Si8 0.961033 0.634303 0.132473
O O1 0.321448 0.785618 0.438529
O O2 0.320404 0.658221 0.623068
O O3 0.287671 0.644561 0.366739
O O4 0.084044 0.707770 0.654428
O O5 0.412449 0.917376 0.255633
O O6 0.522982 0.861223 0.434591
O O7 0.318475 0.343047 0.414087
O O8 0.319434 0.449379 0.626375
O O9 0.223776 0.492149 0.429417
O O10 0.083171 0.392739 0.667385
O O11 0.726574 0.506445 0.496377
O O12 0.667658 0.556786 0.781365
O O13 0.544254 0.628687 0.636618
O O14 0.483135 0.473375 0.746063
O O15 0.839567 0.567429 0.206457
O O16 0.413695 0.778165 0.719902
#
# Coordination Sequence:
#
# PCOD8055630 Si02
#       8
#     4   4   4   4   4   4   4   4
#     4  11  24  46  74 100 146 186 242 297 361 438
#     4  11  26  46  72 106 140 192 243 296 370 430
#     4  11  23  43  69  99 133 177 234 290 352 426
#     4  11  24  42  69 102 142 184 238 293 359 435
#     4  12  25  43  69 102 145 188 238 297 365 428
#     4  10  23  43  70 100 135 188 236 292 359 431
#     4  11  24  43  70 100 137 184 233 293 355 429
#     4  11  25  42  71  97 140 181 236 296 359 431
#
# _framework density 21.816058000000002
#
# number of rings (size 3 to 8) (size 9 to 14) (size 15 to 20)
#    0.000    1.000    2.500    4.500    5.250    3.000 
#    2.250    0.000    0.000    0.000    0.000    0.000 
#    0.000    0.000    0.000    0.000    0.000    0.000 
#
# Total GULP energy -198377.267052 kJ/mol
# GULP energy per Si atom -12398.579191 kJ/mol
# Density = 2.176640 g / cm^3
# Si number density = 21.816058 Si / 1000 Ang^3
#
#
#
# Elastic Constant Matrix: (Units=GPa)
#
#
# Indices 1 2 3 4 5 6 
#
# 1 101.0319 41.2005 28.8246 0.0000 1.1202 0.0000
# 2 41.2005 113.6249 41.6002 0.0000 -0.6940 0.0000
# 3 28.8246 41.6002 90.9453 0.0000 2.4231 0.0000
# 4 0.0000 0.0000 0.0000 35.0528 0.0000 -4.3651
# 5 1.1202 -0.6940 2.4231 0.0000 38.8538 0.0000
# 6 0.0000 0.0000 0.0000 -4.3651 0.0000 35.7927
#
#
#
# Elastic Compliance Matrix: (Units=1/GPa)
#
#
# Indices 1 2 3 4 5 6 
#
# 1 0.011965 -0.003549 -0.002162 0.000000 -0.000274 0.000000
# 2 -0.003549 0.011633 -0.004212 0.000000 0.000573 0.000000
# 3 -0.002162 -0.004212 0.013630 0.000000 -0.000863 0.000000
# 4 0.000000 0.000000 0.000000 0.028968 0.000000 0.003533
# 5 -0.000274 0.000573 -0.000863 0.000000 0.025809 0.000000
# 6 0.000000 0.000000 0.000000 0.003533 0.000000 0.028370
#
#
# Mechanical properties :
#
#
# Convention : Reuss Voigt Hill
#
# Bulk Modulus (GPa) = 57.52410 58.76142 58.14276
# Shear Modulus (GPa) = 34.24320 34.87163 34.55741
#
# Velocity S-wave (km/s) = 3.96616 4.00238 3.98431
# Velocity P-wave (km/s) = 6.88469 6.95357 6.91922
#
# Compressibility (1/GPa) = 0.01738402
#
# Stress axis : x y z
#
# Youngs Moduli (GPa) = 83.57871 85.96117 73.36609
#
# Poissons Ratio (x) = 0.30505 0.15859
# Poissons Ratio (y) = 0.29660 0.30900
# Poissons Ratio (z) = 0.18067 0.36205
#
# Static dielectric constant tensor:
#      x y z
#    x 3.881660 0.000000 0.052970 
#    y 0.000000 3.866910 0.000000 
#    z 0.052970 0.000000 3.983660 
# 
# 
# High freq. dielectric constant tensor:
#      x y z
#    x 1.857820 0.000000 -0.002630 
#    y 0.000000 1.855760 0.000000 
#    z -0.002630 0.000000 1.859310 
# 
# From -- ./inp_files/7544.got.cif
#   From: 2010.06.25/outbox.cif.g09.slc.cpg/sg9_4_cif.got.tgz:7544.got - 2010.06.27 21:40:51.
