data_PCOD8055253
_publ_section_title
;
Structure prediction by ZEFSAII (Michael W. Deem and Ramdas Pophale) SiO2 
 PCOD8055253
Probable space group: C C
;
_chemical_formula_sum "Si O2"
_cell_formula_units_Z 32
_cell_length_a 21.802693
_cell_length_b 11.994263
_cell_length_c 14.562350
_cell_angle_alpha 90.000000
_cell_angle_beta 20.292090
_cell_angle_gamma 90.000000
_cell_volume 1320.693329
_symmetry_space_group_name_H-M "C C"
_symmetry_group_IT_number 9
_symmetry_cell_setting 'monoclinic'
loop_
_space_group_symop_operation_xyz
x,y,z
x,-y,1/2+z
1/2+x,1/2+y,z
1/2+x,1/2-y,1/2+z
loop_
_atom_site_type_symbol
_atom_site_label
_atom_site_fract_x
_atom_site_fract_y
_atom_site_fract_z
Si Si1 0.927590 0.113734 0.753450
Si Si2 0.752993 0.169812 0.726141
Si Si3 0.135483 0.736024 0.076015
Si Si4 0.461076 0.758524 0.169975
Si Si5 0.010194 0.993880 0.948017
Si Si6 0.701031 0.072850 0.616113
Si Si7 0.867836 0.241911 0.106023
Si Si8 0.367836 0.104385 0.971205
O O1 0.827578 0.226491 0.855772
O O2 0.091243 0.143900 0.590963
O O3 0.972627 0.032218 0.607074
O O4 0.789235 0.046845 0.010430
O O5 0.641297 0.155926 0.977280
O O6 0.641649 0.119159 0.798491
O O7 0.789005 0.298711 0.648352
O O8 0.936487 0.102438 0.483068
O O9 0.981663 0.704131 0.363676
O O10 0.341715 0.654626 0.369685
O O11 0.450166 0.852355 0.261453
O O12 0.666493 0.732538 0.863220
O O13 0.393704 0.804320 0.166669
O O14 0.223225 0.987669 0.644417
O O15 0.929258 0.112751 0.033721
O O16 0.529249 0.047689 0.797141
#
# Coordination Sequence:
#
# PCOD8055253 Si02
#       8
#     4   4   4   4   4   4   4   4
#     4  11  23  46  66 102 139 183 230 286 356 424
#     4  10  22  40  71 105 133 183 232 291 353 411
#     4  11  25  42  70  96 144 183 223 290 360 413
#     4  11  23  44  69 100 138 189 235 292 357 415
#     4  11  23  42  71 103 141 178 238 290 349 432
#     4  11  23  43  74 101 138 180 243 295 337 425
#     4  12  25  46  68 101 147 191 229 292 361 431
#     4  11  22  41  73 104 134 179 238 296 347 407
#
# _framework density 24.229697000000002
#
# number of rings (size 3 to 8) (size 9 to 14) (size 15 to 20)
#    0.000    1.000    3.750    3.000    3.500    2.000 
#    0.000    0.000    2.750    0.000    0.000    0.000 
#    0.000    0.000    0.000    0.000    0.000    0.000 
#
# Total GULP energy -198217.169605 kJ/mol
# GULP energy per Si atom -12388.573100 kJ/mol
# Density = 2.417455 g / cm^3
# Si number density = 24.229697 Si / 1000 Ang^3
#
#
#
# Elastic Constant Matrix: (Units=GPa)
#
#
# Indices 1 2 3 4 5 6 
#
# 1 111.7695 16.8113 36.1245 0.0000 18.0523 0.0000
# 2 16.8113 50.1221 10.9821 0.0006 -7.3011 0.0000
# 3 36.1245 10.9821 97.5980 0.0006 -0.3840 -0.0001
# 4 0.0000 0.0006 0.0006 25.9548 0.0000 -5.1597
# 5 18.0523 -7.3011 -0.3840 0.0000 50.3892 0.0000
# 6 0.0000 0.0000 -0.0001 -5.1597 0.0000 16.4165
#
#
#
# Elastic Compliance Matrix: (Units=1/GPa)
#
#
# Indices 1 2 3 4 5 6 
#
# 1 0.011508 -0.003697 -0.003862 0.000000 -0.004688 0.000000
# 2 -0.003697 0.022090 -0.001100 -0.000001 0.004517 0.000000
# 3 -0.003862 -0.001100 0.011805 0.000000 0.001314 0.000000
# 4 0.000000 -0.000001 0.000000 0.041096 0.000000 0.012916
# 5 -0.004688 0.004517 0.001314 0.000000 0.022189 0.000000
# 6 0.000000 0.000000 0.000000 0.012916 0.000000 0.064974
#
#
# Mechanical properties :
#
#
# Convention : Reuss Voigt Hill
#
# Bulk Modulus (GPa) = 35.60476 43.03615 39.32046
# Shear Modulus (GPa) = 24.95739 31.59024 28.27381
#
# Velocity S-wave (km/s) = 3.21289 3.61471 3.41971
# Velocity P-wave (km/s) = 5.33762 5.93479 5.64411
#
# Compressibility (1/GPa) = 0.02808613
#
# Stress axis : x y z
#
# Youngs Moduli (GPa) = 86.89262 45.26926 84.71317
#
# Poissons Ratio (x) = 0.16735 0.32718
# Poissons Ratio (y) = 0.32121 0.09315
# Poissons Ratio (z) = 0.33559 0.04978
#
# Static dielectric constant tensor:
#      x y z
#    x 4.747130 0.000000 0.085100 
#    y 0.000000 4.090240 0.000000 
#    z 0.085100 0.000000 4.461260 
# 
# 
# High freq. dielectric constant tensor:
#      x y z
#    x 1.986060 0.000000 0.004450 
#    y 0.000000 1.931040 0.000000 
#    z 0.004450 0.000000 1.960710 
# 
# From -- ./inp_files/27459.got.cif
#   From: 2010.06.25/outbox.cif.g09.slc.cpg/sg9_14_cif.got.tgz:27459.got - 2010.06.27 21:40:51.
