data_PCOD8055320
_publ_section_title
;
Structure prediction by ZEFSAII (Michael W. Deem and Ramdas Pophale) SiO2 
 PCOD8055320
Probable space group: C C
;
_chemical_formula_sum "Si O2"
_cell_formula_units_Z 32
_cell_length_a 8.767925
_cell_length_b 18.578991
_cell_length_c 8.153162
_cell_angle_alpha 90.000000
_cell_angle_beta 88.976613
_cell_angle_gamma 90.000000
_cell_volume 1327.931710
_symmetry_space_group_name_H-M "C C"
_symmetry_group_IT_number 9
_symmetry_cell_setting 'monoclinic'
loop_
_space_group_symop_operation_xyz
x,y,z
x,-y,1/2+z
1/2+x,1/2+y,z
1/2+x,1/2-y,1/2+z
loop_
_atom_site_type_symbol
_atom_site_label
_atom_site_fract_x
_atom_site_fract_y
_atom_site_fract_z
Si Si1 0.778480 0.405332 0.206700
Si Si2 0.925094 0.719192 0.538829
Si Si3 0.773748 0.021642 0.396082
Si Si4 0.777572 0.840430 0.701381
Si Si5 0.922466 0.094895 0.697506
Si Si6 0.280134 0.277129 0.043591
Si Si7 0.434808 0.983301 0.502919
Si Si8 0.435379 0.844601 0.692170
O O1 0.828462 0.322729 0.180057
O O2 0.599181 0.409591 0.241111
O O3 0.876316 0.437277 0.352789
O O4 0.822359 0.450804 0.043142
O O5 0.882409 0.804911 0.555206
O O6 0.876722 0.681511 0.370185
O O7 0.102282 0.708468 0.568844
O O8 0.785114 0.073008 0.231461
O O9 0.886452 0.053887 0.529095
O O10 0.828493 0.942047 0.347049
O O11 0.601800 0.017214 0.467589
O O12 0.606581 0.816804 0.660728
O O13 0.836062 0.803849 0.867095
O O14 0.869056 0.177516 0.682960
O O15 0.323913 0.193587 0.062593
O O16 0.432001 0.930750 0.664110
#
# Coordination Sequence:
#
# PCOD8055320 Si02
#       8
#     4   4   4   4   4   4   4   4
#     4  12  24  41  65  97 133 173 221 281 337 397
#     4  11  24  42  65  93 132 176 221 278 337 402
#     4  11  23  43  68  95 132 180 226 275 339 404
#     4  10  22  42  64  92 129 169 221 275 330 400
#     4  11  24  41  64  95 133 172 223 280 335 401
#     4  10  23  41  61  91 129 171 218 270 336 406
#     4  12  24  43  70  97 133 176 226 277 336 408
#     4  11  24  41  65  96 127 169 224 276 336 400
#
# _framework density 24.097626999999999
#
# number of rings (size 3 to 8) (size 9 to 14) (size 15 to 20)
#    0.000    1.000    0.000    8.250    0.000    8.000 
#    0.000    0.000    0.000    0.000    0.000    0.000 
#    0.000    0.000    0.000    0.000    0.000    0.000 
#
# Total GULP energy -198407.768196 kJ/mol
# GULP energy per Si atom -12400.485512 kJ/mol
# Density = 2.404278 g / cm^3
# Si number density = 24.097627 Si / 1000 Ang^3
#
#
#
# Elastic Constant Matrix: (Units=GPa)
#
#
# Indices 1 2 3 4 5 6 
#
# 1 92.4619 14.1535 8.9095 0.0000 -0.9817 0.0000
# 2 14.1535 114.0742 0.3629 0.0000 -9.4555 0.0000
# 3 8.9095 0.3629 21.0910 0.0000 -4.6595 0.0000
# 4 0.0000 0.0000 0.0000 46.3917 0.0000 -6.0502
# 5 -0.9817 -9.4555 -4.6595 0.0000 36.3195 0.0000
# 6 0.0000 0.0000 0.0000 -6.0502 0.0000 41.0753
#
#
#
# Elastic Compliance Matrix: (Units=1/GPa)
#
#
# Indices 1 2 3 4 5 6 
#
# 1 0.011514 -0.001472 -0.004996 0.000000 -0.000713 0.000000
# 2 -0.001472 0.009151 0.001010 0.000000 0.002472 0.000000
# 3 -0.004996 0.001010 0.050980 0.000000 0.006668 0.000000
# 4 0.000000 0.000000 0.000000 0.021978 0.000000 0.003237
# 5 -0.000713 0.002472 0.006668 0.000000 0.029013 0.000000
# 6 0.000000 0.000000 0.000000 0.003237 0.000000 0.024822
#
#
# Mechanical properties :
#
#
# Convention : Reuss Voigt Hill
#
# Bulk Modulus (GPa) = 16.46642 30.49767 23.48205
# Shear Modulus (GPa) = 27.99289 38.37070 33.18180
#
# Velocity S-wave (km/s) = 3.41199 3.99470 3.71479
# Velocity P-wave (km/s) = 4.72972 5.82753 5.30709
#
# Compressibility (1/GPa) = 0.06072964
#
# Stress axis : x y z
#
# Youngs Moduli (GPa) = 86.84756 109.28326 19.61556
#
# Poissons Ratio (x) = 0.16085 0.09800
# Poissons Ratio (y) = 0.12782 -0.01982
# Poissons Ratio (z) = 0.43391 -0.11042
#
# Static dielectric constant tensor:
#      x y z
#    x 4.026900 0.000000 0.080030 
#    y 0.000000 4.642190 0.000000 
#    z 0.080030 0.000000 4.302590 
# 
# 
# High freq. dielectric constant tensor:
#      x y z
#    x 1.944100 0.000000 0.010380 
#    y 0.000000 1.974710 0.000000 
#    z 0.010380 0.000000 1.956800 
# 
# From -- ./inp_files/5769.got.cif
#   From: 2010.06.25/outbox.cif.g09.slc.cpg/sg9_3_cif.got.tgz:5769.got - 2010.06.27 21:40:51.
