data_PCOD8055672
_publ_section_title
;
Structure prediction by ZEFSAII (Michael W. Deem and Ramdas Pophale) SiO2 
 PCOD8055672
Probable space group: C C
;
_chemical_formula_sum "Si O2"
_cell_formula_units_Z 32
_cell_length_a 13.961195
_cell_length_b 12.106294
_cell_length_c 8.688223
_cell_angle_alpha 90.000000
_cell_angle_beta 109.334468
_cell_angle_gamma 90.000000
_cell_volume 1385.650168
_symmetry_space_group_name_H-M "C C"
_symmetry_group_IT_number 9
_symmetry_cell_setting 'monoclinic'
loop_
_space_group_symop_operation_xyz
x,y,z
x,-y,1/2+z
1/2+x,1/2+y,z
1/2+x,1/2-y,1/2+z
loop_
_atom_site_type_symbol
_atom_site_label
_atom_site_fract_x
_atom_site_fract_y
_atom_site_fract_z
Si Si1 0.790230 0.591524 0.302510
Si Si2 0.092304 0.644898 0.763363
Si Si3 0.776648 0.168065 0.278491
Si Si4 0.844400 0.622341 0.989938
Si Si5 0.562207 0.393670 0.779666
Si Si6 0.943546 0.984882 0.975988
Si Si7 0.320965 0.315846 0.442158
Si Si8 0.062889 0.575456 0.090186
O O1 0.850466 0.483315 0.382141
O O2 0.678060 0.580571 0.311345
O O3 0.850708 0.691020 0.416713
O O4 0.782968 0.604450 0.114741
O O5 0.036126 0.765414 0.721379
O O6 0.211648 0.664403 0.806781
O O7 0.054734 0.556517 0.617445
O O8 0.070246 0.588448 0.913039
O O9 0.786097 0.288159 0.356991
O O10 0.660317 0.129110 0.226114
O O11 0.843843 0.091283 0.426374
O O12 0.818860 0.164656 0.126115
O O13 0.963167 0.643622 0.093946
O O14 0.535794 0.420720 0.941974
O O15 0.489339 0.485424 0.665427
O O16 0.901572 0.105060 0.897627
#
# Coordination Sequence:
#
# PCOD8055672 Si02
#       8
#     4   4   4   4   4   4   4   4
#     4  11  26  47  67 103 143 193 243 304 357 441
#     4  10  23  46  68 103 142 185 235 305 355 431
#     4  11  25  45  69 109 145 181 243 309 360 443
#     4  12  26  44  72 101 144 195 245 295 373 435
#     4  11  26  44  71 104 148 189 238 301 375 433
#     4  12  23  43  73 105 142 187 235 299 367 434
#     4  10  23  44  71  98 146 185 237 304 361 424
#     4  11  24  43  71  99 138 189 238 293 364 429
#
# _framework density 23.093851999999998
#
# number of rings (size 3 to 8) (size 9 to 14) (size 15 to 20)
#    0.000    1.000    2.500    3.000    3.500    5.000 
#    2.250    0.000    0.000    0.000    0.000    0.000 
#    0.000    0.000    0.000    0.000    0.000    0.000 
#
# Total GULP energy -198316.450985 kJ/mol
# GULP energy per Si atom -12394.778187 kJ/mol
# Density = 2.304129 g / cm^3
# Si number density = 23.093852 Si / 1000 Ang^3
#
#
#
# Elastic Constant Matrix: (Units=GPa)
#
#
# Indices 1 2 3 4 5 6 
#
# 1 104.7068 33.4357 8.9864 0.0000 -2.2445 0.0000
# 2 33.4357 140.7591 31.9205 0.0000 -2.3748 0.0000
# 3 8.9864 31.9205 53.3495 0.0000 -1.9083 0.0000
# 4 0.0000 0.0000 0.0000 50.8192 0.0000 0.8861
# 5 -2.2445 -2.3748 -1.9083 0.0000 27.0151 0.0000
# 6 0.0000 0.0000 0.0000 0.8861 0.0000 35.8173
#
#
#
# Elastic Compliance Matrix: (Units=1/GPa)
#
#
# Indices 1 2 3 4 5 6 
#
# 1 0.010350 -0.002381 -0.000296 0.000000 0.000630 0.000000
# 2 -0.002381 0.008771 -0.004839 0.000000 0.000231 0.000000
# 3 -0.000296 -0.004839 0.021728 0.000000 0.001085 0.000000
# 4 0.000000 0.000000 0.000000 0.019686 0.000000 -0.000487
# 5 0.000630 0.000231 0.001085 0.000000 0.037166 0.000000
# 6 0.000000 0.000000 0.000000 -0.000487 0.000000 0.027932
#
#
# Mechanical properties :
#
#
# Convention : Reuss Voigt Hill
#
# Bulk Modulus (GPa) = 38.73352 49.72226 44.22789
# Shear Modulus (GPa) = 33.49655 37.69518 35.59586
#
# Velocity S-wave (km/s) = 3.81261 4.04451 3.93027
# Velocity P-wave (km/s) = 6.01581 6.58696 6.30785
#
# Compressibility (1/GPa) = 0.02581743
#
# Stress axis : x y z
#
# Youngs Moduli (GPa) = 96.62213 114.01204 46.02320
#
# Poissons Ratio (x) = 0.27141 0.01364
# Poissons Ratio (y) = 0.23002 0.22269
# Poissons Ratio (z) = 0.02864 0.55167
#
# Static dielectric constant tensor:
#      x y z
#    x 4.225490 0.000000 0.152630 
#    y 0.000000 4.436350 0.000000 
#    z 0.152630 0.000000 3.962000 
# 
# 
# High freq. dielectric constant tensor:
#      x y z
#    x 1.919990 0.000000 0.012790 
#    y 0.000000 1.923650 0.000000 
#    z 0.012790 0.000000 1.899370 
# 
# From -- ./inp_files/9181.got.cif
#   From: 2010.06.25/outbox.cif.g09.slc.cpg/sg9_5_cif.got.tgz:9181.got - 2010.06.27 21:40:51.
