data_PCOD8055410
_publ_section_title
;
Structure prediction by ZEFSAII (Michael W. Deem and Ramdas Pophale) SiO2 
 PCOD8055410
Probable space group: C C
;
_chemical_formula_sum "Si O2"
_cell_formula_units_Z 32
_cell_length_a 13.817218
_cell_length_b 12.164414
_cell_length_c 19.095029
_cell_angle_alpha 90.000000
_cell_angle_beta 27.928327
_cell_angle_gamma 90.000000
_cell_volume 1503.204701
_symmetry_space_group_name_H-M "C C"
_symmetry_group_IT_number 9
_symmetry_cell_setting 'monoclinic'
loop_
_space_group_symop_operation_xyz
x,y,z
x,-y,1/2+z
1/2+x,1/2+y,z
1/2+x,1/2-y,1/2+z
loop_
_atom_site_type_symbol
_atom_site_label
_atom_site_fract_x
_atom_site_fract_y
_atom_site_fract_z
Si Si1 0.133090 0.752167 0.081170
Si Si2 0.038967 0.180332 0.356517
Si Si3 0.491929 0.362896 0.300611
Si Si4 0.064538 0.438841 0.338166
Si Si5 0.937946 0.459551 0.778766
Si Si6 0.853106 0.499973 0.617332
Si Si7 0.190169 0.445230 0.006690
Si Si8 0.996230 0.118474 0.541067
O O1 0.093809 0.852495 0.159144
O O2 0.017406 0.778818 0.081882
O O3 0.040135 0.651497 0.184318
O O4 0.381637 0.744879 0.906185
O O5 0.063394 0.308039 0.323792
O O6 0.256299 0.112658 0.211414
O O7 0.956958 0.164855 0.488066
O O8 0.873570 0.141758 0.402517
O O9 0.664853 0.413621 0.239514
O O10 0.289818 0.438161 0.424034
O O11 0.310223 0.462647 0.183515
O O12 0.963232 0.515830 0.344237
O O13 0.943582 0.469396 0.484769
O O14 0.052656 0.557427 0.664843
O O15 0.696628 0.458595 0.915457
O O16 0.029380 0.567805 0.545951
#
# Coordination Sequence:
#
# PCOD8055410 Si02
#       8
#     4   4   4   4   4   4   4   4
#     4  11  22  40  68 100 131 166 222 286 333 392
#     4  11  24  43  69 100 134 172 225 275 334 403
#     4  10  23  40  68  96 130 170 224 278 334 394
#     4  12  26  40  68 102 133 174 229 277 332 402
#     4  11  23  40  65  97 139 166 218 281 337 394
#     4  11  24  43  66  97 137 179 219 275 340 400
#     4  10  22  44  66  96 134 178 209 275 342 397
#     4  12  22  40  70 102 126 173 224 279 336 390
#
# _framework density 21.287852000000001
#
# number of rings (size 3 to 8) (size 9 to 14) (size 15 to 20)
#    0.000    1.000    3.750    3.000    5.250    1.000 
#    0.000    2.500    0.000    0.000    0.000    0.000 
#    0.000    0.000    0.000    0.000    0.000    0.000 
#
# Total GULP energy -198218.531903 kJ/mol
# GULP energy per Si atom -12388.658244 kJ/mol
# Density = 2.123940 g / cm^3
# Si number density = 21.287852 Si / 1000 Ang^3
#
#
#
# Elastic Constant Matrix: (Units=GPa)
#
#
# Indices 1 2 3 4 5 6 
#
# 1 121.0725 40.7239 45.8549 -0.0355 -0.0041 -0.0216
# 2 40.7239 35.5022 21.9786 -0.0079 2.1092 -0.0078
# 3 45.8549 21.9786 133.2809 -0.0212 3.9234 -0.0166
# 4 -0.0355 -0.0079 -0.0212 24.4331 0.0018 1.4307
# 5 -0.0041 2.1092 3.9234 0.0018 47.9482 0.0023
# 6 -0.0216 -0.0078 -0.0166 1.4307 0.0023 31.4071
#
#
#
# Elastic Compliance Matrix: (Units=1/GPa)
#
#
# Indices 1 2 3 4 5 6 
#
# 1 0.014159 -0.014769 -0.002461 0.000013 0.000852 0.000004
# 2 -0.014769 0.046819 -0.002585 -0.000008 -0.001849 0.000001
# 3 -0.002461 -0.002585 0.008794 0.000003 -0.000606 0.000002
# 4 0.000013 -0.000008 0.000003 0.041038 -0.000001 -0.001869
# 5 0.000852 -0.001849 -0.000606 -0.000001 0.020987 -0.000002
# 6 0.000004 0.000001 0.000002 -0.001869 -0.000002 0.031925
#
#
# Mechanical properties :
#
#
# Convention : Reuss Voigt Hill
#
# Bulk Modulus (GPa) = 33.17659 56.33007 44.75333
# Shear Modulus (GPa) = 23.43035 32.84422 28.13728
#
# Velocity S-wave (km/s) = 3.32119 3.93219 3.63954
# Velocity P-wave (km/s) = 5.50688 6.86547 6.22336
#
# Compressibility (1/GPa) = 0.03014174
#
# Stress axis : x y z
#
# Youngs Moduli (GPa) = 70.62469 21.35904 113.71650
#
# Poissons Ratio (x) = 0.31545 0.27987
# Poissons Ratio (y) = 1.04305 0.29395
# Poissons Ratio (z) = 0.17381 0.05521
#
# Static dielectric constant tensor:
#      x y z
#    x 3.800490 -0.000020 0.131750 
#    y -0.000020 3.691110 0.000090 
#    z 0.131750 0.000090 4.403620 
# 
# 
# High freq. dielectric constant tensor:
#      x y z
#    x 1.828660 0.000000 0.007160 
#    y 0.000000 1.804150 0.000000 
#    z 0.007160 0.000000 1.868510 
# 
# From -- ./inp_files/12245.got.cif
#   From: 2010.06.25/outbox.cif.g09.slc.cpg/sg9_7_cif.got.tgz:12245.got - 2010.06.27 21:40:51.
