data_PCOD8055654
_publ_section_title
;
Structure prediction by ZEFSAII (Michael W. Deem and Ramdas Pophale) SiO2 
 PCOD8055654
Probable space group: C C
;
_chemical_formula_sum "Si O2"
_cell_formula_units_Z 32
_cell_length_a 15.086659
_cell_length_b 21.190596
_cell_length_c 9.047090
_cell_angle_alpha 90.000000
_cell_angle_beta 31.574384
_cell_angle_gamma 90.000000
_cell_volume 1514.429260
_symmetry_space_group_name_H-M "C C"
_symmetry_group_IT_number 9
_symmetry_cell_setting 'monoclinic'
loop_
_space_group_symop_operation_xyz
x,y,z
x,-y,1/2+z
1/2+x,1/2+y,z
1/2+x,1/2-y,1/2+z
loop_
_atom_site_type_symbol
_atom_site_label
_atom_site_fract_x
_atom_site_fract_y
_atom_site_fract_z
Si Si1 0.398380 0.445088 0.025710
Si Si2 0.666442 0.170133 0.525639
Si Si3 0.946268 0.924736 0.616092
Si Si4 0.743595 0.751431 0.367495
Si Si5 0.267620 0.841966 0.077822
Si Si6 0.854955 0.296781 0.263912
Si Si7 0.572344 0.674152 0.374157
Si Si8 0.077098 0.630369 0.974348
O O1 0.447651 0.512234 0.018333
O O2 0.196161 0.431219 0.318744
O O3 0.463742 0.439113 0.765222
O O4 0.483161 0.393533 0.014143
O O5 0.767275 0.107853 0.332507
O O6 0.813630 0.222487 0.334600
O O7 0.530335 0.189744 0.597405
O O8 0.575595 0.157017 0.810498
O O9 0.099367 0.881015 0.346411
O O10 0.728733 0.726080 0.556340
O O11 0.684659 0.691076 0.355950
O O12 0.630749 0.813047 0.508079
O O13 0.934583 0.769924 0.047498
O O14 0.370460 0.824163 0.078508
O O15 0.387517 0.884915 0.799922
O O16 0.693485 0.331981 0.561735
#
# Coordination Sequence:
#
# PCOD8055654 Si02
#       8
#     4   4   4   4   4   4   4   4
#     4  10  25  48  69  93 132 185 228 270 333 402
#     4  11  25  43  70  95 140 182 218 278 338 409
#     4  11  26  49  67  97 134 183 229 278 331 396
#     4  11  22  38  66 101 135 173 208 270 348 396
#     4  12  25  41  66 107 137 166 230 279 337 397
#     4  12  23  39  68 105 137 168 221 276 350 397
#     4  11  21  42  69  98 133 176 217 269 336 411
#     4  10  23  44  67  98 136 173 225 272 339 404
#
# _framework density 21.130072999999999
#
# number of rings (size 3 to 8) (size 9 to 14) (size 15 to 20)
#    0.000    1.000    3.750    2.250    7.000    1.000 
#    2.250    1.250    0.000    0.000    0.000    0.000 
#    0.000    0.000    0.000    0.000    0.000    0.000 
#
# Total GULP energy -198357.219327 kJ/mol
# GULP energy per Si atom -12397.326208 kJ/mol
# Density = 2.108198 g / cm^3
# Si number density = 21.130073 Si / 1000 Ang^3
#
#
#
# Elastic Constant Matrix: (Units=GPa)
#
#
# Indices 1 2 3 4 5 6 
#
# 1 138.3218 49.2418 55.9124 -0.0013 -4.3841 0.0006
# 2 49.2418 60.7903 42.0063 0.0018 2.0074 0.0002
# 3 55.9124 42.0063 135.6438 -0.0043 5.5058 0.0022
# 4 -0.0013 0.0018 -0.0043 16.5580 0.0025 2.9636
# 5 -4.3841 2.0074 5.5058 0.0025 28.0756 0.0000
# 6 0.0006 0.0002 0.0022 2.9636 0.0000 31.4032
#
#
#
# Elastic Compliance Matrix: (Units=1/GPa)
#
#
# Indices 1 2 3 4 5 6 
#
# 1 0.010840 -0.007260 -0.002328 0.000001 0.002668 0.000000
# 2 -0.007260 0.025792 -0.004913 -0.000005 -0.002014 0.000001
# 3 -0.002328 -0.004913 0.009933 0.000003 -0.001960 -0.000001
# 4 0.000001 -0.000005 0.000003 0.061431 -0.000006 -0.005797
# 5 0.002668 -0.002014 -0.001960 -0.000006 0.036563 0.000001
# 6 0.000000 0.000001 -0.000001 -0.005797 0.000001 0.032391
#
#
# Mechanical properties :
#
#
# Convention : Reuss Voigt Hill
#
# Bulk Modulus (GPa) = 56.93905 69.89745 63.41825
# Shear Modulus (GPa) = 23.60647 27.71373 25.66010
#
# Velocity S-wave (km/s) = 3.34608 3.62550 3.48859
# Velocity P-wave (km/s) = 6.47563 7.11878 6.80481
#
# Compressibility (1/GPa) = 0.01756264
#
# Stress axis : x y z
#
# Youngs Moduli (GPa) = 92.25429 38.77168 100.67454
#
# Poissons Ratio (x) = 0.28147 0.23439
# Poissons Ratio (y) = 0.66974 0.49462
# Poissons Ratio (z) = 0.21479 0.19049
#
# Static dielectric constant tensor:
#      x y z
#    x 3.889400 0.000000 -0.064610 
#    y 0.000000 3.617760 0.000010 
#    z -0.064610 0.000010 4.022010 
# 
# 
# High freq. dielectric constant tensor:
#      x y z
#    x 1.834030 0.000000 -0.001870 
#    y 0.000000 1.802240 0.000000 
#    z -0.001870 0.000000 1.844660 
# 
# From -- ./inp_files/10081.got.cif
#   From: 2010.06.25/outbox.cif.g09.slc.cpg/sg9_6_cif.got.tgz:10081.got - 2010.06.27 21:40:51.
