data_PCOD8055984
_publ_section_title
;
Structure prediction by ZEFSAII (Michael W. Deem and Ramdas Pophale) SiO2 
 PCOD8055984
Probable space group: C C
;
_chemical_formula_sum "Si O2"
_cell_formula_units_Z 32
_cell_length_a 12.804583
_cell_length_b 8.747927
_cell_length_c 13.292111
_cell_angle_alpha 90.000000
_cell_angle_beta 89.317970
_cell_angle_gamma 90.000000
_cell_volume 1488.791153
_symmetry_space_group_name_H-M "C C"
_symmetry_group_IT_number 9
_symmetry_cell_setting 'monoclinic'
loop_
_space_group_symop_operation_xyz
x,y,z
x,-y,1/2+z
1/2+x,1/2+y,z
1/2+x,1/2-y,1/2+z
loop_
_atom_site_type_symbol
_atom_site_label
_atom_site_fract_x
_atom_site_fract_y
_atom_site_fract_z
Si Si1 0.704620 0.328577 0.889880
Si Si2 0.330641 0.597472 0.770379
Si Si3 0.291487 0.150506 0.895166
Si Si4 0.530931 0.600228 0.233555
Si Si5 0.596250 0.339043 0.098764
Si Si6 0.657522 0.872271 0.777000
Si Si7 0.387936 0.172585 0.104669
Si Si8 0.466183 0.914494 0.243520
O O1 0.781954 0.182633 0.869715
O O2 0.761045 0.483171 0.859487
O O3 0.601713 0.334863 0.823207
O O4 0.677919 0.328812 0.007952
O O5 0.442614 0.513869 0.783957
O O6 0.249749 0.473721 0.731782
O O7 0.330675 0.725618 0.686653
O O8 0.202189 0.279490 0.873743
O O9 0.397090 0.169083 0.830324
O O10 0.310015 0.151759 0.013514
O O11 0.583280 0.512502 0.138787
O O12 0.499942 0.761702 0.182944
O O13 0.637167 0.252813 0.194869
O O14 0.490057 0.259594 0.062669
O O15 0.555148 0.978741 0.797247
O O16 0.409607 0.010885 0.157522
#
# Coordination Sequence:
#
# PCOD8055984 Si02
#       8
#     4   4   4   4   4   4   4   4
#     4  12  25  42  72  98 137 178 230 281 341 412
#     4  11  24  44  71  96 136 181 220 278 343 404
#     4  12  25  42  72  98 137 178 230 281 341 412
#     4  11  23  46  69  98 140 179 224 286 340 404
#     4  10  25  46  65 101 134 173 229 281 337 409
#     4  11  24  44  71  96 136 181 220 278 343 404
#     4  10  25  46  65 101 134 173 229 281 337 409
#     4  11  23  46  69  98 140 179 224 286 340 404
#
# _framework density 21.493950000000002
#
# number of rings (size 3 to 8) (size 9 to 14) (size 15 to 20)
#    0.000    1.000    5.000    0.750    3.500    1.000 
#    9.000    0.000    0.000    0.000    0.000    0.000 
#    0.000    0.000    0.000    0.000    0.000    0.000 
#
# Total GULP energy -198242.325770 kJ/mol
# GULP energy per Si atom -12390.145361 kJ/mol
# Density = 2.144503 g / cm^3
# Si number density = 21.493950 Si / 1000 Ang^3
#
#
#
# Elastic Constant Matrix: (Units=GPa)
#
#
# Indices 1 2 3 4 5 6 
#
# 1 72.6811 24.5533 34.0912 0.0000 7.7882 0.0000
# 2 24.5533 112.4010 19.8760 0.0000 24.8339 0.0000
# 3 34.0912 19.8760 82.9866 0.0000 11.2030 0.0000
# 4 0.0000 0.0000 0.0000 296.5775 0.0000 87.9063
# 5 7.7882 24.8339 11.2030 0.0000 23.4131 0.0000
# 6 0.0000 0.0000 0.0000 87.9063 0.0000 74.3401
#
#
#
# Elastic Compliance Matrix: (Units=1/GPa)
#
#
# Indices 1 2 3 4 5 6 
#
# 1 0.017800 -0.002749 -0.006680 0.000000 0.000191 0.000000
# 2 -0.002749 0.012157 -0.000176 0.000000 -0.011895 0.000000
# 3 -0.006680 -0.000176 0.015513 0.000000 -0.005014 0.000000
# 4 0.000000 0.000000 0.000000 0.005191 0.000000 -0.006139
# 5 0.000191 -0.011895 -0.005014 0.000000 0.057664 0.000000
# 6 0.000000 0.000000 0.000000 -0.006139 0.000000 0.020711
#
#
# Mechanical properties :
#
#
# Convention : Reuss Voigt Hill
#
# Bulk Modulus (GPa) = 38.08179 47.23441 42.65810
# Shear Modulus (GPa) = 31.84714 91.50269 61.67491
#
# Velocity S-wave (km/s) = 3.85343 6.53175 5.36250
# Velocity P-wave (km/s) = 6.12817 8.88304 7.63096
#
# Compressibility (1/GPa) = 0.02625927
#
# Stress axis : x y z
#
# Youngs Moduli (GPa) = 56.17925 82.25937 64.46084
#
# Poissons Ratio (x) = 0.22617 0.43058
# Poissons Ratio (y) = 0.15446 0.01136
# Poissons Ratio (z) = 0.37526 0.01450
#
# Static dielectric constant tensor:
#      x y z
#    x 4.239100 0.000000 -0.038550 
#    y 0.000000 4.227190 0.000000 
#    z -0.038550 0.000000 3.504790 
# 
# 
# High freq. dielectric constant tensor:
#      x y z
#    x 1.851560 0.000000 -0.000610 
#    y 0.000000 1.873430 0.000000 
#    z -0.000610 0.000000 1.815510 
# 
# From -- ./inp_files/14778.got.cif
#   From: 2010.06.25/outbox.cif.g09.slc.cpg/sg9_8_cif.got.tgz:14778.got - 2010.06.27 21:40:51.
