data_PCOD8055836
_publ_section_title
;
Structure prediction by ZEFSAII (Michael W. Deem and Ramdas Pophale) SiO2 
 PCOD8055836
Probable space group: C C
;
_chemical_formula_sum "Si O2"
_cell_formula_units_Z 32
_cell_length_a 14.765863
_cell_length_b 8.783795
_cell_length_c 12.521556
_cell_angle_alpha 90.000000
_cell_angle_beta 115.015938
_cell_angle_gamma 90.000000
_cell_volume 1471.697946
_symmetry_space_group_name_H-M "C C"
_symmetry_group_IT_number 9
_symmetry_cell_setting 'monoclinic'
loop_
_space_group_symop_operation_xyz
x,y,z
x,-y,1/2+z
1/2+x,1/2+y,z
1/2+x,1/2-y,1/2+z
loop_
_atom_site_type_symbol
_atom_site_label
_atom_site_fract_x
_atom_site_fract_y
_atom_site_fract_z
Si Si1 0.225570 0.658627 0.842630
Si Si2 0.038140 0.591680 0.629908
Si Si3 0.867945 0.432497 0.194141
Si Si4 0.884182 0.949802 0.023690
Si Si5 0.667955 0.627997 0.492277
Si Si6 0.040313 0.143836 0.980129
Si Si7 0.375220 0.279077 0.232301
Si Si8 0.474847 0.819367 0.455632
O O1 0.121742 0.575262 0.763027
O O2 0.283535 0.538576 0.944864
O O3 0.280770 0.696497 0.760717
O O4 0.210197 0.818542 0.898231
O O5 0.080060 0.709767 0.563279
O O6 0.936292 0.647149 0.637251
O O7 0.014946 0.431740 0.565133
O O8 0.756900 0.361716 0.124820
O O9 0.867856 0.614042 0.174430
O O10 0.914710 0.404172 0.332980
O O11 0.892025 0.793474 0.961997
O O12 0.879899 0.913162 0.147057
O O13 0.980880 0.047943 0.039965
O O14 0.631048 0.452610 0.474087
O O15 0.574288 0.734895 0.467792
O O16 0.974746 0.204698 0.850673
#
# Coordination Sequence:
#
# PCOD8055836 Si02
#       8
#     4   4   4   4   4   4   4   4
#     4  11  26  41  71 102 140 186 232 291 352 419
#     4  12  24  45  69 102 141 179 231 288 351 415
#     4  12  24  45  71 100 144 183 231 294 348 423
#     4  10  24  43  69 102 135 186 229 287 345 419
#     4  11  26  46  69 105 134 192 232 289 356 417
#     4  10  24  45  70 101 139 181 232 289 348 420
#     4  11  23  45  69 103 140 184 231 290 354 416
#     4  11  25  46  68 105 141 181 238 286 360 413
#
# _framework density 21.743592
#
# number of rings (size 3 to 8) (size 9 to 14) (size 15 to 20)
#    0.000    1.000    3.750    2.250    5.250    3.000 
#    2.250    0.000    0.000    0.000    0.000    0.000 
#    0.000    0.000    0.000    0.000    0.000    0.000 
#
# Total GULP energy -198391.714116 kJ/mol
# GULP energy per Si atom -12399.482132 kJ/mol
# Density = 2.169410 g / cm^3
# Si number density = 21.743592 Si / 1000 Ang^3
#
#
#
# Elastic Constant Matrix: (Units=GPa)
#
#
# Indices 1 2 3 4 5 6 
#
# 1 89.4581 25.9188 42.0106 0.0000 9.2444 0.0000
# 2 25.9188 86.9254 25.4296 0.0000 -2.0973 0.0000
# 3 42.0106 25.4296 97.0866 0.0000 5.1701 0.0000
# 4 0.0000 0.0000 0.0000 44.6878 0.0000 -4.5839
# 5 9.2444 -2.0973 5.1701 0.0000 45.3549 0.0000
# 6 0.0000 0.0000 0.0000 -4.5839 0.0000 25.6587
#
#
#
# Elastic Compliance Matrix: (Units=1/GPa)
#
#
# Indices 1 2 3 4 5 6 
#
# 1 0.014880 -0.002874 -0.005551 0.000000 -0.002533 0.000000
# 2 -0.002874 0.013055 -0.002253 0.000000 0.001446 0.000000
# 3 -0.005551 -0.002253 0.013318 0.000000 -0.000491 0.000000
# 4 0.000000 0.000000 0.000000 0.022795 0.000000 0.004072
# 5 -0.002533 0.001446 -0.000491 0.000000 0.022687 0.000000
# 6 0.000000 0.000000 0.000000 0.004072 0.000000 0.039701
#
#
# Mechanical properties :
#
#
# Convention : Reuss Voigt Hill
#
# Bulk Modulus (GPa) = 50.25788 51.13203 50.69495
# Shear Modulus (GPa) = 32.37833 35.14769 33.76301
#
# Velocity S-wave (km/s) = 3.86307 4.02489 3.94481
# Velocity P-wave (km/s) = 6.56215 6.72061 6.64185
#
# Compressibility (1/GPa) = 0.01989738
#
# Stress axis : x y z
#
# Youngs Moduli (GPa) = 67.20594 76.59891 75.08472
#
# Poissons Ratio (x) = 0.22014 0.41679
# Poissons Ratio (y) = 0.19314 0.16916
# Poissons Ratio (z) = 0.37306 0.17257
#
# Static dielectric constant tensor:
#      x y z
#    x 4.038580 0.000000 -0.010160 
#    y 0.000000 3.972270 0.000000 
#    z -0.010160 0.000000 3.903450 
# 
# 
# High freq. dielectric constant tensor:
#      x y z
#    x 1.859200 0.000000 0.003520 
#    y 0.000000 1.856140 0.000000 
#    z 0.003520 0.000000 1.859360 
# 
# From -- ./inp_files/17758.got.cif
#   From: 2010.06.25/outbox.cif.g09.slc.cpg/sg9_9_cif.got.tgz:17758.got - 2010.06.27 21:40:51.
