data_PCOD8055815
_publ_section_title
;
Structure prediction by ZEFSAII (Michael W. Deem and Ramdas Pophale) SiO2 
 PCOD8055815
Probable space group: C C
;
_chemical_formula_sum "Si O2"
_cell_formula_units_Z 32
_cell_length_a 16.282208
_cell_length_b 10.777707
_cell_length_c 14.120088
_cell_angle_alpha 90.000000
_cell_angle_beta 143.907457
_cell_angle_gamma 90.000000
_cell_volume 1459.686545
_symmetry_space_group_name_H-M "C C"
_symmetry_group_IT_number 9
_symmetry_cell_setting 'monoclinic'
loop_
_space_group_symop_operation_xyz
x,y,z
x,-y,1/2+z
1/2+x,1/2+y,z
1/2+x,1/2-y,1/2+z
loop_
_atom_site_type_symbol
_atom_site_label
_atom_site_fract_x
_atom_site_fract_y
_atom_site_fract_z
Si Si1 0.717140 0.882336 0.645610
Si Si2 0.177247 0.117025 0.657583
Si Si3 0.718112 0.443384 0.532758
Si Si4 0.898393 0.400788 0.526249
Si Si5 0.410525 0.475371 0.205089
Si Si6 0.903830 0.124929 0.498208
Si Si7 0.800461 0.763203 0.232940
Si Si8 0.045705 0.594273 0.545899
O O1 0.649921 0.746354 0.575764
O O2 0.774271 0.884397 0.806924
O O3 0.836294 0.899989 0.675858
O O4 0.600570 0.990552 0.520854
O O5 0.274191 0.121754 0.838101
O O6 0.030515 0.061866 0.557671
O O7 0.254949 0.028990 0.656078
O O8 0.843591 0.446292 0.575858
O O9 0.576602 0.490148 0.352178
O O10 0.710774 0.304488 0.567578
O O11 0.962443 0.261266 0.587098
O O12 0.004999 0.510096 0.598125
O O13 0.383779 0.371778 0.259517
O O14 0.357175 0.447680 0.049482
O O15 0.911016 0.672939 0.387710
O O16 0.681163 0.817738 0.193519
#
# Coordination Sequence:
#
# PCOD8055815 Si02
#       8
#     4   4   4   4   4   4   4   4
#     4  10  24  42  65  95 135 175 220 281 333 390
#     4  11  22  40  65  93 133 174 215 267 335 397
#     4  12  22  39  65  98 131 173 219 272 331 399
#     4  11  23  39  65  96 131 178 223 270 324 401
#     4  11  22  40  67 101 130 169 227 277 327 400
#     4  11  21  40  68  96 129 172 227 266 328 400
#     4  11  23  40  69  95 137 174 222 279 337 388
#     4  11  23  44  66  98 134 179 223 278 337 397
#
# _framework density 21.922512999999999
#
# number of rings (size 3 to 8) (size 9 to 14) (size 15 to 20)
#    0.000    1.000    7.500    0.000    0.000    0.000 
#    4.500    5.000    0.000    0.000    0.000    0.000 
#    0.000    0.000    0.000    0.000    0.000    0.000 
#
# Total GULP energy -198240.529514 kJ/mol
# GULP energy per Si atom -12390.033095 kJ/mol
# Density = 2.187262 g / cm^3
# Si number density = 21.922513 Si / 1000 Ang^3
#
#
#
# Elastic Constant Matrix: (Units=GPa)
#
#
# Indices 1 2 3 4 5 6 
#
# 1 140.7930 52.1740 21.6331 0.0000 4.0586 0.0000
# 2 52.1740 72.6520 12.5231 0.0000 6.3451 0.0000
# 3 21.6331 12.5231 45.3286 0.0000 7.2023 0.0000
# 4 0.0000 0.0000 0.0000 30.0282 0.0000 7.7408
# 5 4.0586 6.3451 7.2023 0.0000 34.0823 0.0000
# 6 0.0000 0.0000 0.0000 7.7408 0.0000 32.8792
#
#
#
# Elastic Compliance Matrix: (Units=1/GPa)
#
#
# Indices 1 2 3 4 5 6 
#
# 1 0.010054 -0.006757 -0.003043 0.000000 0.000704 0.000000
# 2 -0.006757 0.019115 -0.001675 0.000000 -0.002400 0.000000
# 3 -0.003043 -0.001675 0.024698 0.000000 -0.004545 0.000000
# 4 0.000000 0.000000 0.000000 0.035454 0.000000 -0.008347
# 5 0.000704 -0.002400 -0.004545 0.000000 0.030664 0.000000
# 6 0.000000 0.000000 0.000000 -0.008347 0.000000 0.032379
#
#
# Mechanical properties :
#
#
# Convention : Reuss Voigt Hill
#
# Bulk Modulus (GPa) = 32.34454 47.93711 40.14082
# Shear Modulus (GPa) = 26.93667 30.89417 28.91542
#
# Velocity S-wave (km/s) = 3.50912 3.75806 3.63572
# Velocity P-wave (km/s) = 5.58611 6.38316 5.99789
#
# Compressibility (1/GPa) = 0.03091712
#
# Stress axis : x y z
#
# Youngs Moduli (GPa) = 99.46405 52.31505 40.48838
#
# Poissons Ratio (x) = 0.35349 0.12322
# Poissons Ratio (y) = 0.67207 0.06781
# Poissons Ratio (z) = 0.30270 0.08762
#
# Static dielectric constant tensor:
#      x y z
#    x 4.022380 0.000000 0.224000 
#    y 0.000000 4.202600 0.000000 
#    z 0.224000 0.000000 3.637230 
# 
# 
# High freq. dielectric constant tensor:
#      x y z
#    x 1.862570 0.000000 0.021780 
#    y 0.000000 1.858350 0.000000 
#    z 0.021780 0.000000 1.842920 
# 
# From -- ./inp_files/9108.got.cif
#   From: 2010.06.25/outbox.cif.g09.slc.cpg/sg9_5_cif.got.tgz:9108.got - 2010.06.27 21:40:51.
