data_PCOD8055507
_publ_section_title
;
Structure prediction by ZEFSAII (Michael W. Deem and Ramdas Pophale) SiO2 
 PCOD8055507
Probable space group: C C
;
_chemical_formula_sum "Si O2"
_cell_formula_units_Z 28
_cell_length_a 5.727076
_cell_length_b 20.887216
_cell_length_c 10.370390
_cell_angle_alpha 90.000000
_cell_angle_beta 119.964283
_cell_angle_gamma 90.000000
_cell_volume 1074.720218
_symmetry_space_group_name_H-M "C C"
_symmetry_group_IT_number 9
_symmetry_cell_setting 'monoclinic'
loop_
_space_group_symop_operation_xyz
x,y,z
x,-y,1/2+z
1/2+x,1/2+y,z
1/2+x,1/2-y,1/2+z
loop_
_atom_site_type_symbol
_atom_site_label
_atom_site_fract_x
_atom_site_fract_y
_atom_site_fract_z
Si Si1 0.858050 0.611679 0.346770
Si Si2 0.151510 0.718236 0.762456
Si Si3 0.327590 0.565530 0.095941
Si Si4 0.200922 0.300352 0.553000
Si Si5 0.135179 0.501009 0.295970
Si Si6 0.811078 0.198985 0.535601
Si Si7 0.760372 0.602701 0.607590
O O1 0.606299 0.605970 0.181140
O O2 0.747545 0.586556 0.452668
O O3 0.090806 0.568059 0.352283
O O4 0.000900 0.682319 0.402028
O O5 0.318711 0.712074 0.940674
O O6 0.337651 0.724957 0.688628
O O7 0.936444 0.776969 0.714760
O O8 0.996855 0.651808 0.700348
O O9 0.275956 0.512649 0.194420
O O10 0.115687 0.625322 0.051515
O O11 0.324968 0.535837 0.951548
O O12 0.934442 0.255934 0.484874
O O13 0.847698 0.463668 0.202033
O O14 0.977452 0.132003 0.576058
#
# Coordination Sequence:
#
# PCOD8055507 Si02
#       7
#     4   4   4   4   4   4   4
#     4  11  26  45  77 110 150 207 260 322 389 470
#     4  10  24  44  72 107 151 199 256 319 385 464
#     4  12  29  50  78 116 159 203 274 318 398 469
#     4  11  26  49  75 115 154 198 267 321 390 478
#     4  12  26  49  76 113 154 212 255 330 385 473
#     4  10  25  49  79 105 155 209 253 329 399 450
#     4  10  22  48  71 106 153 202 259 315 386 462
#
# _framework density 26.053291999999999
#
# number of rings (size 3 to 8) (size 9 to 14) (size 15 to 20)
#    0.000    1.143    2.857    0.857   12.000    3.429 
#    2.571    0.000    0.000    0.000    0.000    0.000 
#    0.000    0.000    0.000    0.000    0.000    0.000 
#
# Total GULP energy -173509.085217 kJ/mol
# GULP energy per Si atom -12393.506087 kJ/mol
# Density = 2.599399 g / cm^3
# Si number density = 26.053292 Si / 1000 Ang^3
#
#
#
# Elastic Constant Matrix: (Units=GPa)
#
#
# Indices 1 2 3 4 5 6 
#
# 1 79.5420 17.4285 35.4289 0.0000 -10.2891 0.0000
# 2 17.4285 124.9795 39.8990 0.0000 -10.7018 0.0000
# 3 35.4289 39.8990 145.6327 0.0000 -13.3734 0.0000
# 4 0.0000 0.0000 0.0000 29.5126 0.0000 -14.8506
# 5 -10.2891 -10.7018 -13.3734 0.0000 39.5602 0.0000
# 6 0.0000 0.0000 0.0000 -14.8506 0.0000 24.3001
#
#
#
# Elastic Compliance Matrix: (Units=1/GPa)
#
#
# Indices 1 2 3 4 5 6 
#
# 1 0.014437 -0.000823 -0.003057 0.000000 0.002499 0.000000
# 2 -0.000823 0.008916 -0.002106 0.000000 0.001486 0.000000
# 3 -0.003057 -0.002106 0.008320 0.000000 0.001448 0.000000
# 4 0.000000 0.000000 0.000000 0.048931 0.000000 0.029904
# 5 0.002499 0.001486 0.001448 0.000000 0.026819 0.000000
# 6 0.000000 0.000000 0.000000 0.029904 0.000000 0.059427
#
#
# Mechanical properties :
#
#
# Convention : Reuss Voigt Hill
#
# Bulk Modulus (GPa) = 50.76056 59.51854 55.13955
# Shear Modulus (GPa) = 26.97011 35.83443 31.40227
#
# Velocity S-wave (km/s) = 3.22093 3.71270 3.47552
# Velocity P-wave (km/s) = 5.77565 6.42444 6.10866
#
# Compressibility (1/GPa) = 0.01970034
#
# Stress axis : x y z
#
# Youngs Moduli (GPa) = 69.26494 112.16243 120.18887
#
# Poissons Ratio (x) = 0.09235 0.36744
# Poissons Ratio (y) = 0.05703 0.25310
# Poissons Ratio (z) = 0.21176 0.23620
#
# Static dielectric constant tensor:
#      x y z
#    x 4.333960 0.000000 -0.148130 
#    y 0.000000 5.063200 0.000000 
#    z -0.148130 0.000000 4.804620 
# 
# 
# High freq. dielectric constant tensor:
#      x y z
#    x 2.017120 0.000000 -0.003240 
#    y 0.000000 2.058600 0.000000 
#    z -0.003240 0.000000 2.053220 
# 
# From -- ./inp_files/4002.got.cif
#   From: 2010.06.25/outbox.cif.g09.slc.cpg/sg9_3_cif.got.tgz:4002.got - 2010.06.27 21:40:51.
