data_PCOD8055845
_publ_section_title
;
Structure prediction by ZEFSAII (Michael W. Deem and Ramdas Pophale) SiO2 
 PCOD8055845
Probable space group: C C
;
_chemical_formula_sum "Si O2"
_cell_formula_units_Z 32
_cell_length_a 5.210599
_cell_length_b 30.884277
_cell_length_c 8.510201
_cell_angle_alpha 90.000000
_cell_angle_beta 112.068456
_cell_angle_gamma 90.000000
_cell_volume 1269.172823
_symmetry_space_group_name_H-M "C C"
_symmetry_group_IT_number 9
_symmetry_cell_setting 'monoclinic'
loop_
_space_group_symop_operation_xyz
x,y,z
x,-y,1/2+z
1/2+x,1/2+y,z
1/2+x,1/2-y,1/2+z
loop_
_atom_site_type_symbol
_atom_site_label
_atom_site_fract_x
_atom_site_fract_y
_atom_site_fract_z
Si Si1 0.931980 0.313130 0.026000
Si Si2 0.121167 0.444898 0.885523
Si Si3 0.253208 0.186870 0.951879
Si Si4 0.388853 0.358722 0.922584
Si Si5 0.564021 0.555103 0.092361
Si Si6 0.296334 0.358721 0.555303
Si Si7 0.842593 0.248086 0.738936
Si Si8 0.842594 0.020477 0.738942
O O1 0.079901 0.284173 0.191251
O O2 0.694752 0.343579 0.047344
O O3 0.805398 0.277457 0.881516
O O4 0.153774 0.343126 0.987484
O O5 0.370297 0.411014 0.909093
O O6 0.160930 0.491097 0.812523
O O7 0.842594 0.425217 0.738943
O O8 0.130886 0.451645 0.078922
O O9 0.490440 0.156422 0.930536
O O10 0.379795 0.222548 0.096346
O O11 0.031428 0.156876 0.990418
O O12 0.105268 0.215824 0.786623
O O13 0.342585 0.338622 0.738943
O O14 0.314892 0.588987 0.068788
O O15 0.524257 0.508903 0.165362
O O16 0.554303 0.548355 0.898962
#
# Coordination Sequence:
#
# PCOD8055845 Si02
#       8
#     4   4   4   4   4   4   4   4
#     4  11  25  43  70 100 136 184 235 290 360 429
#     4  11  23  44  73 103 148 192 242 301 366 429
#     4  11  25  43  70 100 136 184 235 290 360 429
#     4  12  23  43  69 100 140 190 232 285 362 432
#     4  11  23  44  73 103 148 192 242 301 366 429
#     4  12  23  43  69 100 140 190 232 285 362 432
#     4  10  24  45  70 100 140 178 236 302 354 423
#     4  10  24  43  72 110 140 188 252 298 360 443
#
# _framework density 25.213270999999999
#
# number of rings (size 3 to 8) (size 9 to 14) (size 15 to 20)
#    0.000    1.000    3.750    2.250    0.000    8.000 
#    0.000    2.500    0.000    0.000    0.000    0.000 
#    0.000    0.000    0.000    0.000    0.000    0.000 
#
# Total GULP energy -198272.088904 kJ/mol
# GULP energy per Si atom -12392.005557 kJ/mol
# Density = 2.515588 g / cm^3
# Si number density = 25.213271 Si / 1000 Ang^3
#
#
#
# Elastic Constant Matrix: (Units=GPa)
#
#
# Indices 1 2 3 4 5 6 
#
# 1 143.0372 64.5700 38.7827 0.0000 21.1154 0.0000
# 2 64.5700 124.5863 45.3740 0.0000 22.8028 0.0000
# 3 38.7827 45.3740 136.5053 0.0000 28.2879 0.0000
# 4 0.0000 0.0000 0.0000 19.9339 0.0000 15.0299
# 5 21.1154 22.8028 28.2879 0.0000 34.9753 0.0000
# 6 0.0000 0.0000 0.0000 15.0299 0.0000 41.7829
#
#
#
# Elastic Compliance Matrix: (Units=1/GPa)
#
#
# Indices 1 2 3 4 5 6 
#
# 1 0.009437 -0.004170 -0.000814 0.000000 -0.002320 0.000000
# 2 -0.004170 0.011519 -0.001934 0.000000 -0.003429 0.000000
# 3 -0.000814 -0.001934 0.009415 0.000000 -0.005862 0.000000
# 4 0.000000 0.000000 0.000000 0.068835 0.000000 -0.024761
# 5 -0.002320 -0.003429 -0.005862 0.000000 0.036969 0.000000
# 6 0.000000 0.000000 0.000000 -0.024761 0.000000 0.032840
#
#
# Mechanical properties :
#
#
# Convention : Reuss Voigt Hill
#
# Bulk Modulus (GPa) = 60.47642 77.95357 69.21499
# Shear Modulus (GPa) = 26.54454 36.36522 31.45488
#
# Velocity S-wave (km/s) = 3.24821 3.80189 3.53590
# Velocity P-wave (km/s) = 6.17299 7.08924 6.64692
#
# Compressibility (1/GPa) = 0.01653537
#
# Stress axis : x y z
#
# Youngs Moduli (GPa) = 105.96897 86.80969 106.21709
#
# Poissons Ratio (x) = 0.36196 0.08649
# Poissons Ratio (y) = 0.44185 0.20541
# Poissons Ratio (z) = 0.08629 0.16787
#
# Static dielectric constant tensor:
#      x y z
#    x 4.186820 0.000000 0.436800 
#    y 0.000000 4.612100 0.000000 
#    z 0.436800 0.000000 5.194660 
# 
# 
# High freq. dielectric constant tensor:
#      x y z
#    x 1.981850 0.000000 0.009570 
#    y 0.000000 2.012120 0.000000 
#    z 0.009570 0.000000 2.015400 
# 
# From -- ./inp_files/4522.got.cif
#   From: 2010.06.25/outbox.cif.g09.slc.cpg/sg9_3_cif.got.tgz:4522.got - 2010.06.27 21:40:51.
