data_PCOD8055015
_publ_section_title
;
Structure prediction by ZEFSAII (Michael W. Deem and Ramdas Pophale) SiO2 
 PCOD8055015
Probable space group: C C
;
_chemical_formula_sum "Si O2"
_cell_formula_units_Z 24
_cell_length_a 8.774962
_cell_length_b 9.176036
_cell_length_c 13.768507
_cell_angle_alpha 90.000000
_cell_angle_beta 84.739431
_cell_angle_gamma 90.000000
_cell_volume 1103.961951
_symmetry_space_group_name_H-M "C C"
_symmetry_group_IT_number 9
_symmetry_cell_setting 'monoclinic'
loop_
_space_group_symop_operation_xyz
x,y,z
x,-y,1/2+z
1/2+x,1/2+y,z
1/2+x,1/2-y,1/2+z
loop_
_atom_site_type_symbol
_atom_site_label
_atom_site_fract_x
_atom_site_fract_y
_atom_site_fract_z
Si Si1 0.397820 0.086534 0.885200
Si Si2 0.167644 0.281194 0.141352
Si Si3 0.681735 0.522244 0.555977
Si Si4 0.313118 0.779948 0.199229
Si Si5 0.880586 0.102519 0.472147
Si Si6 0.722282 0.011382 0.800594
O O1 0.294169 0.122322 0.797059
O O2 0.443060 0.241360 0.931590
O O3 0.549451 0.997090 0.849485
O O4 0.299509 0.982402 0.959961
O O5 0.240021 0.337855 0.239143
O O6 0.986114 0.295316 0.152734
O O7 0.213244 0.113565 0.125392
O O8 0.230886 0.375238 0.047350
O O9 0.704614 0.665751 0.618929
O O10 0.510010 0.520203 0.525574
O O11 0.259672 0.616432 0.222632
O O12 0.837979 0.997071 0.384524
#
# Coordination Sequence:
#
# PCOD8055015 Si02
#       6
#     4   4   4   4   4   4
#     4   9  22  40  59  88 125 161 204 250 301 363
#     4  10  22  41  62  90 126 160 205 251 298 362
#     4  11  23  40  64  93 122 159 205 253 304 360
#     4  10  22  40  62  91 124 161 204 251 302 358
#     4  10  22  39  62  92 124 161 204 251 303 359
#     4  10  21  42  65  88 123 164 202 250 306 360
#
# _framework density 21.739878999999998
#
# number of rings (size 3 to 8) (size 9 to 14) (size 15 to 20)
#    0.000    2.000    0.000    2.000    0.000   13.333 
#    0.000    8.333    0.000    0.000    0.000    0.000 
#    0.000    0.000    0.000    0.000    0.000    0.000 
#
# Total GULP energy -148818.905561 kJ/mol
# GULP energy per Si atom -12401.575463 kJ/mol
# Density = 2.169040 g / cm^3
# Si number density = 21.739879 Si / 1000 Ang^3
#
#
#
# Elastic Constant Matrix: (Units=GPa)
#
#
# Indices 1 2 3 4 5 6 
#
# 1 106.7413 54.4145 61.5275 0.0000 1.0931 0.0000
# 2 54.4145 65.9946 50.4199 0.0000 -7.6781 0.0000
# 3 61.5275 50.4199 125.0563 0.0000 -12.3926 0.0000
# 4 0.0000 0.0000 0.0000 41.8881 0.0000 1.4953
# 5 1.0931 -7.6781 -12.3926 0.0000 31.7644 0.0000
# 6 0.0000 0.0000 0.0000 1.4953 0.0000 30.1886
#
#
#
# Elastic Compliance Matrix: (Units=1/GPa)
#
#
# Indices 1 2 3 4 5 6 
#
# 1 0.018299 -0.012180 -0.004625 0.000000 -0.005378 0.000000
# 2 -0.012180 0.030118 -0.005604 0.000000 0.005513 0.000000
# 3 -0.004625 -0.005604 0.012912 0.000000 0.003842 0.000000
# 4 0.000000 0.000000 0.000000 0.023915 0.000000 -0.001185
# 5 -0.005378 0.005513 0.003842 0.000000 0.034498 0.000000
# 6 0.000000 0.000000 0.000000 -0.001185 0.000000 0.033184
#
#
# Mechanical properties :
#
#
# Convention : Reuss Voigt Hill
#
# Bulk Modulus (GPa) = 60.56709 70.05733 65.31221
# Shear Modulus (GPa) = 24.60035 29.53024 27.06530
#
# Velocity S-wave (km/s) = 3.36754 3.68957 3.53223
# Velocity P-wave (km/s) = 6.56055 7.10252 6.83691
#
# Compressibility (1/GPa) = 0.01651062
#
# Stress axis : x y z
#
# Youngs Moduli (GPa) = 54.64912 33.20223 77.44568
#
# Poissons Ratio (x) = 0.40440 0.35820
# Poissons Ratio (y) = 0.66561 0.43403
# Poissons Ratio (z) = 0.25276 0.18608
#
# Static dielectric constant tensor:
#      x y z
#    x 3.669860 0.000000 -0.136860 
#    y 0.000000 3.764670 0.000000 
#    z -0.136860 0.000000 4.252920 
# 
# 
# High freq. dielectric constant tensor:
#      x y z
#    x 1.841610 0.000000 -0.011210 
#    y 0.000000 1.840300 0.000000 
#    z -0.011210 0.000000 1.877020 
# 
# From -- ./inp_files/14019.got.cif
#   From: 2010.06.25/outbox.cif.g09.slc.cpg/sg9_8_cif.got.tgz:14019.got - 2010.06.27 21:40:51.
