data_PCOD8055927
_publ_section_title
;
Structure prediction by ZEFSAII (Michael W. Deem and Ramdas Pophale) SiO2 
 PCOD8055927
Probable space group: C C
;
_chemical_formula_sum "Si O2"
_cell_formula_units_Z 32
_cell_length_a 6.863275
_cell_length_b 29.020362
_cell_length_c 7.483627
_cell_angle_alpha 90.000000
_cell_angle_beta 100.924054
_cell_angle_gamma 90.000000
_cell_volume 1463.539462
_symmetry_space_group_name_H-M "C C"
_symmetry_group_IT_number 9
_symmetry_cell_setting 'monoclinic'
loop_
_space_group_symop_operation_xyz
x,y,z
x,-y,1/2+z
1/2+x,1/2+y,z
1/2+x,1/2-y,1/2+z
loop_
_atom_site_type_symbol
_atom_site_label
_atom_site_fract_x
_atom_site_fract_y
_atom_site_fract_z
Si Si1 0.084350 0.604320 0.980420
Si Si2 0.378802 0.989332 0.514888
Si Si3 0.607249 0.691105 0.321729
Si Si4 0.383616 0.602646 0.330905
Si Si5 0.715830 0.061181 0.647536
Si Si6 0.068150 0.990115 0.719550
Si Si7 0.355314 0.191411 0.018753
Si Si8 0.731995 0.252414 0.170616
O O1 0.188118 0.595080 0.809388
O O2 0.991061 0.558627 0.051474
O O3 0.925344 0.644795 0.931924
O O4 0.249725 0.621452 0.146888
O O5 0.134813 0.986447 0.522917
O O6 0.519356 0.030866 0.598135
O O7 0.309196 0.999394 0.299267
O O8 0.532387 0.644126 0.402658
O O9 0.742052 0.716244 0.494047
O O10 0.430586 0.722816 0.218184
O O11 0.733330 0.677170 0.171419
O O12 0.248514 0.592287 0.479391
O O13 0.501890 0.557706 0.291342
O O14 0.904659 0.029075 0.716090
O O15 0.218935 0.217581 0.850145
O O16 0.537038 0.221660 0.121896
#
# Coordination Sequence:
#
# PCOD8055927 Si02
#       8
#     4   4   4   4   4   4   4   4
#     4  12  25  44  68 100 138 178 228 281 332 401
#     4  12  23  42  68  93 131 184 231 272 338 394
#     4  11  24  46  73 103 138 174 225 280 342 408
#     4  12  25  44  68 100 138 178 228 281 332 401
#     4  12  26  45  64  98 144 176 228 287 328 394
#     4  12  23  42  68  93 131 184 231 272 338 394
#     4  11  24  46  73 103 138 174 225 280 342 408
#     4  10  24  47  72 106 132 176 220 279 354 408
#
# _framework density 21.864799999999999
#
# number of rings (size 3 to 8) (size 9 to 14) (size 15 to 20)
#    0.000    0.500    5.000    3.750    0.000    4.000 
#    9.000    0.000    0.000    0.000    0.000    0.000 
#    0.000    0.000    0.000    0.000    0.000    0.000 
#
# Total GULP energy -198331.398901 kJ/mol
# GULP energy per Si atom -12395.712431 kJ/mol
# Density = 2.181504 g / cm^3
# Si number density = 21.864800 Si / 1000 Ang^3
#
#
#
# Elastic Constant Matrix: (Units=GPa)
#
#
# Indices 1 2 3 4 5 6 
#
# 1 93.9848 30.4404 61.3363 0.0000 -18.1448 0.0000
# 2 30.4404 114.8397 54.3941 0.0000 -18.8535 0.0000
# 3 61.3363 54.3941 118.3634 0.0000 -11.1729 0.0000
# 4 0.0000 0.0000 0.0000 11.8374 0.0000 18.2156
# 5 -18.1448 -18.8535 -11.1729 0.0000 53.7730 0.0000
# 6 0.0000 0.0000 0.0000 18.2156 0.0000 -5.5073
#
#
#
# Elastic Compliance Matrix: (Units=1/GPa)
#
#
# Indices 1 2 3 4 5 6 
#
# 1 0.016865 0.000188 -0.008448 0.000000 0.004001 0.000000
# 2 0.000188 0.011593 -0.005136 0.000000 0.003061 0.000000
# 3 -0.008448 -0.005136 0.015043 0.000000 -0.001526 0.000000
# 4 0.000000 0.000000 0.000000 0.013872 0.000000 0.045883
# 5 0.004001 0.003061 -0.001526 0.000000 0.020703 0.000000
# 6 0.000000 0.000000 0.000000 0.045883 0.000000 -0.029817
#
#
# Mechanical properties :
#
#
# Convention : Reuss Voigt Hill
#
# Bulk Modulus (GPa) = 59.85039 68.83658 64.34348
# Shear Modulus (GPa) = 62.01805 24.08844 43.05324
#
# Velocity S-wave (km/s) = 5.33160 3.32279 4.44223
# Velocity P-wave (km/s) = 8.08292 6.80238 7.47014
#
# Compressibility (1/GPa) = 0.01670833
#
# Stress axis : x y z
#
# Youngs Moduli (GPa) = 59.29390 86.25708 66.47704
#
# Poissons Ratio (x) = -0.01622 0.56162
# Poissons Ratio (y) = -0.01115 0.34144
# Poissons Ratio (z) = 0.50093 0.44303
#
# Static dielectric constant tensor:
#      x y z
#    x 4.001780 0.000000 0.202280 
#    y 0.000000 3.847570 0.000000 
#    z 0.202280 0.000000 4.663630 
# 
# 
# High freq. dielectric constant tensor:
#      x y z
#    x 1.869810 0.000000 -0.000280 
#    y 0.000000 1.855820 0.000000 
#    z -0.000280 0.000000 1.891320 
# 
# From -- ./inp_files/4506.got.cif
#   From: 2010.06.25/outbox.cif.g09.slc.cpg/sg9_3_cif.got.tgz:4506.got - 2010.06.27 21:40:51.
