data_PCOD8055021
_publ_section_title
;
Structure prediction by ZEFSAII (Michael W. Deem and Ramdas Pophale) SiO2 
 PCOD8055021
Probable space group: C C
;
_chemical_formula_sum "Si O2"
_cell_formula_units_Z 24
_cell_length_a 10.025137
_cell_length_b 10.871032
_cell_length_c 21.716984
_cell_angle_alpha 90.000000
_cell_angle_beta 26.750496
_cell_angle_gamma 90.000000
_cell_volume 1065.308934
_symmetry_space_group_name_H-M "C C"
_symmetry_group_IT_number 9
_symmetry_cell_setting 'monoclinic'
loop_
_space_group_symop_operation_xyz
x,y,z
x,-y,1/2+z
1/2+x,1/2+y,z
1/2+x,1/2-y,1/2+z
loop_
_atom_site_type_symbol
_atom_site_label
_atom_site_fract_x
_atom_site_fract_y
_atom_site_fract_z
Si Si1 0.034870 0.259781 0.549770
Si Si2 0.683750 0.328835 0.303819
Si Si3 0.261519 0.232431 0.029284
Si Si4 0.065945 0.025002 0.614022
Si Si5 0.701051 0.904111 0.870017
Si Si6 0.636111 0.404669 0.798472
O O1 0.385019 0.278955 0.394103
O O2 0.851327 0.284132 0.563779
O O3 0.934659 0.361429 0.641424
O O4 0.960186 0.122404 0.605926
O O5 0.749096 0.241211 0.335633
O O6 0.678173 0.473605 0.323189
O O7 0.966943 0.315357 0.141978
O O8 0.177327 0.100341 0.035185
O O9 0.538383 0.291543 0.880977
O O10 0.806197 0.991523 0.769739
O O11 0.356281 0.078995 0.528446
O O12 0.883303 0.941414 0.854401
#
# Coordination Sequence:
#
# PCOD8055021 Si02
#       6
#     4   4   4   4   4   4
#     4  11  23  44  66  99 131 175 223 267 328 395
#     4  10  23  42  64  96 131 171 221 266 328 393
#     4  11  24  44  62 101 134 172 219 276 326 386
#     4  10  21  42  67  90 131 171 221 267 324 390
#     4  10  22  41  66  96 128 174 220 267 330 387
#     4  12  23  41  69  92 139 173 212 279 328 383
#
# _framework density 22.528676999999998
#
# number of rings (size 3 to 8) (size 9 to 14) (size 15 to 20)
#    0.000    1.333    3.333    3.000    2.333    1.333 
#   12.000    0.000    0.000    0.000    0.000    0.000 
#    0.000    0.000    0.000    0.000    0.000    0.000 
#
# Total GULP energy -148743.541946 kJ/mol
# GULP energy per Si atom -12395.295162 kJ/mol
# Density = 2.247740 g / cm^3
# Si number density = 22.528677 Si / 1000 Ang^3
#
#
#
# Elastic Constant Matrix: (Units=GPa)
#
#
# Indices 1 2 3 4 5 6 
#
# 1 35.6153 23.3327 23.8756 -0.0137 4.9531 -0.0078
# 2 23.3327 128.2583 2.7967 0.0327 13.7570 0.0031
# 3 23.8756 2.7967 94.3275 0.0664 -7.2425 -0.0092
# 4 -0.0137 0.0327 0.0664 34.2818 0.0001 -3.6987
# 5 4.9531 13.7570 -7.2425 0.0001 27.4570 -0.0021
# 6 -0.0078 0.0031 -0.0092 -3.6987 -0.0021 24.9288
#
#
#
# Elastic Compliance Matrix: (Units=1/GPa)
#
#
# Indices 1 2 3 4 5 6 
#
# 1 0.040253 -0.006358 -0.010526 0.000044 -0.006852 0.000016
# 2 -0.006358 0.009274 0.001088 -0.000014 -0.003213 -0.000005
# 3 -0.010526 0.001088 0.013613 -0.000032 0.004945 -0.000003
# 4 0.000044 -0.000014 -0.000032 0.029645 -0.000009 0.004398
# 5 -0.006852 -0.003213 0.004945 -0.000009 0.040571 0.000002
# 6 0.000016 -0.000005 -0.000003 0.004398 0.000002 0.040767
#
#
# Mechanical properties :
#
#
# Convention : Reuss Voigt Hill
#
# Bulk Modulus (GPa) = 31.69895 39.80125 35.75010
# Shear Modulus (GPa) = 23.12334 31.21326 27.16830
#
# Velocity S-wave (km/s) = 3.20722 3.72626 3.47644
# Velocity P-wave (km/s) = 5.27409 6.01819 5.65838
#
# Compressibility (1/GPa) = 0.03154679
#
# Stress axis : x y z
#
# Youngs Moduli (GPa) = 24.84294 107.82401 73.45858
#
# Poissons Ratio (x) = 0.68558 0.77324
# Poissons Ratio (y) = 0.15796 -0.07990
# Poissons Ratio (z) = 0.26150 -0.11728
#
# Static dielectric constant tensor:
#      x y z
#    x 3.524510 0.000020 -0.082300 
#    y 0.000020 4.227140 0.000060 
#    z -0.082300 0.000060 4.342310 
# 
# 
# High freq. dielectric constant tensor:
#      x y z
#    x 1.838470 0.000000 -0.013360 
#    y 0.000000 1.904630 0.000000 
#    z -0.013360 0.000000 1.908460 
# 
# From -- ./inp_files/6963.got.cif
#   From: 2010.06.25/outbox.cif.g09.slc.cpg/sg9_4_cif.got.tgz:6963.got - 2010.06.27 21:40:51.
