data_PCOD8055042
_publ_section_title
;
Structure prediction by ZEFSAII (Michael W. Deem and Ramdas Pophale) SiO2 
 PCOD8055042
Probable space group: C C
;
_chemical_formula_sum "Si O2"
_cell_formula_units_Z 20
_cell_length_a 7.397417
_cell_length_b 21.890282
_cell_length_c 6.361536
_cell_angle_alpha 90.000000
_cell_angle_beta 44.164237
_cell_angle_gamma 90.000000
_cell_volume 717.711915
_symmetry_space_group_name_H-M "C C"
_symmetry_group_IT_number 9
_symmetry_cell_setting 'monoclinic'
loop_
_space_group_symop_operation_xyz
x,y,z
x,-y,1/2+z
1/2+x,1/2+y,z
1/2+x,1/2-y,1/2+z
loop_
_atom_site_type_symbol
_atom_site_label
_atom_site_fract_x
_atom_site_fract_y
_atom_site_fract_z
Si Si1 0.996080 0.719228 0.625000
Si Si2 0.824539 0.722455 0.298066
Si Si3 0.195427 0.544163 0.937341
Si Si4 0.164603 0.094909 0.288613
Si Si5 0.229945 0.592044 0.363508
O O1 0.919663 0.738079 0.453005
O O2 0.251776 0.760232 0.474858
O O3 0.047032 0.646409 0.604611
O O4 0.710032 0.655226 0.385389
O O5 0.085328 0.730831 0.937256
O O6 0.938094 0.561781 0.020820
O O7 0.203929 0.586846 0.135850
O O8 0.163181 0.473170 0.028398
O O9 0.462610 0.553055 0.588602
O O10 0.027835 0.108726 0.177845
#
# Coordination Sequence:
#
# PCOD8055042 Si02
#       5
#     4   4   4   4   4
#     4  10  24  43  73 108 147 193 241 308 368 433
#     4  10  21  42  71 103 148 194 242 304 368 433
#     4  12  29  48  73 113 150 192 251 312 371 434
#     4  12  28  47  75 111 147 198 249 309 369 445
#     4  12  28  50  80 109 154 197 253 305 374 447
#
# _framework density 27.866332
#
# number of rings (size 3 to 8) (size 9 to 14) (size 15 to 20)
#    0.000    0.800    4.000    1.200    8.400    6.400 
#    0.000    0.000    0.000    0.000    0.000    0.000 
#    0.000    0.000    0.000    0.000    0.000    0.000 
#
# Total GULP energy -124019.647846 kJ/mol
# GULP energy per Si atom -12401.964785 kJ/mol
# Density = 2.780291 g / cm^3
# Si number density = 27.866332 Si / 1000 Ang^3
#
#
#
# Elastic Constant Matrix: (Units=GPa)
#
#
# Indices 1 2 3 4 5 6 
#
# 1 130.5249 27.4022 54.1235 0.0000 -42.1286 0.0000
# 2 27.4022 170.3051 66.4212 0.0000 -31.1969 0.0000
# 3 54.1235 66.4212 173.1296 0.0000 -25.7252 0.0000
# 4 0.0000 0.0000 0.0000 44.2333 0.0000 -10.7023
# 5 -42.1286 -31.1969 -25.7252 0.0000 49.9256 0.0000
# 6 0.0000 0.0000 0.0000 -10.7023 0.0000 47.0594
#
#
#
# Elastic Compliance Matrix: (Units=1/GPa)
#
#
# Indices 1 2 3 4 5 6 
#
# 1 0.011391 0.000771 -0.002552 0.000000 0.008779 0.000000
# 2 0.000771 0.007462 -0.002506 0.000000 0.004022 0.000000
# 3 -0.002552 -0.002506 0.007562 0.000000 0.000177 0.000000
# 4 0.000000 0.000000 0.000000 0.023924 0.000000 0.005441
# 5 0.008779 0.004022 0.000177 0.000000 0.030042 0.000000
# 6 0.000000 0.000000 0.000000 0.005441 0.000000 0.022487
#
#
# Mechanical properties :
#
#
# Convention : Reuss Voigt Hill
#
# Bulk Modulus (GPa) = 56.05583 85.53928 70.79755
# Shear Modulus (GPa) = 42.59321 49.97785 46.28553
#
# Velocity S-wave (km/s) = 3.91382 4.23955 4.07994
# Velocity P-wave (km/s) = 6.37053 7.39784 6.90332
#
# Compressibility (1/GPa) = 0.01783936
#
# Stress axis : x y z
#
# Youngs Moduli (GPa) = 87.78534 134.01332 132.24614
#
# Poissons Ratio (x) = -0.10329 0.33755
# Poissons Ratio (y) = -0.06766 0.33143
# Poissons Ratio (z) = 0.22407 0.33585
#
# Static dielectric constant tensor:
#      x y z
#    x 5.754270 0.000000 -0.411870 
#    y 0.000000 4.876830 0.000000 
#    z -0.411870 0.000000 5.145620 
# 
# 
# High freq. dielectric constant tensor:
#      x y z
#    x 2.179500 0.000000 -0.005940 
#    y 0.000000 2.118390 0.000000 
#    z -0.005940 0.000000 2.131620 
# 
# From -- ./inp_files/643.got.cif
#   From: 2010.06.25/outbox.cif.g09.slc.cpg/sg9_1_cif.got.tgz:643.got - 2010.06.27 21:40:51.
