data_PCOD8055504
_publ_section_title
;
Structure prediction by ZEFSAII (Michael W. Deem and Ramdas Pophale) SiO2 
 PCOD8055504
Probable space group: C C
;
_chemical_formula_sum "Si O2"
_cell_formula_units_Z 32
_cell_length_a 14.282278
_cell_length_b 13.456859
_cell_length_c 9.103189
_cell_angle_alpha 90.000000
_cell_angle_beta 122.063239
_cell_angle_gamma 90.000000
_cell_volume 1482.706981
_symmetry_space_group_name_H-M "C C"
_symmetry_group_IT_number 9
_symmetry_cell_setting 'monoclinic'
loop_
_space_group_symop_operation_xyz
x,y,z
x,-y,1/2+z
1/2+x,1/2+y,z
1/2+x,1/2-y,1/2+z
loop_
_atom_site_type_symbol
_atom_site_label
_atom_site_fract_x
_atom_site_fract_y
_atom_site_fract_z
Si Si1 0.187980 0.712597 0.151600
Si Si2 0.078478 0.909598 0.043635
Si Si3 0.122187 0.788290 0.600561
Si Si4 0.766745 0.152837 0.527127
Si Si5 0.984945 0.606417 0.557953
Si Si6 0.601404 0.978304 0.433436
Si Si7 0.503059 0.563864 0.789407
Si Si8 0.250456 0.142862 0.483528
O O1 0.252904 0.708757 0.359930
O O2 0.080794 0.788744 0.067101
O O3 0.144520 0.603733 0.081974
O O4 0.271001 0.754113 0.093317
O O5 0.194481 0.934877 0.053941
O O6 0.982282 0.958638 0.858730
O O7 0.068159 0.960504 0.193353
O O8 0.224291 0.725579 0.619280
O O9 0.084322 0.872773 0.458477
O O10 0.161294 0.836855 0.783385
O O11 0.016329 0.718509 0.542398
O O12 0.893467 0.125447 0.661488
O O13 0.699974 0.051074 0.474012
O O14 0.859933 0.597688 0.506631
O O15 0.001085 0.536555 0.428966
O O16 0.064564 0.571776 0.753329
#
# Coordination Sequence:
#
# PCOD8055504 Si02
#       8
#     4   4   4   4   4   4   4   4
#     4  10  22  48  66  96 145 181 227 305 350 421
#     4  10  25  45  64 101 142 181 242 295 355 431
#     4  11  22  45  68  99 143 172 243 292 358 433
#     4  11  25  43  71 105 137 187 234 299 356 435
#     4  11  23  41  68 103 130 186 224 294 362 423
#     4  11  23  42  67 102 142 172 242 293 350 436
#     4  12  25  44  72 101 138 196 234 301 367 430
#     4  10  23  44  68  97 137 183 228 291 356 425
#
# _framework density 21.582146000000002
#
# number of rings (size 3 to 8) (size 9 to 14) (size 15 to 20)
#    0.750    0.500    3.750    1.500    1.750    4.000 
#    2.250    2.500    0.000    0.000    0.000    0.000 
#    0.000    0.000    0.000    0.000    0.000    0.000 
#
# Total GULP energy -198274.336047 kJ/mol
# GULP energy per Si atom -12392.146003 kJ/mol
# Density = 2.153302 g / cm^3
# Si number density = 21.582146 Si / 1000 Ang^3
#
#
#
# Elastic Constant Matrix: (Units=GPa)
#
#
# Indices 1 2 3 4 5 6 
#
# 1 103.9226 29.0532 45.1411 0.0000 -12.9901 0.0000
# 2 29.0532 74.8120 42.2490 0.0000 -2.1459 0.0000
# 3 45.1411 42.2490 116.9702 0.0000 -20.3892 0.0000
# 4 0.0000 0.0000 0.0000 42.6398 0.0000 -3.4062
# 5 -12.9901 -2.1459 -20.3892 0.0000 32.5773 0.0000
# 6 0.0000 0.0000 0.0000 -3.4062 0.0000 17.8610
#
#
#
# Elastic Compliance Matrix: (Units=1/GPa)
#
#
# Indices 1 2 3 4 5 6 
#
# 1 0.012134 -0.002830 -0.003199 0.000000 0.002650 0.000000
# 2 -0.002830 0.017721 -0.005951 0.000000 -0.003686 0.000000
# 3 -0.003199 -0.005951 0.013068 0.000000 0.006511 0.000000
# 4 0.000000 0.000000 0.000000 0.023815 0.000000 0.004542
# 5 0.002650 -0.003686 0.006511 0.000000 0.035585 0.000000
# 6 0.000000 0.000000 0.000000 0.004542 0.000000 0.056854
#
#
# Mechanical properties :
#
#
# Convention : Reuss Voigt Hill
#
# Bulk Modulus (GPa) = 52.73154 58.73236 55.73195
# Shear Modulus (GPa) = 26.39095 30.56640 28.47868
#
# Velocity S-wave (km/s) = 3.50067 3.76743 3.63650
# Velocity P-wave (km/s) = 6.38949 6.79685 6.59632
#
# Compressibility (1/GPa) = 0.01896398
#
# Stress axis : x y z
#
# Youngs Moduli (GPa) = 82.41018 56.43067 76.52177
#
# Poissons Ratio (x) = 0.15969 0.24478
# Poissons Ratio (y) = 0.23321 0.45538
# Poissons Ratio (z) = 0.26362 0.33582
#
# Static dielectric constant tensor:
#      x y z
#    x 3.755890 0.000000 -0.343820 
#    y 0.000000 4.013000 0.000000 
#    z -0.343820 0.000000 3.957920 
# 
# 
# High freq. dielectric constant tensor:
#      x y z
#    x 1.835690 0.000000 -0.029940 
#    y 0.000000 1.852260 0.000000 
#    z -0.029940 0.000000 1.852720 
# 
# From -- ./inp_files/9613.got.cif
#   From: 2010.06.25/outbox.cif.g09.slc.cpg/sg9_5_cif.got.tgz:9613.got - 2010.06.27 21:40:51.
