data_PCOD8055970
_publ_section_title
;
Structure prediction by ZEFSAII (Michael W. Deem and Ramdas Pophale) SiO2 
 PCOD8055970
Probable space group: C C
;
_chemical_formula_sum "Si O2"
_cell_formula_units_Z 32
_cell_length_a 6.916664
_cell_length_b 11.889969
_cell_length_c 17.397234
_cell_angle_alpha 90.000000
_cell_angle_beta 83.574985
_cell_angle_gamma 90.000000
_cell_volume 1421.743557
_symmetry_space_group_name_H-M "C C"
_symmetry_group_IT_number 9
_symmetry_cell_setting 'monoclinic'
loop_
_space_group_symop_operation_xyz
x,y,z
x,-y,1/2+z
1/2+x,1/2+y,z
1/2+x,1/2-y,1/2+z
loop_
_atom_site_type_symbol
_atom_site_label
_atom_site_fract_x
_atom_site_fract_y
_atom_site_fract_z
Si Si1 0.916990 0.951252 0.652510
Si Si2 0.489327 0.963601 0.167294
Si Si3 0.935443 0.794807 0.513914
Si Si4 0.476048 0.738372 0.267877
Si Si5 0.693594 0.402626 0.063839
Si Si6 0.306408 0.101338 0.306189
Si Si7 0.502356 0.500908 0.920442
Si Si8 0.674237 0.167237 0.391755
O O1 0.929488 0.883776 0.731164
O O2 0.000784 0.865554 0.584646
O O3 0.701352 0.989118 0.643514
O O4 0.045660 0.066812 0.641139
O O5 0.489844 0.842414 0.209534
O O6 0.399556 0.951315 0.085966
O O7 0.373411 0.056293 0.220818
O O8 0.916175 0.875158 0.439879
O O9 0.107242 0.711363 0.478566
O O10 0.733739 0.729441 0.543899
O O11 0.684014 0.717841 0.300551
O O12 0.301135 0.758317 0.336959
O O13 0.610308 0.455401 0.991033
O O14 0.487445 0.125770 0.352904
O O15 0.167752 0.004568 0.348069
O O16 0.313075 0.435631 0.903100
#
# Coordination Sequence:
#
# PCOD8055970 Si02
#       8
#     4   4   4   4   4   4   4   4
#     4  11  25  43  64 101 135 174 229 279 328 410
#     4  12  25  43  70 101 137 181 221 280 348 397
#     4  11  24  45  67  96 135 179 220 281 337 400
#     4  11  24  44  68 101 135 175 224 278 337 407
#     4  11  24  44  66 100 137 174 228 276 334 407
#     4  11  23  45  72 101 134 177 226 282 336 407
#     4  10  25  45  68  99 136 172 230 282 328 411
#     4  11  24  47  69  99 137 178 230 278 346 399
#
# _framework density 22.507574000000002
#
# number of rings (size 3 to 8) (size 9 to 14) (size 15 to 20)
#    0.000    1.000    5.000    0.750    3.500    3.000 
#    6.750    0.000    0.000    0.000    0.000    0.000 
#    0.000    0.000    0.000    0.000    0.000    0.000 
#
# Total GULP energy -198243.787208 kJ/mol
# GULP energy per Si atom -12390.236701 kJ/mol
# Density = 2.245635 g / cm^3
# Si number density = 22.507574 Si / 1000 Ang^3
#
#
#
# Elastic Constant Matrix: (Units=GPa)
#
#
# Indices 1 2 3 4 5 6 
#
# 1 141.6541 39.8841 42.3457 0.0000 8.5176 0.0000
# 2 39.8841 62.8020 8.8703 0.0000 -3.3870 0.0000
# 3 42.3457 8.8703 69.7803 0.0000 2.4158 0.0000
# 4 0.0000 0.0000 0.0000 35.7366 0.0000 -6.2084
# 5 8.5176 -3.3870 2.4158 0.0000 38.2762 0.0000
# 6 0.0000 0.0000 0.0000 -6.2084 0.0000 24.9477
#
#
#
# Elastic Compliance Matrix: (Units=1/GPa)
#
#
# Indices 1 2 3 4 5 6 
#
# 1 0.010586 -0.006074 -0.005564 0.000000 -0.002542 0.000000
# 2 -0.006074 0.019794 0.001065 0.000000 0.003036 0.000000
# 3 -0.005564 0.001065 0.017564 0.000000 0.000224 0.000000
# 4 0.000000 0.000000 0.000000 0.029247 0.000000 0.007278
# 5 -0.002542 0.003036 0.000224 0.000000 0.026946 0.000000
# 6 0.000000 0.000000 0.000000 0.007278 0.000000 0.041895
#
#
# Mechanical properties :
#
#
# Convention : Reuss Voigt Hill
#
# Bulk Modulus (GPa) = 37.31702 50.71519 44.01611
# Shear Modulus (GPa) = 28.39132 32.00118 30.19625
#
# Velocity S-wave (km/s) = 3.55549 3.77476 3.66676
# Velocity P-wave (km/s) = 5.78542 6.44824 6.12580
#
# Compressibility (1/GPa) = 0.02679743
#
# Stress axis : x y z
#
# Youngs Moduli (GPa) = 94.46709 50.52068 56.93485
#
# Poissons Ratio (x) = 0.30686 0.31677
# Poissons Ratio (y) = 0.57379 -0.06062
# Poissons Ratio (z) = 0.52559 -0.05379
#
# Static dielectric constant tensor:
#      x y z
#    x 4.190570 0.000000 -0.245980 
#    y 0.000000 4.305810 0.000000 
#    z -0.245980 0.000000 4.301860 
# 
# 
# High freq. dielectric constant tensor:
#      x y z
#    x 1.892260 0.000000 -0.007630 
#    y 0.000000 1.876340 0.000000 
#    z -0.007630 0.000000 1.898760 
# 
# From -- ./inp_files/32014.got.cif
#   From: 2010.06.25/outbox.cif.g09.slc.cpg/sg9_17_cif.got.tgz:32014.got - 2010.06.27 21:40:51.
