data_PCOD8055327
_publ_section_title
;
Structure prediction by ZEFSAII (Michael W. Deem and Ramdas Pophale) SiO2 
 PCOD8055327
Probable space group: C C
;
_chemical_formula_sum "Si O2"
_cell_formula_units_Z 28
_cell_length_a 19.973161
_cell_length_b 12.185383
_cell_length_c 9.155824
_cell_angle_alpha 90.000000
_cell_angle_beta 39.903141
_cell_angle_gamma 90.000000
_cell_volume 1429.468059
_symmetry_space_group_name_H-M "C C"
_symmetry_group_IT_number 9
_symmetry_cell_setting 'monoclinic'
loop_
_space_group_symop_operation_xyz
x,y,z
x,-y,1/2+z
1/2+x,1/2+y,z
1/2+x,1/2-y,1/2+z
loop_
_atom_site_type_symbol
_atom_site_label
_atom_site_fract_x
_atom_site_fract_y
_atom_site_fract_z
Si Si1 0.954400 0.556422 0.032620
Si Si2 0.454020 0.272587 0.224166
Si Si3 0.730200 0.554974 0.889893
Si Si4 0.091910 0.960826 0.885635
Si Si5 0.052926 0.619750 0.562057
Si Si6 0.981978 0.815627 0.494285
Si Si7 0.273804 0.705228 0.217421
O O1 0.957989 0.659076 0.133521
O O2 0.839200 0.507452 0.217348
O O3 0.032654 0.466642 0.967512
O O4 0.989679 0.588811 0.812129
O O5 0.512425 0.262346 0.284845
O O6 0.333226 0.305920 0.460907
O O7 0.507126 0.364613 0.035786
O O8 0.643697 0.480935 0.955402
O O9 0.740972 0.668220 0.785796
O O10 0.686558 0.577411 0.123992
O O11 0.033654 0.066658 0.921812
O O12 0.017769 0.739742 0.567504
O O13 0.176257 0.623451 0.388579
O O14 0.855112 0.826921 0.711062
#
# Coordination Sequence:
#
# PCOD8055327 Si02
#       7
#     4   4   4   4   4   4   4
#     4  12  25  42  66 101 132 169 220 275 325 399
#     4  10  24  43  62  98 134 166 222 266 330 391
#     4  12  22  39  70  96 126 173 226 262 321 385
#     4  12  23  42  67  98 131 175 217 273 324 389
#     4  12  23  43  69  93 135 170 215 278 333 380
#     4  10  23  43  64  95 132 167 219 279 316 394
#     4  10  22  42  66  93 128 172 215 267 329 388
#
# _framework density 19.587707000000002
#
# number of rings (size 3 to 8) (size 9 to 14) (size 15 to 20)
#    0.857    0.000    4.286    4.286    0.000    1.143 
#    0.000    1.429    0.000    0.000    0.000    0.000 
#    0.000    0.000    0.000    0.000    0.000    0.000 
#
# Total GULP energy -173567.844738 kJ/mol
# GULP energy per Si atom -12397.703196 kJ/mol
# Density = 1.954312 g / cm^3
# Si number density = 19.587707 Si / 1000 Ang^3
#
#
#
# Elastic Constant Matrix: (Units=GPa)
#
#
# Indices 1 2 3 4 5 6 
#
# 1 90.5899 36.2644 36.7542 0.0000 -10.8948 0.0000
# 2 36.2644 98.9189 61.0586 0.0000 -8.5001 0.0000
# 3 36.7542 61.0586 126.3201 0.0000 -13.9785 0.0000
# 4 0.0000 0.0000 0.0000 30.4678 0.0000 -6.3477
# 5 -10.8948 -8.5001 -13.9785 0.0000 26.1945 0.0000
# 6 0.0000 0.0000 0.0000 -6.3477 0.0000 29.5814
#
#
#
# Elastic Compliance Matrix: (Units=1/GPa)
#
#
# Indices 1 2 3 4 5 6 
#
# 1 0.013639 -0.003547 -0.001864 0.000000 0.003527 0.000000
# 2 -0.003547 0.015356 -0.006379 0.000000 0.000104 0.000000
# 3 -0.001864 -0.006379 0.011932 0.000000 0.003522 0.000000
# 4 0.000000 0.000000 0.000000 0.034358 0.000000 0.007373
# 5 0.003527 0.000104 0.003522 0.000000 0.041556 0.000000
# 6 0.000000 0.000000 0.000000 0.007373 0.000000 0.035387
#
#
# Mechanical properties :
#
#
# Convention : Reuss Voigt Hill
#
# Bulk Modulus (GPa) = 57.64431 64.88705 61.26568
# Shear Modulus (GPa) = 27.53469 29.36553 28.45011
#
# Velocity S-wave (km/s) = 3.75335 3.87613 3.81523
# Velocity P-wave (km/s) = 6.94811 7.29594 7.12415
#
# Compressibility (1/GPa) = 0.01734776
#
# Stress axis : x y z
#
# Youngs Moduli (GPa) = 73.31984 65.12117 83.80911
#
# Poissons Ratio (x) = 0.23096 0.15620
# Poissons Ratio (y) = 0.26004 0.53463
# Poissons Ratio (z) = 0.13665 0.41542
#
# Static dielectric constant tensor:
#      x y z
#    x 3.635470 0.000000 -0.040890 
#    y 0.000000 3.504470 0.000000 
#    z -0.040890 0.000000 3.615060 
# 
# 
# High freq. dielectric constant tensor:
#      x y z
#    x 1.765380 0.000000 -0.001820 
#    y 0.000000 1.762570 0.000000 
#    z -0.001820 0.000000 1.766090 
# 
# From -- ./inp_files/6978.got.cif
#   From: 2010.06.25/outbox.cif.g09.slc.cpg/sg9_4_cif.got.tgz:6978.got - 2010.06.27 21:40:51.
