data_PCOD8055510
_publ_section_title
;
Structure prediction by ZEFSAII (Michael W. Deem and Ramdas Pophale) SiO2 
 PCOD8055510
Probable space group: C C
;
_chemical_formula_sum "Si O2"
_cell_formula_units_Z 28
_cell_length_a 19.341041
_cell_length_b 5.407203
_cell_length_c 11.988247
_cell_angle_alpha 90.000000
_cell_angle_beta 62.955904
_cell_angle_gamma 90.000000
_cell_volume 1116.653984
_symmetry_space_group_name_H-M "C C"
_symmetry_group_IT_number 9
_symmetry_cell_setting 'monoclinic'
loop_
_space_group_symop_operation_xyz
x,y,z
x,-y,1/2+z
1/2+x,1/2+y,z
1/2+x,1/2-y,1/2+z
loop_
_atom_site_type_symbol
_atom_site_label
_atom_site_fract_x
_atom_site_fract_y
_atom_site_fract_z
Si Si1 0.015820 0.949093 0.336240
Si Si2 0.118800 0.306782 0.384808
Si Si3 0.010181 0.338627 0.065271
Si Si4 0.127645 0.979947 0.086746
Si Si5 0.880976 0.766046 0.820772
Si Si6 0.274205 0.533976 0.219598
Si Si7 0.288334 0.040028 0.077346
O O1 0.081631 0.160444 0.309817
O O2 0.067772 0.802259 0.204092
O O3 0.935249 0.044757 0.346826
O O4 0.993054 0.806968 0.463546
O O5 0.042205 0.399697 0.504713
O O6 0.180241 0.516368 0.301378
O O7 0.161061 0.139857 0.448197
O O8 0.074418 0.212391 0.094287
O O9 0.929636 0.376735 0.189695
O O10 0.200768 0.076156 0.102014
O O11 0.812126 0.923283 0.813307
O O12 0.847563 0.560914 0.930214
O O13 0.305010 0.271924 0.148133
O O14 0.296484 0.769173 0.126382
#
# Coordination Sequence:
#
# PCOD8055510 Si02
#       7
#     4   4   4   4   4   4   4
#     4  10  22  48  74 109 149 198 260 323 391 458
#     4  11  24  44  78 108 146 199 265 323 382 467
#     4  10  23  45  72 109 146 197 255 322 380 471
#     4  10  23  43  74 109 146 197 261 318 390 452
#     4  11  27  47  73 108 159 204 253 322 393 467
#     4  12  29  50  77 113 156 200 264 313 387 465
#     4  12  28  49  76 112 154 207 250 317 389 462
#
# _framework density 25.074912000000001
#
# number of rings (size 3 to 8) (size 9 to 14) (size 15 to 20)
#    0.000    1.143    1.429    2.571   10.000    2.286 
#   10.286    0.000    0.000    0.000    0.000    0.000 
#    0.000    0.000    0.000    0.000    0.000    0.000 
#
# Total GULP energy -173495.621522 kJ/mol
# GULP energy per Si atom -12392.544394 kJ/mol
# Density = 2.501784 g / cm^3
# Si number density = 25.074912 Si / 1000 Ang^3
#
#
#
# Elastic Constant Matrix: (Units=GPa)
#
#
# Indices 1 2 3 4 5 6 
#
# 1 126.6887 20.5700 25.5865 0.0005 14.4456 -0.0006
# 2 20.5700 93.3871 27.5199 0.0024 3.8838 -0.0032
# 3 25.5865 27.5199 141.9223 0.0002 -12.5728 -0.0004
# 4 0.0005 0.0024 0.0002 17.2978 0.0001 -6.6421
# 5 14.4456 3.8838 -12.5728 0.0001 46.4808 -0.0002
# 6 -0.0006 -0.0032 -0.0004 -6.6421 -0.0002 11.2083
#
#
#
# Elastic Compliance Matrix: (Units=1/GPa)
#
#
# Indices 1 2 3 4 5 6 
#
# 1 0.008780 -0.001338 -0.001594 0.000000 -0.003048 0.000000
# 2 -0.001338 0.011676 -0.002123 0.000000 -0.001134 0.000003
# 3 -0.001594 -0.002123 0.007996 0.000000 0.002836 0.000000
# 4 0.000000 0.000000 0.000000 0.074841 0.000000 0.044351
# 5 -0.003048 -0.001134 0.002836 0.000000 0.023323 0.000000
# 6 0.000000 0.000003 0.000000 0.044351 0.000000 0.115502
#
#
# Mechanical properties :
#
#
# Convention : Reuss Voigt Hill
#
# Bulk Modulus (GPa) = 54.51670 56.59454 55.55562
# Shear Modulus (GPa) = 19.35420 34.21881 26.78650
#
# Velocity S-wave (km/s) = 2.78124 3.69814 3.27197
# Velocity P-wave (km/s) = 5.66590 6.39173 6.03973
#
# Compressibility (1/GPa) = 0.01834300
#
# Stress axis : x y z
#
# Youngs Moduli (GPa) = 113.89629 85.64849 125.05723
#
# Poissons Ratio (x) = 0.11456 0.19928
# Poissons Ratio (y) = 0.15234 0.26554
# Poissons Ratio (z) = 0.18150 0.18186
#
# Static dielectric constant tensor:
#      x y z
#    x 4.552500 0.000000 0.154190 
#    y 0.000000 4.174150 0.000000 
#    z 0.154190 0.000000 5.187110 
# 
# 
# High freq. dielectric constant tensor:
#      x y z
#    x 2.012320 0.000000 0.005950 
#    y 0.000000 1.968380 0.000000 
#    z 0.005950 0.000000 2.031160 
# 
# From -- ./inp_files/19654.got.cif
#   From: 2010.06.25/outbox.cif.g09.slc.cpg/sg9_10_cif.got.tgz:19654.got - 2010.06.27 21:40:51.
