data_PCOD8055438
_publ_section_title
;
Structure prediction by ZEFSAII (Michael W. Deem and Ramdas Pophale) SiO2 
 PCOD8055438
Probable space group: C C
;
_chemical_formula_sum "Si O2"
_cell_formula_units_Z 24
_cell_length_a 7.336299
_cell_length_b 27.123850
_cell_length_c 7.877416
_cell_angle_alpha 90.000000
_cell_angle_beta 144.253700
_cell_angle_gamma 90.000000
_cell_volume 915.738873
_symmetry_space_group_name_H-M "C C"
_symmetry_group_IT_number 9
_symmetry_cell_setting 'monoclinic'
loop_
_space_group_symop_operation_xyz
x,y,z
x,-y,1/2+z
1/2+x,1/2+y,z
1/2+x,1/2-y,1/2+z
loop_
_atom_site_type_symbol
_atom_site_label
_atom_site_fract_x
_atom_site_fract_y
_atom_site_fract_z
Si Si1 0.876660 0.870306 0.224240
Si Si2 0.599558 0.283619 0.206604
Si Si3 0.786080 0.008880 0.159243
Si Si4 0.887464 0.448721 0.653034
Si Si5 0.550570 0.094386 0.796094
Si Si6 0.405585 0.626318 0.372945
O O1 0.623681 0.876822 0.178625
O O2 0.941531 0.811875 0.248266
O O3 0.202911 0.897243 0.515005
O O4 0.752485 0.889850 0.942542
O O5 0.939209 0.267867 0.529824
O O6 0.588029 0.321583 0.038460
O O7 0.638483 0.046811 0.185514
O O8 0.734057 0.041208 0.943005
O O9 0.576551 0.958978 0.974123
O O10 0.142836 0.994199 0.452511
O O11 0.175773 0.086910 0.524268
O O12 0.654120 0.129740 0.032885
#
# Coordination Sequence:
#
# PCOD8055438 Si02
#       6
#     4   4   4   4   4   4
#     4  10  26  44  73  95 142 178 226 286 347 403
#     4  10  22  44  70  98 135 174 221 286 347 405
#     4  12  25  41  66  97 141 173 239 275 329 408
#     4  12  25  43  63 100 134 184 224 286 336 391
#     4  12  23  46  68 103 134 185 226 275 344 407
#     4  10  25  42  72  95 136 176 224 280 339 416
#
# _framework density 26.208344
#
# number of rings (size 3 to 8) (size 9 to 14) (size 15 to 20)
#    1.000    0.000    1.667    5.000    2.333    5.333 
#    0.000    5.000    0.000    0.000    0.000    0.000 
#    0.000    0.000    0.000    0.000    0.000    0.000 
#
# Total GULP energy -148782.173009 kJ/mol
# GULP energy per Si atom -12398.514417 kJ/mol
# Density = 2.614869 g / cm^3
# Si number density = 26.208344 Si / 1000 Ang^3
#
#
#
# Elastic Constant Matrix: (Units=GPa)
#
#
# Indices 1 2 3 4 5 6 
#
# 1 121.8126 -0.5505 33.5354 0.0000 6.6445 0.0000
# 2 -0.5505 80.5381 -9.6472 0.0000 -10.2336 0.0000
# 3 33.5354 -9.6472 110.6890 0.0000 3.1301 0.0000
# 4 0.0000 0.0000 0.0000 45.4833 0.0000 0.5162
# 5 6.6445 -10.2336 3.1301 0.0000 41.4003 0.0000
# 6 0.0000 0.0000 0.0000 0.5162 0.0000 30.8994
#
#
#
# Elastic Compliance Matrix: (Units=1/GPa)
#
#
# Indices 1 2 3 4 5 6 
#
# 1 0.009035 -0.000438 -0.002737 0.000000 -0.001351 0.000000
# 2 -0.000438 0.012959 0.001172 0.000000 0.003185 0.000000
# 3 -0.002737 0.001172 0.009966 0.000000 -0.000025 0.000000
# 4 0.000000 0.000000 0.000000 0.021990 0.000000 -0.000367
# 5 -0.001351 0.003185 -0.000025 0.000000 0.025160 0.000000
# 6 0.000000 0.000000 0.000000 -0.000367 0.000000 0.032369
#
#
# Mechanical properties :
#
#
# Convention : Reuss Voigt Hill
#
# Bulk Modulus (GPa) = 35.77349 39.96834 37.87091
# Shear Modulus (GPa) = 40.06304 42.87007 41.46656
#
# Velocity S-wave (km/s) = 3.91402 4.04882 3.98199
# Velocity P-wave (km/s) = 5.83998 6.09431 5.96850
#
# Compressibility (1/GPa) = 0.02795366
#
# Stress axis : x y z
#
# Youngs Moduli (GPa) = 110.68548 77.16907 100.33672
#
# Poissons Ratio (x) = 0.03379 0.27464
# Poissons Ratio (y) = 0.04846 -0.11759
# Poissons Ratio (z) = 0.30296 -0.09044
#
# Static dielectric constant tensor:
#      x y z
#    x 4.425580 0.000000 -0.096370 
#    y 0.000000 4.665780 0.000000 
#    z -0.096370 0.000000 4.951580 
# 
# 
# High freq. dielectric constant tensor:
#      x y z
#    x 2.026320 0.000000 0.003460 
#    y 0.000000 2.059400 0.000000 
#    z 0.003460 0.000000 2.082450 
# 
# From -- ./inp_files/6583.got.cif
#   From: 2010.06.25/outbox.cif.g09.slc.cpg/sg9_4_cif.got.tgz:6583.got - 2010.06.27 21:40:51.
