data_PCOD8055085
_publ_section_title
;
Structure prediction by ZEFSAII (Michael W. Deem and Ramdas Pophale) SiO2 
 PCOD8055085
Probable space group: C C
;
_chemical_formula_sum "Si O2"
_cell_formula_units_Z 28
_cell_length_a 8.907823
_cell_length_b 11.811006
_cell_length_c 14.668067
_cell_angle_alpha 90.000000
_cell_angle_beta 56.089656
_cell_angle_gamma 90.000000
_cell_volume 1280.746499
_symmetry_space_group_name_H-M "C C"
_symmetry_group_IT_number 9
_symmetry_cell_setting 'monoclinic'
loop_
_space_group_symop_operation_xyz
x,y,z
x,-y,1/2+z
1/2+x,1/2+y,z
1/2+x,1/2-y,1/2+z
loop_
_atom_site_type_symbol
_atom_site_label
_atom_site_fract_x
_atom_site_fract_y
_atom_site_fract_z
Si Si1 0.108630 0.148091 0.773960
Si Si2 0.661497 0.598432 0.953507
Si Si3 0.765815 0.396739 0.036214
Si Si4 0.480534 0.244149 0.657539
Si Si5 0.960683 0.222498 0.358279
Si Si6 0.633235 0.939537 0.991261
Si Si7 0.713025 0.198194 0.932156
O O1 0.090042 0.077241 0.874748
O O2 0.175576 0.073781 0.664901
O O3 0.261470 0.244302 0.739282
O O4 0.911323 0.197489 0.818774
O O5 0.853462 0.659784 0.889289
O O6 0.679698 0.475998 0.989921
O O7 0.523859 0.673601 0.059152
O O8 0.715814 0.269220 0.024559
O O9 0.984149 0.406752 0.965060
O O10 0.565407 0.286719 0.725066
O O11 0.558641 0.117201 0.610604
O O12 0.830822 0.112940 0.406586
O O13 0.090659 0.235421 0.400259
O O14 0.643819 0.075138 0.987122
#
# Coordination Sequence:
#
# PCOD8055085 Si02
#       7
#     4   4   4   4   4   4   4
#     4  10  23  43  63  99 135 178 228 276 339 405
#     4  10  21  43  71  94 134 183 221 281 345 399
#     4  11  24  45  68  99 139 179 225 283 345 404
#     4   9  20  43  71  92 137 186 220 276 352 394
#     4  10  22  43  70  99 135 179 224 280 338 400
#     4  10  23  46  68  95 142 179 223 286 335 403
#     4  12  25  43  67 106 136 174 237 276 336 415
#
# _framework density 21.86225
#
# number of rings (size 3 to 8) (size 9 to 14) (size 15 to 20)
#    0.000    1.714    1.429    3.429    4.000    2.286 
#    7.714    1.429    0.000    0.000    0.000    0.000 
#    0.000    0.000    0.000    0.000    0.000    0.000 
#
# Total GULP energy -173484.954644 kJ/mol
# GULP energy per Si atom -12391.782475 kJ/mol
# Density = 2.181249 g / cm^3
# Si number density = 21.862250 Si / 1000 Ang^3
#
#
#
# Elastic Constant Matrix: (Units=GPa)
#
#
# Indices 1 2 3 4 5 6 
#
# 1 132.9909 54.9834 60.0168 0.0000 9.6007 0.0000
# 2 54.9834 131.6015 47.2364 0.0000 15.0038 0.0000
# 3 60.0168 47.2364 126.6070 0.0000 12.0978 0.0000
# 4 0.0000 0.0000 0.0000 12.1513 0.0000 3.4605
# 5 9.6007 15.0038 12.0978 0.0000 33.9998 0.0000
# 6 0.0000 0.0000 0.0000 3.4605 0.0000 31.4517
#
#
#
# Elastic Compliance Matrix: (Units=1/GPa)
#
#
# Indices 1 2 3 4 5 6 
#
# 1 0.010504 -0.002977 -0.003841 0.000000 -0.000285 0.000000
# 2 -0.002977 0.009883 -0.002008 0.000000 -0.002806 0.000000
# 3 -0.003841 -0.002008 0.010642 0.000000 -0.001816 0.000000
# 4 0.000000 0.000000 0.000000 0.084958 0.000000 -0.009348
# 5 -0.000285 -0.002806 -0.001816 0.000000 0.031377 0.000000
# 6 0.000000 0.000000 0.000000 -0.009348 0.000000 0.032823
#
#
# Mechanical properties :
#
#
# Convention : Reuss Voigt Hill
#
# Bulk Modulus (GPa) = 74.75804 79.51917 77.13861
# Shear Modulus (GPa) = 24.71579 30.78477 27.75028
#
# Velocity S-wave (km/s) = 3.36597 3.75657 3.56662
# Velocity P-wave (km/s) = 7.02678 7.43421 7.23337
#
# Compressibility (1/GPa) = 0.01337649
#
# Stress axis : x y z
#
# Youngs Moduli (GPa) = 95.19768 101.18094 93.96676
#
# Poissons Ratio (x) = 0.30126 0.36096
# Poissons Ratio (y) = 0.28344 0.18867
# Poissons Ratio (z) = 0.36569 0.20315
#
# Static dielectric constant tensor:
#      x y z
#    x 4.091820 0.000000 0.120760 
#    y 0.000000 3.737410 0.000000 
#    z 0.120760 0.000000 4.103070 
# 
# 
# High freq. dielectric constant tensor:
#      x y z
#    x 1.866120 0.000000 0.005970 
#    y 0.000000 1.843120 0.000000 
#    z 0.005970 0.000000 1.859270 
# 
# From -- ./inp_files/14220.got.cif
#   From: 2010.06.25/outbox.cif.g09.slc.cpg/sg9_8_cif.got.tgz:14220.got - 2010.06.27 21:40:51.
