data_PCOD8055106
_publ_section_title
;
Structure prediction by ZEFSAII (Michael W. Deem and Ramdas Pophale) SiO2 
 PCOD8055106
Probable space group: C C
;
_chemical_formula_sum "Si O2"
_cell_formula_units_Z 32
_cell_length_a 9.859771
_cell_length_b 9.544097
_cell_length_c 22.482250
_cell_angle_alpha 90.000000
_cell_angle_beta 41.860350
_cell_angle_gamma 90.000000
_cell_volume 1411.802151
_symmetry_space_group_name_H-M "C C"
_symmetry_group_IT_number 9
_symmetry_cell_setting 'monoclinic'
loop_
_space_group_symop_operation_xyz
x,y,z
x,-y,1/2+z
1/2+x,1/2+y,z
1/2+x,1/2-y,1/2+z
loop_
_atom_site_type_symbol
_atom_site_label
_atom_site_fract_x
_atom_site_fract_y
_atom_site_fract_z
Si Si1 0.512100 0.715804 0.110720
Si Si2 0.152639 0.180689 0.278220
Si Si3 0.969133 0.100982 0.647686
Si Si4 0.189462 0.272117 0.922985
Si Si5 0.416856 0.296607 0.036821
Si Si6 0.661470 0.578573 0.702321
Si Si7 0.235748 0.575981 0.902795
Si Si8 0.006976 0.022388 0.919061
O O1 0.418689 0.560537 0.150092
O O2 0.683570 0.746199 0.105062
O O3 0.325392 0.822147 0.180207
O O4 0.605461 0.734082 0.015178
O O5 0.289728 0.318140 0.241235
O O6 0.929981 0.243880 0.346071
O O7 0.164108 0.075955 0.331087
O O8 0.212191 0.084360 0.201107
O O9 0.996342 0.189874 0.578498
O O10 0.162264 0.103430 0.630081
O O11 0.132236 0.428003 0.918351
O O12 0.111112 0.169058 0.898193
O O13 0.565204 0.193438 0.952117
O O14 0.437654 0.450427 0.002507
O O15 0.436204 0.614468 0.799954
O O16 0.301742 0.551902 0.949578
#
# Coordination Sequence:
#
# PCOD8055106 Si02
#       8
#     4   4   4   4   4   4   4   4
#     4  12  26  44  68 107 141 174 234 290 345 409
#     4  10  24  47  69  99 142 186 229 284 352 414
#     4  12  27  41  69 105 140 182 229 285 355 400
#     4  10  22  45  73  99 137 180 232 286 338 416
#     4  12  25  43  72 104 142 183 227 288 350 412
#     4  10  26  47  67 101 140 182 230 291 343 414
#     4  10  25  45  73  97 137 187 233 279 351 417
#     4  10  21  44  69 100 133 184 232 285 338 408
#
# _framework density 22.666066000000001
#
# number of rings (size 3 to 8) (size 9 to 14) (size 15 to 20)
#    0.000    1.500    3.750    1.500    5.250    9.000 
#    0.000    0.000    0.000    0.000    0.000    0.000 
#    0.000    0.000    0.000    0.000    0.000    0.000 
#
# Total GULP energy -198318.385415 kJ/mol
# GULP energy per Si atom -12394.899088 kJ/mol
# Density = 2.261448 g / cm^3
# Si number density = 22.666066 Si / 1000 Ang^3
#
#
#
# Elastic Constant Matrix: (Units=GPa)
#
#
# Indices 1 2 3 4 5 6 
#
# 1 91.9853 61.3534 38.2600 0.0000 0.9429 0.0000
# 2 61.3534 153.3544 50.1036 0.0000 -24.8838 0.0000
# 3 38.2600 50.1036 52.1333 0.0000 -5.3674 0.0000
# 4 0.0000 0.0000 0.0000 36.0976 0.0000 3.9270
# 5 0.9429 -24.8838 -5.3674 0.0000 29.4101 0.0000
# 6 0.0000 0.0000 0.0000 3.9270 0.0000 42.9632
#
#
#
# Elastic Compliance Matrix: (Units=1/GPa)
#
#
# Indices 1 2 3 4 5 6 
#
# 1 0.018321 -0.005577 -0.008797 0.000000 -0.006912 0.000000
# 2 -0.005577 0.012601 -0.007033 0.000000 0.009557 0.000000
# 3 -0.008797 -0.007033 0.032423 0.000000 0.000248 0.000000
# 4 0.000000 0.000000 0.000000 0.027981 0.000000 -0.002558
# 5 -0.006912 0.009557 0.000248 0.000000 0.042355 0.000000
# 6 0.000000 0.000000 0.000000 -0.002558 0.000000 0.023509
#
#
# Mechanical properties :
#
#
# Convention : Reuss Voigt Hill
#
# Bulk Modulus (GPa) = 48.71066 66.32299 57.51682
# Shear Modulus (GPa) = 24.17233 31.54458 27.85845
#
# Velocity S-wave (km/s) = 3.26920 3.73461 3.50963
# Velocity P-wave (km/s) = 5.98226 6.92249 6.46948
#
# Compressibility (1/GPa) = 0.02052939
#
# Stress axis : x y z
#
# Youngs Moduli (GPa) = 54.58165 79.36077 30.84252
#
# Poissons Ratio (x) = 0.44261 0.27133
# Poissons Ratio (y) = 0.30441 0.21692
# Poissons Ratio (z) = 0.48017 0.55816
#
# Static dielectric constant tensor:
#      x y z
#    x 4.073710 0.000000 0.160920 
#    y 0.000000 4.261660 0.000000 
#    z 0.160920 0.000000 3.938910 
# 
# 
# High freq. dielectric constant tensor:
#      x y z
#    x 1.889460 0.000000 0.013730 
#    y 0.000000 1.905810 0.000000 
#    z 0.013730 0.000000 1.885940 
# 
# From -- ./inp_files/35308.got.cif
#   From: 2010.06.25/outbox.cif.g09.slc.cpg/sg9_18_cif.got.tgz:35308.got - 2010.06.27 21:40:51.
