data_PCOD8055200
_publ_section_title
;
Structure prediction by ZEFSAII (Michael W. Deem and Ramdas Pophale) SiO2 
 PCOD8055200
Probable space group: C C
;
_chemical_formula_sum "Si O2"
_cell_formula_units_Z 24
_cell_length_a 18.117348
_cell_length_b 13.948416
_cell_length_c 9.268830
_cell_angle_alpha 90.000000
_cell_angle_beta 150.740995
_cell_angle_gamma 90.000000
_cell_volume 1144.823765
_symmetry_space_group_name_H-M "C C"
_symmetry_group_IT_number 9
_symmetry_cell_setting 'monoclinic'
loop_
_space_group_symop_operation_xyz
x,y,z
x,-y,1/2+z
1/2+x,1/2+y,z
1/2+x,1/2-y,1/2+z
loop_
_atom_site_type_symbol
_atom_site_label
_atom_site_fract_x
_atom_site_fract_y
_atom_site_fract_z
Si Si1 0.587060 0.900051 0.741640
Si Si2 0.095552 0.775522 0.790216
Si Si3 0.255549 0.904157 0.832816
Si Si4 0.107308 0.416069 0.450328
Si Si5 0.778107 0.278477 0.619996
Si Si6 0.759371 0.385096 0.298622
O O1 0.658734 0.915458 0.704765
O O2 0.403824 0.901044 0.438621
O O3 0.654423 0.984642 0.956161
O O4 0.645712 0.799164 0.899771
O O5 0.182600 0.825378 0.810045
O O6 0.169073 0.671951 0.957353
O O7 0.923075 0.766773 0.446599
O O8 0.117775 0.840274 0.971311
O O9 0.220839 0.871055 0.610251
O O10 0.197693 0.013144 0.754028
O O11 0.430580 0.902539 0.162053
O O12 0.813059 0.315128 0.518540
#
# Coordination Sequence:
#
# PCOD8055200 Si02
#       6
#     4   4   4   4   4   4
#     4  11  23  42  63  90 124 165 209 249 306 373
#     4  11  22  42  62  94 124 158 207 259 309 357
#     4  10  22  39  66  90 121 164 209 250 297 376
#     4  10  23  39  66  89 120 166 206 250 304 371
#     4  11  24  40  61  97 126 158 203 260 313 357
#     4  11  22  42  68  88 123 165 210 248 305 370
#
# _framework density 20.963926000000001
#
# number of rings (size 3 to 8) (size 9 to 14) (size 15 to 20)
#    0.000    1.333    3.333    2.000   14.000    0.000 
#    3.000    1.667    0.000    0.000    0.000    0.000 
#    0.000    0.000    0.000    0.000    0.000    0.000 
#
# Total GULP energy -148740.288147 kJ/mol
# GULP energy per Si atom -12395.024012 kJ/mol
# Density = 2.091621 g / cm^3
# Si number density = 20.963926 Si / 1000 Ang^3
#
#
#
# Elastic Constant Matrix: (Units=GPa)
#
#
# Indices 1 2 3 4 5 6 
#
# 1 83.7638 45.2191 32.5064 0.0000 -20.9812 0.0000
# 2 45.2191 134.0942 39.7380 0.0000 1.4943 0.0000
# 3 32.5064 39.7380 79.3913 0.0000 -25.9975 0.0000
# 4 0.0000 0.0000 0.0000 30.7348 0.0000 -7.0556
# 5 -20.9812 1.4943 -25.9975 0.0000 24.0724 0.0000
# 6 0.0000 0.0000 0.0000 -7.0556 0.0000 41.1700
#
#
#
# Elastic Compliance Matrix: (Units=1/GPa)
#
#
# Indices 1 2 3 4 5 6 
#
# 1 0.020492 -0.007854 0.002397 0.000000 0.020937 0.000000
# 2 -0.007854 0.012943 -0.008923 0.000000 -0.017285 0.000000
# 3 0.002397 -0.008923 0.026218 0.000000 0.030957 0.000000
# 4 0.000000 0.000000 0.000000 0.033869 0.000000 0.005804
# 5 0.020937 -0.017285 0.030957 0.000000 0.094296 0.000000
# 6 0.000000 0.000000 0.000000 0.005804 0.000000 0.025284
#
#
# Mechanical properties :
#
#
# Convention : Reuss Voigt Hill
#
# Bulk Modulus (GPa) = 32.36973 59.13070 45.75021
# Shear Modulus (GPa) = 19.82870 31.18116 25.50493
#
# Velocity S-wave (km/s) = 3.07880 3.86083 3.49178
# Velocity P-wave (km/s) = 5.30216 6.93843 6.17474
#
# Compressibility (1/GPa) = 0.03089306
#
# Stress axis : x y z
#
# Youngs Moduli (GPa) = 48.79853 77.26345 38.14179
#
# Poissons Ratio (x) = 0.60682 -0.09141
# Poissons Ratio (y) = 0.38326 0.34033
# Poissons Ratio (z) = -0.11695 0.68940
#
# Static dielectric constant tensor:
#      x y z
#    x 3.787410 0.000000 -0.333850 
#    y 0.000000 4.323160 0.000000 
#    z -0.333850 0.000000 3.624300 
# 
# 
# High freq. dielectric constant tensor:
#      x y z
#    x 1.811540 0.000000 -0.034290 
#    y 0.000000 1.839970 0.000000 
#    z -0.034290 0.000000 1.801670 
# 
# From -- ./inp_files/4896.got.cif
#   From: 2010.06.25/outbox.cif.g09.slc.cpg/sg9_3_cif.got.tgz:4896.got - 2010.06.27 21:40:51.
