data_PCOD8055464
_publ_section_title
;
Structure prediction by ZEFSAII (Michael W. Deem and Ramdas Pophale) SiO2 
 PCOD8055464
Probable space group: C C
;
_chemical_formula_sum "Si O2"
_cell_formula_units_Z 28
_cell_length_a 17.557330
_cell_length_b 5.194959
_cell_length_c 14.928691
_cell_angle_alpha 90.000000
_cell_angle_beta 103.973338
_cell_angle_gamma 90.000000
_cell_volume 1321.346692
_symmetry_space_group_name_H-M "C C"
_symmetry_group_IT_number 9
_symmetry_cell_setting 'monoclinic'
loop_
_space_group_symop_operation_xyz
x,y,z
x,-y,1/2+z
1/2+x,1/2+y,z
1/2+x,1/2-y,1/2+z
loop_
_atom_site_type_symbol
_atom_site_label
_atom_site_fract_x
_atom_site_fract_y
_atom_site_fract_z
Si Si1 0.866890 0.052691 0.857100
Si Si2 0.439030 0.093687 0.647147
Si Si3 0.341829 0.392031 0.148014
Si Si4 0.011168 0.686740 0.486422
Si Si5 0.230821 0.494519 0.463200
Si Si6 0.131414 0.016876 0.930695
Si Si7 0.001455 0.702676 0.842730
O O1 0.829067 0.145141 0.751348
O O2 0.799732 0.010176 0.910281
O O3 0.915699 0.793700 0.851881
O O4 0.927113 0.255057 0.916842
O O5 0.400234 0.374107 0.643458
O O6 0.500295 0.092603 0.583689
O O7 0.489551 0.034051 0.750314
O O8 0.375923 0.869957 0.615508
O O9 0.260798 0.437728 0.072037
O O10 0.044628 0.457028 0.433756
O O11 0.076703 0.914216 0.502825
O O12 0.192535 0.213502 0.461955
O O13 0.174795 0.723147 0.412074
O O14 0.063927 0.933290 0.839119
#
# Coordination Sequence:
#
# PCOD8055464 Si02
#       7
#     4   4   4   4   4   4   4
#     4  10  23  40  73  95 124 171 218 270 319 371
#     4  11  23  38  73  98 125 162 223 273 314 368
#     4  11  23  41  65 105 125 162 219 273 312 384
#     4  11  21  45  68  95 128 172 216 266 322 374
#     4  12  24  44  64  95 135 175 207 265 324 387
#     4  11  26  43  62  91 139 175 208 260 323 385
#     4  10  22  45  67  99 126 167 223 269 308 389
#
# _framework density 21.190503
#
# number of rings (size 3 to 8) (size 9 to 14) (size 15 to 20)
#    0.000    1.143    4.286    1.714    4.000    0.000 
#    5.143    0.000    0.000    0.000    0.000    0.000 
#    0.000    0.000    0.000    0.000    0.000    0.000 
#
# Total GULP energy -173488.324444 kJ/mol
# GULP energy per Si atom -12392.023175 kJ/mol
# Density = 2.114227 g / cm^3
# Si number density = 21.190503 Si / 1000 Ang^3
#
#
#
# Elastic Constant Matrix: (Units=GPa)
#
#
# Indices 1 2 3 4 5 6 
#
# 1 117.8554 42.8370 46.3723 0.0000 -3.9855 0.0000
# 2 42.8370 109.3163 28.6892 0.0000 -5.9686 0.0000
# 3 46.3723 28.6892 89.9692 0.0000 -23.9598 0.0000
# 4 0.0000 0.0000 0.0000 27.3232 0.0000 6.2986
# 5 -3.9855 -5.9686 -23.9598 0.0000 20.3188 0.0000
# 6 0.0000 0.0000 0.0000 6.2986 0.0000 42.7513
#
#
#
# Elastic Compliance Matrix: (Units=1/GPa)
#
#
# Indices 1 2 3 4 5 6 
#
# 1 0.012252 -0.003315 -0.007110 0.000000 -0.006955 0.000000
# 2 -0.003315 0.010900 -0.001586 0.000000 0.000682 0.000000
# 3 -0.007110 -0.001586 0.021561 0.000000 0.023564 0.000000
# 4 0.000000 0.000000 0.000000 0.037886 0.000000 -0.005582
# 5 -0.006955 0.000682 0.023564 0.000000 0.075838 0.000000
# 6 0.000000 0.000000 0.000000 -0.005582 0.000000 0.024213
#
#
# Mechanical properties :
#
#
# Convention : Reuss Voigt Hill
#
# Bulk Modulus (GPa) = 48.32901 61.43752 54.88327
# Shear Modulus (GPa) = 23.41168 31.36148 27.38658
#
# Velocity S-wave (km/s) = 3.32749 3.85122 3.59890
# Velocity P-wave (km/s) = 6.13346 6.98797 6.57461
#
# Compressibility (1/GPa) = 0.02069150
#
# Stress axis : x y z
#
# Youngs Moduli (GPa) = 81.61732 91.74208 46.38099
#
# Poissons Ratio (x) = 0.30412 0.32978
# Poissons Ratio (y) = 0.27056 0.07354
# Poissons Ratio (z) = 0.58032 0.14547
#
# Static dielectric constant tensor:
#      x y z
#    x 3.838560 0.000000 0.082000 
#    y 0.000000 3.960970 0.000000 
#    z 0.082000 0.000000 3.953730 
# 
# 
# High freq. dielectric constant tensor:
#      x y z
#    x 1.825350 0.000000 0.004670 
#    y 0.000000 1.845950 0.000000 
#    z 0.004670 0.000000 1.816310 
# 
# From -- ./inp_files/25254.got.cif
#   From: 2010.06.25/outbox.cif.g09.slc.cpg/sg9_13_cif.got.tgz:25254.got - 2010.06.27 21:40:51.
