data_PCOD8055532
_publ_section_title
;
Structure prediction by ZEFSAII (Michael W. Deem and Ramdas Pophale) SiO2 
 PCOD8055532
Probable space group: C C
;
_chemical_formula_sum "Si O2"
_cell_formula_units_Z 28
_cell_length_a 11.071569
_cell_length_b 11.719068
_cell_length_c 21.346345
_cell_angle_alpha 90.000000
_cell_angle_beta 29.746129
_cell_angle_gamma 90.000000
_cell_volume 1374.186357
_symmetry_space_group_name_H-M "C C"
_symmetry_group_IT_number 9
_symmetry_cell_setting 'monoclinic'
loop_
_space_group_symop_operation_xyz
x,y,z
x,-y,1/2+z
1/2+x,1/2+y,z
1/2+x,1/2-y,1/2+z
loop_
_atom_site_type_symbol
_atom_site_label
_atom_site_fract_x
_atom_site_fract_y
_atom_site_fract_z
Si Si1 0.436750 0.227723 0.558980
Si Si2 0.257705 0.080521 0.873749
Si Si3 0.704001 0.095976 0.760164
Si Si4 0.783989 0.922515 0.822726
Si Si5 0.538359 0.347424 0.997329
Si Si6 0.881586 0.167073 0.804583
Si Si7 0.055621 0.286946 0.149383
O O1 0.508566 0.350911 0.498570
O O2 0.557575 0.128704 0.462661
O O3 0.532214 0.221557 0.586272
O O4 0.149047 0.218355 0.685699
O O5 0.448308 0.118814 0.841994
O O6 0.371200 0.114626 0.755719
O O7 0.208272 0.946824 0.893051
O O8 0.757003 0.186332 0.792076
O O9 0.929271 0.108340 0.611440
O O10 0.696342 0.968459 0.793837
O O11 0.992498 0.829422 0.715785
O O12 0.889492 0.030484 0.815340
O O13 0.711676 0.236750 0.929812
O O14 0.331226 0.318160 0.040645
#
# Coordination Sequence:
#
# PCOD8055532 Si02
#       7
#     4   4   4   4   4   4   4
#     4  11  23  40  64  93 131 163 209 269 316 379
#     4  10  23  40  66  90 123 171 212 260 317 376
#     4   9  22  42  66  90 119 172 217 260 299 385
#     4   9  23  43  64  93 123 170 218 251 324 370
#     4  11  23  40  65  93 128 164 216 262 312 381
#     4  10  25  36  65  99 120 164 218 261 313 377
#     4  10  23  41  62  90 130 168 204 267 321 372
#
# _framework density 20.375692999999998
#
# number of rings (size 3 to 8) (size 9 to 14) (size 15 to 20)
#    0.857    1.143    0.000    1.714   10.000    2.286 
#    2.571    0.000    0.000    0.000    0.000    0.000 
#    0.000    0.000    0.000    0.000    0.000    0.000 
#
# Total GULP energy -173543.345317 kJ/mol
# GULP energy per Si atom -12395.953237 kJ/mol
# Density = 2.032932 g / cm^3
# Si number density = 20.375693 Si / 1000 Ang^3
#
#
#
# Elastic Constant Matrix: (Units=GPa)
#
#
# Indices 1 2 3 4 5 6 
#
# 1 58.1435 18.9266 36.8972 -0.0025 -5.4249 0.0001
# 2 18.9266 113.6671 52.8221 -0.0082 0.8716 0.0008
# 3 36.8972 52.8221 119.9284 -0.0266 -6.2144 -0.0033
# 4 -0.0025 -0.0082 -0.0266 31.7435 0.0053 1.0069
# 5 -5.4249 0.8716 -6.2144 0.0053 27.1333 0.0006
# 6 0.0001 0.0008 -0.0033 1.0069 0.0006 28.3222
#
#
#
# Elastic Compliance Matrix: (Units=1/GPa)
#
#
# Indices 1 2 3 4 5 6 
#
# 1 0.021635 -0.000757 -0.006170 -0.000004 0.002937 -0.000001
# 2 -0.000757 0.011148 -0.004760 -0.000001 -0.001600 -0.000001
# 3 -0.006170 -0.004760 0.012425 0.000008 0.001765 0.000001
# 4 -0.000004 -0.000001 0.000008 0.031538 -0.000005 -0.001121
# 5 0.002937 -0.001600 0.001765 -0.000005 0.037898 0.000000
# 6 -0.000001 -0.000001 0.000001 -0.001121 0.000000 0.035348
#
#
# Mechanical properties :
#
#
# Convention : Reuss Voigt Hill
#
# Bulk Modulus (GPa) = 45.80433 56.55896 51.18165
# Shear Modulus (GPa) = 27.67863 29.64599 28.66231
#
# Velocity S-wave (km/s) = 3.68967 3.81854 3.75466
# Velocity P-wave (km/s) = 6.37810 6.87459 6.63100
#
# Compressibility (1/GPa) = 0.02183200
#
# Stress axis : x y z
#
# Youngs Moduli (GPa) = 46.22118 89.70206 80.48500
#
# Poissons Ratio (x) = 0.06795 0.49663
# Poissons Ratio (y) = 0.03501 0.38311
# Poissons Ratio (z) = 0.28521 0.42698
#
# Static dielectric constant tensor:
#      x y z
#    x 3.465090 0.000000 0.062530 
#    y 0.000000 3.706700 0.000010 
#    z 0.062530 0.000010 3.714030 
# 
# 
# High freq. dielectric constant tensor:
#      x y z
#    x 1.778380 0.000000 -0.003040 
#    y 0.000000 1.796730 0.000000 
#    z -0.003040 0.000000 1.807410 
# 
# From -- ./inp_files/16117.got.cif
#   From: 2010.06.25/outbox.cif.g09.slc.cpg/sg9_9_cif.got.tgz:16117.got - 2010.06.27 21:40:51.
