data_PCOD8055923
_publ_section_title
;
Structure prediction by ZEFSAII (Michael W. Deem and Ramdas Pophale) SiO2 
 PCOD8055923
Probable space group: C C
;
_chemical_formula_sum "Si O2"
_cell_formula_units_Z 20
_cell_length_a 11.730805
_cell_length_b 9.233852
_cell_length_c 8.865754
_cell_angle_alpha 90.000000
_cell_angle_beta 58.834141
_cell_angle_gamma 90.000000
_cell_volume 821.739421
_symmetry_space_group_name_H-M "C C"
_symmetry_group_IT_number 9
_symmetry_cell_setting 'monoclinic'
loop_
_space_group_symop_operation_xyz
x,y,z
x,-y,1/2+z
1/2+x,1/2+y,z
1/2+x,1/2-y,1/2+z
loop_
_atom_site_type_symbol
_atom_site_label
_atom_site_fract_x
_atom_site_fract_y
_atom_site_fract_z
Si Si1 0.204450 0.442858 0.710430
Si Si2 0.964333 0.647006 0.865794
Si Si3 0.394521 0.456612 0.838796
Si Si4 0.798236 0.539805 0.250904
Si Si5 0.133195 0.145302 0.633297
O O1 0.263093 0.409396 0.835284
O O2 0.339098 0.471582 0.527376
O O3 0.118904 0.310089 0.700671
O O4 0.111240 0.582807 0.785202
O O5 0.982835 0.815107 0.813428
O O6 0.892025 0.569093 0.777349
O O7 0.885482 0.636137 0.077605
O O8 0.488797 0.576995 0.695422
O O9 0.721652 0.643747 0.421010
O O10 0.695060 0.445438 0.227176
#
# Coordination Sequence:
#
# PCOD8055923 Si02
#       5
#     4   4   4   4   4
#     4  12  29  48  76 110 147 191 246 299 363 430
#     4  11  26  48  76 107 147 192 242 301 359 434
#     4  12  29  48  76 110 147 191 246 299 363 430
#     4  10  24  46  78 104 148 192 242 296 368 422
#     4  11  26  48  76 107 147 192 242 301 359 434
#
# _framework density 24.338615999999998
#
# number of rings (size 3 to 8) (size 9 to 14) (size 15 to 20)
#    0.000    0.800    2.000    2.400   14.000    6.400 
#    0.000    0.000    0.000    0.000    0.000    0.000 
#    0.000    0.000    0.000    0.000    0.000    0.000 
#
# Total GULP energy -124063.578241 kJ/mol
# GULP energy per Si atom -12406.357824 kJ/mol
# Density = 2.428322 g / cm^3
# Si number density = 24.338616 Si / 1000 Ang^3
#
#
#
# Elastic Constant Matrix: (Units=GPa)
#
#
# Indices 1 2 3 4 5 6 
#
# 1 99.0895 46.1773 43.7930 0.0000 -1.0484 0.0000
# 2 46.1773 142.2885 27.0235 0.0000 -12.4108 0.0000
# 3 43.7930 27.0235 64.8597 0.0000 -0.1427 0.0000
# 4 0.0000 0.0000 0.0000 33.1150 0.0000 -9.6749
# 5 -1.0484 -12.4108 -0.1427 0.0000 46.4194 0.0000
# 6 0.0000 0.0000 0.0000 -9.6749 0.0000 35.9486
#
#
#
# Elastic Compliance Matrix: (Units=1/GPa)
#
#
# Indices 1 2 3 4 5 6 
#
# 1 0.015747 -0.003412 -0.009212 0.000000 -0.000585 0.000000
# 2 -0.003412 0.008567 -0.001261 0.000000 0.002210 0.000000
# 3 -0.009212 -0.001261 0.022162 0.000000 -0.000477 0.000000
# 4 0.000000 0.000000 0.000000 0.032775 0.000000 0.008821
# 5 -0.000585 0.002210 -0.000477 0.000000 0.022119 0.000000
# 6 0.000000 0.000000 0.000000 0.008821 0.000000 0.030191
#
#
# Mechanical properties :
#
#
# Convention : Reuss Voigt Hill
#
# Bulk Modulus (GPa) = 53.45675 60.02503 56.74089
# Shear Modulus (GPa) = 30.19918 35.71286 32.95602
#
# Velocity S-wave (km/s) = 3.52631 3.83473 3.68375
# Velocity P-wave (km/s) = 6.21219 6.65755 6.43872
#
# Compressibility (1/GPa) = 0.01870671
#
# Stress axis : x y z
#
# Youngs Moduli (GPa) = 63.50420 116.72055 45.12182
#
# Poissons Ratio (x) = 0.39823 0.41567
# Poissons Ratio (y) = 0.21667 0.05690
# Poissons Ratio (z) = 0.58500 0.14719
#
# Static dielectric constant tensor:
#      x y z
#    x 4.333200 0.000000 0.143930 
#    y 0.000000 4.220850 0.000000 
#    z 0.143930 0.000000 4.418620 
# 
# 
# High freq. dielectric constant tensor:
#      x y z
#    x 1.980790 0.000000 0.010620 
#    y 0.000000 1.966060 0.000000 
#    z 0.010620 0.000000 1.973390 
# 
# From -- ./inp_files/6628.got.cif
#   From: 2010.06.25/outbox.cif.g09.slc.cpg/sg9_4_cif.got.tgz:6628.got - 2010.06.27 21:40:51.
