data_PCOD8055447
_publ_section_title
;
Structure prediction by ZEFSAII (Michael W. Deem and Ramdas Pophale) SiO2 
 PCOD8055447
Probable space group: C C
;
_chemical_formula_sum "Si O2"
_cell_formula_units_Z 24
_cell_length_a 11.611584
_cell_length_b 7.755691
_cell_length_c 16.132374
_cell_angle_alpha 90.000000
_cell_angle_beta 56.849229
_cell_angle_gamma 90.000000
_cell_volume 1216.346615
_symmetry_space_group_name_H-M "C C"
_symmetry_group_IT_number 9
_symmetry_cell_setting 'monoclinic'
loop_
_space_group_symop_operation_xyz
x,y,z
x,-y,1/2+z
1/2+x,1/2+y,z
1/2+x,1/2-y,1/2+z
loop_
_atom_site_type_symbol
_atom_site_label
_atom_site_fract_x
_atom_site_fract_y
_atom_site_fract_z
Si Si1 0.882250 0.979777 0.240060
Si Si2 0.796790 0.787731 0.509453
Si Si3 0.653304 0.776486 0.406381
Si Si4 0.044378 0.978411 0.338462
Si Si5 0.004451 0.634358 0.113933
Si Si6 0.815753 0.677480 0.677648
O O1 0.729144 0.936957 0.332684
O O2 0.976009 0.039899 0.279945
O O3 0.945415 0.811731 0.172745
O O4 0.877159 0.137148 0.177796
O O5 0.758691 0.695701 0.435819
O O6 0.659904 0.900856 0.587582
O O7 0.820295 0.656618 0.575951
O O8 0.932494 0.902769 0.445765
O O9 0.615986 0.641161 0.351529
O O10 0.517449 0.845326 0.508193
O O11 0.161839 0.837247 0.273742
O O12 0.908489 0.476283 0.178066
#
# Coordination Sequence:
#
# PCOD8055447 Si02
#       6
#     4   4   4   4   4   4
#     4  11  23  42  62  98 128 160 218 257 309 379
#     4   9  23  39  63  91 130 161 211 260 304 379
#     4   9  21  43  63  89 131 161 204 272 302 369
#     4  11  21  43  65  95 127 169 207 262 315 365
#     4  10  22  45  60  92 133 161 208 262 311 370
#     4  12  24  40  71  91 123 176 206 253 327 372
#
# _framework density 19.731218999999999
#
# number of rings (size 3 to 8) (size 9 to 14) (size 15 to 20)
#    1.000    0.667    3.333    1.000    2.333    1.333 
#    6.000    0.000    0.000    0.000    0.000    0.000 
#    0.000    0.000    0.000    0.000    0.000    0.000 
#
# Total GULP energy -148682.312235 kJ/mol
# GULP energy per Si atom -12390.192686 kJ/mol
# Density = 1.968631 g / cm^3
# Si number density = 19.731219 Si / 1000 Ang^3
#
#
#
# Elastic Constant Matrix: (Units=GPa)
#
#
# Indices 1 2 3 4 5 6 
#
# 1 97.0103 56.3592 35.8839 0.0000 -2.2716 0.0000
# 2 56.3592 109.9952 42.4913 0.0000 3.4346 0.0000
# 3 35.8839 42.4913 93.1622 0.0000 -1.9626 0.0000
# 4 0.0000 0.0000 0.0000 28.3310 0.0000 0.6245
# 5 -2.2716 3.4346 -1.9626 0.0000 29.3145 0.0000
# 6 0.0000 0.0000 0.0000 0.6245 0.0000 28.5299
#
#
#
# Elastic Compliance Matrix: (Units=1/GPa)
#
#
# Indices 1 2 3 4 5 6 
#
# 1 0.015353 -0.006862 -0.002745 0.000000 0.001810 0.000000
# 2 -0.006862 0.014182 -0.003877 0.000000 -0.002453 0.000000
# 3 -0.002745 -0.003877 0.013584 0.000000 0.001151 0.000000
# 4 0.000000 0.000000 0.000000 0.035314 0.000000 -0.000773
# 5 0.001810 -0.002453 0.001151 0.000000 0.034618 0.000000
# 6 0.000000 0.000000 0.000000 -0.000773 0.000000 0.035068
#
#
# Mechanical properties :
#
#
# Convention : Reuss Voigt Hill
#
# Bulk Modulus (GPa) = 61.92253 63.29294 62.60774
# Shear Modulus (GPa) = 27.70540 28.26396 27.98468
#
# Velocity S-wave (km/s) = 3.75125 3.78888 3.77011
# Velocity P-wave (km/s) = 7.08616 7.16156 7.12396
#
# Compressibility (1/GPa) = 0.01614921
#
# Stress axis : x y z
#
# Youngs Moduli (GPa) = 65.13413 70.51377 73.61679
#
# Poissons Ratio (x) = 0.48390 0.20211
# Poissons Ratio (y) = 0.44698 0.28539
# Poissons Ratio (z) = 0.17883 0.27336
#
# Static dielectric constant tensor:
#      x y z
#    x 3.615250 0.000000 -0.089270 
#    y 0.000000 3.082350 0.000000 
#    z -0.089270 0.000000 3.837950 
# 
# 
# High freq. dielectric constant tensor:
#      x y z
#    x 1.768720 0.000000 -0.005250 
#    y 0.000000 1.730330 0.000000 
#    z -0.005250 0.000000 1.789510 
# 
# From -- ./inp_files/23934.got.cif
#   From: 2010.06.25/outbox.cif.g09.slc.cpg/sg9_12_cif.got.tgz:23934.got - 2010.06.27 21:40:51.
