data_PCOD8055730
_publ_section_title
;
Structure prediction by ZEFSAII (Michael W. Deem and Ramdas Pophale) SiO2 
 PCOD8055730
Probable space group: C C
;
_chemical_formula_sum "Si O2"
_cell_formula_units_Z 28
_cell_length_a 11.089944
_cell_length_b 8.977186
_cell_length_c 15.883434
_cell_angle_alpha 90.000000
_cell_angle_beta 122.644859
_cell_angle_gamma 90.000000
_cell_volume 1331.501643
_symmetry_space_group_name_H-M "C C"
_symmetry_group_IT_number 9
_symmetry_cell_setting 'monoclinic'
loop_
_space_group_symop_operation_xyz
x,y,z
x,-y,1/2+z
1/2+x,1/2+y,z
1/2+x,1/2-y,1/2+z
loop_
_atom_site_type_symbol
_atom_site_label
_atom_site_fract_x
_atom_site_fract_y
_atom_site_fract_z
Si Si1 0.342470 0.559402 0.897920
Si Si2 0.041042 0.311079 0.030176
Si Si3 0.338752 0.656674 0.553215
Si Si4 0.603605 0.263662 0.734271
Si Si5 0.638150 0.587439 0.732701
Si Si6 0.379106 0.293250 0.792809
Si Si7 0.370443 0.102369 0.939033
O O1 0.212179 0.670494 0.831846
O O2 0.357988 0.460232 0.819995
O O3 0.484885 0.653858 0.972695
O O4 0.309399 0.457488 0.966256
O O5 0.200260 0.338504 0.058312
O O6 0.042904 0.325157 0.131789
O O7 0.933475 0.438524 0.960167
O O8 0.469132 0.612394 0.663160
O O9 0.382458 0.818380 0.533476
O O10 0.672183 0.415236 0.720826
O O11 0.471720 0.306484 0.744388
O O12 0.728727 0.708097 0.711026
O O13 0.699146 0.601474 0.851590
O O14 0.452145 0.196609 0.895911
#
# Coordination Sequence:
#
# PCOD8055730 Si02
#       7
#     4   4   4   4   4   4   4
#     4  11  24  44  65 100 127 179 223 266 338 383
#     4  12  26  41  70 103 131 175 223 276 329 395
#     4  11  25  44  68  98 135 175 225 271 332 404
#     4  12  25  41  68  99 133 173 218 282 326 392
#     4  10  23  46  63 100 134 171 220 276 328 387
#     4   9  24  45  67  90 134 175 214 274 325 397
#     4   9  23  47  65  94 134 174 217 275 328 388
#
# _framework density 21.028888999999999
#
# number of rings (size 3 to 8) (size 9 to 14) (size 15 to 20)
#    0.857    0.571    2.857    0.857    6.000    1.143 
#    5.143    0.000    0.000    0.000    0.000    0.000 
#    0.000    0.000    0.000    0.000    0.000    0.000 
#
# Total GULP energy -173482.749434 kJ/mol
# GULP energy per Si atom -12391.624960 kJ/mol
# Density = 2.098103 g / cm^3
# Si number density = 21.028889 Si / 1000 Ang^3
#
#
#
# Elastic Constant Matrix: (Units=GPa)
#
#
# Indices 1 2 3 4 5 6 
#
# 1 128.9144 51.5941 59.8737 0.0000 -0.4991 0.0000
# 2 51.5941 110.6248 29.2884 0.0000 3.8017 0.0000
# 3 59.8737 29.2884 79.6420 0.0000 4.5321 0.0000
# 4 0.0000 0.0000 0.0000 29.6965 0.0000 3.6243
# 5 -0.4991 3.8017 4.5321 0.0000 31.8949 0.0000
# 6 0.0000 0.0000 0.0000 3.6243 0.0000 19.4122
#
#
#
# Elastic Compliance Matrix: (Units=1/GPa)
#
#
# Indices 1 2 3 4 5 6 
#
# 1 0.013425 -0.004017 -0.008725 0.000000 0.001929 0.000000
# 2 -0.004017 0.011231 -0.001039 0.000000 -0.001254 0.000000
# 3 -0.008725 -0.001039 0.019657 0.000000 -0.002806 0.000000
# 4 0.000000 0.000000 0.000000 0.034459 0.000000 -0.006434
# 5 0.001929 -0.001254 -0.002806 0.000000 0.031931 0.000000
# 6 0.000000 0.000000 0.000000 -0.006434 0.000000 0.052715
#
#
# Mechanical properties :
#
#
# Convention : Reuss Voigt Hill
#
# Bulk Modulus (GPa) = 59.69753 66.74372 63.22062
# Shear Modulus (GPa) = 25.43700 28.09572 26.76636
#
# Velocity S-wave (km/s) = 3.48173 3.65917 3.57156
# Velocity P-wave (km/s) = 6.67932 7.04703 6.86564
#
# Compressibility (1/GPa) = 0.01675111
#
# Stress axis : x y z
#
# Youngs Moduli (GPa) = 74.49029 89.03654 50.87248
#
# Poissons Ratio (x) = 0.35770 0.44385
# Poissons Ratio (y) = 0.29926 0.05284
# Poissons Ratio (z) = 0.64991 0.09249
#
# Static dielectric constant tensor:
#      x y z
#    x 3.416980 0.000000 0.093680 
#    y 0.000000 4.046670 0.000000 
#    z 0.093680 0.000000 3.766450 
# 
# 
# High freq. dielectric constant tensor:
#      x y z
#    x 1.796110 0.000000 0.008310 
#    y 0.000000 1.842690 0.000000 
#    z 0.008310 0.000000 1.826640 
# 
# From -- ./inp_files/24307.got.cif
#   From: 2010.06.25/outbox.cif.g09.slc.cpg/sg9_13_cif.got.tgz:24307.got - 2010.06.27 21:40:51.
