data_PCOD8055351
_publ_section_title
;
Structure prediction by ZEFSAII (Michael W. Deem and Ramdas Pophale) SiO2 
 PCOD8055351
Probable space group: C C
;
_chemical_formula_sum "Si O2"
_cell_formula_units_Z 20
_cell_length_a 22.183427
_cell_length_b 8.805881
_cell_length_c 9.659014
_cell_angle_alpha 90.000000
_cell_angle_beta 150.556821
_cell_angle_gamma 90.000000
_cell_volume 927.493632
_symmetry_space_group_name_H-M "C C"
_symmetry_group_IT_number 9
_symmetry_cell_setting 'monoclinic'
loop_
_space_group_symop_operation_xyz
x,y,z
x,-y,1/2+z
1/2+x,1/2+y,z
1/2+x,1/2-y,1/2+z
loop_
_atom_site_type_symbol
_atom_site_label
_atom_site_fract_x
_atom_site_fract_y
_atom_site_fract_z
Si Si1 0.843890 0.320747 0.886910
Si Si2 0.374108 0.667136 0.669074
Si Si3 0.076796 0.117973 0.852727
Si Si4 0.254153 0.861640 0.207425
Si Si5 0.374111 0.332859 0.725615
O O1 0.906890 0.250945 0.877417
O O2 0.698336 0.276901 0.595805
O O3 0.857717 0.504085 0.914583
O O4 0.906907 0.250898 0.148409
O O5 0.499752 0.652914 0.835271
O O6 0.271565 0.760747 0.379526
O O7 0.319549 0.500001 0.588244
O O8 0.999742 0.152946 0.561997
O O9 0.119446 0.939694 0.938011
O O10 0.271569 0.760794 0.104954
#
# Coordination Sequence:
#
# PCOD8055351 Si02
#       5
#     4   4   4   4   4
#     4  10  22  42  69  98 143 186 232 291 342 422
#     4  11  22  42  70 105 136 181 245 282 344 428
#     4   9  24  41  72  96 141 193 216 286 377 385
#     4   9  22  43  69  96 146 189 222 291 357 411
#     4  11  22  42  70 105 136 181 245 282 344 428
#
# _framework density 21.563488
#
# number of rings (size 3 to 8) (size 9 to 14) (size 15 to 20)
#    1.200    0.800    0.000    3.600    5.600    0.000 
#    0.000    8.000    8.800    0.000    0.000    0.000 
#    0.000    0.000    0.000    0.000    0.000    0.000 
#
# Total GULP energy -123968.491552 kJ/mol
# GULP energy per Si atom -12396.849155 kJ/mol
# Density = 2.151441 g / cm^3
# Si number density = 21.563488 Si / 1000 Ang^3
#
#
#
# Elastic Constant Matrix: (Units=GPa)
#
#
# Indices 1 2 3 4 5 6 
#
# 1 140.6812 56.1576 72.4400 0.0000 -32.0783 0.0000
# 2 56.1576 140.3778 42.3985 0.0000 -19.6911 0.0000
# 3 72.4400 42.3985 107.5231 0.0000 -15.3140 0.0000
# 4 0.0000 0.0000 0.0000 46.7437 0.0000 -5.2378
# 5 -32.0783 -19.6911 -15.3140 0.0000 46.9269 0.0000
# 6 0.0000 0.0000 0.0000 -5.2378 0.0000 50.4275
#
#
#
# Elastic Compliance Matrix: (Units=1/GPa)
#
#
# Indices 1 2 3 4 5 6 
#
# 1 0.012883 -0.002259 -0.006995 0.000000 0.005576 0.000000
# 2 -0.002259 0.008765 -0.001710 0.000000 0.001576 0.000000
# 3 -0.006995 -0.001710 0.014581 0.000000 -0.000740 0.000000
# 4 0.000000 0.000000 0.000000 0.021645 0.000000 0.002248
# 5 0.005576 0.001576 -0.000740 0.000000 0.025541 0.000000
# 6 0.000000 0.000000 0.000000 0.002248 0.000000 0.020064
#
#
# Mechanical properties :
#
#
# Convention : Reuss Voigt Hill
#
# Bulk Modulus (GPa) = 69.91770 81.17492 75.54631
# Shear Modulus (GPa) = 38.41006 43.32534 40.86770
#
# Velocity S-wave (km/s) = 4.22507 4.48727 4.35814
# Velocity P-wave (km/s) = 7.50307 8.03578 7.77399
#
# Compressibility (1/GPa) = 0.01430253
#
# Stress axis : x y z
#
# Youngs Moduli (GPa) = 77.62008 114.09293 68.58020
#
# Poissons Ratio (x) = 0.25775 0.47969
# Poissons Ratio (y) = 0.17535 0.11725
# Poissons Ratio (z) = 0.54293 0.19507
#
# Static dielectric constant tensor:
#      x y z
#    x 3.781600 0.000000 -0.276790 
#    y 0.000000 4.010180 0.000000 
#    z -0.276790 0.000000 3.588030 
# 
# 
# High freq. dielectric constant tensor:
#      x y z
#    x 1.847160 0.000000 -0.025460 
#    y 0.000000 1.849730 0.000000 
#    z -0.025460 0.000000 1.829380 
# 
# From -- ./inp_files/6669.got.cif
#   From: 2010.06.25/outbox.cif.g09.slc.cpg/sg9_4_cif.got.tgz:6669.got - 2010.06.27 21:40:51.
