data_PCOD8055368
_publ_section_title
;
Structure prediction by ZEFSAII (Michael W. Deem and Ramdas Pophale) SiO2 
 PCOD8055368
Probable space group: C C
;
_chemical_formula_sum "Si O2"
_cell_formula_units_Z 32
_cell_length_a 13.187813
_cell_length_b 6.663025
_cell_length_c 18.999158
_cell_angle_alpha 90.000000
_cell_angle_beta 108.841344
_cell_angle_gamma 90.000000
_cell_volume 1580.013753
_symmetry_space_group_name_H-M "C C"
_symmetry_group_IT_number 9
_symmetry_cell_setting 'monoclinic'
loop_
_space_group_symop_operation_xyz
x,y,z
x,-y,1/2+z
1/2+x,1/2+y,z
1/2+x,1/2-y,1/2+z
loop_
_atom_site_type_symbol
_atom_site_label
_atom_site_fract_x
_atom_site_fract_y
_atom_site_fract_z
Si Si1 0.299590 0.215160 0.549430
Si Si2 0.539891 0.775345 0.754796
Si Si3 0.918263 0.328581 0.598231
Si Si4 0.948051 0.504556 0.864238
Si Si5 0.046976 0.805057 0.993489
Si Si6 0.363757 0.504814 0.179611
Si Si7 0.779491 0.166435 0.295931
Si Si8 0.879941 0.118159 0.926875
O O1 0.173594 0.184219 0.532330
O O2 0.357513 0.290737 0.633680
O O3 0.327548 0.362924 0.491953
O O4 0.350685 0.999608 0.545221
O O5 0.498760 0.904817 0.678147
O O6 0.480304 0.555848 0.739240
O O7 0.664833 0.730454 0.777553
O O8 0.518385 0.899604 0.820389
O O9 0.990840 0.225398 0.555688
O O10 0.834134 0.173012 0.617190
O O11 0.864532 0.654062 0.808448
O O12 0.884051 0.335089 0.892345
O O13 0.024363 0.624592 0.934465
O O14 0.998547 0.016519 0.954458
O O15 0.283040 0.526568 0.227006
O O16 0.799988 0.028360 0.367873
#
# Coordination Sequence:
#
# PCOD8055368 Si02
#       8
#     4   4   4   4   4   4   4   4
#     4  12  23  41  65  91 127 172 202 260 320 357
#     4  10  22  44  61  92 126 163 207 259 308 365
#     4  10  22  43  60  93 129 159 215 255 299 381
#     4  11  23  43  66  94 126 162 213 257 307 381
#     4  11  24  41  64  93 127 166 208 260 312 370
#     4  10  23  42  63  93 129 159 213 258 298 379
#     4  11  23  43  66  90 128 165 207 258 317 365
#     4  11  22  43  63  94 128 160 213 261 305 378
#
# _framework density 20.25299
#
# number of rings (size 3 to 8) (size 9 to 14) (size 15 to 20)
#    0.750    0.500    3.750    2.250    0.000    2.000 
#    6.750    0.000    0.000    0.000    0.000    0.000 
#    0.000    0.000    0.000    0.000    0.000    0.000 
#
# Total GULP energy -198300.476373 kJ/mol
# GULP energy per Si atom -12393.779773 kJ/mol
# Density = 2.020689 g / cm^3
# Si number density = 20.252990 Si / 1000 Ang^3
#
#
#
# Elastic Constant Matrix: (Units=GPa)
#
#
# Indices 1 2 3 4 5 6 
#
# 1 114.5771 35.1523 34.6618 0.0000 2.3605 0.0000
# 2 35.1523 72.8018 22.6262 0.0000 4.3949 0.0000
# 3 34.6618 22.6262 95.0409 0.0000 -16.1674 0.0000
# 4 0.0000 0.0000 0.0000 33.1389 0.0000 -0.7079
# 5 2.3605 4.3949 -16.1674 0.0000 29.6255 0.0000
# 6 0.0000 0.0000 0.0000 -0.7079 0.0000 22.8578
#
#
#
# Elastic Compliance Matrix: (Units=1/GPa)
#
#
# Indices 1 2 3 4 5 6 
#
# 1 0.011081 -0.004161 -0.003412 0.000000 -0.002128 0.000000
# 2 -0.004161 0.016974 -0.003192 0.000000 -0.003928 0.000000
# 3 -0.003412 -0.003192 0.013948 0.000000 0.008357 0.000000
# 4 0.000000 0.000000 0.000000 0.030196 0.000000 0.000935
# 5 -0.002128 -0.003928 0.008357 0.000000 0.039068 0.000000
# 6 0.000000 0.000000 0.000000 0.000935 0.000000 0.043778
#
#
# Mechanical properties :
#
#
# Convention : Reuss Voigt Hill
#
# Bulk Modulus (GPa) = 48.84737 51.92229 50.38483
# Shear Modulus (GPa) = 27.26300 29.78973 28.52636
#
# Velocity S-wave (km/s) = 3.67293 3.83937 3.75707
# Velocity P-wave (km/s) = 6.49294 6.73400 6.61457
#
# Compressibility (1/GPa) = 0.02047193
#
# Stress axis : x y z
#
# Youngs Moduli (GPa) = 90.24786 58.91268 71.69608
#
# Poissons Ratio (x) = 0.24515 0.24466
# Poissons Ratio (y) = 0.37554 0.22883
# Poissons Ratio (z) = 0.30797 0.18803
#
# Static dielectric constant tensor:
#      x y z
#    x 3.381110 0.000000 -0.081940 
#    y 0.000000 3.595800 0.000000 
#    z -0.081940 0.000000 3.841050 
# 
# 
# High freq. dielectric constant tensor:
#      x y z
#    x 1.773480 0.000000 -0.014630 
#    y 0.000000 1.785420 0.000000 
#    z -0.014630 0.000000 1.810390 
# 
# From -- ./inp_files/30478.got.cif
#   From: 2010.06.25/outbox.cif.g09.slc.cpg/sg9_16_cif.got.tgz:30478.got - 2010.06.27 21:40:51.
