data_PCOD8055932
_publ_section_title
;
Structure prediction by ZEFSAII (Michael W. Deem and Ramdas Pophale) SiO2 
 PCOD8055932
Probable space group: C C
;
_chemical_formula_sum "Si O2"
_cell_formula_units_Z 32
_cell_length_a 8.791416
_cell_length_b 12.115002
_cell_length_c 14.048513
_cell_angle_alpha 90.000000
_cell_angle_beta 117.331647
_cell_angle_gamma 90.000000
_cell_volume 1329.240345
_symmetry_space_group_name_H-M "C C"
_symmetry_group_IT_number 9
_symmetry_cell_setting 'monoclinic'
loop_
_space_group_symop_operation_xyz
x,y,z
x,-y,1/2+z
1/2+x,1/2+y,z
1/2+x,1/2-y,1/2+z
loop_
_atom_site_type_symbol
_atom_site_label
_atom_site_fract_x
_atom_site_fract_y
_atom_site_fract_z
Si Si1 0.832410 0.160047 0.117360
Si Si2 0.870542 0.439759 0.941721
Si Si3 0.805269 0.154885 0.324770
Si Si4 0.952987 0.728746 0.311422
Si Si5 0.042616 0.633189 0.888027
Si Si6 0.416947 0.904898 0.159838
Si Si7 0.027562 0.958237 0.399383
Si Si8 0.176423 0.903889 0.634347
O O1 0.759520 0.131380 0.200738
O O2 0.830842 0.290795 0.106376
O O3 0.018734 0.103020 0.162854
O O4 0.717407 0.120885 0.995899
O O5 0.901878 0.320953 0.900746
O O6 0.667912 0.458793 0.895724
O O7 0.923842 0.534144 0.885655
O O8 0.972499 0.453114 0.072440
O O9 0.634606 0.179217 0.333233
O O10 0.943126 0.252526 0.377456
O O11 0.876076 0.040150 0.388554
O O12 0.809606 0.694514 0.193420
O O13 0.959787 0.861801 0.310311
O O14 0.070041 0.615857 0.780748
O O15 0.271652 0.978600 0.169570
O O16 0.105848 0.887339 0.508270
#
# Coordination Sequence:
#
# PCOD8055932 Si02
#       8
#     4   4   4   4   4   4   4   4
#     4  11  26  45  74 110 147 200 251 301 381 445
#     4  11  23  46  76 105 153 194 238 313 373 435
#     4  11  27  46  76 112 147 203 248 307 379 440
#     4  12  26  48  73 110 147 196 253 306 370 449
#     4  11  23  47  76 107 154 194 250 309 372 443
#     4  10  24  47  74 105 151 195 245 313 366 442
#     4  11  26  50  72 107 153 192 251 312 368 444
#     4  11  25  45  71 106 146 196 248 303 371 438
#
# _framework density 24.073902
#
# number of rings (size 3 to 8) (size 9 to 14) (size 15 to 20)
#    0.000    1.000    2.500    3.000    5.250    4.000 
#    2.250    1.250    0.000    0.000    0.000    0.000 
#    0.000    0.000    0.000    0.000    0.000    0.000 
#
# Total GULP energy -198342.797235 kJ/mol
# GULP energy per Si atom -12396.424827 kJ/mol
# Density = 2.401911 g / cm^3
# Si number density = 24.073902 Si / 1000 Ang^3
#
#
#
# Elastic Constant Matrix: (Units=GPa)
#
#
# Indices 1 2 3 4 5 6 
#
# 1 88.7049 25.0471 15.1262 0.0000 -2.7707 0.0000
# 2 25.0471 89.7027 29.3401 0.0000 -3.4880 0.0000
# 3 15.1262 29.3401 133.8270 0.0000 -4.4913 0.0000
# 4 0.0000 0.0000 0.0000 38.9469 0.0000 -0.8776
# 5 -2.7707 -3.4880 -4.4913 0.0000 33.0648 0.0000
# 6 0.0000 0.0000 0.0000 -0.8776 0.0000 24.3336
#
#
#
# Elastic Compliance Matrix: (Units=1/GPa)
#
#
# Indices 1 2 3 4 5 6 
#
# 1 0.012308 -0.003194 -0.000671 0.000000 0.000603 0.000000
# 2 -0.003194 0.012865 -0.002434 0.000000 0.000759 0.000000
# 3 -0.000671 -0.002434 0.008108 0.000000 0.000788 0.000000
# 4 0.000000 0.000000 0.000000 0.025697 0.000000 0.000927
# 5 0.000603 0.000759 0.000788 0.000000 0.030481 0.000000
# 6 0.000000 0.000000 0.000000 0.000927 0.000000 0.041129
#
#
# Mechanical properties :
#
#
# Convention : Reuss Voigt Hill
#
# Bulk Modulus (GPa) = 48.34535 50.14016 49.24276
# Shear Modulus (GPa) = 33.31520 35.45046 34.38283
#
# Velocity S-wave (km/s) = 3.72408 3.84157 3.78328
# Velocity P-wave (km/s) = 6.21428 6.36786 6.29154
#
# Compressibility (1/GPa) = 0.02068451
#
# Stress axis : x y z
#
# Youngs Moduli (GPa) = 81.24520 77.72757 123.33104
#
# Poissons Ratio (x) = 0.24826 0.08272
# Poissons Ratio (y) = 0.25949 0.30020
# Poissons Ratio (z) = 0.05449 0.18920
#
# Static dielectric constant tensor:
#      x y z
#    x 4.293010 0.000000 -0.139080 
#    y 0.000000 4.366870 0.000000 
#    z -0.139080 0.000000 4.599750 
# 
# 
# High freq. dielectric constant tensor:
#      x y z
#    x 1.942590 0.000000 -0.002310 
#    y 0.000000 1.964060 0.000000 
#    z -0.002310 0.000000 1.967370 
# 
# From -- ./inp_files/22958.got.cif
#   From: 2010.06.25/outbox.cif.g09.slc.cpg/sg9_12_cif.got.tgz:22958.got - 2010.06.27 21:40:51.
