data_PCOD8055337
_publ_section_title
;
Structure prediction by ZEFSAII (Michael W. Deem and Ramdas Pophale) SiO2 
 PCOD8055337
Probable space group: C C
;
_chemical_formula_sum "Si O2"
_cell_formula_units_Z 32
_cell_length_a 10.989147
_cell_length_b 9.559283
_cell_length_c 14.696317
_cell_angle_alpha 90.000000
_cell_angle_beta 108.752132
_cell_angle_gamma 90.000000
_cell_volume 1461.875078
_symmetry_space_group_name_H-M "C C"
_symmetry_group_IT_number 9
_symmetry_cell_setting 'monoclinic'
loop_
_space_group_symop_operation_xyz
x,y,z
x,-y,1/2+z
1/2+x,1/2+y,z
1/2+x,1/2-y,1/2+z
loop_
_atom_site_type_symbol
_atom_site_label
_atom_site_fract_x
_atom_site_fract_y
_atom_site_fract_z
Si Si1 0.900430 0.352500 0.839940
Si Si2 0.525085 0.880737 0.190746
Si Si3 0.307603 0.859099 0.272194
Si Si4 0.743749 0.253643 0.640038
Si Si5 0.839005 0.013999 0.528127
Si Si6 0.663798 0.111297 0.334895
Si Si7 0.136388 0.963455 0.070113
Si Si8 0.821493 0.705011 0.512228
O O1 0.850663 0.510698 0.845187
O O2 0.863937 0.300128 0.730046
O O3 0.843981 0.265695 0.910805
O O4 0.054612 0.335084 0.878621
O O5 0.437018 0.813555 0.249231
O O6 0.636379 0.775638 0.190214
O O7 0.591317 0.026428 0.236977
O O8 0.430849 0.899367 0.080385
O O9 0.252394 0.735255 0.319263
O O10 0.195438 0.907415 0.177935
O O11 0.781704 0.121176 0.588254
O O12 0.687600 0.378641 0.564284
O O13 0.758097 0.013892 0.415609
O O14 0.984589 0.051555 0.539361
O O15 0.829303 0.856045 0.564641
O O16 0.183406 0.865754 0.997804
#
# Coordination Sequence:
#
# PCOD8055337 Si02
#       8
#     4   4   4   4   4   4   4   4
#     4  10  23  43  67  97 140 182 224 288 346 402
#     4  10  22  42  67  95 142 172 225 280 344 403
#     4   9  22  43  66 101 133 179 230 278 348 413
#     4  11  23  44  69  97 139 180 226 288 341 410
#     4  12  26  42  68 106 132 179 238 276 347 416
#     4  11  24  41  67 105 135 178 231 283 345 414
#     4  10  24  44  66  97 135 178 229 277 350 403
#     4  11  24  45  68 102 138 180 231 286 343 413
#
# _framework density 21.889695
#
# number of rings (size 3 to 8) (size 9 to 14) (size 15 to 20)
#    0.000    1.500    1.250    3.000    5.250    3.000 
#    0.000    1.250    0.000    0.000    0.000    0.000 
#    0.000    0.000    0.000    0.000    0.000    0.000 
#
# Total GULP energy -198340.964023 kJ/mol
# GULP energy per Si atom -12396.310251 kJ/mol
# Density = 2.183987 g / cm^3
# Si number density = 21.889695 Si / 1000 Ang^3
#
#
#
# Elastic Constant Matrix: (Units=GPa)
#
#
# Indices 1 2 3 4 5 6 
#
# 1 166.3221 68.3093 35.1993 0.0000 -0.1999 0.0000
# 2 68.3093 122.2862 36.6482 0.0000 -11.5062 0.0000
# 3 35.1993 36.6482 77.3149 0.0000 -0.0247 0.0000
# 4 0.0000 0.0000 0.0000 28.8371 0.0000 -9.8578
# 5 -0.1999 -11.5062 -0.0247 0.0000 33.6568 0.0000
# 6 0.0000 0.0000 0.0000 -9.8578 0.0000 36.3939
#
#
#
# Elastic Compliance Matrix: (Units=1/GPa)
#
#
# Indices 1 2 3 4 5 6 
#
# 1 0.008066 -0.004118 -0.001721 0.000000 -0.001361 0.000000
# 2 -0.004118 0.012005 -0.003814 0.000000 0.004077 0.000000
# 3 -0.001721 -0.003814 0.015525 0.000000 -0.001303 0.000000
# 4 0.000000 0.000000 0.000000 0.038216 0.000000 0.010351
# 5 -0.001361 0.004077 -0.001303 0.000000 0.031096 0.000000
# 6 0.000000 0.000000 0.000000 0.010351 0.000000 0.030281
#
#
# Mechanical properties :
#
#
# Convention : Reuss Voigt Hill
#
# Bulk Modulus (GPa) = 61.38795 71.80410 66.59602
# Shear Modulus (GPa) = 31.26456 34.82867 33.04661
#
# Velocity S-wave (km/s) = 3.78336 3.99319 3.88969
# Velocity P-wave (km/s) = 6.86951 7.35762 7.11775
#
# Compressibility (1/GPa) = 0.01628984
#
# Stress axis : x y z
#
# Youngs Moduli (GPa) = 123.97189 83.30099 64.41206
#
# Poissons Ratio (x) = 0.34306 0.11083
# Poissons Ratio (y) = 0.51055 0.24568
# Poissons Ratio (z) = 0.21332 0.31772
#
# Static dielectric constant tensor:
#      x y z
#    x 4.115410 0.000000 0.125150 
#    y 0.000000 3.900740 0.000000 
#    z 0.125150 0.000000 3.760830 
# 
# 
# High freq. dielectric constant tensor:
#      x y z
#    x 1.876680 0.000000 0.007720 
#    y 0.000000 1.855760 0.000000 
#    z 0.007720 0.000000 1.848760 
# 
# From -- ./inp_files/24184.got.cif
#   From: 2010.06.25/outbox.cif.g09.slc.cpg/sg9_13_cif.got.tgz:24184.got - 2010.06.27 21:40:51.
