data_PCOD8055939
_publ_section_title
;
Structure prediction by ZEFSAII (Michael W. Deem and Ramdas Pophale) SiO2 
 PCOD8055939
Probable space group: C C
;
_chemical_formula_sum "Si O2"
_cell_formula_units_Z 32
_cell_length_a 9.706517
_cell_length_b 13.317822
_cell_length_c 14.343309
_cell_angle_alpha 90.000000
_cell_angle_beta 46.506389
_cell_angle_gamma 90.000000
_cell_volume 1345.098654
_symmetry_space_group_name_H-M "C C"
_symmetry_group_IT_number 9
_symmetry_cell_setting 'monoclinic'
loop_
_space_group_symop_operation_xyz
x,y,z
x,-y,1/2+z
1/2+x,1/2+y,z
1/2+x,1/2-y,1/2+z
loop_
_atom_site_type_symbol
_atom_site_label
_atom_site_fract_x
_atom_site_fract_y
_atom_site_fract_z
Si Si1 0.768530 0.019688 0.828730
Si Si2 0.442441 0.664096 0.359383
Si Si3 0.213954 0.946125 0.864417
Si Si4 0.696568 0.642902 0.759466
Si Si5 0.591410 0.193491 0.642214
Si Si6 0.274074 0.662208 0.986451
Si Si7 0.115966 0.125358 0.597459
Si Si8 0.625034 0.029290 0.201508
O O1 0.896354 0.101458 0.716162
O O2 0.886392 0.929731 0.820905
O O3 0.631126 0.974591 0.812271
O O4 0.677764 0.085281 0.955368
O O5 0.573386 0.634126 0.385169
O O6 0.583868 0.735722 0.235585
O O7 0.254196 0.720365 0.489339
O O8 0.434169 0.916790 0.753233
O O9 0.175990 0.053965 0.840847
O O10 0.178511 0.954140 0.991076
O O11 0.733634 0.604025 0.637192
O O12 0.879808 0.709807 0.697676
O O13 0.490372 0.698068 0.859702
O O14 0.638297 0.080980 0.651578
O O15 0.144107 0.760436 0.050373
O O16 0.283667 0.602164 0.081500
#
# Coordination Sequence:
#
# PCOD8055939 Si02
#       8
#     4   4   4   4   4   4   4   4
#     4  11  25  49  73 105 144 203 238 320 380 453
#     4  12  26  50  75 106 160 194 258 317 386 453
#     4  11  25  47  73 109 152 194 249 320 381 462
#     4  10  24  48  69 111 147 196 254 310 387 457
#     4  11  27  46  75 109 150 201 255 319 381 463
#     4  11  24  45  76 107 152 188 255 318 374 465
#     4  11  25  40  78 105 148 197 249 308 385 452
#     4  11  26  45  75 106 145 195 250 308 392 451
#
# _framework density 23.790078000000001
#
# number of rings (size 3 to 8) (size 9 to 14) (size 15 to 20)
#    0.000    1.000    3.750    1.500   10.500    3.000 
#    0.000    0.000    0.000    0.000    0.000    0.000 
#    0.000    0.000    0.000    0.000    0.000    0.000 
#
# Total GULP energy -198268.721003 kJ/mol
# GULP energy per Si atom -12391.795063 kJ/mol
# Density = 2.373593 g / cm^3
# Si number density = 23.790078 Si / 1000 Ang^3
#
#
#
# Elastic Constant Matrix: (Units=GPa)
#
#
# Indices 1 2 3 4 5 6 
#
# 1 99.2100 17.6390 40.3257 -0.0001 0.2476 0.0001
# 2 17.6390 82.2537 57.2946 -0.0002 3.9325 0.0001
# 3 40.3257 57.2946 135.3247 -0.0004 12.2930 0.0002
# 4 -0.0001 -0.0002 -0.0004 42.3727 0.0002 6.1665
# 5 0.2476 3.9325 12.2930 0.0002 42.1156 -0.0001
# 6 0.0001 0.0001 0.0002 6.1665 -0.0001 21.9675
#
#
#
# Elastic Compliance Matrix: (Units=1/GPa)
#
#
# Indices 1 2 3 4 5 6 
#
# 1 0.011507 -0.000091 -0.003477 0.000000 0.000956 0.000000
# 2 -0.000091 0.017255 -0.007326 0.000000 0.000528 0.000000
# 3 -0.003477 -0.007326 0.011776 0.000000 -0.002733 0.000000
# 4 0.000000 0.000000 0.000000 0.024605 0.000000 -0.006907
# 5 0.000956 0.000528 -0.002733 0.000000 0.024487 0.000000
# 6 0.000000 0.000000 0.000000 -0.006907 0.000000 0.047461
#
#
# Mechanical properties :
#
#
# Convention : Reuss Voigt Hill
#
# Bulk Modulus (GPa) = 53.33798 60.81190 57.07494
# Shear Modulus (GPa) = 30.27927 34.72642 32.50285
#
# Velocity S-wave (km/s) = 3.57146 3.82475 3.70027
# Velocity P-wave (km/s) = 6.28300 6.71731 6.50378
#
# Compressibility (1/GPa) = 0.01874837
#
# Stress axis : x y z
#
# Youngs Moduli (GPa) = 86.90505 57.95401 84.91927
#
# Poissons Ratio (x) = 0.00529 0.29527
# Poissons Ratio (y) = 0.00793 0.62214
# Poissons Ratio (z) = 0.30218 0.42459
#
# Static dielectric constant tensor:
#      x y z
#    x 4.549420 0.000000 0.128750 
#    y 0.000000 3.974580 0.000000 
#    z 0.128750 0.000000 4.695450 
# 
# 
# High freq. dielectric constant tensor:
#      x y z
#    x 1.946030 0.000000 0.014160 
#    y 0.000000 1.923650 0.000000 
#    z 0.014160 0.000000 1.955380 
# 
# From -- ./inp_files/23362.got.cif
#   From: 2010.06.25/outbox.cif.g09.slc.cpg/sg9_12_cif.got.tgz:23362.got - 2010.06.27 21:40:51.
