data_PCOD8055514
_publ_section_title
;
Structure prediction by ZEFSAII (Michael W. Deem and Ramdas Pophale) SiO2 
 PCOD8055514
Probable space group: C C
;
_chemical_formula_sum "Si O2"
_cell_formula_units_Z 24
_cell_length_a 8.882112
_cell_length_b 11.982019
_cell_length_c 10.184653
_cell_angle_alpha 90.000000
_cell_angle_beta 112.179848
_cell_angle_gamma 90.000000
_cell_volume 1003.702665
_symmetry_space_group_name_H-M "C C"
_symmetry_group_IT_number 9
_symmetry_cell_setting 'monoclinic'
loop_
_space_group_symop_operation_xyz
x,y,z
x,-y,1/2+z
1/2+x,1/2+y,z
1/2+x,1/2-y,1/2+z
loop_
_atom_site_type_symbol
_atom_site_label
_atom_site_fract_x
_atom_site_fract_y
_atom_site_fract_z
Si Si1 0.757310 0.963379 0.690370
Si Si2 0.408582 0.072961 0.180734
Si Si3 0.482812 0.277166 0.824224
Si Si4 0.941124 0.822733 0.272654
Si Si5 0.822951 0.789775 0.510404
Si Si6 0.289021 0.084838 0.867321
O O1 0.595253 0.961554 0.723107
O O2 0.902227 0.899430 0.818822
O O3 0.739495 0.902582 0.542621
O O4 0.802085 0.091574 0.680880
O O5 0.397518 0.205336 0.195309
O O6 0.333207 0.013423 0.282096
O O7 0.303157 0.036768 0.019238
O O8 0.676770 0.288380 0.907513
O O9 0.431219 0.231606 0.660672
O O10 0.413947 0.188203 0.904043
O O11 0.944734 0.817559 0.432293
O O12 0.111973 0.867678 0.274987
#
# Coordination Sequence:
#
# PCOD8055514 Si02
#       6
#     4   4   4   4   4   4
#     4  10  25  48  76 113 154 204 254 325 386 466
#     4  12  29  52  76 115 153 210 259 325 391 466
#     4  10  22  49  76 113 155 203 254 323 390 459
#     4  12  28  47  78 114 152 206 260 321 393 468
#     4  10  24  45  80 116 151 206 258 325 390 464
#     4  12  28  49  78 113 157 203 265 323 386 475
#
# _framework density 23.911463999999999
#
# number of rings (size 3 to 8) (size 9 to 14) (size 15 to 20)
#    1.000    0.000    3.333    1.000    9.333    2.667 
#    0.000    0.000    0.000    0.000    0.000    0.000 
#    0.000    0.000    0.000    0.000    0.000    0.000 
#
# Total GULP energy -148801.223975 kJ/mol
# GULP energy per Si atom -12400.101998 kJ/mol
# Density = 2.385704 g / cm^3
# Si number density = 23.911464 Si / 1000 Ang^3
#
#
#
# Elastic Constant Matrix: (Units=GPa)
#
#
# Indices 1 2 3 4 5 6 
#
# 1 107.1492 59.4117 36.3643 0.0000 -11.0036 0.0000
# 2 59.4117 135.3871 34.7780 0.0000 -1.5737 0.0000
# 3 36.3643 34.7780 132.2308 0.0000 -10.7365 0.0000
# 4 0.0000 0.0000 0.0000 31.2707 0.0000 -2.4659
# 5 -11.0036 -1.5737 -10.7365 0.0000 32.1550 0.0000
# 6 0.0000 0.0000 0.0000 -2.4659 0.0000 41.1994
#
#
#
# Elastic Compliance Matrix: (Units=1/GPa)
#
#
# Indices 1 2 3 4 5 6 
#
# 1 0.013310 -0.005292 -0.001973 0.000000 0.003637 0.000000
# 2 -0.005292 0.010028 -0.001325 0.000000 -0.001763 0.000000
# 3 -0.001973 -0.001325 0.008628 0.000000 0.002141 0.000000
# 4 0.000000 0.000000 0.000000 0.032130 0.000000 0.001923
# 5 0.003637 -0.001763 0.002141 0.000000 0.032972 0.000000
# 6 0.000000 0.000000 0.000000 0.001923 0.000000 0.024387
#
#
# Mechanical properties :
#
#
# Convention : Reuss Voigt Hill
#
# Bulk Modulus (GPa) = 67.63495 70.65279 69.14387
# Shear Modulus (GPa) = 34.82733 37.20589 36.01661
#
# Velocity S-wave (km/s) = 3.82057 3.94888 3.88525
# Velocity P-wave (km/s) = 6.91443 7.09953 7.00759
#
# Compressibility (1/GPa) = 0.01478526
#
# Stress axis : x y z
#
# Youngs Moduli (GPa) = 75.13105 99.71735 115.90697
#
# Poissons Ratio (x) = 0.52767 0.22872
# Poissons Ratio (y) = 0.39757 0.15363
# Poissons Ratio (z) = 0.14826 0.13217
#
# Static dielectric constant tensor:
#      x y z
#    x 4.285910 0.000000 -0.166170 
#    y 0.000000 4.118400 0.000000 
#    z -0.166170 0.000000 4.051020 
# 
# 
# High freq. dielectric constant tensor:
#      x y z
#    x 1.955050 0.000000 -0.005400 
#    y 0.000000 1.944520 0.000000 
#    z -0.005400 0.000000 1.939640 
# 
# From -- ./inp_files/14266.got.cif
#   From: 2010.06.25/outbox.cif.g09.slc.cpg/sg9_8_cif.got.tgz:14266.got - 2010.06.27 21:40:51.
