data_PCOD8055423
_publ_section_title
;
Structure prediction by ZEFSAII (Michael W. Deem and Ramdas Pophale) SiO2 
 PCOD8055423
Probable space group: C C
;
_chemical_formula_sum "Si O2"
_cell_formula_units_Z 24
_cell_length_a 8.922721
_cell_length_b 20.907290
_cell_length_c 7.987271
_cell_angle_alpha 90.000000
_cell_angle_beta 50.172024
_cell_angle_gamma 90.000000
_cell_volume 1144.295609
_symmetry_space_group_name_H-M "C C"
_symmetry_group_IT_number 9
_symmetry_cell_setting 'monoclinic'
loop_
_space_group_symop_operation_xyz
x,y,z
x,-y,1/2+z
1/2+x,1/2+y,z
1/2+x,1/2-y,1/2+z
loop_
_atom_site_type_symbol
_atom_site_label
_atom_site_fract_x
_atom_site_fract_y
_atom_site_fract_z
Si Si1 0.569430 0.125933 0.780260
Si Si2 0.283347 0.334534 0.799858
Si Si3 0.746860 0.906112 0.483226
Si Si4 0.919015 0.502620 0.272273
Si Si5 0.714386 0.309400 0.403133
Si Si6 0.695737 0.421128 0.177125
O O1 0.709603 0.128222 0.516870
O O2 0.400318 0.180163 0.891421
O O3 0.467660 0.056234 0.862059
O O4 0.689702 0.138639 0.864895
O O5 0.209143 0.369458 0.684953
O O6 0.518276 0.332738 0.635827
O O7 0.191740 0.263777 0.866020
O O8 0.624325 0.971490 0.555994
O O9 0.968297 0.927800 0.305548
O O10 0.764384 0.477663 0.249447
O O11 0.816391 0.565479 0.423378
O O12 0.750796 0.351425 0.209706
#
# Coordination Sequence:
#
# PCOD8055423 Si02
#       6
#     4   4   4   4   4   4
#     4  11  24  43  68 100 131 181 221 278 338 394
#     4  11  23  45  69  96 139 177 222 280 335 395
#     4  11  25  42  68 101 130 181 224 274 335 402
#     4  11  22  42  65  99 141 168 224 278 334 405
#     4  10  22  44  68  95 136 180 221 279 338 389
#     4  10  24  40  66  99 133 177 220 279 336 395
#
# _framework density 20.973600999999999
#
# number of rings (size 3 to 8) (size 9 to 14) (size 15 to 20)
#    0.000    1.333    3.333    2.000    2.333    4.000 
#    6.000    0.000    0.000    0.000    0.000    0.000 
#    0.000    0.000    0.000    0.000    0.000    0.000 
#
# Total GULP energy -148775.438762 kJ/mol
# GULP energy per Si atom -12397.953230 kJ/mol
# Density = 2.092586 g / cm^3
# Si number density = 20.973601 Si / 1000 Ang^3
#
#
#
# Elastic Constant Matrix: (Units=GPa)
#
#
# Indices 1 2 3 4 5 6 
#
# 1 156.1481 29.8254 45.0158 0.0000 -2.3744 0.0000
# 2 29.8254 89.9196 20.0918 0.0000 -2.3115 0.0000
# 3 45.0158 20.0918 67.4067 0.0000 2.2400 0.0000
# 4 0.0000 0.0000 0.0000 36.0824 0.0000 -7.0302
# 5 -2.3744 -2.3115 2.2400 0.0000 37.1349 0.0000
# 6 0.0000 0.0000 0.0000 -7.0302 0.0000 18.2594
#
#
#
# Elastic Compliance Matrix: (Units=1/GPa)
#
#
# Indices 1 2 3 4 5 6 
#
# 1 0.008158 -0.001569 -0.005004 0.000000 0.000726 0.000000
# 2 -0.001569 0.012250 -0.002631 0.000000 0.000821 0.000000
# 3 -0.005004 -0.002631 0.019016 0.000000 -0.001631 0.000000
# 4 0.000000 0.000000 0.000000 0.029962 0.000000 0.011536
# 5 0.000726 0.000821 -0.001631 0.000000 0.027125 0.000000
# 6 0.000000 0.000000 0.000000 0.011536 0.000000 0.059208
#
#
# Mechanical properties :
#
#
# Convention : Reuss Voigt Hill
#
# Bulk Modulus (GPa) = 47.58438 55.92671 51.75555
# Shear Modulus (GPa) = 27.60422 32.86477 30.23449
#
# Velocity S-wave (km/s) = 3.63180 3.96278 3.80089
# Velocity P-wave (km/s) = 6.35009 6.90372 6.63268
#
# Compressibility (1/GPa) = 0.02101530
#
# Stress axis : x y z
#
# Youngs Moduli (GPa) = 122.58548 81.62988 52.58812
#
# Poissons Ratio (x) = 0.12807 0.26317
# Poissons Ratio (y) = 0.19233 0.13836
# Poissons Ratio (z) = 0.61345 0.21476
#
# Static dielectric constant tensor:
#      x y z
#    x 3.882540 0.000000 -0.118430 
#    y 0.000000 3.724360 0.000000 
#    z -0.118430 0.000000 3.867680 
# 
# 
# High freq. dielectric constant tensor:
#      x y z
#    x 1.825660 0.000000 -0.015110 
#    y 0.000000 1.813310 0.000000 
#    z -0.015110 0.000000 1.825100 
# 
# From -- ./inp_files/5189.got.cif
#   From: 2010.06.25/outbox.cif.g09.slc.cpg/sg9_3_cif.got.tgz:5189.got - 2010.06.27 21:40:51.
