data_PCOD8055793
_publ_section_title
;
Structure prediction by ZEFSAII (Michael W. Deem and Ramdas Pophale) SiO2 
 PCOD8055793
Probable space group: C C
;
_chemical_formula_sum "Si O2"
_cell_formula_units_Z 28
_cell_length_a 8.784885
_cell_length_b 5.242253
_cell_length_c 32.039258
_cell_angle_alpha 90.000000
_cell_angle_beta 123.260994
_cell_angle_gamma 90.000000
_cell_volume 1233.777278
_symmetry_space_group_name_H-M "C C"
_symmetry_group_IT_number 9
_symmetry_cell_setting 'monoclinic'
loop_
_space_group_symop_operation_xyz
x,y,z
x,-y,1/2+z
1/2+x,1/2+y,z
1/2+x,1/2-y,1/2+z
loop_
_atom_site_type_symbol
_atom_site_label
_atom_site_fract_x
_atom_site_fract_y
_atom_site_fract_z
Si Si1 0.848480 0.493500 0.042810
Si Si2 0.582287 0.845055 0.805143
Si Si3 0.764012 0.845390 0.395993
Si Si4 0.439300 0.493552 0.005995
Si Si5 0.579749 0.006399 0.658300
Si Si6 0.817831 0.493720 0.195128
Si Si7 0.960105 0.000168 0.350565
O O1 0.656684 0.511074 0.037605
O O2 0.859173 0.224953 0.020793
O O3 0.008465 0.509763 0.100544
O O4 0.872799 0.727330 0.014883
O O5 0.474475 0.993731 0.753369
O O6 0.477439 0.593261 0.804960
O O7 0.592878 0.999797 0.850573
O O8 0.791879 0.796338 0.822024
O O9 0.863368 0.993982 0.447779
O O10 0.906057 0.796688 0.379108
O O11 0.659891 0.593582 0.396165
O O12 0.716181 0.772907 0.686189
O O13 0.409042 0.988055 0.663603
O O14 0.678157 0.275238 0.680267
#
# Coordination Sequence:
#
# PCOD8055793 Si02
#       7
#     4   4   4   4   4   4   4
#     4  12  26  48  71 103 137 179 233 293 344 406
#     4  10  26  41  68  98 139 176 224 273 334 409
#     4  10  26  41  68  98 139 176 224 273 334 409
#     4  12  27  44  76 101 139 182 232 278 355 407
#     4  12  26  48  71 103 137 179 233 293 344 406
#     4  12  27  44  76 101 139 182 232 278 355 407
#     4  10  24  40  66  90 142 172 220 270 330 390
#
# _framework density 22.694531999999999
#
# number of rings (size 3 to 8) (size 9 to 14) (size 15 to 20)
#    0.857    0.000    0.000    6.000   10.000    0.000 
#    0.000    0.000    0.000    0.000    0.000    0.000 
#    0.000    0.000    0.000    0.000    0.000    0.000 
#
# Total GULP energy -173482.137831 kJ/mol
# GULP energy per Si atom -12391.581274 kJ/mol
# Density = 2.264288 g / cm^3
# Si number density = 22.694532 Si / 1000 Ang^3
#
#
#
# Elastic Constant Matrix: (Units=GPa)
#
#
# Indices 1 2 3 4 5 6 
#
# 1 131.0055 33.5202 2.2810 0.0000 -4.3106 0.0000
# 2 33.5202 60.9167 24.7130 0.0000 -0.4931 0.0000
# 3 2.2810 24.7130 107.6034 0.0000 2.9988 0.0000
# 4 0.0000 0.0000 0.0000 29.2537 0.0000 -0.1026
# 5 -4.3106 -0.4931 2.9988 0.0000 27.0450 0.0000
# 6 0.0000 0.0000 0.0000 -0.1026 0.0000 31.6162
#
#
#
# Elastic Compliance Matrix: (Units=1/GPa)
#
#
# Indices 1 2 3 4 5 6 
#
# 1 0.009029 -0.005367 0.001007 0.000000 0.001230 0.000000
# 2 -0.005367 0.021310 -0.004782 0.000000 0.000063 0.000000
# 3 0.001007 -0.004782 0.010400 0.000000 -0.001080 0.000000
# 4 0.000000 0.000000 0.000000 0.034184 0.000000 0.000111
# 5 0.001230 0.000063 -0.001080 0.000000 0.037292 0.000000
# 6 0.000000 0.000000 0.000000 0.000111 0.000000 0.031630
#
#
# Mechanical properties :
#
#
# Convention : Reuss Voigt Hill
#
# Bulk Modulus (GPa) = 44.53343 46.72823 45.63083
# Shear Modulus (GPa) = 29.47845 33.51707 31.49776
#
# Velocity S-wave (km/s) = 3.60797 3.84719 3.72950
# Velocity P-wave (km/s) = 6.08458 6.35368 6.22059
#
# Compressibility (1/GPa) = 0.02245504
#
# Stress axis : x y z
#
# Youngs Moduli (GPa) = 110.74833 46.92685 96.14975
#
# Poissons Ratio (x) = 0.25186 -0.09682
# Poissons Ratio (y) = 0.59440 0.45980
# Poissons Ratio (z) = -0.11152 0.22441
#
# Static dielectric constant tensor:
#      x y z
#    x 4.196620 0.000000 -0.005040 
#    y 0.000000 4.093570 0.000000 
#    z -0.005040 0.000000 4.111380 
# 
# 
# High freq. dielectric constant tensor:
#      x y z
#    x 1.915730 0.000000 -0.000700 
#    y 0.000000 1.883650 0.000000 
#    z -0.000700 0.000000 1.903420 
# 
# From -- ./inp_files/36277.got.cif
#   From: 2010.06.25/outbox.cif.g09.slc.cpg/sg9_19_cif.got.tgz:36277.got - 2010.06.27 21:40:51.
