data_PCOD8055996
_publ_section_title
;
Structure prediction by ZEFSAII (Michael W. Deem and Ramdas Pophale) SiO2 
 PCOD8055996
Probable space group: C C
;
_chemical_formula_sum "Si O2"
_cell_formula_units_Z 32
_cell_length_a 19.706394
_cell_length_b 5.278861
_cell_length_c 14.100621
_cell_angle_alpha 90.000000
_cell_angle_beta 62.038861
_cell_angle_gamma 90.000000
_cell_volume 1295.618223
_symmetry_space_group_name_H-M "C C"
_symmetry_group_IT_number 9
_symmetry_cell_setting 'monoclinic'
loop_
_space_group_symop_operation_xyz
x,y,z
x,-y,1/2+z
1/2+x,1/2+y,z
1/2+x,1/2-y,1/2+z
loop_
_atom_site_type_symbol
_atom_site_label
_atom_site_fract_x
_atom_site_fract_y
_atom_site_fract_z
Si Si1 0.369230 0.084325 0.970010
Si Si2 0.703922 0.495670 0.100124
Si Si3 0.677304 0.749015 0.937253
Si Si4 0.912465 0.270026 0.643741
Si Si5 0.029520 0.454781 0.820525
Si Si6 0.344976 0.722440 0.282141
Si Si7 0.578717 0.864271 0.588636
Si Si8 0.108278 0.940987 0.834414
O O1 0.359900 0.265023 0.884840
O O2 0.440333 0.898609 0.901109
O O3 0.387019 0.254275 0.051004
O O4 0.293443 0.909402 0.039038
O O5 0.645098 0.299432 0.093706
O O6 0.682181 0.598217 0.218055
O O7 0.700506 0.735197 0.031964
O O8 0.752675 0.793666 0.823574
O O9 0.636822 0.489272 0.923903
O O10 0.614677 0.973932 0.977706
O O11 0.883358 0.540184 0.703236
O O12 0.004649 0.227490 0.591395
O O13 0.876780 0.042033 0.725630
O O14 0.043715 0.525356 0.700603
O O15 0.053385 0.700776 0.865993
O O16 0.072080 0.202549 0.822932
#
# Coordination Sequence:
#
# PCOD8055996 Si02
#       8
#     4   4   4   4   4   4   4   4
#     4  11  26  50  76 110 152 206 247 316 388 453
#     4  10  25  47  69 105 146 191 241 311 369 446
#     4  11  25  45  75 106 149 195 248 307 383 445
#     4  12  28  50  79 113 154 202 260 314 385 466
#     4  11  25  46  70 105 146 189 245 302 367 445
#     4  11  29  49  76 114 155 197 256 320 380 466
#     4  11  25  46  77 108 153 198 252 317 379 455
#     4  11  25  45  72 105 143 188 245 303 363 446
#
# _framework density 24.698630999999999
#
# number of rings (size 3 to 8) (size 9 to 14) (size 15 to 20)
#    0.000    1.000    2.500    1.500   12.250    3.000 
#    6.750    0.000    0.000    0.000    0.000    0.000 
#    0.000    0.000    0.000    0.000    0.000    0.000 
#
# Total GULP energy -198283.327664 kJ/mol
# GULP energy per Si atom -12392.707979 kJ/mol
# Density = 2.464242 g / cm^3
# Si number density = 24.698631 Si / 1000 Ang^3
#
#
#
# Elastic Constant Matrix: (Units=GPa)
#
#
# Indices 1 2 3 4 5 6 
#
# 1 138.1280 29.6163 54.5151 0.0025 -19.6308 0.0157
# 2 29.6163 88.3147 8.9881 0.0117 -9.1008 -0.0069
# 3 54.5151 8.9881 96.4135 0.0001 -6.2259 0.0066
# 4 0.0025 0.0117 0.0001 35.8586 0.0008 -3.3130
# 5 -19.6308 -9.1008 -6.2259 0.0008 62.2331 0.0012
# 6 0.0157 -0.0069 0.0066 -3.3130 0.0012 25.8869
#
#
#
# Elastic Compliance Matrix: (Units=1/GPa)
#
#
# Indices 1 2 3 4 5 6 
#
# 1 0.010274 -0.002656 -0.005412 0.000000 0.002311 -0.000006
# 2 -0.002656 0.012274 0.000422 -0.000003 0.000999 0.000004
# 3 -0.005412 0.000422 0.013373 0.000000 -0.000308 0.000000
# 4 0.000000 -0.000003 0.000000 0.028221 -0.000001 0.003612
# 5 0.002311 0.000999 -0.000308 -0.000001 0.016913 -0.000002
# 6 -0.000006 0.000004 0.000000 0.003612 -0.000002 0.039092
#
#
# Mechanical properties :
#
#
# Convention : Reuss Voigt Hill
#
# Bulk Modulus (GPa) = 48.47761 56.56613 52.52187
# Shear Modulus (GPa) = 35.13339 40.11150 37.62244
#
# Velocity S-wave (km/s) = 3.77567 4.03431 3.90713
# Velocity P-wave (km/s) = 6.21915 6.68230 6.45488
#
# Compressibility (1/GPa) = 0.02062808
#
# Stress axis : x y z
#
# Youngs Moduli (GPa) = 97.33626 81.47351 74.77763
#
# Poissons Ratio (x) = 0.21642 0.40471
# Poissons Ratio (y) = 0.25856 -0.03158
# Poissons Ratio (z) = 0.52680 -0.03440
#
# Static dielectric constant tensor:
#      x y z
#    x 4.851830 -0.000010 -0.059710 
#    y -0.000010 3.928550 -0.000020 
#    z -0.059710 -0.000020 5.159010 
# 
# 
# High freq. dielectric constant tensor:
#      x y z
#    x 1.999800 0.000000 -0.003110 
#    y 0.000000 1.948400 0.000000 
#    z -0.003110 0.000000 2.013990 
# 
# From -- ./inp_files/26343.got.cif
#   From: 2010.06.25/outbox.cif.g09.slc.cpg/sg9_14_cif.got.tgz:26343.got - 2010.06.27 21:40:51.
