data_PCOD8055931
_publ_section_title
;
Structure prediction by ZEFSAII (Michael W. Deem and Ramdas Pophale) SiO2 
 PCOD8055931
Probable space group: C C
;
_chemical_formula_sum "Si O2"
_cell_formula_units_Z 28
_cell_length_a 18.392306
_cell_length_b 8.641582
_cell_length_c 9.316700
_cell_angle_alpha 90.000000
_cell_angle_beta 128.936951
_cell_angle_gamma 90.000000
_cell_volume 1151.809638
_symmetry_space_group_name_H-M "C C"
_symmetry_group_IT_number 9
_symmetry_cell_setting 'monoclinic'
loop_
_space_group_symop_operation_xyz
x,y,z
x,-y,1/2+z
1/2+x,1/2+y,z
1/2+x,1/2-y,1/2+z
loop_
_atom_site_type_symbol
_atom_site_label
_atom_site_fract_x
_atom_site_fract_y
_atom_site_fract_z
Si Si1 0.849620 0.482900 0.667440
Si Si2 0.289440 0.685064 0.756676
Si Si3 0.150339 0.884204 0.917465
Si Si4 0.955367 0.744870 0.147851
Si Si5 0.600677 0.678205 0.039489
Si Si6 0.511753 0.781198 0.418531
Si Si7 0.372253 0.538914 0.127178
O O1 0.830113 0.355715 0.767909
O O2 0.763828 0.605406 0.543697
O O3 0.870500 0.381969 0.548151
O O4 0.947818 0.571567 0.806163
O O5 0.177712 0.689902 0.615575
O O6 0.313906 0.547712 0.678189
O O7 0.314364 0.654679 0.954249
O O8 0.118890 0.038674 0.954897
O O9 0.098178 0.880361 0.699701
O O10 0.112630 0.733427 0.961837
O O11 0.003403 0.745328 0.366722
O O12 0.910703 0.911700 0.063476
O O13 0.028795 0.712571 0.111329
O O14 0.457013 0.625884 0.308519
#
# Coordination Sequence:
#
# PCOD8055931 Si02
#       7
#     4   4   4   4   4   4   4
#     4  10  27  47  74 111 154 196 248 325 372 454
#     4  10  24  47  74 104 151 190 254 301 384 440
#     4  11  25  45  76 104 149 202 253 299 392 451
#     4  11  25  46  72 111 148 187 258 311 373 443
#     4  11  24  46  72 107 147 195 249 310 366 455
#     4  12  25  44  79 105 145 199 255 306 385 445
#     4  11  22  45  73 102 140 201 239 306 368 454
#
# _framework density 24.309574999999999
#
# number of rings (size 3 to 8) (size 9 to 14) (size 15 to 20)
#    0.000    1.143    2.857    1.714   10.000    0.000 
#   10.286    0.000    0.000    0.000    0.000    0.000 
#    0.000    0.000    0.000    0.000    0.000    0.000 
#
# Total GULP energy -173448.388707 kJ/mol
# GULP energy per Si atom -12389.170622 kJ/mol
# Density = 2.425425 g / cm^3
# Si number density = 24.309575 Si / 1000 Ang^3
#
#
#
# Elastic Constant Matrix: (Units=GPa)
#
#
# Indices 1 2 3 4 5 6 
#
# 1 112.0699 45.3355 47.3274 0.0000 -12.7914 0.0000
# 2 45.3355 96.0918 33.1941 0.0000 1.1423 0.0000
# 3 47.3274 33.1941 122.6921 0.0000 -16.8708 0.0000
# 4 0.0000 0.0000 0.0000 30.6129 0.0000 10.2910
# 5 -12.7914 1.1423 -16.8708 0.0000 44.5299 0.0000
# 6 0.0000 0.0000 0.0000 10.2910 0.0000 40.3678
#
#
#
# Elastic Compliance Matrix: (Units=1/GPa)
#
#
# Indices 1 2 3 4 5 6 
#
# 1 0.012504 -0.004834 -0.003170 0.000000 0.002515 0.000000
# 2 -0.004834 0.013451 -0.002123 0.000000 -0.002538 0.000000
# 3 -0.003170 -0.002123 0.010370 0.000000 0.003073 0.000000
# 4 0.000000 0.000000 0.000000 0.035728 0.000000 -0.009108
# 5 0.002515 -0.002538 0.003073 0.000000 0.024409 0.000000
# 6 0.000000 0.000000 0.000000 -0.009108 0.000000 0.027094
#
#
# Mechanical properties :
#
#
# Convention : Reuss Voigt Hill
#
# Bulk Modulus (GPa) = 62.22475 64.72977 63.47726
# Shear Modulus (GPa) = 33.51923 36.76857 35.14390
#
# Velocity S-wave (km/s) = 3.71731 3.89332 3.80634
# Velocity P-wave (km/s) = 6.63905 6.84804 6.74435
#
# Compressibility (1/GPa) = 0.01607078
#
# Stress axis : x y z
#
# Youngs Moduli (GPa) = 79.97268 74.34261 96.43042
#
# Poissons Ratio (x) = 0.35940 0.30565
# Poissons Ratio (y) = 0.38662 0.20476
# Poissons Ratio (z) = 0.25348 0.15786
#
# Static dielectric constant tensor:
#      x y z
#    x 4.831880 0.000000 0.094180 
#    y 0.000000 4.449260 0.000000 
#    z 0.094180 0.000000 4.212410 
# 
# 
# High freq. dielectric constant tensor:
#      x y z
#    x 1.974800 0.000000 -0.009890 
#    y 0.000000 1.969530 0.000000 
#    z -0.009890 0.000000 1.950400 
# 
# From -- ./inp_files/11311.got.cif
#   From: 2010.06.25/outbox.cif.g09.slc.cpg/sg9_6_cif.got.tgz:11311.got - 2010.06.27 21:40:51.
