data_PCOD8055048
_publ_section_title
;
Structure prediction by ZEFSAII (Michael W. Deem and Ramdas Pophale) SiO2 
 PCOD8055048
Probable space group: C C
;
_chemical_formula_sum "Si O2"
_cell_formula_units_Z 28
_cell_length_a 17.740723
_cell_length_b 5.596857
_cell_length_c 13.835742
_cell_angle_alpha 90.000000
_cell_angle_beta 69.865158
_cell_angle_gamma 90.000000
_cell_volume 1289.823918
_symmetry_space_group_name_H-M "C C"
_symmetry_group_IT_number 9
_symmetry_cell_setting 'monoclinic'
loop_
_space_group_symop_operation_xyz
x,y,z
x,-y,1/2+z
1/2+x,1/2+y,z
1/2+x,1/2-y,1/2+z
loop_
_atom_site_type_symbol
_atom_site_label
_atom_site_fract_x
_atom_site_fract_y
_atom_site_fract_z
Si Si1 0.220370 0.400359 0.262790
Si Si2 0.346514 0.622628 0.860059
Si Si3 0.627926 0.407258 0.306862
Si Si4 0.500749 0.372605 0.743567
Si Si5 0.439733 0.007176 0.905195
Si Si6 0.516450 0.349218 0.519729
Si Si7 0.860023 0.106154 0.548546
O O1 0.258436 0.378820 0.352679
O O2 0.174436 0.654610 0.271907
O O3 0.296055 0.397036 0.159908
O O4 0.173941 0.154138 0.260785
O O5 0.405504 0.432109 0.781890
O O6 0.395111 0.870873 0.836761
O O7 0.333849 0.584861 0.979985
O O8 0.552597 0.404823 0.264486
O O9 0.598484 0.434742 0.431344
O O10 0.533473 0.285378 0.624645
O O11 0.507822 0.166541 0.822001
O O12 0.487430 0.869644 0.967399
O O13 0.367389 0.141531 0.992009
O O14 0.448880 0.553538 0.551275
#
# Coordination Sequence:
#
# PCOD8055048 Si02
#       7
#     4   4   4   4   4   4   4
#     4  12  29  46  72 106 155 187 228 317 377 423
#     4  10  23  42  73 101 139 186 252 291 357 443
#     4  12  28  48  66 114 155 178 244 310 371 436
#     4  11  23  44  74 103 141 199 247 302 363 444
#     4  10  21  42  74 107 134 179 272 308 330 453
#     4  11  23  44  74 102 140 198 248 300 366 440
#     4  10  23  42  73 103 134 191 251 294 352 447
#
# _framework density 21.708390000000001
#
# number of rings (size 3 to 8) (size 9 to 14) (size 15 to 20)
#    0.000    1.143    5.714    0.857   10.000    2.286 
#    0.000    0.000    0.000    0.000    0.000    0.000 
#    0.000    0.000    0.000    0.000    0.000    0.000 
#
# Total GULP energy -173447.709315 kJ/mol
# GULP energy per Si atom -12389.122094 kJ/mol
# Density = 2.165898 g / cm^3
# Si number density = 21.708390 Si / 1000 Ang^3
#
#
#
# Elastic Constant Matrix: (Units=GPa)
#
#
# Indices 1 2 3 4 5 6 
#
# 1 72.3369 29.9800 7.7750 0.0000 6.8928 0.0000
# 2 29.9800 121.0469 30.9650 0.0000 -7.1040 0.0001
# 3 7.7750 30.9650 127.5461 0.0000 -1.0673 0.0000
# 4 0.0000 0.0000 0.0000 19.8826 0.0000 -2.7301
# 5 6.8928 -7.1040 -1.0673 0.0000 40.1493 0.0000
# 6 0.0000 0.0001 0.0000 -2.7301 0.0000 27.5545
#
#
#
# Elastic Compliance Matrix: (Units=1/GPa)
#
#
# Indices 1 2 3 4 5 6 
#
# 1 0.015866 -0.004134 0.000008 0.000000 -0.003455 0.000000
# 2 -0.004134 0.009977 -0.002150 0.000000 0.002418 0.000000
# 3 0.000008 -0.002150 0.008360 0.000000 -0.000159 0.000000
# 4 0.000000 0.000000 0.000000 0.050989 0.000000 0.005052
# 5 -0.003455 0.002418 -0.000159 0.000000 0.025924 0.000000
# 6 0.000000 0.000000 0.000000 0.005052 0.000000 0.036792
#
#
# Mechanical properties :
#
#
# Convention : Reuss Voigt Hill
#
# Bulk Modulus (GPa) = 46.18856 50.92999 48.55927
# Shear Modulus (GPa) = 29.81895 34.33129 32.07512
#
# Velocity S-wave (km/s) = 3.71025 3.98109 3.84805
# Velocity P-wave (km/s) = 6.29902 6.68162 6.49314
#
# Compressibility (1/GPa) = 0.02165038
#
# Stress axis : x y z
#
# Youngs Moduli (GPa) = 63.02751 100.22951 119.61074
#
# Poissons Ratio (x) = 0.41438 -0.00091
# Poissons Ratio (y) = 0.26058 0.25716
# Poissons Ratio (z) = -0.00048 0.21549
#
# Static dielectric constant tensor:
#      x y z
#    x 3.787160 0.000000 -0.028410 
#    y 0.000000 4.145560 0.000000 
#    z -0.028410 0.000000 3.925490 
# 
# 
# High freq. dielectric constant tensor:
#      x y z
#    x 1.839360 0.000000 0.000620 
#    y 0.000000 1.855230 0.000000 
#    z 0.000620 0.000000 1.856730 
# 
# From -- ./inp_files/26241.got.cif
#   From: 2010.06.25/outbox.cif.g09.slc.cpg/sg9_14_cif.got.tgz:26241.got - 2010.06.27 21:40:51.
