data_PCOD8055408
_publ_section_title
;
Structure prediction by ZEFSAII (Michael W. Deem and Ramdas Pophale) SiO2 
 PCOD8055408
Probable space group: C C
;
_chemical_formula_sum "Si O2"
_cell_formula_units_Z 20
_cell_length_a 8.905531
_cell_length_b 22.395748
_cell_length_c 5.251405
_cell_angle_alpha 90.000000
_cell_angle_beta 125.769357
_cell_angle_gamma 90.000000
_cell_volume 849.812975
_symmetry_space_group_name_H-M "C C"
_symmetry_group_IT_number 9
_symmetry_cell_setting 'monoclinic'
loop_
_space_group_symop_operation_xyz
x,y,z
x,-y,1/2+z
1/2+x,1/2+y,z
1/2+x,1/2-y,1/2+z
loop_
_atom_site_type_symbol
_atom_site_label
_atom_site_fract_x
_atom_site_fract_y
_atom_site_fract_z
Si Si1 0.805940 0.633505 0.445830
Si Si2 0.596200 0.806282 0.526892
Si Si3 0.970421 0.744780 0.407457
Si Si4 0.389209 0.365461 0.522850
Si Si5 0.596718 0.960662 0.119863
O O1 0.814046 0.691899 0.266464
O O2 0.596702 0.614026 0.298041
O O3 0.917920 0.649792 0.818275
O O4 0.910971 0.578762 0.413982
O O5 0.597956 0.768746 0.787241
O O6 0.785088 0.844460 0.679973
O O7 0.595456 0.758937 0.290000
O O8 0.887374 0.811313 0.314436
O O9 0.277789 0.418824 0.279809
O O10 0.600892 0.994493 0.390981
#
# Coordination Sequence:
#
# PCOD8055408 Si02
#       5
#     4   4   4   4   4
#     4   9  24  44  73 105 137 188 234 297 351 429
#     4   9  23  42  61 101 152 180 212 290 359 419
#     4  10  22  44  66 106 150 178 219 299 368 417
#     4  11  23  46  73 110 137 192 243 287 358 434
#     4  11  28  50  71  98 148 194 240 297 348 411
#
# _framework density 23.534593000000001
#
# number of rings (size 3 to 8) (size 9 to 14) (size 15 to 20)
#    1.200    0.800    0.000    1.200    5.600    6.400 
#    7.200    0.000    0.000    0.000    0.000    0.000 
#    0.000    0.000    0.000    0.000    0.000    0.000 
#
# Total GULP energy -123922.158522 kJ/mol
# GULP energy per Si atom -12392.215852 kJ/mol
# Density = 2.348103 g / cm^3
# Si number density = 23.534593 Si / 1000 Ang^3
#
#
#
# Elastic Constant Matrix: (Units=GPa)
#
#
# Indices 1 2 3 4 5 6 
#
# 1 147.9369 49.5760 67.8067 0.0000 33.3083 0.0000
# 2 49.5760 123.7663 32.2300 0.0000 13.8494 0.0000
# 3 67.8067 32.2300 81.5460 0.0000 4.7193 0.0000
# 4 0.0000 0.0000 0.0000 20.1802 0.0000 -1.9964
# 5 33.3083 13.8494 4.7193 0.0000 59.3727 0.0000
# 6 0.0000 0.0000 0.0000 -1.9964 0.0000 51.9387
#
#
#
# Elastic Compliance Matrix: (Units=1/GPa)
#
#
# Indices 1 2 3 4 5 6 
#
# 1 0.013452 -0.002083 -0.009999 0.000000 -0.006266 0.000000
# 2 -0.002083 0.009531 -0.001983 0.000000 -0.000897 0.000000
# 3 -0.009999 -0.001983 0.021107 0.000000 0.004394 0.000000
# 4 0.000000 0.000000 0.000000 0.049743 0.000000 0.001912
# 5 -0.006266 -0.000897 0.004394 0.000000 0.020218 0.000000
# 6 0.000000 0.000000 0.000000 0.001912 0.000000 0.019327
#
#
# Mechanical properties :
#
#
# Convention : Reuss Voigt Hill
#
# Bulk Modulus (GPa) = 62.66113 72.49717 67.57915
# Shear Modulus (GPa) = 29.97114 39.87408 34.92261
#
# Velocity S-wave (km/s) = 3.57248 4.12062 3.85630
# Velocity P-wave (km/s) = 6.61057 7.31511 6.97175
#
# Compressibility (1/GPa) = 0.01595886
#
# Stress axis : x y z
#
# Youngs Moduli (GPa) = 74.34034 104.92181 47.37775
#
# Poissons Ratio (x) = 0.21857 0.47374
# Poissons Ratio (y) = 0.15486 0.09394
# Poissons Ratio (z) = 0.74335 0.20805
#
# Static dielectric constant tensor:
#      x y z
#    x 4.188430 0.000000 0.161250 
#    y 0.000000 4.238130 0.000000 
#    z 0.161250 0.000000 3.891780 
# 
# 
# High freq. dielectric constant tensor:
#      x y z
#    x 1.939240 0.000000 0.014350 
#    y 0.000000 1.919440 0.000000 
#    z 0.014350 0.000000 1.912440 
# 
# From -- ./inp_files/756.got.cif
#   From: 2010.06.25/outbox.cif.g09.slc.cpg/sg9_1_cif.got.tgz:756.got - 2010.06.27 21:40:51.
