data_PCOD8055121
_publ_section_title
;
Structure prediction by ZEFSAII (Michael W. Deem and Ramdas Pophale) SiO2 
 PCOD8055121
Probable space group: C C
;
_chemical_formula_sum "Si O2"
_cell_formula_units_Z 32
_cell_length_a 12.564798
_cell_length_b 7.953605
_cell_length_c 13.463198
_cell_angle_alpha 90.000000
_cell_angle_beta 66.682300
_cell_angle_gamma 90.000000
_cell_volume 1235.559788
_symmetry_space_group_name_H-M "C C"
_symmetry_group_IT_number 9
_symmetry_cell_setting 'monoclinic'
loop_
_space_group_symop_operation_xyz
x,y,z
x,-y,1/2+z
1/2+x,1/2+y,z
1/2+x,1/2-y,1/2+z
loop_
_atom_site_type_symbol
_atom_site_label
_atom_site_fract_x
_atom_site_fract_y
_atom_site_fract_z
Si Si1 0.446160 0.773228 0.462260
Si Si2 0.869476 0.072773 0.216339
Si Si3 0.288522 0.115988 0.871148
Si Si4 0.548820 0.921555 0.616038
Si Si5 0.149596 0.093341 0.283453
Si Si6 0.965690 0.812148 0.311258
Si Si7 0.810315 0.072119 0.023266
Si Si8 0.604828 0.702835 0.094199
O O1 0.386232 0.923519 0.419226
O O2 0.463425 0.835733 0.567781
O O3 0.570339 0.726062 0.370936
O O4 0.355161 0.617515 0.484578
O O5 0.839504 0.232920 0.290544
O O6 0.003994 0.064698 0.132423
O O7 0.862249 0.905677 0.286398
O O8 0.791389 0.079854 0.148322
O O9 0.262343 0.955529 0.809158
O O10 0.170233 0.174244 0.967501
O O11 0.508685 0.855723 0.739834
O O12 0.681172 0.886375 0.533361
O O13 0.536127 0.121340 0.623195
O O14 0.185670 0.175692 0.163362
O O15 0.079951 0.922311 0.287777
O O16 0.899561 0.790295 0.442720
#
# Coordination Sequence:
#
# PCOD8055121 Si02
#       8
#     4   4   4   4   4   4   4   4
#     4  11  23  49  72 108 154 196 253 321 371 458
#     4  11  22  45  74 103 150 201 256 312 380 461
#     4  12  23  48  79 103 150 210 250 319 391 437
#     4  12  25  45  73 114 151 199 252 322 382 455
#     4  10  24  47  76 105 148 203 256 312 381 457
#     4  10  21  44  75 105 149 203 254 313 387 451
#     4  11  22  47  73 103 149 210 251 311 387 451
#     4  11  24  47  72 111 153 188 260 320 373 470
#
# _framework density 25.899191999999999
#
# number of rings (size 3 to 8) (size 9 to 14) (size 15 to 20)
#    0.000    1.000    6.250    2.250    1.750    1.000 
#   15.750    0.000    0.000    0.000    0.000    0.000 
#    0.000    0.000    0.000    0.000    0.000    0.000 
#
# Total GULP energy -198286.527352 kJ/mol
# GULP energy per Si atom -12392.907959 kJ/mol
# Density = 2.584024 g / cm^3
# Si number density = 25.899192 Si / 1000 Ang^3
#
#
#
# Elastic Constant Matrix: (Units=GPa)
#
#
# Indices 1 2 3 4 5 6 
#
# 1 102.0447 20.2741 19.2155 0.0000 16.3356 0.0000
# 2 20.2741 56.2831 5.9901 0.0000 5.7434 0.0000
# 3 19.2155 5.9901 82.1548 0.0000 5.6496 0.0000
# 4 0.0000 0.0000 0.0000 20.1542 0.0000 2.1592
# 5 16.3356 5.7434 5.6496 0.0000 41.9043 0.0000
# 6 0.0000 0.0000 0.0000 2.1592 0.0000 41.4775
#
#
#
# Elastic Compliance Matrix: (Units=1/GPa)
#
#
# Indices 1 2 3 4 5 6 
#
# 1 0.011505 -0.003534 -0.002178 0.000000 -0.003707 0.000000
# 2 -0.003534 0.019214 -0.000493 0.000000 -0.001189 0.000000
# 3 -0.002178 -0.000493 0.012773 0.000000 -0.000805 0.000000
# 4 0.000000 0.000000 0.000000 0.049896 0.000000 -0.002597
# 5 -0.003707 -0.001189 -0.000805 0.000000 0.025581 0.000000
# 6 0.000000 0.000000 0.000000 -0.002597 0.000000 0.024245
#
#
# Mechanical properties :
#
#
# Convention : Reuss Voigt Hill
#
# Bulk Modulus (GPa) = 32.17287 36.82691 34.49989
# Shear Modulus (GPa) = 30.12322 33.70739 31.91530
#
# Velocity S-wave (km/s) = 3.41412 3.61152 3.51421
# Velocity P-wave (km/s) = 5.29064 5.62503 5.46040
#
# Compressibility (1/GPa) = 0.03108209
#
# Stress axis : x y z
#
# Youngs Moduli (GPa) = 86.91518 52.04480 78.29040
#
# Poissons Ratio (x) = 0.18394 0.17055
# Poissons Ratio (y) = 0.30719 0.03856
# Poissons Ratio (z) = 0.18934 0.02563
#
# Static dielectric constant tensor:
#      x y z
#    x 4.810860 0.000000 0.299700 
#    y 0.000000 4.359990 0.000000 
#    z 0.299700 0.000000 5.034630 
# 
# 
# High freq. dielectric constant tensor:
#      x y z
#    x 2.034600 0.000000 0.003240 
#    y 0.000000 2.008960 0.000000 
#    z 0.003240 0.000000 2.056620 
# 
# From -- ./inp_files/24213.got.cif
#   From: 2010.06.25/outbox.cif.g09.slc.cpg/sg9_13_cif.got.tgz:24213.got - 2010.06.27 21:40:51.
