data_PCOD8055037
_publ_section_title
;
Structure prediction by ZEFSAII (Michael W. Deem and Ramdas Pophale) SiO2 
 PCOD8055037
Probable space group: C C
;
_chemical_formula_sum "Si O2"
_cell_formula_units_Z 20
_cell_length_a 16.043310
_cell_length_b 11.988459
_cell_length_c 9.475895
_cell_angle_alpha 90.000000
_cell_angle_beta 30.158301
_cell_angle_gamma 90.000000
_cell_volume 915.628415
_symmetry_space_group_name_H-M "C C"
_symmetry_group_IT_number 9
_symmetry_cell_setting 'monoclinic'
loop_
_space_group_symop_operation_xyz
x,y,z
x,-y,1/2+z
1/2+x,1/2+y,z
1/2+x,1/2-y,1/2+z
loop_
_atom_site_type_symbol
_atom_site_label
_atom_site_fract_x
_atom_site_fract_y
_atom_site_fract_z
Si Si1 0.667970 0.547832 0.485710
Si Si2 0.404154 0.628553 0.374075
Si Si3 0.883267 0.456866 0.937520
Si Si4 0.585176 0.833006 0.194640
Si Si5 0.114332 0.295603 0.461672
O O1 0.486014 0.492631 0.754796
O O2 0.732681 0.557633 0.549341
O O3 0.644902 0.665532 0.442675
O O4 0.798148 0.467556 0.214110
O O5 0.549438 0.721582 0.157457
O O6 0.283510 0.643841 0.413870
O O7 0.293684 0.644839 0.678498
O O8 0.992541 0.567168 0.749859
O O9 0.007732 0.350865 0.744217
O O10 0.515100 0.815838 0.458547
#
# Coordination Sequence:
#
# PCOD8055037 Si02
#       5
#     4   4   4   4   4
#     4  12  24  45  72 101 142 182 228 284 346 403
#     4  10  21  42  70  96 138 183 225 273 351 402
#     4  12  23  46  71 102 140 180 230 287 338 412
#     4  10  21  44  70  97 139 183 221 281 348 400
#     4  10  23  45  69  98 141 184 218 287 341 413
#
# _framework density 21.842922999999999
#
# number of rings (size 3 to 8) (size 9 to 14) (size 15 to 20)
#    1.200    0.000    4.000    2.400    0.000    4.800 
#   10.800    0.000    0.000    0.000    0.000    0.000 
#    0.000    0.000    0.000    0.000    0.000    0.000 
#
# Total GULP energy -123924.269167 kJ/mol
# GULP energy per Si atom -12392.426917 kJ/mol
# Density = 2.179321 g / cm^3
# Si number density = 21.842923 Si / 1000 Ang^3
#
#
#
# Elastic Constant Matrix: (Units=GPa)
#
#
# Indices 1 2 3 4 5 6 
#
# 1 81.5892 26.3390 7.1154 0.0000 -24.0894 0.0000
# 2 26.3390 110.5350 51.1364 0.0000 -13.8297 0.0000
# 3 7.1154 51.1364 85.4083 0.0000 -23.2699 0.0000
# 4 0.0000 0.0000 0.0000 43.0008 0.0000 -3.1690
# 5 -24.0894 -13.8297 -23.2699 0.0000 29.7685 0.0000
# 6 0.0000 0.0000 0.0000 -3.1690 0.0000 30.5695
#
#
#
# Elastic Compliance Matrix: (Units=1/GPa)
#
#
# Indices 1 2 3 4 5 6 
#
# 1 0.018553 -0.005148 0.006322 0.000000 0.017563 0.000000
# 2 -0.005148 0.013941 -0.009261 0.000000 -0.004928 0.000000
# 3 0.006322 -0.009261 0.021535 0.000000 0.017647 0.000000
# 4 0.000000 0.000000 0.000000 0.023434 0.000000 0.002429
# 5 0.017563 -0.004928 0.017647 0.000000 0.059310 0.000000
# 6 0.000000 0.000000 0.000000 0.002429 0.000000 0.032964
#
#
# Mechanical properties :
#
#
# Convention : Reuss Voigt Hill
#
# Bulk Modulus (GPa) = 26.41703 49.63490 38.02596
# Shear Modulus (GPa) = 25.18514 33.53053 29.35783
#
# Velocity S-wave (km/s) = 3.39929 3.92225 3.67010
# Velocity P-wave (km/s) = 5.24664 6.57913 5.95030
#
# Compressibility (1/GPa) = 0.03785437
#
# Stress axis : x y z
#
# Youngs Moduli (GPa) = 53.90032 71.72895 46.43703
#
# Poissons Ratio (x) = 0.36927 -0.29357
# Poissons Ratio (y) = 0.27748 0.43005
# Poissons Ratio (z) = -0.34075 0.66428
#
# Static dielectric constant tensor:
#      x y z
#    x 3.836200 0.000000 -0.261680 
#    y 0.000000 3.749090 0.000000 
#    z -0.261680 0.000000 3.660330 
# 
# 
# High freq. dielectric constant tensor:
#      x y z
#    x 1.855230 0.000000 -0.027520 
#    y 0.000000 1.855820 0.000000 
#    z -0.027520 0.000000 1.834540 
# 
# From -- ./inp_files/4809.got.cif
#   From: 2010.06.25/outbox.cif.g09.slc.cpg/sg9_3_cif.got.tgz:4809.got - 2010.06.27 21:40:51.
