data_PCOD8055296
_publ_section_title
;
Structure prediction by ZEFSAII (Michael W. Deem and Ramdas Pophale) SiO2 
 PCOD8055296
Probable space group: C C
;
_chemical_formula_sum "Si O2"
_cell_formula_units_Z 32
_cell_length_a 22.364928
_cell_length_b 6.667868
_cell_length_c 10.302501
_cell_angle_alpha 90.000000
_cell_angle_beta 104.601415
_cell_angle_gamma 90.000000
_cell_volume 1486.754379
_symmetry_space_group_name_H-M "C C"
_symmetry_group_IT_number 9
_symmetry_cell_setting 'monoclinic'
loop_
_space_group_symop_operation_xyz
x,y,z
x,-y,1/2+z
1/2+x,1/2+y,z
1/2+x,1/2-y,1/2+z
loop_
_atom_site_type_symbol
_atom_site_label
_atom_site_fract_x
_atom_site_fract_y
_atom_site_fract_z
Si Si1 0.368130 0.681990 0.198280
Si Si2 0.664558 0.709351 0.084101
Si Si3 0.058595 0.920726 0.090295
Si Si4 0.326127 0.602521 0.453520
Si Si5 0.284155 0.001502 0.028875
Si Si6 0.104259 0.589402 0.961897
Si Si7 0.217715 0.665149 0.868489
Si Si8 0.007220 0.151673 0.299606
O O1 0.351933 0.568628 0.323081
O O2 0.439651 0.746011 0.243556
O O3 0.322746 0.873411 0.156508
O O4 0.363957 0.528031 0.076962
O O5 0.622721 0.538742 0.122087
O O6 0.723097 0.610581 0.047688
O O7 0.689322 0.854391 0.210621
O O8 0.619202 0.851634 0.972012
O O9 0.022479 0.982537 0.199708
O O10 0.080202 0.684815 0.087110
O O11 0.014781 0.966266 0.941279
O O12 0.330954 0.835251 0.495701
O O13 0.254127 0.539893 0.417208
O O14 0.264519 0.853508 0.901369
O O15 0.167344 0.699385 0.953118
O O16 0.053374 0.654267 0.824195
#
# Coordination Sequence:
#
# PCOD8055296 Si02
#       8
#     4   4   4   4   4   4   4   4
#     4  11  25  46  68  98 139 180 239 273 335 414
#     4  12  21  39  66  96 132 171 217 281 343 404
#     4  10  22  41  67  95 132 174 220 276 343 387
#     4  11  24  43  67  98 132 185 223 287 344 396
#     4  11  23  40  65 100 130 180 217 285 341 403
#     4  10  23  39  63  99 127 173 219 273 336 401
#     4  11  22  38  63  96 136 161 222 276 345 407
#     4  10  22  48  63  96 136 178 223 277 323 406
#
# _framework density 21.523392999999999
#
# number of rings (size 3 to 8) (size 9 to 14) (size 15 to 20)
#    0.750    0.500    3.750    2.250    1.750    3.000 
#    4.500    0.000    0.000    0.000    0.000    0.000 
#    0.000    0.000    0.000    0.000    0.000    0.000 
#
# Total GULP energy -198234.805746 kJ/mol
# GULP energy per Si atom -12389.675359 kJ/mol
# Density = 2.147441 g / cm^3
# Si number density = 21.523393 Si / 1000 Ang^3
#
#
#
# Elastic Constant Matrix: (Units=GPa)
#
#
# Indices 1 2 3 4 5 6 
#
# 1 110.9906 39.0865 38.8140 0.0000 17.6409 0.0000
# 2 39.0865 93.4576 32.9459 0.0000 4.7149 0.0000
# 3 38.8140 32.9459 112.8730 0.0000 -1.1018 0.0000
# 4 0.0000 0.0000 0.0000 28.8380 0.0000 4.7713
# 5 17.6409 4.7149 -1.1018 0.0000 31.3942 0.0000
# 6 0.0000 0.0000 0.0000 4.7713 0.0000 24.5561
#
#
#
# Elastic Compliance Matrix: (Units=1/GPa)
#
#
# Indices 1 2 3 4 5 6 
#
# 1 0.012523 -0.003750 -0.003276 0.000000 -0.006589 0.000000
# 2 -0.003750 0.013166 -0.002553 0.000000 0.000040 0.000000
# 3 -0.003276 -0.002553 0.010757 0.000000 0.002602 0.000000
# 4 0.000000 0.000000 0.000000 0.035828 0.000000 -0.006962
# 5 -0.006589 0.000040 0.002602 0.000000 0.035641 0.000000
# 6 0.000000 0.000000 0.000000 -0.006962 0.000000 0.042076
#
#
# Mechanical properties :
#
#
# Convention : Reuss Voigt Hill
#
# Bulk Modulus (GPa) = 57.84503 59.89043 58.86773
# Shear Modulus (GPa) = 28.58567 30.72264 29.65416
#
# Velocity S-wave (km/s) = 3.64829 3.78220 3.71585
# Velocity P-wave (km/s) = 6.68435 6.85270 6.76905
#
# Compressibility (1/GPa) = 0.01728757
#
# Stress axis : x y z
#
# Youngs Moduli (GPa) = 79.85060 75.95037 92.96544
#
# Poissons Ratio (x) = 0.28484 0.30457
# Poissons Ratio (y) = 0.29946 0.23735
# Poissons Ratio (z) = 0.26160 0.19391
#
# Static dielectric constant tensor:
#      x y z
#    x 3.763800 0.000000 0.095100 
#    y 0.000000 3.751880 0.000000 
#    z 0.095100 0.000000 3.846470 
# 
# 
# High freq. dielectric constant tensor:
#      x y z
#    x 1.839380 0.000000 0.006190 
#    y 0.000000 1.832680 0.000000 
#    z 0.006190 0.000000 1.841510 
# 
# From -- ./inp_files/20599.got.cif
#   From: 2010.06.25/outbox.cif.g09.slc.cpg/sg9_11_cif.got.tgz:20599.got - 2010.06.27 21:40:51.
