data_PCOD8055141
_publ_section_title
;
Structure prediction by ZEFSAII (Michael W. Deem and Ramdas Pophale) SiO2 
 PCOD8055141
Probable space group: C C
;
_chemical_formula_sum "Si O2"
_cell_formula_units_Z 32
_cell_length_a 23.407998
_cell_length_b 8.977385
_cell_length_c 14.084156
_cell_angle_alpha 90.000000
_cell_angle_beta 26.660153
_cell_angle_gamma 90.000000
_cell_volume 1328.001852
_symmetry_space_group_name_H-M "C C"
_symmetry_group_IT_number 9
_symmetry_cell_setting 'monoclinic'
loop_
_space_group_symop_operation_xyz
x,y,z
x,-y,1/2+z
1/2+x,1/2+y,z
1/2+x,1/2-y,1/2+z
loop_
_atom_site_type_symbol
_atom_site_label
_atom_site_fract_x
_atom_site_fract_y
_atom_site_fract_z
Si Si1 0.394390 0.417793 0.227030
Si Si2 0.493177 0.458860 0.770403
Si Si3 0.058449 0.534223 0.468077
Si Si4 0.910058 0.639982 0.858372
Si Si5 0.649494 0.285279 0.816866
Si Si6 0.318798 0.398155 0.673100
Si Si7 0.185930 0.797163 0.976206
Si Si8 0.975425 0.375850 0.892423
O O1 0.408737 0.457465 0.315855
O O2 0.326052 0.554934 0.273640
O O3 0.312323 0.262236 0.342890
O O4 0.538594 0.407657 0.972054
O O5 0.503414 0.283129 0.732954
O O6 0.634964 0.533431 0.572949
O O7 0.409611 0.479460 0.988688
O O8 0.074318 0.366286 0.411197
O O9 0.174774 0.592559 0.356217
O O10 0.937062 0.559321 0.717645
O O11 0.047594 0.620706 0.385511
O O12 0.926082 0.532478 0.925736
O O13 0.761596 0.688891 0.074385
O O14 0.716318 0.281908 0.820432
O O15 0.356680 0.230956 0.590130
O O16 0.068074 0.689796 0.175271
#
# Coordination Sequence:
#
# PCOD8055141 Si02
#       8
#     4   4   4   4   4   4   4   4
#     4  11  22  44  71 100 144 190 241 301 380 439
#     4  10  23  41  73 103 138 190 243 304 371 446
#     4  12  25  47  72 105 151 196 244 312 380 440
#     4  12  25  49  71 108 152 192 257 309 371 459
#     4  11  25  45  71 105 149 193 242 312 369 443
#     4  11  23  46  71 100 147 186 239 307 372 448
#     4  10  21  46  72 103 142 194 242 309 377 442
#     4  11  26  44  75 108 143 199 246 310 380 449
#
# _framework density 24.096353000000001
#
# number of rings (size 3 to 8) (size 9 to 14) (size 15 to 20)
#    0.000    1.000    3.750    1.500    3.500    3.000 
#    6.750    0.000    0.000    0.000    0.000    0.000 
#    0.000    0.000    0.000    0.000    0.000    0.000 
#
# Total GULP energy -198355.735117 kJ/mol
# GULP energy per Si atom -12397.233445 kJ/mol
# Density = 2.404151 g / cm^3
# Si number density = 24.096353 Si / 1000 Ang^3
#
#
#
# Elastic Constant Matrix: (Units=GPa)
#
#
# Indices 1 2 3 4 5 6 
#
# 1 85.1692 26.3306 10.8602 0.0000 -1.3631 0.0000
# 2 26.3306 116.7277 27.2838 0.0001 -5.8184 0.0000
# 3 10.8602 27.2838 91.5296 0.0001 5.1122 0.0000
# 4 0.0000 0.0001 0.0001 28.2602 0.0000 6.8992
# 5 -1.3631 -5.8184 5.1122 0.0000 26.6519 0.0000
# 6 0.0000 0.0000 0.0000 6.8992 0.0000 19.4526
#
#
#
# Elastic Compliance Matrix: (Units=1/GPa)
#
#
# Indices 1 2 3 4 5 6 
#
# 1 0.012664 -0.002680 -0.000715 0.000000 0.000200 0.000000
# 2 -0.002680 0.009952 -0.002792 0.000000 0.002571 0.000000
# 3 -0.000715 -0.002792 0.012007 0.000000 -0.002949 0.000000
# 4 0.000000 0.000000 0.000000 0.038740 0.000000 -0.013740
# 5 0.000200 0.002571 -0.002949 0.000000 0.038658 0.000000
# 6 0.000000 0.000000 0.000000 -0.013740 0.000000 0.056280
#
#
# Mechanical properties :
#
#
# Convention : Reuss Voigt Hill
#
# Bulk Modulus (GPa) = 44.94416 46.93064 45.93740
# Shear Modulus (GPa) = 26.58274 30.13641 28.35957
#
# Velocity S-wave (km/s) = 3.32503 3.54031 3.43435
# Velocity P-wave (km/s) = 5.78216 6.01915 5.90185
#
# Compressibility (1/GPa) = 0.02224983
#
# Stress axis : x y z
#
# Youngs Moduli (GPa) = 78.96323 100.48002 83.28239
#
# Poissons Ratio (x) = 0.26924 0.05955
# Poissons Ratio (y) = 0.21159 0.23255
# Poissons Ratio (z) = 0.05646 0.28057
#
# Static dielectric constant tensor:
#      x y z
#    x 4.123400 0.000000 0.064870 
#    y 0.000000 4.556820 0.000000 
#    z 0.064870 0.000000 4.288420 
# 
# 
# High freq. dielectric constant tensor:
#      x y z
#    x 1.950500 0.000000 0.006040 
#    y 0.000000 1.951890 0.000000 
#    z 0.006040 0.000000 1.960060 
# 
# From -- ./inp_files/24436.got.cif
#   From: 2010.06.25/outbox.cif.g09.slc.cpg/sg9_13_cif.got.tgz:24436.got - 2010.06.27 21:40:51.
