data_PCOD8055930
_publ_section_title
;
Structure prediction by ZEFSAII (Michael W. Deem and Ramdas Pophale) SiO2 
 PCOD8055930
Probable space group: C C
;
_chemical_formula_sum "Si O2"
_cell_formula_units_Z 28
_cell_length_a 14.724141
_cell_length_b 10.450637
_cell_length_c 13.887331
_cell_angle_alpha 90.000000
_cell_angle_beta 148.951110
_cell_angle_gamma 90.000000
_cell_volume 1102.165992
_symmetry_space_group_name_H-M "C C"
_symmetry_group_IT_number 9
_symmetry_cell_setting 'monoclinic'
loop_
_space_group_symop_operation_xyz
x,y,z
x,-y,1/2+z
1/2+x,1/2+y,z
1/2+x,1/2-y,1/2+z
loop_
_atom_site_type_symbol
_atom_site_label
_atom_site_fract_x
_atom_site_fract_y
_atom_site_fract_z
Si Si1 0.157800 0.871692 0.776800
Si Si2 0.090866 0.484955 0.500446
Si Si3 0.435641 0.451358 0.206456
Si Si4 0.740988 0.156740 0.375762
Si Si5 0.561376 0.707109 0.560271
Si Si6 0.051161 0.592031 0.663943
Si Si7 0.214584 0.033384 0.117074
O O1 0.128419 0.723374 0.775698
O O2 0.158892 0.891390 0.662804
O O3 0.341887 0.914400 0.989787
O O4 0.002352 0.953857 0.683155
O O5 0.277886 0.477070 0.618442
O O6 0.038399 0.345888 0.493118
O O7 0.104543 0.584179 0.600722
O O8 0.924707 0.537722 0.285414
O O9 0.595844 0.410264 0.422090
O O10 0.347272 0.325755 0.073617
O O11 0.629507 0.278339 0.235370
O O12 0.872658 0.138972 0.403057
O O13 0.629374 0.028149 0.292314
O O14 0.676038 0.617792 0.595995
#
# Coordination Sequence:
#
# PCOD8055930 Si02
#       7
#     4   4   4   4   4   4   4
#     4  11  25  47  75 102 155 197 243 307 380 446
#     4  10  25  46  73 111 145 191 256 307 368 447
#     4  12  27  45  75 116 147 193 253 310 363 451
#     4  11  24  44  75 108 147 192 253 302 374 442
#     4  11  21  47  77 100 147 202 243 306 375 444
#     4  10  24  47  74 103 145 202 241 301 381 445
#     4  11  24  46  73 106 150 199 245 305 379 441
#
# _framework density 25.404520999999999
#
# number of rings (size 3 to 8) (size 9 to 14) (size 15 to 20)
#    0.000    1.143    2.857    2.571    4.000    2.286 
#    2.571    0.000    0.000    0.000    0.000    0.000 
#    0.000    0.000    0.000    0.000    0.000    0.000 
#
# Total GULP energy -173487.202722 kJ/mol
# GULP energy per Si atom -12391.943052 kJ/mol
# Density = 2.534670 g / cm^3
# Si number density = 25.404521 Si / 1000 Ang^3
#
#
#
# Elastic Constant Matrix: (Units=GPa)
#
#
# Indices 1 2 3 4 5 6 
#
# 1 59.2625 -3.4589 27.4317 -0.0003 18.8186 -0.0001
# 2 -3.4589 38.0100 2.6974 -0.0001 13.8820 -0.0001
# 3 27.4317 2.6974 138.6551 -0.0006 -1.1171 -0.0003
# 4 -0.0003 -0.0001 -0.0006 30.3308 -0.0004 6.2529
# 5 18.8186 13.8820 -1.1171 -0.0004 49.8085 -0.0002
# 6 -0.0001 -0.0001 -0.0003 6.2529 -0.0002 13.7142
#
#
#
# Elastic Compliance Matrix: (Units=1/GPa)
#
#
# Indices 1 2 3 4 5 6 
#
# 1 0.022720 0.006206 -0.004700 0.000000 -0.010419 0.000000
# 2 0.006206 0.031042 -0.001921 0.000000 -0.011040 0.000000
# 3 -0.004700 -0.001921 0.008199 0.000000 0.002495 0.000000
# 4 0.000000 0.000000 0.000000 0.036390 0.000000 -0.016592
# 5 -0.010419 -0.011040 0.002495 0.000000 0.027146 0.000000
# 6 0.000000 0.000000 0.000000 -0.016592 0.000000 0.080482
#
#
# Mechanical properties :
#
#
# Convention : Reuss Voigt Hill
#
# Bulk Modulus (GPa) = 16.35760 32.14088 24.24924
# Shear Modulus (GPa) = 22.00838 32.72120 27.36479
#
# Velocity S-wave (km/s) = 2.94652 3.59277 3.28558
# Velocity P-wave (km/s) = 4.24603 5.46716 4.89482
#
# Compressibility (1/GPa) = 0.06113367
#
# Stress axis : x y z
#
# Youngs Moduli (GPa) = 44.01326 32.21459 121.96001
#
# Poissons Ratio (x) = -0.19994 0.57318
# Poissons Ratio (y) = -0.27317 0.23425
# Poissons Ratio (z) = 0.20685 0.06188
#
# Static dielectric constant tensor:
#      x y z
#    x 4.375950 0.000000 0.078000 
#    y 0.000000 4.193770 0.000000 
#    z 0.078000 0.000000 5.060120 
# 
# 
# High freq. dielectric constant tensor:
#      x y z
#    x 2.004500 0.000000 0.014500 
#    y 0.000000 1.987920 0.000000 
#    z 0.014500 0.000000 2.042190 
# 
# From -- ./inp_files/25931.got.cif
#   From: 2010.06.25/outbox.cif.g09.slc.cpg/sg9_13_cif.got.tgz:25931.got - 2010.06.27 21:40:51.
