data_PCOD8055529
_publ_section_title
;
Structure prediction by ZEFSAII (Michael W. Deem and Ramdas Pophale) SiO2 
 PCOD8055529
Probable space group: C C
;
_chemical_formula_sum "Si O2"
_cell_formula_units_Z 32
_cell_length_a 12.296326
_cell_length_b 14.907888
_cell_length_c 18.275897
_cell_angle_alpha 90.000000
_cell_angle_beta 153.088524
_cell_angle_gamma 90.000000
_cell_volume 1516.343257
_symmetry_space_group_name_H-M "C C"
_symmetry_group_IT_number 9
_symmetry_cell_setting 'monoclinic'
loop_
_space_group_symop_operation_xyz
x,y,z
x,-y,1/2+z
1/2+x,1/2+y,z
1/2+x,1/2-y,1/2+z
loop_
_atom_site_type_symbol
_atom_site_label
_atom_site_fract_x
_atom_site_fract_y
_atom_site_fract_z
Si Si1 0.280080 0.786089 0.507620
Si Si2 0.100280 0.367985 0.816672
Si Si3 0.333061 0.517964 0.328507
Si Si4 0.657028 0.835968 0.628601
Si Si5 0.936751 0.171156 0.040369
Si Si6 0.733100 0.485082 0.671993
Si Si7 0.470736 0.165501 0.855413
Si Si8 0.303304 0.320437 0.299155
O O1 0.295787 0.686455 0.481816
O O2 0.429305 0.796020 0.672316
O O3 0.404452 0.849142 0.520404
O O4 0.999486 0.808763 0.352266
O O5 0.222876 0.433100 0.832615
O O6 0.965420 0.426076 0.796045
O O7 0.318966 0.577327 0.246474
O O8 0.609941 0.501670 0.518252
O O9 0.202704 0.422538 0.235473
O O10 0.615953 0.828900 0.518191
O O11 0.795234 0.749373 0.742038
O O12 0.085807 0.250527 0.167129
O O13 0.667796 0.165773 0.909757
O O14 0.935276 0.196528 0.954621
O O15 0.060837 0.072796 0.123046
O O16 0.808309 0.576699 0.756286
#
# Coordination Sequence:
#
# PCOD8055529 Si02
#       8
#     4   4   4   4   4   4   4   4
#     4  11  20  41  67  94 127 164 221 267 325 382
#     4  11  21  39  66  96 129 168 216 271 325 394
#     4  10  23  40  64  96 128 172 215 266 337 383
#     4  11  25  43  64  94 127 174 220 270 328 390
#     4  11  24  41  66  96 128 176 213 268 340 388
#     4  11  21  41  62  92 130 168 217 263 329 393
#     4  12  25  44  63  94 133 174 221 269 329 401
#     4  11  21  43  66  98 132 166 221 272 329 397
#
# _framework density 21.103401000000002
#
# number of rings (size 3 to 8) (size 9 to 14) (size 15 to 20)
#    0.000    1.000    3.750    5.250    0.000    2.000 
#    4.500    0.000    0.000    0.000    0.000    0.000 
#    0.000    0.000    0.000    0.000    0.000    0.000 
#
# Total GULP energy -198359.570956 kJ/mol
# GULP energy per Si atom -12397.473185 kJ/mol
# Density = 2.105537 g / cm^3
# Si number density = 21.103401 Si / 1000 Ang^3
#
#
#
# Elastic Constant Matrix: (Units=GPa)
#
#
# Indices 1 2 3 4 5 6 
#
# 1 80.2106 21.8841 11.5718 -0.0101 3.0794 -0.0013
# 2 21.8841 154.4646 61.8198 0.0250 -9.6430 0.0037
# 3 11.5718 61.8198 69.1387 -0.0064 -9.5872 0.0032
# 4 -0.0101 0.0250 -0.0064 41.7288 -0.0066 -5.4352
# 5 3.0794 -9.6430 -9.5872 -0.0066 34.4233 -0.0018
# 6 -0.0013 0.0037 0.0032 -5.4352 -0.0018 31.8224
#
#
#
# Elastic Compliance Matrix: (Units=1/GPa)
#
#
# Indices 1 2 3 4 5 6 
#
# 1 0.013118 -0.001546 -0.001077 0.000004 -0.001907 0.000001
# 2 -0.001546 0.010268 -0.008845 -0.000008 0.000551 -0.000002
# 3 -0.001077 -0.008845 0.023116 0.000009 0.004056 0.000000
# 4 0.000004 -0.000008 0.000009 0.024510 0.000005 0.004186
# 5 -0.001907 0.000551 0.004056 0.000005 0.030505 0.000002
# 6 0.000001 -0.000002 0.000000 0.004186 0.000002 0.032139
#
#
# Mechanical properties :
#
#
# Convention : Reuss Voigt Hill
#
# Bulk Modulus (GPa) = 42.43993 54.92950 48.68471
# Shear Modulus (GPa) = 30.40494 35.49744 32.95119
#
# Velocity S-wave (km/s) = 3.79985 4.10576 3.95576
# Velocity P-wave (km/s) = 6.27742 6.96861 6.63203
#
# Compressibility (1/GPa) = 0.02356272
#
# Stress axis : x y z
#
# Youngs Moduli (GPa) = 76.23294 97.39377 43.26085
#
# Poissons Ratio (x) = 0.15061 0.04660
# Poissons Ratio (y) = 0.11789 0.38266
# Poissons Ratio (z) = 0.08212 0.86149
#
# Static dielectric constant tensor:
#      x y z
#    x 3.707470 -0.000010 0.071850 
#    y -0.000010 4.048620 -0.000060 
#    z 0.071850 -0.000060 3.858200 
# 
# 
# High freq. dielectric constant tensor:
#      x y z
#    x 1.821870 0.000000 0.007760 
#    y 0.000000 1.836170 0.000000 
#    z 0.007760 0.000000 1.821650 
# 
# From -- ./inp_files/7396.got.cif
#   From: 2010.06.25/outbox.cif.g09.slc.cpg/sg9_4_cif.got.tgz:7396.got - 2010.06.27 21:40:51.
