data_PCOD8055987
_publ_section_title
;
Structure prediction by ZEFSAII (Michael W. Deem and Ramdas Pophale) SiO2 
 PCOD8055987
Probable space group: C C
;
_chemical_formula_sum "Si O2"
_cell_formula_units_Z 28
_cell_length_a 26.974704
_cell_length_b 5.100705
_cell_length_c 8.836421
_cell_angle_alpha 90.000000
_cell_angle_beta 108.231162
_cell_angle_gamma 90.000000
_cell_volume 1154.772388
_symmetry_space_group_name_H-M "C C"
_symmetry_group_IT_number 9
_symmetry_cell_setting 'monoclinic'
loop_
_space_group_symop_operation_xyz
x,y,z
x,-y,1/2+z
1/2+x,1/2+y,z
1/2+x,1/2-y,1/2+z
loop_
_atom_site_type_symbol
_atom_site_label
_atom_site_fract_x
_atom_site_fract_y
_atom_site_fract_z
Si Si1 0.755550 0.709728 0.260660
Si Si2 0.035494 0.309255 0.706535
Si Si3 0.669109 0.355963 0.179476
Si Si4 0.074807 0.813463 0.575363
Si Si5 0.376807 0.223606 0.351969
Si Si6 0.415160 0.271096 0.056885
Si Si7 0.194440 0.504808 0.456164
O O1 0.731684 0.413542 0.228217
O O2 0.816779 0.722956 0.343288
O O3 0.726997 0.823028 0.378037
O O4 0.739367 0.851013 0.091992
O O5 0.055855 0.593702 0.673729
O O6 0.973566 0.295395 0.661230
O O7 0.052682 0.097413 0.599564
O O8 0.057406 0.253785 0.891966
O O9 0.637775 0.634247 0.140343
O O10 0.655213 0.164834 0.025209
O O11 0.657358 0.206636 0.326565
O O12 0.380563 0.260441 0.175439
O O13 0.408951 0.445433 0.472906
O O14 0.398549 0.940666 0.416871
#
# Coordination Sequence:
#
# PCOD8055987 Si02
#       7
#     4   4   4   4   4   4   4
#     4  11  25  43  73 106 154 193 252 307 377 460
#     4  12  27  52  79 112 151 200 262 324 379 452
#     4  11  27  45  74 108 155 199 259 309 384 462
#     4  12  30  49  82 112 151 203 259 312 394 453
#     4  12  28  45  81 114 154 204 253 311 395 450
#     4  12  26  50  77 113 153 199 260 322 381 452
#     4  10  25  46  70 101 160 196 249 309 372 445
#
# _framework density 24.247202000000001
#
# number of rings (size 3 to 8) (size 9 to 14) (size 15 to 20)
#    0.000    0.571    0.000    6.000   16.000    0.000 
#    0.000    0.000    0.000    0.000    0.000    0.000 
#    0.000    0.000    0.000    0.000    0.000    0.000 
#
# Total GULP energy -173643.077338 kJ/mol
# GULP energy per Si atom -12403.076953 kJ/mol
# Density = 2.419201 g / cm^3
# Si number density = 24.247202 Si / 1000 Ang^3
#
#
#
# Elastic Constant Matrix: (Units=GPa)
#
#
# Indices 1 2 3 4 5 6 
#
# 1 96.1743 29.8804 32.6548 0.0000 21.1227 0.0000
# 2 29.8804 123.3812 41.7421 0.0000 7.2131 0.0000
# 3 32.6548 41.7421 130.2727 0.0000 -9.9724 0.0000
# 4 0.0000 0.0000 0.0000 15.4512 0.0000 10.3041
# 5 21.1227 7.2131 -9.9724 0.0000 24.2302 0.0000
# 6 0.0000 0.0000 0.0000 10.3041 0.0000 23.1406
#
#
#
# Elastic Compliance Matrix: (Units=1/GPa)
#
#
# Indices 1 2 3 4 5 6 
#
# 1 0.015760 -0.001337 -0.004691 0.000000 -0.015272 0.000000
# 2 -0.001337 0.009602 -0.002965 0.000000 -0.002913 0.000000
# 3 -0.004691 -0.002965 0.010514 0.000000 0.009299 0.000000
# 4 0.000000 0.000000 0.000000 0.092056 0.000000 -0.040991
# 5 -0.015272 -0.002913 0.009299 0.000000 0.059278 0.000000
# 6 0.000000 0.000000 0.000000 -0.040991 0.000000 0.061467
#
#
# Mechanical properties :
#
#
# Convention : Reuss Voigt Hill
#
# Bulk Modulus (GPa) = 55.89489 62.04254 58.96872
# Shear Modulus (GPa) = 18.34015 28.93446 23.63731
#
# Velocity S-wave (km/s) = 2.75322 3.45818 3.12564
# Velocity P-wave (km/s) = 5.76274 6.44891 6.11545
#
# Compressibility (1/GPa) = 0.01789072
#
# Stress axis : x y z
#
# Youngs Moduli (GPa) = 63.45154 104.14501 95.11219
#
# Poissons Ratio (x) = 0.13923 0.44619
# Poissons Ratio (y) = 0.08482 0.28197
# Poissons Ratio (z) = 0.29766 0.30875
#
# Static dielectric constant tensor:
#      x y z
#    x 4.697140 0.000000 0.123650 
#    y 0.000000 4.795640 0.000000 
#    z 0.123650 0.000000 4.598290 
# 
# 
# High freq. dielectric constant tensor:
#      x y z
#    x 1.964180 0.000000 -0.005540 
#    y 0.000000 1.981260 0.000000 
#    z -0.005540 0.000000 1.984490 
# 
# From -- ./inp_files/12315.got.cif
#   From: 2010.06.25/outbox.cif.g09.slc.cpg/sg9_7_cif.got.tgz:12315.got - 2010.06.27 21:40:51.
