data_PCOD8055234
_publ_section_title
;
Structure prediction by ZEFSAII (Michael W. Deem and Ramdas Pophale) SiO2 
 PCOD8055234
Probable space group: C C
;
_chemical_formula_sum "Si O2"
_cell_formula_units_Z 32
_cell_length_a 22.868361
_cell_length_b 6.342817
_cell_length_c 21.728703
_cell_angle_alpha 90.000000
_cell_angle_beta 153.540096
_cell_angle_gamma 90.000000
_cell_volume 1404.327348
_symmetry_space_group_name_H-M "C C"
_symmetry_group_IT_number 9
_symmetry_cell_setting 'monoclinic'
loop_
_space_group_symop_operation_xyz
x,y,z
x,-y,1/2+z
1/2+x,1/2+y,z
1/2+x,1/2-y,1/2+z
loop_
_atom_site_type_symbol
_atom_site_label
_atom_site_fract_x
_atom_site_fract_y
_atom_site_fract_z
Si Si1 0.130440 0.453562 0.931550
Si Si2 0.108037 0.592924 0.275085
Si Si3 0.884416 0.196712 0.390554
Si Si4 0.336832 0.083991 0.967307
Si Si5 0.244796 0.307153 0.310936
Si Si6 0.243721 0.945294 0.694871
Si Si7 0.052336 0.845934 0.939417
Si Si8 0.385732 0.309923 0.235373
O O1 0.148871 0.519397 0.877549
O O2 0.113226 0.658480 0.957517
O O3 0.001874 0.307757 0.809373
O O4 0.256730 0.321945 0.071836
O O5 0.197111 0.805751 0.352712
O O6 0.135829 0.442289 0.243232
O O7 0.948881 0.622934 0.125055
O O8 0.907571 0.315908 0.475344
O O9 0.778423 0.317709 0.248312
O O10 0.017524 0.218622 0.476827
O O11 0.847751 0.957107 0.372610
O O12 0.312343 0.839336 0.926919
O O13 0.180245 0.168777 0.195014
O O14 0.364398 0.808373 0.780935
O O15 0.154473 0.964629 0.549347
O O16 0.927604 0.947229 0.787508
#
# Coordination Sequence:
#
# PCOD8055234 Si02
#       8
#     4   4   4   4   4   4   4   4
#     4  12  28  46  71 102 143 193 240 294 354 425
#     4  11  26  48  69 102 139 187 239 286 351 427
#     4  10  22  40  66 105 140 173 232 290 357 421
#     4  10  25  44  73 101 140 182 233 296 351 420
#     4  10  24  41  70 105 138 182 224 294 359 422
#     4  11  23  41  67 106 139 180 229 293 360 424
#     4  12  25  40  73 103 143 183 237 292 359 430
#     4  12  25  46  69 104 140 188 240 293 361 423
#
# _framework density 22.786711
#
# number of rings (size 3 to 8) (size 9 to 14) (size 15 to 20)
#    0.000    1.000    3.750    1.500    7.000    3.000 
#    0.000    0.000    0.000    0.000    0.000    0.000 
#    0.000    0.000    0.000    0.000    0.000    0.000 
#
# Total GULP energy -198253.810498 kJ/mol
# GULP energy per Si atom -12390.863156 kJ/mol
# Density = 2.273485 g / cm^3
# Si number density = 22.786711 Si / 1000 Ang^3
#
#
#
# Elastic Constant Matrix: (Units=GPa)
#
#
# Indices 1 2 3 4 5 6 
#
# 1 77.0833 27.9610 32.5913 0.0000 -5.8444 0.0001
# 2 27.9610 105.2201 46.9682 -0.0001 4.8879 -0.0001
# 3 32.5913 46.9682 134.4034 0.0000 1.0983 0.0000
# 4 0.0000 -0.0001 0.0000 29.0243 0.0000 -2.3246
# 5 -5.8444 4.8879 1.0983 0.0000 31.8764 0.0000
# 6 0.0001 -0.0001 0.0000 -2.3246 0.0000 33.5727
#
#
#
# Elastic Compliance Matrix: (Units=1/GPa)
#
#
# Indices 1 2 3 4 5 6 
#
# 1 0.015489 -0.003063 -0.002713 0.000000 0.003403 0.000000
# 2 -0.003063 0.011947 -0.003414 0.000000 -0.002276 0.000000
# 3 -0.002713 -0.003414 0.009294 0.000000 -0.000294 0.000000
# 4 0.000000 0.000000 0.000000 0.034646 0.000000 0.002399
# 5 0.003403 -0.002276 -0.000294 0.000000 0.032354 0.000000
# 6 0.000000 0.000000 0.000000 0.002399 0.000000 0.029952
#
#
# Mechanical properties :
#
#
# Convention : Reuss Voigt Hill
#
# Bulk Modulus (GPa) = 54.49580 59.08307 56.78944
# Shear Modulus (GPa) = 31.60960 32.84043 32.22502
#
# Velocity S-wave (km/s) = 3.72855 3.80045 3.76467
# Velocity P-wave (km/s) = 6.51948 6.72628 6.62369
#
# Compressibility (1/GPa) = 0.01835004
#
# Stress axis : x y z
#
# Youngs Moduli (GPa) = 64.56065 83.70019 107.60060
#
# Poissons Ratio (x) = 0.25637 0.29197
# Poissons Ratio (y) = 0.19775 0.36732
# Poissons Ratio (z) = 0.17518 0.28573
#
# Static dielectric constant tensor:
#      x y z
#    x 4.114090 0.000000 -0.014010 
#    y 0.000000 4.149750 0.000000 
#    z -0.014010 0.000000 4.031400 
# 
# 
# High freq. dielectric constant tensor:
#      x y z
#    x 1.902430 0.000000 -0.004040 
#    y 0.000000 1.898050 0.000000 
#    z -0.004040 0.000000 1.893410 
# 
# From -- ./inp_files/21062.got.cif
#   From: 2010.06.25/outbox.cif.g09.slc.cpg/sg9_11_cif.got.tgz:21062.got - 2010.06.27 21:40:51.
