data_PCOD8055189
_publ_section_title
;
Structure prediction by ZEFSAII (Michael W. Deem and Ramdas Pophale) SiO2 
 PCOD8055189
Probable space group: C C
;
_chemical_formula_sum "Si O2"
_cell_formula_units_Z 32
_cell_length_a 10.565084
_cell_length_b 20.491618
_cell_length_c 8.546168
_cell_angle_alpha 90.000000
_cell_angle_beta 48.479347
_cell_angle_gamma 90.000000
_cell_volume 1385.282100
_symmetry_space_group_name_H-M "C C"
_symmetry_group_IT_number 9
_symmetry_cell_setting 'monoclinic'
loop_
_space_group_symop_operation_xyz
x,y,z
x,-y,1/2+z
1/2+x,1/2+y,z
1/2+x,1/2-y,1/2+z
loop_
_atom_site_type_symbol
_atom_site_label
_atom_site_fract_x
_atom_site_fract_y
_atom_site_fract_z
Si Si1 0.034630 0.180820 0.347400
Si Si2 0.913454 0.301519 0.604783
Si Si3 0.997912 0.072296 0.011021
Si Si4 0.397841 0.295453 0.621751
Si Si5 0.520904 0.827689 0.860769
Si Si6 0.009407 0.570670 0.890545
Si Si7 0.626879 0.543684 0.221379
Si Si8 0.127486 0.552060 0.440740
O O1 0.234043 0.193978 0.165065
O O2 0.022570 0.102941 0.391254
O O3 0.975527 0.226751 0.538397
O O4 0.920713 0.198469 0.290367
O O5 0.035328 0.353461 0.415650
O O6 0.919105 0.320124 0.782476
O O7 0.020720 0.148591 0.942105
O O8 0.819205 0.072695 0.249596
O O9 0.133984 0.051567 0.028471
O O10 0.027691 0.023400 0.842717
O O11 0.442097 0.221406 0.550245
O O12 0.216313 0.308250 0.693857
O O13 0.504317 0.902601 0.933821
O O14 0.068196 0.562490 0.665540
O O15 0.125685 0.524222 0.900590
O O16 0.824471 0.545314 0.097739
#
# Coordination Sequence:
#
# PCOD8055189 Si02
#       8
#     4   4   4   4   4   4   4   4
#     4  10  22  40  61  88 121 162 206 252 310 370
#     4  11  23  39  61  92 124 160 206 259 311 366
#     4  10  22  39  60  89 121 158 204 252 306 363
#     4  10  22  40  61  88 121 162 206 252 310 370
#     4  11  23  39  61  92 124 160 206 259 311 366
#     4  11  23  40  62  89 123 166 209 255 308 371
#     4  10  22  39  60  89 121 158 204 252 306 363
#     4  11  23  40  62  89 123 166 209 255 308 371
#
# _framework density 23.099986999999999
#
# number of rings (size 3 to 8) (size 9 to 14) (size 15 to 20)
#    0.000    1.500    0.000    4.500    0.000    9.000 
#    0.000    0.000    0.000    0.000    0.000    0.000 
#    0.000    0.000    0.000    0.000    0.000    0.000 
#
# Total GULP energy -198229.544837 kJ/mol
# GULP energy per Si atom -12389.346552 kJ/mol
# Density = 2.304741 g / cm^3
# Si number density = 23.099987 Si / 1000 Ang^3
#
#
#
# Elastic Constant Matrix: (Units=GPa)
#
#
# Indices 1 2 3 4 5 6 
#
# 1 70.1196 3.5620 0.1949 0.0000 9.9412 0.0000
# 2 3.5620 67.5118 9.0888 0.0000 -6.1331 0.0000
# 3 0.1949 9.0888 60.0489 0.0000 8.3794 0.0000
# 4 0.0000 0.0000 0.0000 43.3835 0.0000 4.8911
# 5 9.9412 -6.1331 8.3794 0.0000 21.7780 0.0000
# 6 0.0000 0.0000 0.0000 4.8911 0.0000 34.1216
#
#
#
# Elastic Compliance Matrix: (Units=1/GPa)
#
#
# Indices 1 2 3 4 5 6 
#
# 1 0.015490 -0.001731 0.001338 0.000000 -0.008073 0.000000
# 2 -0.001731 0.015947 -0.003323 0.000000 0.006560 0.000000
# 3 0.001338 -0.003323 0.018353 0.000000 -0.008608 0.000000
# 4 0.000000 0.000000 0.000000 0.023429 0.000000 -0.003358
# 5 -0.008073 0.006560 -0.008608 0.000000 0.054763 0.000000
# 6 0.000000 0.000000 0.000000 -0.003358 0.000000 0.029788
#
#
# Mechanical properties :
#
#
# Convention : Reuss Voigt Hill
#
# Bulk Modulus (GPa) = 23.60825 24.81907 24.21366
# Shear Modulus (GPa) = 27.88289 32.17893 30.03091
#
# Velocity S-wave (km/s) = 3.47803 3.73638 3.60952
# Velocity P-wave (km/s) = 5.13529 5.42047 5.27981
#
# Compressibility (1/GPa) = 0.04235807
#
# Stress axis : x y z
#
# Youngs Moduli (GPa) = 64.55715 62.70820 54.48694
#
# Poissons Ratio (x) = 0.10854 -0.07292
# Poissons Ratio (y) = 0.11174 0.18108
# Poissons Ratio (z) = -0.08640 0.20841
#
# Static dielectric constant tensor:
#      x y z
#    x 4.154490 0.000000 -0.097490 
#    y 0.000000 4.815200 0.000000 
#    z -0.097490 0.000000 3.646200 
# 
# 
# High freq. dielectric constant tensor:
#      x y z
#    x 1.916770 0.000000 -0.002950 
#    y 0.000000 1.938730 0.000000 
#    z -0.002950 0.000000 1.878210 
# 
# From -- ./inp_files/8371.got.cif
#   From: 2010.06.25/outbox.cif.g09.slc.cpg/sg9_5_cif.got.tgz:8371.got - 2010.06.27 21:40:51.
