data_PCOD8055713
_publ_section_title
;
Structure prediction by ZEFSAII (Michael W. Deem and Ramdas Pophale) SiO2 
 PCOD8055713
Probable space group: C C
;
_chemical_formula_sum "Si O2"
_cell_formula_units_Z 28
_cell_length_a 14.711851
_cell_length_b 9.548040
_cell_length_c 14.644197
_cell_angle_alpha 90.000000
_cell_angle_beta 141.693510
_cell_angle_gamma 90.000000
_cell_volume 1275.105948
_symmetry_space_group_name_H-M "C C"
_symmetry_group_IT_number 9
_symmetry_cell_setting 'monoclinic'
loop_
_space_group_symop_operation_xyz
x,y,z
x,-y,1/2+z
1/2+x,1/2+y,z
1/2+x,1/2-y,1/2+z
loop_
_atom_site_type_symbol
_atom_site_label
_atom_site_fract_x
_atom_site_fract_y
_atom_site_fract_z
Si Si1 0.318970 0.775988 0.801490
Si Si2 0.595417 0.618683 0.974430
Si Si3 0.076760 0.209125 0.247228
Si Si4 0.183795 0.670801 0.192241
Si Si5 0.962692 0.552124 0.545996
Si Si6 0.171232 0.904106 0.336145
Si Si7 0.020054 0.188049 0.407981
O O1 0.425634 0.648832 0.862194
O O2 0.207253 0.805113 0.630801
O O3 0.231603 0.742704 0.826185
O O4 0.420908 0.911234 0.907038
O O5 0.620966 0.668355 0.890635
O O6 0.615108 0.452279 0.998388
O O7 0.957832 0.300363 0.097962
O O8 0.055759 0.248498 0.336226
O O9 0.068081 0.038552 0.228025
O O10 0.161891 0.790451 0.249859
O O11 0.348308 0.658585 0.286501
O O12 0.122629 0.521396 0.180697
O O13 0.074876 0.698864 0.022625
O O14 0.838224 0.450185 0.487468
#
# Coordination Sequence:
#
# PCOD8055713 Si02
#       7
#     4   4   4   4   4   4   4
#     4  11  23  43  73  99 134 178 228 286 329 408
#     4  11  25  44  72 100 137 180 232 276 344 406
#     4  10  23  45  71  98 136 176 233 274 341 404
#     4  12  25  46  66 104 141 180 224 282 348 400
#     4  11  23  44  68  99 139 180 224 282 343 400
#     4  10  25  46  67 101 138 180 224 287 338 402
#     4  11  26  42  71 101 139 182 223 283 339 414
#
# _framework density 21.958957999999999
#
# number of rings (size 3 to 8) (size 9 to 14) (size 15 to 20)
#    0.000    1.143    2.857    2.571    8.000    0.000 
#    0.000    0.000    0.000    0.000    0.000    0.000 
#    0.000    0.000    0.000    0.000    0.000    0.000 
#
# Total GULP energy -173512.843638 kJ/mol
# GULP energy per Si atom -12393.774546 kJ/mol
# Density = 2.190898 g / cm^3
# Si number density = 21.958958 Si / 1000 Ang^3
#
#
#
# Elastic Constant Matrix: (Units=GPa)
#
#
# Indices 1 2 3 4 5 6 
#
# 1 141.2849 37.6993 53.0577 0.0000 -19.5120 0.0000
# 2 37.6993 68.2276 46.5287 0.0000 -11.4820 0.0000
# 3 53.0577 46.5287 126.9499 0.0000 -4.6373 0.0000
# 4 0.0000 0.0000 0.0000 39.0090 0.0000 7.7876
# 5 -19.5120 -11.4820 -4.6373 0.0000 31.5490 0.0000
# 6 0.0000 0.0000 0.0000 7.7876 0.0000 31.9127
#
#
#
# Elastic Compliance Matrix: (Units=1/GPa)
#
#
# Indices 1 2 3 4 5 6 
#
# 1 0.009445 -0.002507 -0.002864 0.000000 0.004508 0.000000
# 2 -0.002507 0.021445 -0.006619 0.000000 0.005281 0.000000
# 3 -0.002864 -0.006619 0.011409 0.000000 -0.002503 0.000000
# 4 0.000000 0.000000 0.000000 0.026948 0.000000 -0.006576
# 5 0.004508 0.005281 -0.002503 0.000000 0.036039 0.000000
# 6 0.000000 0.000000 0.000000 -0.006576 0.000000 0.032940
#
#
# Mechanical properties :
#
#
# Convention : Reuss Voigt Hill
#
# Bulk Modulus (GPa) = 54.59025 67.89264 61.24145
# Shear Modulus (GPa) = 29.70679 33.77258 31.73969
#
# Velocity S-wave (km/s) = 3.68208 3.92597 3.80598
# Velocity P-wave (km/s) = 6.55675 7.17886 6.87485
#
# Compressibility (1/GPa) = 0.01831829
#
# Stress axis : x y z
#
# Youngs Moduli (GPa) = 105.87683 46.63115 87.65318
#
# Poissons Ratio (x) = 0.11691 0.25103
# Poissons Ratio (y) = 0.26544 0.58018
# Poissons Ratio (z) = 0.30322 0.30866
#
# Static dielectric constant tensor:
#      x y z
#    x 4.148750 0.000000 -0.013890 
#    y 0.000000 3.928770 0.000000 
#    z -0.013890 0.000000 3.965030 
# 
# 
# High freq. dielectric constant tensor:
#      x y z
#    x 1.871830 0.000000 0.003150 
#    y 0.000000 1.858760 0.000000 
#    z 0.003150 0.000000 1.861160 
# 
# From -- ./inp_files/9053.got.cif
#   From: 2010.06.25/outbox.cif.g09.slc.cpg/sg9_5_cif.got.tgz:9053.got - 2010.06.27 21:40:51.
