data_PCOD8055173
_publ_section_title
;
Structure prediction by ZEFSAII (Michael W. Deem and Ramdas Pophale) SiO2 
 PCOD8055173
Probable space group: C C
;
_chemical_formula_sum "Si O2"
_cell_formula_units_Z 32
_cell_length_a 8.282275
_cell_length_b 16.653226
_cell_length_c 14.676134
_cell_angle_alpha 90.000000
_cell_angle_beta 129.760851
_cell_angle_gamma 90.000000
_cell_volume 1556.066943
_symmetry_space_group_name_H-M "C C"
_symmetry_group_IT_number 9
_symmetry_cell_setting 'monoclinic'
loop_
_space_group_symop_operation_xyz
x,y,z
x,-y,1/2+z
1/2+x,1/2+y,z
1/2+x,1/2-y,1/2+z
loop_
_atom_site_type_symbol
_atom_site_label
_atom_site_fract_x
_atom_site_fract_y
_atom_site_fract_z
Si Si1 0.986600 0.559697 0.855100
Si Si2 0.889212 0.007962 0.914052
Si Si3 0.281585 0.288353 0.036237
Si Si4 0.462080 0.586392 0.256219
Si Si5 0.056660 0.661481 0.053075
Si Si6 0.758717 0.378132 0.592044
Si Si7 0.514071 0.438144 0.143087
Si Si8 0.894328 0.389576 0.844976
O O1 0.762141 0.577514 0.729151
O O2 0.986052 0.475348 0.911171
O O3 0.162294 0.551649 0.839357
O O4 0.036387 0.631396 0.942610
O O5 0.909592 0.952565 0.833536
O O6 0.056561 0.078702 0.978650
O O7 0.924971 0.946881 0.009551
O O8 0.448447 0.250154 0.022541
O O9 0.213916 0.217841 0.081344
O O10 0.397362 0.357566 0.136788
O O11 0.067983 0.320069 0.911375
O O12 0.300747 0.657311 0.170709
O O13 0.449809 0.514738 0.178626
O O14 0.691360 0.628950 0.334836
O O15 0.940113 0.602671 0.083546
O O16 0.821194 0.407485 0.714562
#
# Coordination Sequence:
#
# PCOD8055173 Si02
#       8
#     4   4   4   4   4   4   4   4
#     4  11  21  41  70  90 133 167 233 268 326 399
#     4  12  22  42  67 101 126 174 227 278 323 401
#     4  10  25  39  66  96 137 173 220 271 354 397
#     4  11  23  40  73  93 133 174 233 271 331 393
#     4  10  22  40  64  98 126 178 209 277 334 406
#     4  10  22  38  64  93 133 167 220 269 337 393
#     4  11  23  43  66  98 126 178 223 273 328 407
#     4  11  20  43  64  95 130 179 217 285 321 404
#
# _framework density 20.564667
#
# number of rings (size 3 to 8) (size 9 to 14) (size 15 to 20)
#    0.750    0.500    5.000    2.250    1.750    0.000 
#    2.250    1.250    0.000    0.000    0.000    0.000 
#    0.000    0.000    0.000    0.000    0.000    0.000 
#
# Total GULP energy -198277.410098 kJ/mol
# GULP energy per Si atom -12392.338131 kJ/mol
# Density = 2.051786 g / cm^3
# Si number density = 20.564667 Si / 1000 Ang^3
#
#
#
# Elastic Constant Matrix: (Units=GPa)
#
#
# Indices 1 2 3 4 5 6 
#
# 1 112.0888 16.8035 40.1557 0.0000 17.5241 0.0000
# 2 16.8035 87.6111 24.0355 0.0000 18.2086 0.0000
# 3 40.1557 24.0355 87.1774 0.0000 12.0141 0.0000
# 4 0.0000 0.0000 0.0000 24.9186 0.0000 9.7585
# 5 17.5241 18.2086 12.0141 0.0000 44.3781 0.0000
# 6 0.0000 0.0000 0.0000 9.7585 0.0000 41.4672
#
#
#
# Elastic Compliance Matrix: (Units=1/GPa)
#
#
# Indices 1 2 3 4 5 6 
#
# 1 0.011087 -0.000227 -0.004626 0.000000 -0.003032 0.000000
# 2 -0.000227 0.013199 -0.002909 0.000000 -0.004538 0.000000
# 3 -0.004626 -0.002909 0.014530 0.000000 -0.000913 0.000000
# 4 0.000000 0.000000 0.000000 0.044205 0.000000 -0.010403
# 5 -0.003032 -0.004538 -0.000913 0.000000 0.025840 0.000000
# 6 0.000000 0.000000 0.000000 -0.010403 0.000000 0.026564
#
#
# Mechanical properties :
#
#
# Convention : Reuss Voigt Hill
#
# Bulk Modulus (GPa) = 42.93538 49.87409 46.40474
# Shear Modulus (GPa) = 31.50345 35.87826 33.69086
#
# Velocity S-wave (km/s) = 3.91822 4.18144 4.05197
# Velocity P-wave (km/s) = 6.43378 6.90055 6.67125
#
# Compressibility (1/GPa) = 0.02329082
#
# Stress axis : x y z
#
# Youngs Moduli (GPa) = 90.19544 75.76369 68.82426
#
# Poissons Ratio (x) = 0.01720 0.31841
# Poissons Ratio (y) = 0.02047 0.20021
# Poissons Ratio (z) = 0.41728 0.22040
#
# Static dielectric constant tensor:
#      x y z
#    x 3.964830 0.000000 0.242160 
#    y 0.000000 3.568780 0.000000 
#    z 0.242160 0.000000 3.572320 
# 
# 
# High freq. dielectric constant tensor:
#      x y z
#    x 1.808780 0.000000 0.023260 
#    y 0.000000 1.790170 0.000000 
#    z 0.023260 0.000000 1.796350 
# 
# From -- ./inp_files/15104.got.cif
#   From: 2010.06.25/outbox.cif.g09.slc.cpg/sg9_8_cif.got.tgz:15104.got - 2010.06.27 21:40:51.
