data_PCOD8055832
_publ_section_title
;
Structure prediction by ZEFSAII (Michael W. Deem and Ramdas Pophale) SiO2 
 PCOD8055832
Probable space group: C C
;
_chemical_formula_sum "Si O2"
_cell_formula_units_Z 32
_cell_length_a 8.972373
_cell_length_b 10.088416
_cell_length_c 15.645561
_cell_angle_alpha 90.000000
_cell_angle_beta 93.652763
_cell_angle_gamma 90.000000
_cell_volume 1413.312721
_symmetry_space_group_name_H-M "C C"
_symmetry_group_IT_number 9
_symmetry_cell_setting 'monoclinic'
loop_
_space_group_symop_operation_xyz
x,y,z
x,-y,1/2+z
1/2+x,1/2+y,z
1/2+x,1/2-y,1/2+z
loop_
_atom_site_type_symbol
_atom_site_label
_atom_site_fract_x
_atom_site_fract_y
_atom_site_fract_z
Si Si1 0.942600 0.627373 0.939330
Si Si2 0.379779 0.262925 0.775014
Si Si3 0.792766 0.131167 0.981754
Si Si4 0.873526 0.052802 0.802729
Si Si5 0.851213 0.153819 0.552220
Si Si6 0.110145 0.135932 0.681051
Si Si7 0.113879 0.344609 0.171357
Si Si8 0.342880 0.918747 0.064143
O O1 0.907303 0.634171 0.836882
O O2 0.877264 0.768650 0.966270
O O3 0.116992 0.611702 0.962144
O O4 0.850543 0.508905 0.979969
O O5 0.365622 0.398373 0.826887
O O6 0.228521 0.245827 0.715744
O O7 0.524482 0.271538 0.717563
O O8 0.869386 0.135975 0.890496
O O9 0.851391 0.005162 0.038311
O O10 0.830768 0.265171 0.033481
O O11 0.733316 0.084133 0.736785
O O12 0.032351 0.071311 0.760970
O O13 0.699265 0.207447 0.590276
O O14 0.981498 0.202774 0.620443
O O15 0.201153 0.039619 0.618369
O O16 0.987262 0.444267 0.129461
#
# Coordination Sequence:
#
# PCOD8055832 Si02
#       8
#     4   4   4   4   4   4   4   4
#     4  12  25  46  69 106 140 185 233 290 349 420
#     4  11  25  46  70 102 143 179 236 289 349 418
#     4  12  25  48  67 107 146 181 236 289 350 422
#     4  11  25  46  72  97 144 187 225 288 359 413
#     4  11  24  44  73  99 139 187 229 281 357 412
#     4  10  26  43  66 107 135 177 232 294 335 419
#     4  10  24  43  68 101 135 184 221 288 351 411
#     4  11  26  44  73 103 144 182 234 291 344 417
#
# _framework density 22.641839999999998
#
# number of rings (size 3 to 8) (size 9 to 14) (size 15 to 20)
#    0.000    1.000    5.000    0.000   10.500    4.000 
#    0.000    0.000    0.000    0.000    0.000    0.000 
#    0.000    0.000    0.000    0.000    0.000    0.000 
#
# Total GULP energy -198274.130282 kJ/mol
# GULP energy per Si atom -12392.133143 kJ/mol
# Density = 2.259031 g / cm^3
# Si number density = 22.641840 Si / 1000 Ang^3
#
#
#
# Elastic Constant Matrix: (Units=GPa)
#
#
# Indices 1 2 3 4 5 6 
#
# 1 143.9915 26.7780 47.5603 0.0000 -22.2695 0.0000
# 2 26.7780 93.4512 28.0327 0.0000 -5.8689 0.0000
# 3 47.5603 28.0327 115.2327 0.0000 -20.8138 0.0000
# 4 0.0000 0.0000 0.0000 27.8632 0.0000 -6.2162
# 5 -22.2695 -5.8689 -20.8138 0.0000 41.3134 0.0000
# 6 0.0000 0.0000 0.0000 -6.2162 0.0000 16.7253
#
#
#
# Elastic Compliance Matrix: (Units=1/GPa)
#
#
# Indices 1 2 3 4 5 6 
#
# 1 0.008561 -0.001474 -0.002617 0.000000 0.003087 0.000000
# 2 -0.001474 0.011799 -0.002313 0.000000 -0.000284 0.000000
# 3 -0.002617 -0.002313 0.011009 0.000000 0.003807 0.000000
# 4 0.000000 0.000000 0.000000 0.039135 0.000000 0.014545
# 5 0.003087 -0.000284 0.003807 0.000000 0.027747 0.000000
# 6 0.000000 0.000000 0.000000 0.014545 0.000000 0.065195
#
#
# Mechanical properties :
#
#
# Convention : Reuss Voigt Hill
#
# Bulk Modulus (GPa) = 53.88063 61.93528 57.90796
# Shear Modulus (GPa) = 27.40611 33.86733 30.63672
#
# Velocity S-wave (km/s) = 3.48288 3.87173 3.68244
# Velocity P-wave (km/s) = 6.32634 6.88483 6.61148
#
# Compressibility (1/GPa) = 0.01855954
#
# Stress axis : x y z
#
# Youngs Moduli (GPa) = 116.81100 84.75107 90.83773
#
# Poissons Ratio (x) = 0.12493 0.23774
# Poissons Ratio (y) = 0.17220 0.21013
# Poissons Ratio (z) = 0.30572 0.19605
#
# Static dielectric constant tensor:
#      x y z
#    x 4.352670 0.000000 -0.307060 
#    y 0.000000 3.577860 0.000000 
#    z -0.307060 0.000000 4.249860 
# 
# 
# High freq. dielectric constant tensor:
#      x y z
#    x 1.908460 0.000000 -0.012550 
#    y 0.000000 1.856910 0.000000 
#    z -0.012550 0.000000 1.913500 
# 
# From -- ./inp_files/22908.got.cif
#   From: 2010.06.25/outbox.cif.g09.slc.cpg/sg9_12_cif.got.tgz:22908.got - 2010.06.27 21:40:51.
