data_PCOD8055013
_publ_section_title
;
Structure prediction by ZEFSAII (Michael W. Deem and Ramdas Pophale) SiO2 
 PCOD8055013
Probable space group: C C
;
_chemical_formula_sum "Si O2"
_cell_formula_units_Z 24
_cell_length_a 14.964867
_cell_length_b 17.230580
_cell_length_c 8.734790
_cell_angle_alpha 90.000000
_cell_angle_beta 148.891656
_cell_angle_gamma 90.000000
_cell_volume 1163.666154
_symmetry_space_group_name_H-M "C C"
_symmetry_group_IT_number 9
_symmetry_cell_setting 'monoclinic'
loop_
_space_group_symop_operation_xyz
x,y,z
x,-y,1/2+z
1/2+x,1/2+y,z
1/2+x,1/2-y,1/2+z
loop_
_atom_site_type_symbol
_atom_site_label
_atom_site_fract_x
_atom_site_fract_y
_atom_site_fract_z
Si Si1 0.553370 0.187752 0.906900
Si Si2 0.378536 0.585795 0.924259
Si Si3 0.026851 0.793300 0.138161
Si Si4 0.855973 0.226235 0.694571
Si Si5 0.824514 0.077715 0.194134
Si Si6 0.166651 0.197658 0.334554
O O1 0.359328 0.187593 0.549301
O O2 0.674378 0.251962 0.001504
O O3 0.531213 0.211166 0.052363
O O4 0.647074 0.105228 0.017623
O O5 0.281459 0.651963 0.681094
O O6 0.374006 0.506496 0.825186
O O7 0.293012 0.577150 0.965575
O O8 0.579925 0.613205 0.236689
O O9 0.217501 0.797231 0.498445
O O10 0.877796 0.795625 0.047390
O O11 0.986923 0.865503 0.968336
O O12 0.045921 0.248143 0.040302
#
# Coordination Sequence:
#
# PCOD8055013 Si02
#       6
#     4   4   4   4   4   4
#     4  12  21  40  70  97 128 177 225 274 325 396
#     4  10  25  45  64  93 137 182 212 279 342 390
#     4  12  20  38  65 101 123 166 221 269 320 396
#     4  10  23  38  65  97 128 164 216 269 328 387
#     4  12  24  43  68  95 138 179 220 277 339 391
#     4  10  21  42  64  97 128 176 220 272 334 386
#
# _framework density 20.624471
#
# number of rings (size 3 to 8) (size 9 to 14) (size 15 to 20)
#    1.000    0.000    5.000    2.000    2.333    0.000 
#    0.000    3.333    0.000    0.000    0.000    0.000 
#    0.000    0.000    0.000    0.000    0.000    0.000 
#
# Total GULP energy -148693.120002 kJ/mol
# GULP energy per Si atom -12391.093333 kJ/mol
# Density = 2.057753 g / cm^3
# Si number density = 20.624471 Si / 1000 Ang^3
#
#
#
# Elastic Constant Matrix: (Units=GPa)
#
#
# Indices 1 2 3 4 5 6 
#
# 1 114.6980 35.0101 26.1153 0.0000 -14.8038 0.0000
# 2 35.0101 84.2215 30.0635 0.0000 -1.7339 0.0000
# 3 26.1153 30.0635 87.9127 0.0000 12.5002 0.0000
# 4 0.0000 0.0000 0.0000 29.0860 0.0000 -6.2457
# 5 -14.8038 -1.7339 12.5002 0.0000 42.8608 0.0000
# 6 0.0000 0.0000 0.0000 -6.2457 0.0000 33.6489
#
#
#
# Elastic Compliance Matrix: (Units=1/GPa)
#
#
# Indices 1 2 3 4 5 6 
#
# 1 0.010975 -0.003511 -0.002690 0.000000 0.004433 0.000000
# 2 -0.003511 0.014810 -0.004105 0.000000 0.000584 0.000000
# 3 -0.002690 -0.004105 0.014328 0.000000 -0.005274 0.000000
# 4 0.000000 0.000000 0.000000 0.035808 0.000000 0.006646
# 5 0.004433 0.000584 -0.005274 0.000000 0.026424 0.000000
# 6 0.000000 0.000000 0.000000 0.006646 0.000000 0.030952
#
#
# Mechanical properties :
#
#
# Convention : Reuss Voigt Hill
#
# Bulk Modulus (GPa) = 51.27754 52.13444 51.70599
# Shear Modulus (GPa) = 31.17049 34.16201 32.66625
#
# Velocity S-wave (km/s) = 3.89181 4.07428 3.98409
# Velocity P-wave (km/s) = 6.71650 6.88955 6.80357
#
# Compressibility (1/GPa) = 0.01950172
#
# Stress axis : x y z
#
# Youngs Moduli (GPa) = 91.11806 67.52184 69.79561
#
# Poissons Ratio (x) = 0.23705 0.18775
# Poissons Ratio (y) = 0.31988 0.28649
# Poissons Ratio (z) = 0.24510 0.27716
#
# Static dielectric constant tensor:
#      x y z
#    x 3.771770 0.000000 -0.058220 
#    y 0.000000 3.326550 0.000000 
#    z -0.058220 0.000000 3.866530 
# 
# 
# High freq. dielectric constant tensor:
#      x y z
#    x 1.819920 0.000000 -0.011860 
#    y 0.000000 1.758290 0.000000 
#    z -0.011860 0.000000 1.816520 
# 
# From -- ./inp_files/5534.got.cif
#   From: 2010.06.25/outbox.cif.g09.slc.cpg/sg9_3_cif.got.tgz:5534.got - 2010.06.27 21:40:51.
