data_PCOD8055908
_publ_section_title
;
Structure prediction by ZEFSAII (Michael W. Deem and Ramdas Pophale) SiO2 
 PCOD8055908
Probable space group: C C
;
_chemical_formula_sum "Si O2"
_cell_formula_units_Z 32
_cell_length_a 8.785790
_cell_length_b 15.453817
_cell_length_c 13.097125
_cell_angle_alpha 90.000000
_cell_angle_beta 46.238727
_cell_angle_gamma 90.000000
_cell_volume 1284.300977
_symmetry_space_group_name_H-M "C C"
_symmetry_group_IT_number 9
_symmetry_cell_setting 'monoclinic'
loop_
_space_group_symop_operation_xyz
x,y,z
x,-y,1/2+z
1/2+x,1/2+y,z
1/2+x,1/2-y,1/2+z
loop_
_atom_site_type_symbol
_atom_site_label
_atom_site_fract_x
_atom_site_fract_y
_atom_site_fract_z
Si Si1 0.763770 0.217317 0.408100
Si Si2 0.395101 0.167724 0.440307
Si Si3 0.914192 0.986117 0.433436
Si Si4 0.227595 0.407318 0.170895
Si Si5 0.595055 0.831008 0.620153
Si Si6 0.580671 0.512865 0.632537
Si Si7 0.763967 0.593691 0.898155
Si Si8 0.721110 0.282606 0.658137
O O1 0.578117 0.161720 0.442702
O O2 0.754873 0.310860 0.353761
O O3 0.739767 0.249774 0.534285
O O4 0.992639 0.173510 0.284079
O O5 0.497715 0.172724 0.279581
O O6 0.243928 0.249032 0.530723
O O7 0.253806 0.083481 0.520556
O O8 0.737077 0.914665 0.535999
O O9 0.017086 0.985803 0.277248
O O10 0.115558 0.973256 0.410590
O O11 0.811234 0.079803 0.513223
O O12 0.362316 0.472179 0.176041
O O13 0.233020 0.310314 0.212420
O O14 0.994895 0.445676 0.283185
O O15 0.409794 0.837641 0.620389
O O16 0.682184 0.417885 0.555562
#
# Coordination Sequence:
#
# PCOD8055908 Si02
#       8
#     4   4   4   4   4   4   4   4
#     4  11  25  43  68 102 142 180 226 289 351 412
#     4  12  24  43  72 105 139 184 233 287 349 420
#     4  11  25  45  73 101 137 186 234 286 347 416
#     4  10  24  46  67 100 142 177 236 288 341 414
#     4  12  24  43  72 105 139 184 233 287 349 420
#     4  11  25  45  73 101 137 186 234 286 347 416
#     4  10  24  46  67 100 142 177 236 288 341 414
#     4  11  25  43  68 102 142 180 226 289 351 412
#
# _framework density 24.916277999999998
#
# number of rings (size 3 to 8) (size 9 to 14) (size 15 to 20)
#    0.000    1.000    2.500    3.000    7.000    2.000 
#    4.500    0.000    0.000    0.000    0.000    0.000 
#    0.000    0.000    0.000    0.000    0.000    0.000 
#
# Total GULP energy -198284.511598 kJ/mol
# GULP energy per Si atom -12392.781975 kJ/mol
# Density = 2.485957 g / cm^3
# Si number density = 24.916278 Si / 1000 Ang^3
#
#
#
# Elastic Constant Matrix: (Units=GPa)
#
#
# Indices 1 2 3 4 5 6 
#
# 1 147.1415 -13.3336 47.3429 -0.0001 -28.3169 0.0001
# 2 -13.3336 52.3605 9.9693 0.0000 -19.0299 0.0000
# 3 47.3429 9.9693 151.0119 -0.0007 -5.9324 0.0004
# 4 -0.0001 0.0000 -0.0007 7.9010 0.0002 8.2178
# 5 -28.3169 -19.0299 -5.9324 0.0002 59.7552 0.0000
# 6 0.0001 0.0000 0.0004 8.2178 0.0000 11.0949
#
#
#
# Elastic Compliance Matrix: (Units=1/GPa)
#
#
# Indices 1 2 3 4 5 6 
#
# 1 0.009329 0.005033 -0.003032 -0.000002 0.005723 0.000001
# 2 0.005033 0.024518 -0.002807 -0.000002 0.009914 0.000002
# 3 -0.003032 -0.002807 0.007696 0.000004 -0.001567 -0.000003
# 4 -0.000002 -0.000002 0.000004 0.551200 -0.000003 -0.408265
# 5 0.005723 0.009914 -0.001567 -0.000003 0.022449 0.000002
# 6 0.000001 0.000002 -0.000003 -0.408265 0.000002 0.392526
#
#
# Mechanical properties :
#
#
# Convention : Reuss Voigt Hill
#
# Bulk Modulus (GPa) = 25.04342 48.71903 36.88122
# Shear Modulus (GPa) = 4.88930 36.18592 20.53761
#
# Velocity S-wave (km/s) = 1.40234 3.81504 2.87412
# Velocity P-wave (km/s) = 3.56299 6.24512 5.08412
#
# Compressibility (1/GPa) = 0.03993065
#
# Stress axis : x y z
#
# Youngs Moduli (GPa) = 107.19083 40.78695 129.93174
#
# Poissons Ratio (x) = -0.20527 0.39398
# Poissons Ratio (y) = -0.53947 0.36471
# Poissons Ratio (z) = 0.32502 0.11449
#
# Static dielectric constant tensor:
#      x y z
#    x 5.630960 0.000000 0.767390 
#    y 0.000000 5.007640 0.000000 
#    z 0.767390 0.000000 5.568190 
# 
# 
# High freq. dielectric constant tensor:
#      x y z
#    x 1.997280 0.000000 -0.006880 
#    y 0.000000 2.005860 0.000000 
#    z -0.006880 0.000000 2.018680 
# 
# From -- ./inp_files/23661.got.cif
#   From: 2010.06.25/outbox.cif.g09.slc.cpg/sg9_12_cif.got.tgz:23661.got - 2010.06.27 21:40:51.
