data_PCOD8055445
_publ_section_title
;
Structure prediction by ZEFSAII (Michael W. Deem and Ramdas Pophale) SiO2 
 PCOD8055445
Probable space group: C C
;
_chemical_formula_sum "Si O2"
_cell_formula_units_Z 32
_cell_length_a 13.515696
_cell_length_b 12.242522
_cell_length_c 9.487949
_cell_angle_alpha 90.000000
_cell_angle_beta 110.838755
_cell_angle_gamma 90.000000
_cell_volume 1467.238047
_symmetry_space_group_name_H-M "C C"
_symmetry_group_IT_number 9
_symmetry_cell_setting 'monoclinic'
loop_
_space_group_symop_operation_xyz
x,y,z
x,-y,1/2+z
1/2+x,1/2+y,z
1/2+x,1/2-y,1/2+z
loop_
_atom_site_type_symbol
_atom_site_label
_atom_site_fract_x
_atom_site_fract_y
_atom_site_fract_z
Si Si1 0.360900 0.983233 0.288650
Si Si2 0.717991 0.957254 0.717707
Si Si3 0.514084 0.698036 0.170991
Si Si4 0.536979 0.390542 0.985597
Si Si5 0.202265 0.794480 0.276554
Si Si6 0.673208 0.404274 0.552652
Si Si7 0.350987 0.471712 0.517891
Si Si8 0.997020 0.555499 0.606779
O O1 0.300788 0.868243 0.276845
O O2 0.467212 0.969620 0.252558
O O3 0.289673 0.068168 0.166378
O O4 0.396118 0.029875 0.457193
O O5 0.731357 0.830718 0.765734
O O6 0.805057 0.994552 0.648677
O O7 0.598308 0.984217 0.611598
O O8 0.748490 0.033160 0.865739
O O9 0.510702 0.686893 0.339015
O O10 0.617083 0.638067 0.164653
O O11 0.409651 0.644449 0.049288
O O12 0.523354 0.817938 0.113906
O O13 0.598255 0.320922 0.133466
O O14 0.609263 0.489793 0.963894
O O15 0.429623 0.432215 0.005875
O O16 0.178164 0.816387 0.429126
#
# Coordination Sequence:
#
# PCOD8055445 Si02
#       8
#     4   4   4   4   4   4   4   4
#     4  11  24  48  69  98 138 183 229 281 337 420
#     4  12  28  45  68 101 144 179 231 288 345 409
#     4  11  25  44  72 102 134 181 224 289 346 404
#     4  10  22  44  76 102 132 176 239 285 339 410
#     4  11  25  44  73 102 134 184 227 282 350 408
#     4  10  22  44  73 103 135 172 238 284 336 411
#     4  11  24  48  68  99 135 183 232 280 342 414
#     4  12  28  45  67 101 144 178 230 283 349 406
#
# _framework density 21.809684000000001
#
# number of rings (size 3 to 8) (size 9 to 14) (size 15 to 20)
#    0.000    1.000    2.500    3.750   10.500    1.000 
#    0.000    0.000    0.000    0.000    0.000    0.000 
#    0.000    0.000    0.000    0.000    0.000    0.000 
#
# Total GULP energy -198423.412397 kJ/mol
# GULP energy per Si atom -12401.463275 kJ/mol
# Density = 2.176004 g / cm^3
# Si number density = 21.809684 Si / 1000 Ang^3
#
#
#
# Elastic Constant Matrix: (Units=GPa)
#
#
# Indices 1 2 3 4 5 6 
#
# 1 109.4264 34.5861 38.2065 0.0000 -5.2847 0.0000
# 2 34.5861 96.2613 55.4460 0.0000 5.1727 0.0000
# 3 38.2065 55.4460 131.4474 0.0000 2.8758 0.0000
# 4 0.0000 0.0000 0.0000 21.0655 0.0000 1.6653
# 5 -5.2847 5.1727 2.8758 0.0000 42.7004 0.0000
# 6 0.0000 0.0000 0.0000 1.6653 0.0000 19.7010
#
#
#
# Elastic Compliance Matrix: (Units=1/GPa)
#
#
# Indices 1 2 3 4 5 6 
#
# 1 0.010817 -0.002840 -0.001986 0.000000 0.001817 0.000000
# 2 -0.002840 0.014538 -0.005268 0.000000 -0.001758 0.000000
# 3 -0.001986 -0.005268 0.010414 0.000000 -0.000309 0.000000
# 4 0.000000 0.000000 0.000000 0.047790 0.000000 -0.004040
# 5 0.001817 -0.001758 -0.000309 0.000000 0.023878 0.000000
# 6 0.000000 0.000000 0.000000 -0.004040 0.000000 0.051100
#
#
# Mechanical properties :
#
#
# Convention : Reuss Voigt Hill
#
# Bulk Modulus (GPa) = 64.18415 65.95691 65.07053
# Shear Modulus (GPa) = 27.18584 30.61982 28.90283
#
# Velocity S-wave (km/s) = 3.53442 3.75100 3.64432
# Velocity P-wave (km/s) = 6.79332 7.00484 6.89989
#
# Compressibility (1/GPa) = 0.01558017
#
# Stress axis : x y z
#
# Youngs Moduli (GPa) = 92.44348 68.78605 96.02707
#
# Poissons Ratio (x) = 0.19538 0.19069
# Poissons Ratio (y) = 0.26258 0.50589
# Poissons Ratio (z) = 0.18358 0.36238
#
# Static dielectric constant tensor:
#      x y z
#    x 3.970600 0.000000 -0.002540 
#    y 0.000000 3.726860 0.000000 
#    z -0.002540 0.000000 3.966470 
# 
# 
# High freq. dielectric constant tensor:
#      x y z
#    x 1.871000 0.000000 -0.002100 
#    y 0.000000 1.841960 0.000000 
#    z -0.002100 0.000000 1.867870 
# 
# From -- ./inp_files/9245.got.cif
#   From: 2010.06.25/outbox.cif.g09.slc.cpg/sg9_5_cif.got.tgz:9245.got - 2010.06.27 21:40:51.
