data_PCOD8055298
_publ_section_title
;
Structure prediction by ZEFSAII (Michael W. Deem and Ramdas Pophale) SiO2 
 PCOD8055298
Probable space group: C C
;
_chemical_formula_sum "Si O2"
_cell_formula_units_Z 32
_cell_length_a 5.618190
_cell_length_b 27.991019
_cell_length_c 9.526770
_cell_angle_alpha 90.000000
_cell_angle_beta 113.947730
_cell_angle_gamma 90.000000
_cell_volume 1369.200841
_symmetry_space_group_name_H-M "C C"
_symmetry_group_IT_number 9
_symmetry_cell_setting 'monoclinic'
loop_
_space_group_symop_operation_xyz
x,y,z
x,-y,1/2+z
1/2+x,1/2+y,z
1/2+x,1/2-y,1/2+z
loop_
_atom_site_type_symbol
_atom_site_label
_atom_site_fract_x
_atom_site_fract_y
_atom_site_fract_z
Si Si1 0.342510 0.879319 0.741730
Si Si2 0.223800 0.183514 0.455651
Si Si3 0.071752 0.911345 0.028645
Si Si4 0.718922 0.045340 0.238544
Si Si5 0.968177 0.686798 0.025513
Si Si6 0.685509 0.065554 0.695581
Si Si7 0.302361 0.394954 0.513966
Si Si8 0.335636 0.759100 0.239464
O O1 0.406148 0.844982 0.889149
O O2 0.536342 0.923843 0.800617
O O3 0.330311 0.850439 0.592713
O O4 0.054736 0.899880 0.673326
O O5 0.024442 0.144827 0.478316
O O6 0.400862 0.208559 0.617758
O O7 0.070717 0.223480 0.330312
O O8 0.387619 0.915333 0.120257
O O9 0.888142 0.924930 0.116990
O O10 0.001018 0.945486 0.879367
O O11 0.642460 0.065413 0.065049
O O12 0.656605 0.990095 0.220830
O O13 0.198076 0.659111 0.998336
O O14 0.074645 0.730149 0.144551
O O15 0.775627 0.707394 0.859981
O O16 0.830928 0.090524 0.860403
#
# Coordination Sequence:
#
# PCOD8055298 Si02
#       8
#     4   4   4   4   4   4   4   4
#     4  11  23  43  75  99 144 197 241 303 384 442
#     4  11  22  44  70 103 146 193 246 308 377 437
#     4  12  27  50  72 110 152 197 245 314 374 441
#     4  11  26  46  74 103 146 192 246 304 370 446
#     4  10  22  42  64  98 137 186 236 303 368 432
#     4  12  30  44  77 111 147 194 255 303 364 451
#     4  11  24  46  69  99 144 190 234 303 370 441
#     4  10  22  41  67  99 144 181 253 308 361 456
#
# _framework density 23.371299
#
# number of rings (size 3 to 8) (size 9 to 14) (size 15 to 20)
#    0.000    1.000    2.500    3.000    8.750    1.000 
#    0.000    1.250    0.000    0.000    0.000    0.000 
#    0.000    0.000    0.000    0.000    0.000    0.000 
#
# Total GULP energy -198213.392009 kJ/mol
# GULP energy per Si atom -12388.337001 kJ/mol
# Density = 2.331810 g / cm^3
# Si number density = 23.371299 Si / 1000 Ang^3
#
#
#
# Elastic Constant Matrix: (Units=GPa)
#
#
# Indices 1 2 3 4 5 6 
#
# 1 84.2631 33.3400 39.8049 0.0000 -17.2342 0.0000
# 2 33.3400 138.7176 61.0431 0.0000 -14.9527 0.0000
# 3 39.8049 61.0431 153.8131 0.0000 -15.3276 0.0000
# 4 0.0000 0.0000 0.0000 40.2570 0.0000 1.5060
# 5 -17.2342 -14.9527 -15.3276 0.0000 34.6441 0.0000
# 6 0.0000 0.0000 0.0000 1.5060 0.0000 7.5226
#
#
#
# Elastic Compliance Matrix: (Units=1/GPa)
#
#
# Indices 1 2 3 4 5 6 
#
# 1 0.014947 -0.001865 -0.002581 0.000000 0.005489 0.000000
# 2 -0.001865 0.009152 -0.002980 0.000000 0.001704 0.000000
# 3 -0.002581 -0.002980 0.008469 0.000000 0.001177 0.000000
# 4 0.000000 0.000000 0.000000 0.025028 0.000000 -0.005011
# 5 0.005489 0.001704 0.001177 0.000000 0.032852 0.000000
# 6 0.000000 0.000000 0.000000 -0.005011 0.000000 0.133936
#
#
# Mechanical properties :
#
#
# Convention : Reuss Voigt Hill
#
# Bulk Modulus (GPa) = 56.44281 71.68553 64.06417
# Shear Modulus (GPa) = 20.39638 32.65845 26.52741
#
# Velocity S-wave (km/s) = 2.95737 3.74220 3.37269
# Velocity P-wave (km/s) = 5.98868 7.02931 6.52976
#
# Compressibility (1/GPa) = 0.01771705
#
# Stress axis : x y z
#
# Youngs Moduli (GPa) = 66.90114 109.26523 118.07557
#
# Poissons Ratio (x) = 0.20379 0.30476
# Poissons Ratio (y) = 0.12478 0.35183
# Poissons Ratio (z) = 0.17267 0.32557
#
# Static dielectric constant tensor:
#      x y z
#    x 3.954150 0.000000 -0.090850 
#    y 0.000000 4.345020 0.000000 
#    z -0.090850 0.000000 4.486440 
# 
# 
# High freq. dielectric constant tensor:
#      x y z
#    x 1.894760 0.000000 -0.008660 
#    y 0.000000 1.937070 0.000000 
#    z -0.008660 0.000000 1.949570 
# 
# From -- ./inp_files/4306.got.cif
#   From: 2010.06.25/outbox.cif.g09.slc.cpg/sg9_3_cif.got.tgz:4306.got - 2010.06.27 21:40:51.
