data_PCOD8055372
_publ_section_title
;
Structure prediction by ZEFSAII (Michael W. Deem and Ramdas Pophale) SiO2 
 PCOD8055372
Probable space group: C C
;
_chemical_formula_sum "Si O2"
_cell_formula_units_Z 32
_cell_length_a 13.086711
_cell_length_b 5.349094
_cell_length_c 21.029141
_cell_angle_alpha 90.000000
_cell_angle_beta 80.134267
_cell_angle_gamma 90.000000
_cell_volume 1450.313725
_symmetry_space_group_name_H-M "C C"
_symmetry_group_IT_number 9
_symmetry_cell_setting 'monoclinic'
loop_
_space_group_symop_operation_xyz
x,y,z
x,-y,1/2+z
1/2+x,1/2+y,z
1/2+x,1/2-y,1/2+z
loop_
_atom_site_type_symbol
_atom_site_label
_atom_site_fract_x
_atom_site_fract_y
_atom_site_fract_z
Si Si1 0.071520 0.088729 0.529190
Si Si2 0.966302 0.155235 0.148785
Si Si3 0.049719 0.791175 0.777353
Si Si4 0.900723 0.659644 0.110083
Si Si5 0.344986 0.333751 0.871207
Si Si6 0.967055 0.805547 0.434922
Si Si7 0.132126 0.687138 0.324189
Si Si8 0.800994 0.476876 0.501062
O O1 0.194102 0.131209 0.510617
O O2 0.014114 0.334233 0.562626
O O3 0.046095 0.859654 0.580623
O O4 0.023939 0.034115 0.464458
O O5 0.032251 0.152017 0.205711
O O6 0.895937 0.405995 0.151946
O O7 0.890905 0.908470 0.155350
O O8 0.942446 0.717453 0.823711
O O9 0.117872 0.538607 0.775512
O O10 0.107871 0.034961 0.799940
O O11 0.809760 0.675925 0.066432
O O12 0.384342 0.605637 0.890045
O O13 0.250576 0.341055 0.832654
O O14 0.309348 0.186708 0.937322
O O15 0.899676 0.660239 0.494250
O O16 0.056018 0.637318 0.392501
#
# Coordination Sequence:
#
# PCOD8055372 Si02
#       8
#     4   4   4   4   4   4   4   4
#     4  10  23  39  63  96 128 168 206 266 323 383
#     4  10  22  47  64  88 134 169 212 273 311 370
#     4  11  25  46  65  92 132 169 220 267 311 381
#     4  10  22  43  64  96 125 167 212 266 319 378
#     4  11  24  39  67  97 127 172 208 266 326 382
#     4  11  22  39  63  97 132 162 210 267 323 386
#     4  11  25  42  66  96 128 170 215 264 321 378
#     4  12  21  39  66  96 130 165 211 261 334 382
#
# _framework density 22.064191000000001
#
# number of rings (size 3 to 8) (size 9 to 14) (size 15 to 20)
#    0.750    0.500    5.000    0.750    1.750    2.000 
#    4.500    0.000    0.000    0.000    0.000    0.000 
#    0.000    0.000    0.000    0.000    0.000    0.000 
#
# Total GULP energy -198262.473540 kJ/mol
# GULP energy per Si atom -12391.404596 kJ/mol
# Density = 2.201397 g / cm^3
# Si number density = 22.064191 Si / 1000 Ang^3
#
#
#
# Elastic Constant Matrix: (Units=GPa)
#
#
# Indices 1 2 3 4 5 6 
#
# 1 100.5513 34.0674 20.9368 0.0000 32.8865 0.0000
# 2 34.0674 119.2659 19.9669 0.0000 19.3803 0.0000
# 3 20.9368 19.9669 78.2249 0.0000 33.0378 0.0000
# 4 0.0000 0.0000 0.0000 30.4113 0.0000 8.2509
# 5 32.8865 19.3803 33.0378 0.0000 32.7074 0.0000
# 6 0.0000 0.0000 0.0000 8.2509 0.0000 25.1356
#
#
#
# Elastic Compliance Matrix: (Units=1/GPa)
#
#
# Indices 1 2 3 4 5 6 
#
# 1 0.016098 -0.002194 0.004427 0.000000 -0.019358 0.000000
# 2 -0.002194 0.009577 -0.000684 0.000000 -0.002778 0.000000
# 3 0.004427 -0.000684 0.023513 0.000000 -0.027796 0.000000
# 4 0.000000 0.000000 0.000000 0.036097 0.000000 -0.011849
# 5 -0.019358 -0.002778 -0.027796 0.000000 0.079761 0.000000
# 6 0.000000 0.000000 0.000000 -0.011849 0.000000 0.043674
#
#
# Mechanical properties :
#
#
# Convention : Reuss Voigt Hill
#
# Bulk Modulus (GPa) = 19.12549 49.77605 34.45077
# Shear Modulus (GPa) = 22.41641 32.52225 27.46933
#
# Velocity S-wave (km/s) = 3.19088 3.84341 3.53225
# Velocity P-wave (km/s) = 4.71832 6.50418 5.68185
#
# Compressibility (1/GPa) = 0.05228625
#
# Stress axis : x y z
#
# Youngs Moduli (GPa) = 62.12015 104.41441 42.52965
#
# Poissons Ratio (x) = 0.22906 -0.18828
# Poissons Ratio (y) = 0.13628 0.02910
# Poissons Ratio (z) = -0.27501 0.07144
#
# Static dielectric constant tensor:
#      x y z
#    x 3.843590 0.000000 0.067760 
#    y 0.000000 3.868890 0.000000 
#    z 0.067760 0.000000 3.856440 
# 
# 
# High freq. dielectric constant tensor:
#      x y z
#    x 1.856210 0.000000 0.018850 
#    y 0.000000 1.859490 0.000000 
#    z 0.018850 0.000000 1.863630 
# 
# From -- ./inp_files/35118.got.cif
#   From: 2010.06.25/outbox.cif.g09.slc.cpg/sg9_18_cif.got.tgz:35118.got - 2010.06.27 21:40:51.
