data_PCOD8055045
_publ_section_title
;
Structure prediction by ZEFSAII (Michael W. Deem and Ramdas Pophale) SiO2 
 PCOD8055045
Probable space group: C C
;
_chemical_formula_sum "Si O2"
_cell_formula_units_Z 32
_cell_length_a 15.671640
_cell_length_b 14.023460
_cell_length_c 11.643797
_cell_angle_alpha 90.000000
_cell_angle_beta 144.501777
_cell_angle_gamma 90.000000
_cell_volume 1485.933605
_symmetry_space_group_name_H-M "C C"
_symmetry_group_IT_number 9
_symmetry_cell_setting 'monoclinic'
loop_
_space_group_symop_operation_xyz
x,y,z
x,-y,1/2+z
1/2+x,1/2+y,z
1/2+x,1/2-y,1/2+z
loop_
_atom_site_type_symbol
_atom_site_label
_atom_site_fract_x
_atom_site_fract_y
_atom_site_fract_z
Si Si1 0.315630 0.433427 0.958210
Si Si2 0.343782 0.068878 0.251958
Si Si3 0.298097 0.646408 0.966233
Si Si4 0.398267 0.145145 0.871154
Si Si5 0.046950 0.833304 0.375664
Si Si6 0.529195 0.138469 0.248668
Si Si7 0.995460 0.273382 0.048293
Si Si8 0.224638 0.325357 0.641209
O O1 0.346641 0.544461 0.968018
O O2 0.152203 0.428611 0.829656
O O3 0.322782 0.379344 0.844176
O O4 0.424708 0.388143 0.169578
O O5 0.458166 0.080969 0.274415
O O6 0.392637 0.135133 0.411648
O O7 0.341645 0.960389 0.286817
O O8 0.181924 0.095563 0.034110
O O9 0.159878 0.690523 0.747424
O O10 0.433417 0.719299 0.092998
O O11 0.262851 0.629368 0.060651
O O12 0.271168 0.214827 0.686979
O O13 0.408865 0.160605 0.019461
O O14 0.551985 0.166596 0.976505
O O15 0.099520 0.738186 0.367039
O O16 0.984105 0.801166 0.430185
#
# Coordination Sequence:
#
# PCOD8055045 Si02
#       8
#     4   4   4   4   4   4   4   4
#     4  11  25  43  71 104 134 181 232 283 345 413
#     4  11  24  43  70 101 136 180 230 280 343 407
#     4  12  26  45  71  97 144 184 227 286 344 414
#     4  11  24  43  68 100 139 178 229 280 340 409
#     4  11  23  43  71 102 136 173 234 290 333 406
#     4  10  21  42  71  97 133 180 224 286 337 401
#     4  11  24  46  68 103 137 181 229 284 345 403
#     4  11  25  45  68 100 141 183 227 283 351 405
#
# _framework density 21.535284000000001
#
# number of rings (size 3 to 8) (size 9 to 14) (size 15 to 20)
#    0.000    1.000    2.500    4.500    5.250    3.000 
#    2.250    0.000    0.000    0.000    0.000    0.000 
#    0.000    0.000    0.000    0.000    0.000    0.000 
#
# Total GULP energy -198486.687300 kJ/mol
# GULP energy per Si atom -12405.417956 kJ/mol
# Density = 2.148627 g / cm^3
# Si number density = 21.535284 Si / 1000 Ang^3
#
#
#
# Elastic Constant Matrix: (Units=GPa)
#
#
# Indices 1 2 3 4 5 6 
#
# 1 71.2865 48.7579 18.5252 0.0000 -20.5993 0.0000
# 2 48.7579 146.3709 41.8150 0.0000 -2.8829 0.0000
# 3 18.5252 41.8150 95.6377 0.0000 -7.8648 0.0000
# 4 0.0000 0.0000 0.0000 32.5734 0.0000 1.8634
# 5 -20.5993 -2.8829 -7.8648 0.0000 27.6096 0.0000
# 6 0.0000 0.0000 0.0000 1.8634 0.0000 25.5695
#
#
#
# Elastic Compliance Matrix: (Units=1/GPa)
#
#
# Indices 1 2 3 4 5 6 
#
# 1 0.024364 -0.007809 0.000126 0.000000 0.017398 0.000000
# 2 -0.007809 0.010311 -0.003467 0.000000 -0.005737 0.000000
# 3 0.000126 -0.003467 0.012212 0.000000 0.003210 0.000000
# 4 0.000000 0.000000 0.000000 0.030828 0.000000 -0.002247
# 5 0.017398 -0.005737 0.003210 0.000000 0.049515 0.000000
# 6 0.000000 0.000000 0.000000 -0.002247 0.000000 0.039273
#
#
# Mechanical properties :
#
#
# Convention : Reuss Voigt Hill
#
# Bulk Modulus (GPa) = 40.67509 59.05457 49.86483
# Shear Modulus (GPa) = 25.38080 30.76364 28.07222
#
# Velocity S-wave (km/s) = 3.43675 3.78368 3.61438
# Velocity P-wave (km/s) = 5.88872 6.82423 6.37366
#
# Compressibility (1/GPa) = 0.02458507
#
# Stress axis : x y z
#
# Youngs Moduli (GPa) = 41.04436 96.98571 81.88836
#
# Poissons Ratio (x) = 0.75738 -0.01030
# Poissons Ratio (y) = 0.32052 0.28393
# Poissons Ratio (z) = -0.00516 0.33628
#
# Static dielectric constant tensor:
#      x y z
#    x 3.821680 0.000000 -0.155590 
#    y 0.000000 3.888380 0.000000 
#    z -0.155590 0.000000 3.897100 
# 
# 
# High freq. dielectric constant tensor:
#      x y z
#    x 1.843450 0.000000 -0.008320 
#    y 0.000000 1.854090 0.000000 
#    z -0.008320 0.000000 1.849790 
# 
# From -- ./inp_files/7659.got.cif
#   From: 2010.06.25/outbox.cif.g09.slc.cpg/sg9_4_cif.got.tgz:7659.got - 2010.06.27 21:40:51.
