data_PCOD8055429
_publ_section_title
;
Structure prediction by ZEFSAII (Michael W. Deem and Ramdas Pophale) SiO2 
 PCOD8055429
Probable space group: C C
;
_chemical_formula_sum "Si O2"
_cell_formula_units_Z 24
_cell_length_a 11.120333
_cell_length_b 7.818941
_cell_length_c 12.906159
_cell_angle_alpha 90.000000
_cell_angle_beta 131.993552
_cell_angle_gamma 90.000000
_cell_volume 834.027172
_symmetry_space_group_name_H-M "C C"
_symmetry_group_IT_number 9
_symmetry_cell_setting 'monoclinic'
loop_
_space_group_symop_operation_xyz
x,y,z
x,-y,1/2+z
1/2+x,1/2+y,z
1/2+x,1/2-y,1/2+z
loop_
_atom_site_type_symbol
_atom_site_label
_atom_site_fract_x
_atom_site_fract_y
_atom_site_fract_z
Si Si1 0.334950 0.456183 0.653960
Si Si2 0.503548 0.010240 0.054067
Si Si3 0.834598 0.809571 0.357947
Si Si4 0.866230 0.846226 0.972295
Si Si5 0.582132 0.200187 0.868521
Si Si6 0.494403 0.850773 0.765427
O O1 0.198148 0.522324 0.659967
O O2 0.404337 0.610333 0.618322
O O3 0.472299 0.369188 0.804764
O O4 0.248690 0.309071 0.532843
O O5 0.470756 0.194986 0.974688
O O6 0.424423 0.081774 0.115843
O O7 0.404922 0.850274 0.960567
O O8 0.643486 0.815642 0.280876
O O9 0.882586 0.788331 0.262800
O O10 0.920232 0.982805 0.444789
O O11 0.679131 0.790364 0.856348
O O12 0.494138 0.017837 0.842496
#
# Coordination Sequence:
#
# PCOD8055429 Si02
#       6
#     4   4   4   4   4   4
#     4  10  23  45  70 104 151 179 257 299 359 444
#     4  12  24  45  75 103 148 195 242 309 365 440
#     4  10  22  50  70 100 157 182 244 313 364 433
#     4  10  25  45  68 112 139 195 245 298 375 434
#     4  10  22  45  72 105 139 203 233 305 373 424
#     4  10  22  44  69 108 146 184 253 302 358 449
#
# _framework density 28.776039999999998
#
# number of rings (size 3 to 8) (size 9 to 14) (size 15 to 20)
#    0.000    2.000    3.333    2.000    2.333    5.333 
#   15.000    0.000    0.000    0.000    0.000    0.000 
#    0.000    0.000    0.000    0.000    0.000    0.000 
#
# Total GULP energy -148743.019801 kJ/mol
# GULP energy per Si atom -12395.251650 kJ/mol
# Density = 2.871054 g / cm^3
# Si number density = 28.776040 Si / 1000 Ang^3
#
#
#
# Elastic Constant Matrix: (Units=GPa)
#
#
# Indices 1 2 3 4 5 6 
#
# 1 138.7951 82.9051 21.8303 0.0000 -14.5878 0.0000
# 2 82.9051 201.3836 41.7476 0.0000 6.2639 0.0000
# 3 21.8303 41.7476 79.7013 0.0000 -12.1377 0.0000
# 4 0.0000 0.0000 0.0000 35.6513 0.0000 -2.8616
# 5 -14.5878 6.2639 -12.1377 0.0000 43.6515 0.0000
# 6 0.0000 0.0000 0.0000 -2.8616 0.0000 73.7101
#
#
#
# Elastic Compliance Matrix: (Units=1/GPa)
#
#
# Indices 1 2 3 4 5 6 
#
# 1 0.010217 -0.004354 0.000101 0.000000 0.004067 0.000000
# 2 -0.004354 0.007546 -0.003286 0.000000 -0.003452 0.000000
# 3 0.000101 -0.003286 0.014950 0.000000 0.004662 0.000000
# 4 0.000000 0.000000 0.000000 0.028137 0.000000 0.001092
# 5 0.004067 -0.003452 0.004662 0.000000 0.026060 0.000000
# 6 0.000000 0.000000 0.000000 0.001092 0.000000 0.013609
#
#
# Mechanical properties :
#
#
# Convention : Reuss Voigt Hill
#
# Bulk Modulus (GPa) = 56.69812 79.20512 67.95162
# Shear Modulus (GPa) = 41.16066 48.82903 44.99485
#
# Velocity S-wave (km/s) = 3.78614 4.12377 3.95856
# Velocity P-wave (km/s) = 6.23371 7.08932 6.67524
#
# Compressibility (1/GPa) = 0.01763727
#
# Stress axis : x y z
#
# Youngs Moduli (GPa) = 97.87710 132.51188 66.88808
#
# Poissons Ratio (x) = 0.57690 -0.00678
# Poissons Ratio (y) = 0.42612 0.21980
# Poissons Ratio (z) = -0.00992 0.43544
#
# Static dielectric constant tensor:
#      x y z
#    x 5.816650 0.000000 -0.843660 
#    y 0.000000 5.623270 0.000000 
#    z -0.843660 0.000000 5.411810 
# 
# 
# High freq. dielectric constant tensor:
#      x y z
#    x 2.204360 0.000000 -0.058940 
#    y 0.000000 2.207630 0.000000 
#    z -0.058940 0.000000 2.174200 
# 
# From -- ./inp_files/24133.got.cif
#   From: 2010.06.25/outbox.cif.g09.slc.cpg/sg9_13_cif.got.tgz:24133.got - 2010.06.27 21:40:51.
