data_PCOD8055413
_publ_section_title
;
Structure prediction by ZEFSAII (Michael W. Deem and Ramdas Pophale) SiO2 
 PCOD8055413
Probable space group: C C
;
_chemical_formula_sum "Si O2"
_cell_formula_units_Z 32
_cell_length_a 12.157595
_cell_length_b 8.683272
_cell_length_c 14.570326
_cell_angle_alpha 90.000000
_cell_angle_beta 107.537842
_cell_angle_gamma 90.000000
_cell_volume 1466.659515
_symmetry_space_group_name_H-M "C C"
_symmetry_group_IT_number 9
_symmetry_cell_setting 'monoclinic'
loop_
_space_group_symop_operation_xyz
x,y,z
x,-y,1/2+z
1/2+x,1/2+y,z
1/2+x,1/2-y,1/2+z
loop_
_atom_site_type_symbol
_atom_site_label
_atom_site_fract_x
_atom_site_fract_y
_atom_site_fract_z
Si Si1 0.854800 0.134206 0.744180
Si Si2 0.571204 0.817126 0.770270
Si Si3 0.482490 0.083677 0.858140
Si Si4 0.326857 0.651431 0.361849
Si Si5 0.199430 0.747089 0.978584
Si Si6 0.763418 0.412123 0.815368
Si Si7 0.623903 0.394795 0.139810
Si Si8 0.883100 0.005031 0.557109
O O1 0.771707 0.277920 0.741827
O O2 0.827722 0.070479 0.636318
O O3 0.986595 0.188788 0.793233
O O4 0.821293 0.010768 0.811024
O O5 0.697091 0.789899 0.845025
O O6 0.575900 0.773737 0.662628
O O7 0.525760 0.992367 0.777195
O O8 0.410153 0.240161 0.820651
O O9 0.593119 0.125122 0.948718
O O10 0.389267 0.970481 0.883948
O O11 0.376304 0.634094 0.476348
O O12 0.193267 0.852487 0.885983
O O13 0.191352 0.863362 0.062529
O O14 0.319331 0.653179 0.013795
O O15 0.704073 0.549161 0.743679
O O16 0.520872 0.519670 0.103054
#
# Coordination Sequence:
#
# PCOD8055413 Si02
#       8
#     4   4   4   4   4   4   4   4
#     4  10  24  44  69 100 137 175 230 280 349 410
#     4  10  22  44  66  96 139 175 219 281 337 409
#     4  11  24  41  72  98 132 185 225 276 349 406
#     4  12  21  44  70  98 138 180 221 281 349 405
#     4  12  25  45  69 101 142 178 232 285 341 411
#     4  11  25  47  68 105 136 185 231 282 350 415
#     4  11  25  43  70 103 141 180 234 285 343 413
#     4  11  24  42  68 101 133 182 226 288 340 409
#
# _framework density 21.818287999999999
#
# number of rings (size 3 to 8) (size 9 to 14) (size 15 to 20)
#    0.000    1.000    5.000    0.750    3.500    1.000 
#    6.750    0.000    0.000    0.000    0.000    0.000 
#    0.000    0.000    0.000    0.000    0.000    0.000 
#
# Total GULP energy -198247.228840 kJ/mol
# GULP energy per Si atom -12390.451803 kJ/mol
# Density = 2.176863 g / cm^3
# Si number density = 21.818288 Si / 1000 Ang^3
#
#
#
# Elastic Constant Matrix: (Units=GPa)
#
#
# Indices 1 2 3 4 5 6 
#
# 1 101.7687 39.6050 50.2836 0.0000 0.1201 0.0000
# 2 39.6050 95.1284 43.8863 0.0000 -3.3420 0.0000
# 3 50.2836 43.8863 117.7743 0.0000 -13.5014 0.0000
# 4 0.0000 0.0000 0.0000 38.2753 0.0000 1.8115
# 5 0.1201 -3.3420 -13.5014 0.0000 35.8622 0.0000
# 6 0.0000 0.0000 0.0000 1.8115 0.0000 36.0827
#
#
#
# Elastic Compliance Matrix: (Units=1/GPa)
#
#
# Indices 1 2 3 4 5 6 
#
# 1 0.013530 -0.003538 -0.004704 0.000000 -0.002146 0.000000
# 2 -0.003538 0.013633 -0.003577 0.000000 -0.000064 0.000000
# 3 -0.004704 -0.003577 0.012328 0.000000 0.004324 0.000000
# 4 0.000000 0.000000 0.000000 0.026189 0.000000 -0.001315
# 5 -0.002146 -0.000064 0.004324 0.000000 0.029513 0.000000
# 6 0.000000 0.000000 0.000000 -0.001315 0.000000 0.027780
#
#
# Mechanical properties :
#
#
# Convention : Reuss Voigt Hill
#
# Bulk Modulus (GPa) = 63.08200 64.69124 63.88662
# Shear Modulus (GPa) = 32.91732 34.10380 33.51056
#
# Velocity S-wave (km/s) = 3.88842 3.95787 3.92330
# Velocity P-wave (km/s) = 7.00963 7.11342 7.06172
#
# Compressibility (1/GPa) = 0.01585238
#
# Stress axis : x y z
#
# Youngs Moduli (GPa) = 73.90979 73.35131 81.11760
#
# Poissons Ratio (x) = 0.25953 0.38160
# Poissons Ratio (y) = 0.26150 0.29015
# Poissons Ratio (z) = 0.34769 0.26237
#
# Static dielectric constant tensor:
#      x y z
#    x 4.169280 0.000000 -0.001090 
#    y 0.000000 3.915740 0.000000 
#    z -0.001090 0.000000 3.816160 
# 
# 
# High freq. dielectric constant tensor:
#      x y z
#    x 1.874690 0.000000 0.000870 
#    y 0.000000 1.854650 0.000000 
#    z 0.000870 0.000000 1.834580 
# 
# From -- ./inp_files/24204.got.cif
#   From: 2010.06.25/outbox.cif.g09.slc.cpg/sg9_13_cif.got.tgz:24204.got - 2010.06.27 21:40:51.
