data_PCOD8055759
_publ_section_title
;
Structure prediction by ZEFSAII (Michael W. Deem and Ramdas Pophale) SiO2 
 PCOD8055759
Probable space group: C C
;
_chemical_formula_sum "Si O2"
_cell_formula_units_Z 28
_cell_length_a 10.566470
_cell_length_b 9.377810
_cell_length_c 14.430757
_cell_angle_alpha 90.000000
_cell_angle_beta 61.987918
_cell_angle_gamma 90.000000
_cell_volume 1262.428202
_symmetry_space_group_name_H-M "C C"
_symmetry_group_IT_number 9
_symmetry_cell_setting 'monoclinic'
loop_
_space_group_symop_operation_xyz
x,y,z
x,-y,1/2+z
1/2+x,1/2+y,z
1/2+x,1/2-y,1/2+z
loop_
_atom_site_type_symbol
_atom_site_label
_atom_site_fract_x
_atom_site_fract_y
_atom_site_fract_z
Si Si1 0.013680 0.391840 0.147820
Si Si2 0.679713 0.800882 0.920482
Si Si3 0.520542 0.108842 0.289198
Si Si4 0.975538 0.831001 0.148687
Si Si5 0.724738 0.492249 0.969304
Si Si6 0.781590 0.590877 0.152437
Si Si7 0.463951 0.607787 0.255340
O O1 0.080002 0.463933 0.218422
O O2 0.866337 0.475405 0.182237
O O3 0.980835 0.226589 0.170495
O O4 0.114363 0.399290 0.023714
O O5 0.613091 0.852391 0.846646
O O6 0.847896 0.840351 0.869189
O O7 0.662606 0.629787 0.935247
O O8 0.542488 0.233061 0.206306
O O9 0.351972 0.089240 0.372080
O O10 0.850364 0.748021 0.137546
O O11 0.098983 0.878151 0.033391
O O12 0.907955 0.968072 0.221901
O O13 0.787368 0.552634 0.043171
O O14 0.619816 0.586921 0.248919
#
# Coordination Sequence:
#
# PCOD8055759 Si02
#       7
#     4   4   4   4   4   4   4
#     4  11  23  48  73 103 149 190 238 305 362 422
#     4  12  25  43  78 108 144 198 241 295 370 434
#     4  11  26  45  75 108 148 187 243 309 355 438
#     4  10  25  45  71 106 140 193 242 296 365 423
#     4  11  23  46  69 106 146 190 238 304 366 418
#     4  10  23  47  70 101 149 184 240 303 344 442
#     4  11  25  42  72 106 140 192 238 294 370 419
#
# _framework density 22.179480000000002
#
# number of rings (size 3 to 8) (size 9 to 14) (size 15 to 20)
#    0.000    1.143    5.714    0.000    6.000    2.286 
#    7.714    0.000    0.000    0.000    0.000    0.000 
#    0.000    0.000    0.000    0.000    0.000    0.000 
#
# Total GULP energy -173558.075312 kJ/mol
# GULP energy per Si atom -12397.005379 kJ/mol
# Density = 2.212900 g / cm^3
# Si number density = 22.179480 Si / 1000 Ang^3
#
#
#
# Elastic Constant Matrix: (Units=GPa)
#
#
# Indices 1 2 3 4 5 6 
#
# 1 84.8893 20.9734 33.8759 0.0000 -9.2064 0.0000
# 2 20.9734 95.7218 7.2952 0.0000 -0.7903 0.0000
# 3 33.8759 7.2952 105.3691 0.0000 -17.7557 0.0000
# 4 0.0000 0.0000 0.0000 43.4466 0.0000 2.3803
# 5 -9.2064 -0.7903 -17.7557 0.0000 41.4391 0.0000
# 6 0.0000 0.0000 0.0000 2.3803 0.0000 41.6704
#
#
#
# Elastic Compliance Matrix: (Units=1/GPa)
#
#
# Indices 1 2 3 4 5 6 
#
# 1 0.014282 -0.002800 -0.004173 0.000000 0.001331 0.000000
# 2 -0.002800 0.011052 0.000071 0.000000 -0.000381 0.000000
# 3 -0.004173 0.000071 0.011502 0.000000 0.004002 0.000000
# 4 0.000000 0.000000 0.000000 0.023089 0.000000 -0.001319
# 5 0.001331 -0.000381 0.004002 0.000000 0.026135 0.000000
# 6 0.000000 0.000000 0.000000 -0.001319 0.000000 0.024073
#
#
# Mechanical properties :
#
#
# Convention : Reuss Voigt Hill
#
# Bulk Modulus (GPa) = 43.42147 45.58547 44.50347
# Shear Modulus (GPa) = 37.98971 40.23363 39.11167
#
# Velocity S-wave (km/s) = 4.14313 4.26373 4.20386
# Velocity P-wave (km/s) = 6.51975 6.69603 6.60848
#
# Compressibility (1/GPa) = 0.02303008
#
# Stress axis : x y z
#
# Youngs Moduli (GPa) = 70.01980 90.48190 86.94377
#
# Poissons Ratio (x) = 0.25337 0.36284
# Poissons Ratio (y) = 0.19607 -0.00616
# Poissons Ratio (z) = 0.29221 -0.00641
#
# Static dielectric constant tensor:
#      x y z
#    x 3.991060 0.000000 -0.150970 
#    y 0.000000 4.200540 0.000000 
#    z -0.150970 0.000000 4.196200 
# 
# 
# High freq. dielectric constant tensor:
#      x y z
#    x 1.861320 0.000000 -0.003870 
#    y 0.000000 1.886930 0.000000 
#    z -0.003870 0.000000 1.880760 
# 
# From -- ./inp_files/24327.got.cif
#   From: 2010.06.25/outbox.cif.g09.slc.cpg/sg9_13_cif.got.tgz:24327.got - 2010.06.27 21:40:51.
