data_PCOD8055976
_publ_section_title
;
Structure prediction by ZEFSAII (Michael W. Deem and Ramdas Pophale) SiO2 
 PCOD8055976
Probable space group: C C
;
_chemical_formula_sum "Si O2"
_cell_formula_units_Z 28
_cell_length_a 5.389886
_cell_length_b 13.755830
_cell_length_c 15.483555
_cell_angle_alpha 90.000000
_cell_angle_beta 104.184247
_cell_angle_gamma 90.000000
_cell_volume 1112.988276
_symmetry_space_group_name_H-M "C C"
_symmetry_group_IT_number 9
_symmetry_cell_setting 'monoclinic'
loop_
_space_group_symop_operation_xyz
x,y,z
x,-y,1/2+z
1/2+x,1/2+y,z
1/2+x,1/2-y,1/2+z
loop_
_atom_site_type_symbol
_atom_site_label
_atom_site_fract_x
_atom_site_fract_y
_atom_site_fract_z
Si Si1 0.940990 0.840159 0.910960
Si Si2 0.756736 0.405548 0.728924
Si Si3 0.817479 0.209850 0.130544
Si Si4 0.938006 0.440799 0.551530
Si Si5 0.589647 0.467223 0.359782
Si Si6 0.529083 0.848352 0.019343
Si Si7 0.097503 0.225426 0.774399
O O1 0.764910 0.821029 0.979080
O O2 0.872672 0.751692 0.841099
O O3 0.244359 0.839457 0.954851
O O4 0.882863 0.948482 0.865624
O O5 0.461556 0.369812 0.701863
O O6 0.828813 0.438697 0.639122
O O7 0.783778 0.490346 0.802897
O O8 0.920275 0.316924 0.780442
O O9 0.648810 0.283212 0.175760
O O10 0.629714 0.149471 0.051199
O O11 0.033182 0.270496 0.097609
O O12 0.723646 0.433119 0.459671
O O13 0.084032 0.543255 0.557014
O O14 0.469636 0.371466 0.304059
#
# Coordination Sequence:
#
# PCOD8055976 Si02
#       7
#     4   4   4   4   4   4   4
#     4  11  25  47  70 114 143 188 258 316 357 473
#     4  11  25  48  67 114 155 190 264 317 363 470
#     4  11  25  44  71 107 150 202 252 317 375 455
#     4  10  25  45  73 106 147 201 252 314 374 456
#     4  11  24  49  76 106 151 201 254 311 391 439
#     4  11  26  44  74 102 151 191 250 308 383 437
#     4  11  24  45  73 101 151 201 244 317 389 436
#
# _framework density 25.157499999999999
#
# number of rings (size 3 to 8) (size 9 to 14) (size 15 to 20)
#    0.000    1.143    1.429    3.429   10.000    1.143 
#    7.714    0.000    0.000    0.000    0.000    0.000 
#    0.000    0.000    0.000    0.000    0.000    0.000 
#
# Total GULP energy -173522.038171 kJ/mol
# GULP energy per Si atom -12394.431298 kJ/mol
# Density = 2.510024 g / cm^3
# Si number density = 25.157500 Si / 1000 Ang^3
#
#
#
# Elastic Constant Matrix: (Units=GPa)
#
#
# Indices 1 2 3 4 5 6 
#
# 1 60.4351 2.5611 20.2422 0.0000 -17.6042 0.0000
# 2 2.5611 100.1688 33.8315 0.0000 -10.1624 0.0000
# 3 20.2422 33.8315 106.3686 0.0000 -24.6100 0.0000
# 4 0.0000 0.0000 0.0000 47.3009 0.0000 -5.9056
# 5 -17.6042 -10.1624 -24.6100 0.0000 36.9478 0.0000
# 6 0.0000 0.0000 0.0000 -5.9056 0.0000 33.9378
#
#
#
# Elastic Compliance Matrix: (Units=1/GPa)
#
#
# Indices 1 2 3 4 5 6 
#
# 1 0.019616 0.001064 -0.002177 0.000000 0.008189 0.000000
# 2 0.001064 0.011264 -0.003489 0.000000 0.001282 0.000000
# 3 -0.002177 -0.003489 0.012369 0.000000 0.006242 0.000000
# 4 0.000000 0.000000 0.000000 0.021611 0.000000 0.003761
# 5 0.008189 0.001282 0.006242 0.000000 0.035477 0.000000
# 6 0.000000 0.000000 0.000000 0.003761 0.000000 0.030120
#
#
# Mechanical properties :
#
#
# Convention : Reuss Voigt Hill
#
# Bulk Modulus (GPa) = 29.37074 42.24915 35.80994
# Shear Modulus (GPa) = 33.11054 37.65981 35.38518
#
# Velocity S-wave (km/s) = 3.63179 3.87326 3.75446
# Velocity P-wave (km/s) = 5.41171 6.06903 5.74977
#
# Compressibility (1/GPa) = 0.03404749
#
# Stress axis : x y z
#
# Youngs Moduli (GPa) = 50.97849 88.77630 80.84468
#
# Poissons Ratio (x) = -0.09450 0.17599
# Poissons Ratio (y) = -0.05427 0.28205
# Poissons Ratio (z) = 0.11097 0.30972
#
# Static dielectric constant tensor:
#      x y z
#    x 4.205810 0.000000 -0.024410 
#    y 0.000000 4.837920 0.000000 
#    z -0.024410 0.000000 4.720360 
# 
# 
# High freq. dielectric constant tensor:
#      x y z
#    x 1.982040 0.000000 -0.008910 
#    y 0.000000 2.008050 0.000000 
#    z -0.008910 0.000000 2.020220 
# 
# From -- ./inp_files/21781.got.cif
#   From: 2010.06.25/outbox.cif.g09.slc.cpg/sg9_11_cif.got.tgz:21781.got - 2010.06.27 21:40:51.
