data_PCOD8055685
_publ_section_title
;
Structure prediction by ZEFSAII (Michael W. Deem and Ramdas Pophale) SiO2 
 PCOD8055685
Probable space group: C C
;
_chemical_formula_sum "Si O2"
_cell_formula_units_Z 32
_cell_length_a 8.042441
_cell_length_b 11.937697
_cell_length_c 20.660918
_cell_angle_alpha 90.000000
_cell_angle_beta 130.359385
_cell_angle_gamma 90.000000
_cell_volume 1511.512078
_symmetry_space_group_name_H-M "C C"
_symmetry_group_IT_number 9
_symmetry_cell_setting 'monoclinic'
loop_
_space_group_symop_operation_xyz
x,y,z
x,-y,1/2+z
1/2+x,1/2+y,z
1/2+x,1/2-y,1/2+z
loop_
_atom_site_type_symbol
_atom_site_label
_atom_site_fract_x
_atom_site_fract_y
_atom_site_fract_z
Si Si1 0.038290 0.602542 0.700770
Si Si2 0.379585 0.270657 0.566300
Si Si3 0.973912 0.231425 0.786289
Si Si4 0.411284 0.015205 0.302315
Si Si5 0.437952 0.124600 0.929739
Si Si6 0.500852 0.080566 0.085840
Si Si7 0.797894 0.781562 0.103585
Si Si8 0.939902 0.021791 0.149004
O O1 0.293241 0.640077 0.764190
O O2 0.951904 0.513099 0.626202
O O3 0.898379 0.709687 0.641664
O O4 0.989552 0.553742 0.758960
O O5 0.536077 0.216468 0.551218
O O6 0.486661 0.394862 0.601203
O O7 0.126706 0.279362 0.482108
O O8 0.964636 0.353142 0.817478
O O9 0.936280 0.252692 0.701393
O O10 0.212183 0.184707 0.858785
O O11 0.513160 0.958692 0.391473
O O12 0.152423 0.998886 0.244876
O O13 0.423806 0.052883 0.992767
O O14 0.375911 0.196544 0.068429
O O15 0.764445 0.086122 0.150399
O O16 0.851332 0.907291 0.095800
#
# Coordination Sequence:
#
# PCOD8055685 Si02
#       8
#     4   4   4   4   4   4   4   4
#     4  11  22  46  74  93 129 184 236 261 328 423
#     4  10  23  45  63 104 130 172 225 277 334 408
#     4  11  23  47  65 100 134 176 228 278 334 407
#     4  12  24  45  68  99 134 179 228 280 334 408
#     4  11  27  42  61 103 145 163 218 291 352 379
#     4  11  23  42  69 101 129 178 223 276 338 395
#     4  11  21  42  73  90 130 177 235 264 323 417
#     4  11  21  39  71  94 129 175 229 273 323 401
#
# _framework density 21.170853000000001
#
# number of rings (size 3 to 8) (size 9 to 14) (size 15 to 20)
#    0.000    1.000    7.500    0.000    3.500    3.000 
#    6.750    0.000    0.000    0.000    0.000    0.000 
#    0.000    0.000    0.000    0.000    0.000    0.000 
#
# Total GULP energy -198226.763493 kJ/mol
# GULP energy per Si atom -12389.172718 kJ/mol
# Density = 2.112267 g / cm^3
# Si number density = 21.170853 Si / 1000 Ang^3
#
#
#
# Elastic Constant Matrix: (Units=GPa)
#
#
# Indices 1 2 3 4 5 6 
#
# 1 81.2332 39.6723 53.7403 0.0000 -2.7148 0.0000
# 2 39.6723 128.4812 26.5476 0.0000 -8.3066 0.0000
# 3 53.7403 26.5476 104.1744 0.0000 0.0297 0.0000
# 4 0.0000 0.0000 0.0000 24.2454 0.0000 3.8969
# 5 -2.7148 -8.3066 0.0297 0.0000 50.5928 0.0000
# 6 0.0000 0.0000 0.0000 3.8969 0.0000 35.0664
#
#
#
# Elastic Compliance Matrix: (Units=1/GPa)
#
#
# Indices 1 2 3 4 5 6 
#
# 1 0.020856 -0.004424 -0.009632 0.000000 0.000398 0.000000
# 2 -0.004424 0.009248 -0.000075 0.000000 0.001281 0.000000
# 3 -0.009632 -0.000075 0.014587 0.000000 -0.000538 0.000000
# 4 0.000000 0.000000 0.000000 0.041995 0.000000 -0.004667
# 5 0.000398 0.001281 -0.000538 0.000000 0.019998 0.000000
# 6 0.000000 0.000000 0.000000 -0.004667 0.000000 0.029036
#
#
# Mechanical properties :
#
#
# Convention : Reuss Voigt Hill
#
# Bulk Modulus (GPa) = 60.86492 61.53436 61.19964
# Shear Modulus (GPa) = 29.50603 34.90950 32.20777
#
# Velocity S-wave (km/s) = 3.73729 4.06512 3.90465
# Velocity P-wave (km/s) = 6.88730 7.15278 7.02130
#
# Compressibility (1/GPa) = 0.01642983
#
# Stress axis : x y z
#
# Youngs Moduli (GPa) = 47.94784 108.13685 68.55337
#
# Poissons Ratio (x) = 0.47839 0.66028
# Poissons Ratio (y) = 0.21212 0.00513
# Poissons Ratio (z) = 0.46182 0.00809
#
# Static dielectric constant tensor:
#      x y z
#    x 3.852770 0.000000 0.065190 
#    y 0.000000 4.225320 0.000000 
#    z 0.065190 0.000000 3.737840 
# 
# 
# High freq. dielectric constant tensor:
#      x y z
#    x 1.829240 0.000000 0.008990 
#    y 0.000000 1.844900 0.000000 
#    z 0.008990 0.000000 1.811750 
# 
# From -- ./inp_files/22924.got.cif
#   From: 2010.06.25/outbox.cif.g09.slc.cpg/sg9_12_cif.got.tgz:22924.got - 2010.06.27 21:40:51.
