data_PCOD8055513
_publ_section_title
;
Structure prediction by ZEFSAII (Michael W. Deem and Ramdas Pophale) SiO2 
 PCOD8055513
Probable space group: C C
;
_chemical_formula_sum "Si O2"
_cell_formula_units_Z 24
_cell_length_a 5.451861
_cell_length_b 18.205053
_cell_length_c 10.190328
_cell_angle_alpha 90.000000
_cell_angle_beta 84.307652
_cell_angle_gamma 90.000000
_cell_volume 1006.417096
_symmetry_space_group_name_H-M "C C"
_symmetry_group_IT_number 9
_symmetry_cell_setting 'monoclinic'
loop_
_space_group_symop_operation_xyz
x,y,z
x,-y,1/2+z
1/2+x,1/2+y,z
1/2+x,1/2-y,1/2+z
loop_
_atom_site_type_symbol
_atom_site_label
_atom_site_fract_x
_atom_site_fract_y
_atom_site_fract_z
Si Si1 0.026810 0.500332 0.737490
Si Si2 0.967606 0.183565 0.399849
Si Si3 0.469024 0.252754 0.358659
Si Si4 0.300451 0.851443 0.671691
Si Si5 0.837542 0.972900 0.971502
Si Si6 0.676739 0.600674 0.906293
O O1 0.244816 0.488270 0.829333
O O2 0.121478 0.518039 0.587681
O O3 0.870488 0.426252 0.743246
O O4 0.861767 0.570059 0.787869
O O5 0.207262 0.229686 0.440777
O O6 0.023681 0.166180 0.241489
O O7 0.952122 0.107770 0.481752
O O8 0.477885 0.215196 0.213093
O O9 0.707575 0.225307 0.428800
O O10 0.489155 0.341429 0.347614
O O11 0.321624 0.856505 0.514413
O O12 0.041940 0.034470 0.989167
#
# Coordination Sequence:
#
# PCOD8055513 Si02
#       6
#     4   4   4   4   4   4
#     4  12  25  45  79 116 151 206 261 332 390 464
#     4  10  22  49  73 106 154 207 244 319 397 460
#     4  10  25  47  75 113 153 206 248 322 396 463
#     4  10  23  48  75 107 158 200 251 328 393 456
#     4  12  25  46  77 112 154 204 268 325 389 469
#     4  12  26  47  77 118 148 205 272 324 387 480
#
# _framework density 23.846972000000001
#
# number of rings (size 3 to 8) (size 9 to 14) (size 15 to 20)
#    1.000    0.000    5.000    1.000    2.333    0.000 
#    6.000    0.000    0.000    0.000    0.000    0.000 
#    0.000    0.000    0.000    0.000    0.000    0.000 
#
# Total GULP energy -148714.559966 kJ/mol
# GULP energy per Si atom -12392.879997 kJ/mol
# Density = 2.379270 g / cm^3
# Si number density = 23.846972 Si / 1000 Ang^3
#
#
#
# Elastic Constant Matrix: (Units=GPa)
#
#
# Indices 1 2 3 4 5 6 
#
# 1 123.2765 36.6075 9.0005 0.0000 -11.8813 0.0000
# 2 36.6075 108.0069 20.5662 0.0000 -6.4328 0.0000
# 3 9.0005 20.5662 60.6776 0.0000 -2.1057 0.0000
# 4 0.0000 0.0000 0.0000 16.1338 0.0000 -3.1474
# 5 -11.8813 -6.4328 -2.1057 0.0000 36.5854 0.0000
# 6 0.0000 0.0000 0.0000 -3.1474 0.0000 46.2518
#
#
#
# Elastic Compliance Matrix: (Units=1/GPa)
#
#
# Indices 1 2 3 4 5 6 
#
# 1 0.009241 -0.002929 -0.000292 0.000000 0.002469 0.000000
# 2 -0.002929 0.010915 -0.003238 0.000000 0.000781 0.000000
# 3 -0.000292 -0.003238 0.017633 0.000000 0.000351 0.000000
# 4 0.000000 0.000000 0.000000 0.062816 0.000000 0.004275
# 5 0.002469 0.000781 0.000351 0.000000 0.028293 0.000000
# 6 0.000000 0.000000 0.000000 0.004275 0.000000 0.021912
#
#
# Mechanical properties :
#
#
# Convention : Reuss Voigt Hill
#
# Bulk Modulus (GPa) = 40.20842 47.14549 43.67696
# Shear Modulus (GPa) = 29.06670 34.84664 31.95667
#
# Velocity S-wave (km/s) = 3.49504 3.82679 3.66467
# Velocity P-wave (km/s) = 5.76062 6.27206 6.02177
#
# Compressibility (1/GPa) = 0.02487041
#
# Stress axis : x y z
#
# Youngs Moduli (GPa) = 108.21261 91.62017 56.71036
#
# Poissons Ratio (x) = 0.26840 0.01657
# Poissons Ratio (y) = 0.31700 0.18362
# Poissons Ratio (z) = 0.03162 0.29665
#
# Static dielectric constant tensor:
#      x y z
#    x 4.107250 0.000000 -0.072710 
#    y 0.000000 4.539800 0.000000 
#    z -0.072710 0.000000 3.807610 
# 
# 
# High freq. dielectric constant tensor:
#      x y z
#    x 1.938540 0.000000 -0.009310 
#    y 0.000000 1.962750 0.000000 
#    z -0.009310 0.000000 1.919840 
# 
# From -- ./inp_files/3826.got.cif
#   From: 2010.06.25/outbox.cif.g09.slc.cpg/sg9_2_cif.got.tgz:3826.got - 2010.06.27 21:40:51.
