data_PCOD8055851
_publ_section_title
;
Structure prediction by ZEFSAII (Michael W. Deem and Ramdas Pophale) SiO2 
 PCOD8055851
Probable space group: C C
;
_chemical_formula_sum "Si O2"
_cell_formula_units_Z 28
_cell_length_a 19.281898
_cell_length_b 7.274093
_cell_length_c 11.220154
_cell_angle_alpha 90.000000
_cell_angle_beta 134.275435
_cell_angle_gamma 90.000000
_cell_volume 1126.771056
_symmetry_space_group_name_H-M "C C"
_symmetry_group_IT_number 9
_symmetry_cell_setting 'monoclinic'
loop_
_space_group_symop_operation_xyz
x,y,z
x,-y,1/2+z
1/2+x,1/2+y,z
1/2+x,1/2-y,1/2+z
loop_
_atom_site_type_symbol
_atom_site_label
_atom_site_fract_x
_atom_site_fract_y
_atom_site_fract_z
Si Si1 0.965350 0.270502 0.666290
Si Si2 0.123068 0.910414 0.219342
Si Si3 0.803217 0.366437 0.291425
Si Si4 0.843717 0.777487 0.401591
Si Si5 0.998855 0.663983 0.767065
Si Si6 0.954645 0.993748 0.863356
Si Si7 0.708539 0.740544 0.448757
O O1 0.885862 0.263675 0.466078
O O2 0.950287 0.096985 0.732696
O O3 0.067956 0.251368 0.723334
O O4 0.961337 0.455474 0.739858
O O5 0.200617 0.815958 0.227200
O O6 0.177123 0.033539 0.381824
O O7 0.050285 0.040441 0.055110
O O8 0.816945 0.587094 0.302977
O O9 0.795277 0.277127 0.149962
O O10 0.859283 0.942405 0.324205
O O11 0.758609 0.834037 0.392590
O O12 0.946632 0.750501 0.589961
O O13 0.114370 0.652521 0.883053
O O14 0.967618 0.775347 0.848752
#
# Coordination Sequence:
#
# PCOD8055851 Si02
#       7
#     4   4   4   4   4   4   4
#     4  11  26  46  77 109 147 205 259 312 389 454
#     4  11  22  47  75 106 148 207 251 314 398 454
#     4  10  24  43  76 108 152 203 252 321 384 460
#     4  10  25  41  72 111 146 199 251 308 392 452
#     4  11  24  48  73 107 149 195 256 314 383 458
#     4  12  23  48  77 105 153 200 252 323 379 462
#     4  11  22  47  72 110 157 197 255 322 381 460
#
# _framework density 24.849765999999999
#
# number of rings (size 3 to 8) (size 9 to 14) (size 15 to 20)
#    0.000    1.143    4.286    0.000    8.000    1.143 
#    5.143    0.000    6.286    0.000    0.000    0.000 
#    0.000    0.000    0.000    0.000    0.000    0.000 
#
# Total GULP energy -173575.887186 kJ/mol
# GULP energy per Si atom -12398.277656 kJ/mol
# Density = 2.479321 g / cm^3
# Si number density = 24.849766 Si / 1000 Ang^3
#
#
#
# Elastic Constant Matrix: (Units=GPa)
#
#
# Indices 1 2 3 4 5 6 
#
# 1 161.7872 48.0613 43.6512 0.0000 10.1654 0.0000
# 2 48.0613 93.9806 31.3095 0.0000 -9.3662 0.0000
# 3 43.6512 31.3095 108.9430 0.0000 -0.1099 0.0000
# 4 0.0000 0.0000 0.0000 40.3489 0.0000 -3.7701
# 5 10.1654 -9.3662 -0.1099 0.0000 42.7223 0.0000
# 6 0.0000 0.0000 0.0000 -3.7701 0.0000 47.1958
#
#
#
# Elastic Compliance Matrix: (Units=1/GPa)
#
#
# Indices 1 2 3 4 5 6 
#
# 1 0.008021 -0.003650 -0.002167 0.000000 -0.002714 0.000000
# 2 -0.003650 0.013718 -0.002476 0.000000 0.003870 0.000000
# 3 -0.002167 -0.002476 0.010759 0.000000 0.000001 0.000000
# 4 0.000000 0.000000 0.000000 0.024970 0.000000 0.001995
# 5 -0.002714 0.003870 0.000001 0.000000 0.024901 0.000000
# 6 0.000000 0.000000 0.000000 0.001995 0.000000 0.021348
#
#
# Mechanical properties :
#
#
# Convention : Reuss Voigt Hill
#
# Bulk Modulus (GPa) = 62.85185 67.86165 65.35675
# Shear Modulus (GPa) = 39.80676 42.16599 40.98637
#
# Velocity S-wave (km/s) = 4.00671 4.12374 4.06565
# Velocity P-wave (km/s) = 6.83759 7.07401 6.95681
#
# Compressibility (1/GPa) = 0.01591043
#
# Stress axis : x y z
#
# Youngs Moduli (GPa) = 124.67879 72.89877 92.94450
#
# Poissons Ratio (x) = 0.26609 0.20145
# Poissons Ratio (y) = 0.45510 0.23012
# Poissons Ratio (z) = 0.27023 0.18049
#
# Static dielectric constant tensor:
#      x y z
#    x 4.610280 0.000000 0.079680 
#    y 0.000000 4.231540 0.000000 
#    z 0.079680 0.000000 4.532310 
# 
# 
# High freq. dielectric constant tensor:
#      x y z
#    x 2.006820 0.000000 0.003020 
#    y 0.000000 1.970240 0.000000 
#    z 0.003020 0.000000 1.993280 
# 
# From -- ./inp_files/20078.got.cif
#   From: 2010.06.25/outbox.cif.g09.slc.cpg/sg9_11_cif.got.tgz:20078.got - 2010.06.27 21:40:51.
