data_PCOD8055920
_publ_section_title
;
Structure prediction by ZEFSAII (Michael W. Deem and Ramdas Pophale) SiO2 
 PCOD8055920
Probable space group: C C
;
_chemical_formula_sum "Si O2"
_cell_formula_units_Z 20
_cell_length_a 20.636854
_cell_length_b 7.029268
_cell_length_c 9.044544
_cell_angle_alpha 90.000000
_cell_angle_beta 38.278066
_cell_angle_gamma 90.000000
_cell_volume 812.767909
_symmetry_space_group_name_H-M "C C"
_symmetry_group_IT_number 9
_symmetry_cell_setting 'monoclinic'
loop_
_space_group_symop_operation_xyz
x,y,z
x,-y,1/2+z
1/2+x,1/2+y,z
1/2+x,1/2-y,1/2+z
loop_
_atom_site_type_symbol
_atom_site_label
_atom_site_fract_x
_atom_site_fract_y
_atom_site_fract_z
Si Si1 0.475670 0.613803 0.528900
Si Si2 0.659430 0.873325 0.511466
Si Si3 0.441769 0.724193 0.897033
Si Si4 0.696671 0.758995 0.109667
Si Si5 0.807611 0.614783 0.407054
O O1 0.484799 0.585390 0.689080
O O2 0.421696 0.419911 0.567572
O O3 0.589904 0.649840 0.257385
O O4 0.400372 0.799905 0.636264
O O5 0.534074 0.877961 0.761374
O O6 0.692609 0.839605 0.283134
O O7 0.699448 0.709788 0.550988
O O8 0.711873 0.070946 0.467155
O O9 0.336839 0.833661 0.027116
O O10 0.794905 0.613520 0.915321
#
# Coordination Sequence:
#
# PCOD8055920 Si02
#       5
#     4   4   4   4   4
#     4   9  21  44  73 105 147 197 242 312 373 449
#     4  11  25  44  73 108 150 202 244 316 372 452
#     4   9  21  44  70 109 146 195 247 302 384 439
#     4  11  25  48  72 106 155 198 252 305 383 446
#     4  10  24  46  74 106 148 200 245 313 374 444
#
# _framework density 24.60727
#
# number of rings (size 3 to 8) (size 9 to 14) (size 15 to 20)
#    1.200    0.800    2.000    0.000    2.800    4.800 
#    3.600    0.000    4.400    0.000    0.000    0.000 
#    0.000    0.000    0.000    0.000    0.000    0.000 
#
# Total GULP energy -123910.554626 kJ/mol
# GULP energy per Si atom -12391.055463 kJ/mol
# Density = 2.455126 g / cm^3
# Si number density = 24.607270 Si / 1000 Ang^3
#
#
#
# Elastic Constant Matrix: (Units=GPa)
#
#
# Indices 1 2 3 4 5 6 
#
# 1 137.4924 65.6656 12.8591 0.0000 -19.6627 0.0000
# 2 65.6656 172.9629 26.5189 0.0000 -2.3862 0.0000
# 3 12.8591 26.5189 30.9201 0.0000 -15.2781 0.0000
# 4 0.0000 0.0000 0.0000 33.4770 0.0000 -8.9863
# 5 -19.6627 -2.3862 -15.2781 0.0000 20.9075 0.0000
# 6 0.0000 0.0000 0.0000 -8.9863 0.0000 51.8771
#
#
#
# Elastic Compliance Matrix: (Units=1/GPa)
#
#
# Indices 1 2 3 4 5 6 
#
# 1 0.011266 -0.005196 0.007377 0.000000 0.015393 0.000000
# 2 -0.005196 0.009457 -0.012257 0.000000 -0.012764 0.000000
# 3 0.007377 -0.012257 0.066554 0.000000 0.054173 0.000000
# 4 0.000000 0.000000 0.000000 0.031328 0.000000 0.005427
# 5 0.015393 -0.012764 0.054173 0.000000 0.100436 0.000000
# 6 0.000000 0.000000 0.000000 0.005427 0.000000 0.020216
#
#
# Mechanical properties :
#
#
# Convention : Reuss Voigt Hill
#
# Bulk Modulus (GPa) = 14.89770 61.27363 38.08567
# Shear Modulus (GPa) = 17.74400 37.00777 27.37588
#
# Velocity S-wave (km/s) = 2.68822 3.88227 3.33905
# Velocity P-wave (km/s) = 3.96266 6.71198 5.51151
#
# Compressibility (1/GPa) = 0.06712445
#
# Stress axis : x y z
#
# Youngs Moduli (GPa) = 88.76227 105.73713 15.02544
#
# Poissons Ratio (x) = 0.54939 -0.11084
# Poissons Ratio (y) = 0.46119 0.18417
# Poissons Ratio (z) = -0.65478 1.29606
#
# Static dielectric constant tensor:
#      x y z
#    x 4.572000 0.000000 -0.219350 
#    y 0.000000 4.111560 0.000000 
#    z -0.219350 0.000000 3.918840 
# 
# 
# High freq. dielectric constant tensor:
#      x y z
#    x 1.990280 0.000000 -0.016810 
#    y 0.000000 1.967660 0.000000 
#    z -0.016810 0.000000 1.955150 
# 
# From -- ./inp_files/11144.got.cif
#   From: 2010.06.25/outbox.cif.g09.slc.cpg/sg9_6_cif.got.tgz:11144.got - 2010.06.27 21:40:51.
