data_PCOD8055889
_publ_section_title
;
Structure prediction by ZEFSAII (Michael W. Deem and Ramdas Pophale) SiO2 
 PCOD8055889
Probable space group: C C
;
_chemical_formula_sum "Si O2"
_cell_formula_units_Z 28
_cell_length_a 20.180914
_cell_length_b 8.705147
_cell_length_c 13.658187
_cell_angle_alpha 90.000000
_cell_angle_beta 150.244757
_cell_angle_gamma 90.000000
_cell_volume 1190.832627
_symmetry_space_group_name_H-M "C C"
_symmetry_group_IT_number 9
_symmetry_cell_setting 'monoclinic'
loop_
_space_group_symop_operation_xyz
x,y,z
x,-y,1/2+z
1/2+x,1/2+y,z
1/2+x,1/2-y,1/2+z
loop_
_atom_site_type_symbol
_atom_site_label
_atom_site_fract_x
_atom_site_fract_y
_atom_site_fract_z
Si Si1 0.095730 0.882038 0.904850
Si Si2 0.029918 0.987271 0.117081
Si Si3 0.380427 0.181496 0.738870
Si Si4 0.560830 0.852714 0.646423
Si Si5 0.735651 0.018381 0.723595
Si Si6 0.508525 0.929764 0.800284
Si Si7 0.126348 0.171412 0.063627
O O1 0.979357 0.814105 0.824558
O O2 0.022258 0.936172 0.713055
O O3 0.223701 0.770792 0.046939
O O4 0.165765 0.027405 0.047813
O O5 0.109185 0.825570 0.217217
O O6 0.087320 0.115265 0.120217
O O7 0.879571 0.945424 0.888565
O O8 0.380921 0.034181 0.664773
O O9 0.432902 0.129459 0.912483
O O10 0.682416 0.952413 0.759042
O O11 0.518872 0.916804 0.697730
O O12 0.634721 0.971316 0.506043
O O13 0.745967 0.206070 0.736406
O O14 0.506127 0.764001 0.852454
#
# Coordination Sequence:
#
# PCOD8055889 Si02
#       7
#     4   4   4   4   4   4   4
#     4  12  28  48  70 110 144 195 237 303 358 426
#     4  12  25  43  73 105 140 191 233 299 357 427
#     4  11  28  43  74 103 147 185 245 299 351 430
#     4  11  23  46  71 103 141 190 235 289 363 425
#     4   9  25  43  70 104 140 182 237 297 350 421
#     4   9  23  46  66 102 138 187 227 301 354 420
#     4  10  24  45  66 107 138 178 242 292 351 429
#
# _framework density 23.512958999999999
#
# number of rings (size 3 to 8) (size 9 to 14) (size 15 to 20)
#    0.857    0.571    2.857    0.000   10.000    3.429 
#    0.000    0.000    0.000    0.000    0.000    0.000 
#    0.000    0.000    0.000    0.000    0.000    0.000 
#
# Total GULP energy -173482.900322 kJ/mol
# GULP energy per Si atom -12391.635737 kJ/mol
# Density = 2.345944 g / cm^3
# Si number density = 23.512959 Si / 1000 Ang^3
#
#
#
# Elastic Constant Matrix: (Units=GPa)
#
#
# Indices 1 2 3 4 5 6 
#
# 1 133.7779 47.8875 33.0501 0.0000 -25.6094 0.0000
# 2 47.8875 102.4442 11.0904 0.0000 2.9123 0.0000
# 3 33.0501 11.0904 61.7783 0.0000 1.0774 0.0000
# 4 0.0000 0.0000 0.0000 27.3129 0.0000 -2.5184
# 5 -25.6094 2.9123 1.0774 0.0000 45.0300 0.0000
# 6 0.0000 0.0000 0.0000 -2.5184 0.0000 44.5139
#
#
#
# Elastic Compliance Matrix: (Units=1/GPa)
#
#
# Indices 1 2 3 4 5 6 
#
# 1 0.012201 -0.005296 -0.005706 0.000000 0.007418 0.000000
# 2 -0.005296 0.012270 0.000697 0.000000 -0.003822 0.000000
# 3 -0.005706 0.000697 0.019179 0.000000 -0.003749 0.000000
# 4 0.000000 0.000000 0.000000 0.036805 0.000000 0.002082
# 5 0.007418 -0.003822 -0.003749 0.000000 0.026763 0.000000
# 6 0.000000 0.000000 0.000000 0.002082 0.000000 0.022583
#
#
# Mechanical properties :
#
#
# Convention : Reuss Voigt Hill
#
# Bulk Modulus (GPa) = 43.40060 53.56183 48.48121
# Shear Modulus (GPa) = 31.62749 37.10284 34.36517
#
# Velocity S-wave (km/s) = 3.67155 3.97668 3.82716
# Velocity P-wave (km/s) = 6.03920 6.62680 6.33981
#
# Compressibility (1/GPa) = 0.02304116
#
# Stress axis : x y z
#
# Youngs Moduli (GPa) = 81.96369 81.49727 52.13904
#
# Poissons Ratio (x) = 0.43164 0.29748
# Poissons Ratio (y) = 0.43411 -0.03636
# Poissons Ratio (z) = 0.46765 -0.05683
#
# Static dielectric constant tensor:
#      x y z
#    x 4.086480 0.000000 -0.159250 
#    y 0.000000 4.290120 0.000000 
#    z -0.159250 0.000000 3.888070 
# 
# 
# High freq. dielectric constant tensor:
#      x y z
#    x 1.934680 0.000000 -0.015980 
#    y 0.000000 1.941960 0.000000 
#    z -0.015980 0.000000 1.902440 
# 
# From -- ./inp_files/27353.got.cif
#   From: 2010.06.25/outbox.cif.g09.slc.cpg/sg9_14_cif.got.tgz:27353.got - 2010.06.27 21:40:51.
