data_PCOD8055272
_publ_section_title
;
Structure prediction by ZEFSAII (Michael W. Deem and Ramdas Pophale) SiO2 
 PCOD8055272
Probable space group: C C
;
_chemical_formula_sum "Si O2"
_cell_formula_units_Z 32
_cell_length_a 11.434111
_cell_length_b 8.541152
_cell_length_c 13.325703
_cell_angle_alpha 90.000000
_cell_angle_beta 110.231508
_cell_angle_gamma 90.000000
_cell_volume 1221.102406
_symmetry_space_group_name_H-M "C C"
_symmetry_group_IT_number 9
_symmetry_cell_setting 'monoclinic'
loop_
_space_group_symop_operation_xyz
x,y,z
x,-y,1/2+z
1/2+x,1/2+y,z
1/2+x,1/2-y,1/2+z
loop_
_atom_site_type_symbol
_atom_site_label
_atom_site_fract_x
_atom_site_fract_y
_atom_site_fract_z
Si Si1 0.100520 0.300945 0.062070
Si Si2 0.294145 0.833513 0.205296
Si Si3 0.390624 0.336452 0.967573
Si Si4 0.627044 0.886183 0.853116
Si Si5 0.826594 0.011700 0.129419
Si Si6 0.935954 0.553288 0.120674
Si Si7 0.566114 0.224976 0.874796
Si Si8 0.595919 0.452176 0.722871
O O1 0.234741 0.372677 0.134210
O O2 0.083101 0.136157 0.112494
O O3 0.996095 0.421819 0.068246
O O4 0.089257 0.277893 0.937432
O O5 0.259279 0.678450 0.130637
O O6 0.424644 0.816101 0.300426
O O7 0.314623 0.978303 0.135705
O O8 0.179900 0.891682 0.242685
O O9 0.268123 0.337097 0.855420
O O10 0.531384 0.325960 0.964148
O O11 0.369462 0.494214 0.025303
O O12 0.378554 0.192740 0.040452
O O13 0.534422 0.881112 0.732561
O O14 0.636095 0.060204 0.908643
O O15 0.959526 0.998765 0.226555
O O16 0.646274 0.327308 0.820057
#
# Coordination Sequence:
#
# PCOD8055272 Si02
#       8
#     4   4   4   4   4   4   4   4
#     4  11  21  43  70 100 143 189 240 293 367 429
#     4  10  22  43  69 101 140 186 243 300 359 428
#     4  11  24  42  72 108 142 193 245 293 377 437
#     4  10  22  41  70 103 144 188 244 306 355 437
#     4  10  24  40  67 100 134 185 233 299 358 428
#     4  11  22  44  77 100 145 201 236 303 371 425
#     4  10  22  41  64 102 141 186 240 296 362 437
#     4  11  23  44  71 102 143 188 243 302 357 435
#
# _framework density 26.205828
#
# number of rings (size 3 to 8) (size 9 to 14) (size 15 to 20)
#    0.000    1.500    5.000    1.500    5.250    0.000 
#    0.000   13.750    0.000    0.000    0.000    0.000 
#    0.000    0.000    0.000    0.000    0.000    0.000 
#
# Total GULP energy -198251.521038 kJ/mol
# GULP energy per Si atom -12390.720065 kJ/mol
# Density = 2.614618 g / cm^3
# Si number density = 26.205828 Si / 1000 Ang^3
#
#
#
# Elastic Constant Matrix: (Units=GPa)
#
#
# Indices 1 2 3 4 5 6 
#
# 1 110.0592 34.4530 -7.0287 0.0000 -4.1402 0.0000
# 2 34.4530 92.2640 11.7540 0.0000 9.5518 0.0000
# 3 -7.0287 11.7540 25.0757 0.0000 4.5561 0.0000
# 4 0.0000 0.0000 0.0000 32.6841 0.0000 0.6834
# 5 -4.1402 9.5518 4.5561 0.0000 30.8772 0.0000
# 6 0.0000 0.0000 0.0000 0.6834 0.0000 45.1126
#
#
#
# Elastic Compliance Matrix: (Units=1/GPa)
#
#
# Indices 1 2 3 4 5 6 
#
# 1 0.011061 -0.005009 0.005032 0.000000 0.002290 0.000000
# 2 -0.005009 0.014043 -0.007270 0.000000 -0.003943 0.000000
# 3 0.005032 -0.007270 0.045383 0.000000 -0.003773 0.000000
# 4 0.000000 0.000000 0.000000 0.030606 0.000000 -0.000464
# 5 0.002290 -0.003943 -0.003773 0.000000 0.034470 0.000000
# 6 0.000000 0.000000 0.000000 -0.000464 0.000000 0.022174
#
#
# Mechanical properties :
#
#
# Convention : Reuss Voigt Hill
#
# Bulk Modulus (GPa) = 17.85889 33.97284 25.91587
# Shear Modulus (GPa) = 26.19239 34.28281 30.23760
#
# Velocity S-wave (km/s) = 3.16490 3.62085 3.40052
# Velocity P-wave (km/s) = 4.49278 5.52021 5.03278
#
# Compressibility (1/GPa) = 0.05599452
#
# Stress axis : x y z
#
# Youngs Moduli (GPa) = 90.40384 71.20888 22.03464
#
# Poissons Ratio (x) = 0.35667 -0.11088
# Poissons Ratio (y) = 0.45281 0.16019
# Poissons Ratio (z) = -0.45493 0.51770
#
# Static dielectric constant tensor:
#      x y z
#    x 5.272350 0.000000 -0.335870 
#    y 0.000000 4.903770 0.000000 
#    z -0.335870 0.000000 4.672610 
# 
# 
# High freq. dielectric constant tensor:
#      x y z
#    x 2.063040 0.000000 -0.012240 
#    y 0.000000 2.050960 0.000000 
#    z -0.012240 0.000000 2.033960 
# 
# From -- ./inp_files/24299.got.cif
#   From: 2010.06.25/outbox.cif.g09.slc.cpg/sg9_13_cif.got.tgz:24299.got - 2010.06.27 21:40:51.
