data_PCOD8055887
_publ_section_title
;
Structure prediction by ZEFSAII (Michael W. Deem and Ramdas Pophale) SiO2 
 PCOD8055887
Probable space group: C C
;
_chemical_formula_sum "Si O2"
_cell_formula_units_Z 28
_cell_length_a 12.148914
_cell_length_b 8.864426
_cell_length_c 13.498476
_cell_angle_alpha 90.000000
_cell_angle_beta 119.826767
_cell_angle_gamma 90.000000
_cell_volume 1261.127258
_symmetry_space_group_name_H-M "C C"
_symmetry_group_IT_number 9
_symmetry_cell_setting 'monoclinic'
loop_
_space_group_symop_operation_xyz
x,y,z
x,-y,1/2+z
1/2+x,1/2+y,z
1/2+x,1/2-y,1/2+z
loop_
_atom_site_type_symbol
_atom_site_label
_atom_site_fract_x
_atom_site_fract_y
_atom_site_fract_z
Si Si1 0.198420 0.493316 0.725960
Si Si2 0.547195 0.231845 0.557630
Si Si3 0.339394 0.986165 0.446475
Si Si4 0.561029 0.420347 0.764067
Si Si5 0.937420 0.834376 0.322749
Si Si6 0.371937 0.779992 0.279659
Si Si7 0.926308 0.555470 0.188845
O O1 0.155846 0.602737 0.615505
O O2 0.318546 0.584290 0.825586
O O3 0.247921 0.327856 0.716962
O O4 0.078719 0.473124 0.745643
O O5 0.550025 0.352222 0.648837
O O6 0.552118 0.321699 0.455087
O O7 0.415691 0.141420 0.492808
O O8 0.390559 0.864545 0.391480
O O9 0.356197 0.893688 0.556921
O O10 0.202266 0.040703 0.355253
O O11 0.481470 0.575251 0.743736
O O12 0.503397 0.307655 0.819963
O O13 0.898232 0.670033 0.265380
O O14 0.355485 0.901358 0.185665
#
# Coordination Sequence:
#
# PCOD8055887 Si02
#       7
#     4   4   4   4   4   4   4
#     4  10  24  45  66 101 142 173 237 286 335 431
#     4  11  23  45  68 102 142 185 230 297 345 419
#     4  11  24  42  72  98 142 177 232 292 336 431
#     4  11  25  45  69 105 139 186 236 285 357 414
#     4  11  25  44  72 103 139 188 232 289 355 412
#     4  11  23  44  68 101 136 184 232 281 357 404
#     4  11  24  45  67 106 136 183 231 288 353 405
#
# _framework density 22.202359999999999
#
# number of rings (size 3 to 8) (size 9 to 14) (size 15 to 20)
#    0.000    1.143    4.286    1.714    2.000    4.571 
#    5.143    0.000    0.000    0.000    0.000    0.000 
#    0.000    0.000    0.000    0.000    0.000    0.000 
#
# Total GULP energy -173450.179754 kJ/mol
# GULP energy per Si atom -12389.298554 kJ/mol
# Density = 2.215183 g / cm^3
# Si number density = 22.202360 Si / 1000 Ang^3
#
#
#
# Elastic Constant Matrix: (Units=GPa)
#
#
# Indices 1 2 3 4 5 6 
#
# 1 74.9095 51.7946 41.1695 0.0000 -2.3766 0.0000
# 2 51.7946 132.3923 49.0009 0.0000 -5.6505 0.0000
# 3 41.1695 49.0009 125.7590 0.0000 -15.9880 0.0000
# 4 0.0000 0.0000 0.0000 32.6003 0.0000 -9.5919
# 5 -2.3766 -5.6505 -15.9880 0.0000 31.7302 0.0000
# 6 0.0000 0.0000 0.0000 -9.5919 0.0000 31.8565
#
#
#
# Elastic Compliance Matrix: (Units=1/GPa)
#
#
# Indices 1 2 3 4 5 6 
#
# 1 0.020037 -0.006314 -0.004329 0.000000 -0.001805 0.000000
# 2 -0.006314 0.010816 -0.002097 0.000000 0.000397 0.000000
# 3 -0.004329 -0.002097 0.010788 0.000000 0.004738 0.000000
# 4 0.000000 0.000000 0.000000 0.033656 0.000000 0.010134
# 5 -0.001805 0.000397 0.004738 0.000000 0.033839 0.000000
# 6 0.000000 0.000000 0.000000 0.010134 0.000000 0.034442
#
#
# Mechanical properties :
#
#
# Convention : Reuss Voigt Hill
#
# Bulk Modulus (GPa) = 61.87254 68.55452 65.21353
# Shear Modulus (GPa) = 28.66231 31.97712 30.31972
#
# Velocity S-wave (km/s) = 3.59689 3.79919 3.69942
# Velocity P-wave (km/s) = 6.72147 7.08444 6.90534
#
# Compressibility (1/GPa) = 0.01616226
#
# Stress axis : x y z
#
# Youngs Moduli (GPa) = 49.90859 92.45153 92.69240
#
# Poissons Ratio (x) = 0.58370 0.40124
# Poissons Ratio (y) = 0.31510 0.19440
# Poissons Ratio (z) = 0.21604 0.19389
#
# Static dielectric constant tensor:
#      x y z
#    x 4.093110 0.000000 -0.044730 
#    y 0.000000 4.484290 0.000000 
#    z -0.044730 0.000000 4.264280 
# 
# 
# High freq. dielectric constant tensor:
#      x y z
#    x 1.873540 0.000000 0.004280 
#    y 0.000000 1.892860 0.000000 
#    z 0.004280 0.000000 1.859100 
# 
# From -- ./inp_files/20850.got.cif
#   From: 2010.06.25/outbox.cif.g09.slc.cpg/sg9_11_cif.got.tgz:20850.got - 2010.06.27 21:40:51.
