data_PCOD8055237
_publ_section_title
;
Structure prediction by ZEFSAII (Michael W. Deem and Ramdas Pophale) SiO2 
 PCOD8055237
Probable space group: C C
;
_chemical_formula_sum "Si O2"
_cell_formula_units_Z 32
_cell_length_a 12.891775
_cell_length_b 19.117526
_cell_length_c 8.409968
_cell_angle_alpha 90.000000
_cell_angle_beta 136.094648
_cell_angle_gamma 90.000000
_cell_volume 1437.361090
_symmetry_space_group_name_H-M "C C"
_symmetry_group_IT_number 9
_symmetry_cell_setting 'monoclinic'
loop_
_space_group_symop_operation_xyz
x,y,z
x,-y,1/2+z
1/2+x,1/2+y,z
1/2+x,1/2-y,1/2+z
loop_
_atom_site_type_symbol
_atom_site_label
_atom_site_fract_x
_atom_site_fract_y
_atom_site_fract_z
Si Si1 0.102840 0.075196 0.401030
Si Si2 0.287970 0.298049 0.330453
Si Si3 0.059213 0.201139 0.899017
Si Si4 0.775438 0.292723 0.109987
Si Si5 0.063110 0.706872 0.112146
Si Si6 0.235608 0.425528 0.814546
Si Si7 0.750363 0.929230 0.466415
Si Si8 0.088103 0.069923 0.748987
O O1 0.187582 0.143189 0.425059
O O2 0.143432 0.080043 0.631689
O O3 0.160087 0.002173 0.391956
O O4 0.929569 0.076324 0.165951
O O5 0.426875 0.318789 0.373046
O O6 0.342357 0.258160 0.549032
O O7 0.199114 0.367797 0.289879
O O8 0.178684 0.248846 0.115200
O O9 0.998935 0.242249 0.677809
O O10 0.141691 0.130597 0.928349
O O11 0.668520 0.249807 0.109432
O O12 0.918358 0.322637 0.361317
O O13 0.151554 0.642055 0.294189
O O14 0.194756 0.419742 0.583687
O O15 0.178387 0.499037 0.821423
O O16 0.408788 0.424552 0.050452
#
# Coordination Sequence:
#
# PCOD8055237 Si02
#       8
#     4   4   4   4   4   4   4   4
#     4  10  22  40  67  95 130 172 224 273 324 400
#     4  12  26  41  66  98 134 171 221 278 330 395
#     4  12  26  41  66  98 134 171 221 278 330 395
#     4  12  24  45  69  97 132 180 226 273 337 398
#     4  12  24  45  69  97 132 180 226 273 337 398
#     4  10  22  40  67  95 130 172 224 273 324 400
#     4  10  22  40  66  97 128 174 221 271 330 394
#     4  10  22  40  66  97 128 174 221 271 330 394
#
# _framework density 22.263020999999998
#
# number of rings (size 3 to 8) (size 9 to 14) (size 15 to 20)
#    0.000    1.000    2.500    4.500   10.500    0.000 
#    0.000    2.500    0.000    0.000    0.000    0.000 
#    0.000    0.000    0.000    0.000    0.000    0.000 
#
# Total GULP energy -198380.486746 kJ/mol
# GULP energy per Si atom -12398.780422 kJ/mol
# Density = 2.221235 g / cm^3
# Si number density = 22.263021 Si / 1000 Ang^3
#
#
#
# Elastic Constant Matrix: (Units=GPa)
#
#
# Indices 1 2 3 4 5 6 
#
# 1 71.7266 23.8544 10.1058 0.0000 -19.6692 0.0000
# 2 23.8544 165.4567 25.0511 0.0000 -8.6914 0.0000
# 3 10.1058 25.0511 58.4807 0.0000 -4.2766 0.0000
# 4 0.0000 0.0000 0.0000 50.6736 0.0000 -8.1570
# 5 -19.6692 -8.6914 -4.2766 0.0000 30.7035 0.0000
# 6 0.0000 0.0000 0.0000 -8.1570 0.0000 32.0835
#
#
#
# Elastic Compliance Matrix: (Units=1/GPa)
#
#
# Indices 1 2 3 4 5 6 
#
# 1 0.017646 -0.001757 -0.001522 0.000000 0.010595 0.000000
# 2 -0.001757 0.006703 -0.002537 0.000000 0.000419 0.000000
# 3 -0.001522 -0.002537 0.018514 0.000000 0.000886 0.000000
# 4 0.000000 0.000000 0.000000 0.020576 0.000000 0.005231
# 5 0.010595 0.000419 0.000886 0.000000 0.039599 0.000000
# 6 0.000000 0.000000 0.000000 0.005231 0.000000 0.032499
#
#
# Mechanical properties :
#
#
# Convention : Reuss Voigt Hill
#
# Bulk Modulus (GPa) = 32.01921 45.96518 38.99219
# Shear Modulus (GPa) = 31.72988 38.46897 35.09943
#
# Velocity S-wave (km/s) = 3.77931 4.16135 3.97492
# Velocity P-wave (km/s) = 5.78427 6.61667 6.21442
#
# Compressibility (1/GPa) = 0.03123125
#
# Stress axis : x y z
#
# Youngs Moduli (GPa) = 56.66997 149.17937 54.01236
#
# Poissons Ratio (x) = 0.26212 0.08220
# Poissons Ratio (y) = 0.09958 0.13704
# Poissons Ratio (z) = 0.08624 0.37850
#
# Static dielectric constant tensor:
#      x y z
#    x 4.863720 0.000000 0.340330 
#    y 0.000000 4.437000 0.000000 
#    z 0.340330 0.000000 4.474390 
# 
# 
# High freq. dielectric constant tensor:
#      x y z
#    x 1.856420 0.000000 -0.028310 
#    y 0.000000 1.896220 0.000000 
#    z -0.028310 0.000000 1.864010 
# 
# From -- ./inp_files/9942.got.cif
#   From: 2010.06.25/outbox.cif.g09.slc.cpg/sg9_5_cif.got.tgz:9942.got - 2010.06.27 21:40:51.
