data_PCOD8055674
_publ_section_title
;
Structure prediction by ZEFSAII (Michael W. Deem and Ramdas Pophale) SiO2 
 PCOD8055674
Probable space group: C C
;
_chemical_formula_sum "Si O2"
_cell_formula_units_Z 20
_cell_length_a 12.205374
_cell_length_b 7.369210
_cell_length_c 17.308247
_cell_angle_alpha 90.000000
_cell_angle_beta 148.143712
_cell_angle_gamma 90.000000
_cell_volume 821.649632
_symmetry_space_group_name_H-M "C C"
_symmetry_group_IT_number 9
_symmetry_cell_setting 'monoclinic'
loop_
_space_group_symop_operation_xyz
x,y,z
x,-y,1/2+z
1/2+x,1/2+y,z
1/2+x,1/2-y,1/2+z
loop_
_atom_site_type_symbol
_atom_site_label
_atom_site_fract_x
_atom_site_fract_y
_atom_site_fract_z
Si Si1 0.140500 0.104028 0.372580
Si Si2 0.428136 0.413661 0.590565
Si Si3 0.916162 0.668799 0.111509
Si Si4 0.209071 0.016853 0.633791
Si Si5 0.873952 0.192260 0.337149
O O1 0.231244 0.283960 0.468188
O O2 0.079402 0.152442 0.249509
O O3 0.937246 0.057623 0.303514
O O4 0.299192 0.935270 0.471531
O O5 0.361400 0.620190 0.569197
O O6 0.552254 0.383087 0.584746
O O7 0.841911 0.591692 0.149986
O O8 0.161463 0.630536 0.251233
O O9 0.351661 0.107291 0.785788
O O10 0.064809 0.178898 0.512121
#
# Coordination Sequence:
#
# PCOD8055674 Si02
#       5
#     4   4   4   4   4
#     4  11  25  48  74 105 147 196 245 309 368 439
#     4  11  27  46  73 111 147 195 249 305 364 444
#     4  10  25  47  73 108 146 194 244 302 376 438
#     4  10  24  45  74 110 149 196 246 305 373 439
#     4  10  23  44  72 104 147 191 240 309 357 434
#
# _framework density 24.341276000000001
#
# number of rings (size 3 to 8) (size 9 to 14) (size 15 to 20)
#    0.000    1.600    0.000    2.400   16.800    1.600 
#   10.800    0.000    0.000    0.000    0.000    0.000 
#    0.000    0.000    0.000    0.000    0.000    0.000 
#
# Total GULP energy -123929.741627 kJ/mol
# GULP energy per Si atom -12392.974163 kJ/mol
# Density = 2.428587 g / cm^3
# Si number density = 24.341276 Si / 1000 Ang^3
#
#
#
# Elastic Constant Matrix: (Units=GPa)
#
#
# Indices 1 2 3 4 5 6 
#
# 1 169.0777 46.0842 57.2785 0.0000 8.0659 0.0000
# 2 46.0842 126.7988 67.8399 0.0000 8.0284 0.0000
# 3 57.2785 67.8399 104.9793 0.0003 -8.1847 0.0001
# 4 0.0000 0.0000 0.0003 36.1873 0.0001 -2.6636
# 5 8.0659 8.0284 -8.1847 0.0001 45.6187 0.0000
# 6 0.0000 0.0000 0.0001 -2.6636 0.0000 34.1377
#
#
#
# Elastic Compliance Matrix: (Units=1/GPa)
#
#
# Indices 1 2 3 4 5 6 
#
# 1 0.007464 -0.000506 -0.003896 0.000000 -0.001930 0.000000
# 2 -0.000506 0.012690 -0.008206 0.000000 -0.003616 0.000000
# 3 -0.003896 -0.008206 0.017364 0.000000 0.005248 0.000000
# 4 0.000000 0.000000 0.000000 0.027794 0.000000 0.002169
# 5 -0.001930 -0.003616 0.005248 0.000000 0.023840 0.000000
# 6 0.000000 0.000000 0.000000 0.002169 0.000000 0.029462
#
#
# Mechanical properties :
#
#
# Convention : Reuss Voigt Hill
#
# Bulk Modulus (GPa) = 81.29414 82.58454 81.93934
# Shear Modulus (GPa) = 33.79949 38.49894 36.14922
#
# Velocity S-wave (km/s) = 3.73039 3.98129 3.85788
# Velocity P-wave (km/s) = 7.21281 7.42534 7.31984
#
# Compressibility (1/GPa) = 0.01230101
#
# Stress axis : x y z
#
# Youngs Moduli (GPa) = 133.97076 78.80235 57.59167
#
# Poissons Ratio (x) = 0.03990 0.22437
# Poissons Ratio (y) = 0.06783 0.47261
# Poissons Ratio (z) = 0.52194 0.64667
#
# Static dielectric constant tensor:
#      x y z
#    x 4.808680 0.000000 0.056640 
#    y 0.000000 4.100110 0.000000 
#    z 0.056640 0.000000 4.473260 
# 
# 
# High freq. dielectric constant tensor:
#      x y z
#    x 1.995210 0.000000 0.000720 
#    y 0.000000 1.938800 0.000000 
#    z 0.000720 0.000000 1.970470 
# 
# From -- ./inp_files/6651.got.cif
#   From: 2010.06.25/outbox.cif.g09.slc.cpg/sg9_4_cif.got.tgz:6651.got - 2010.06.27 21:40:51.
