data_PCOD8055481
_publ_section_title
;
Structure prediction by ZEFSAII (Michael W. Deem and Ramdas Pophale) SiO2 
 PCOD8055481
Probable space group: C C
;
_chemical_formula_sum "Si O2"
_cell_formula_units_Z 32
_cell_length_a 13.616436
_cell_length_b 9.612546
_cell_length_c 10.424577
_cell_angle_alpha 90.000000
_cell_angle_beta 95.000876
_cell_angle_gamma 90.000000
_cell_volume 1359.264476
_symmetry_space_group_name_H-M "C C"
_symmetry_group_IT_number 9
_symmetry_cell_setting 'monoclinic'
loop_
_space_group_symop_operation_xyz
x,y,z
x,-y,1/2+z
1/2+x,1/2+y,z
1/2+x,1/2-y,1/2+z
loop_
_atom_site_type_symbol
_atom_site_label
_atom_site_fract_x
_atom_site_fract_y
_atom_site_fract_z
Si Si1 0.359670 0.000698 0.251060
Si Si2 0.253541 0.485517 0.309366
Si Si3 0.758858 0.284655 0.371086
Si Si4 0.432207 0.286985 0.329004
Si Si5 0.660964 0.377452 0.610539
Si Si6 0.129281 0.559758 0.042738
Si Si7 0.997675 0.679274 0.589945
Si Si8 0.596472 0.337499 0.154926
O O1 0.433814 0.125073 0.287154
O O2 0.260207 0.081947 0.196233
O O3 0.338719 0.910542 0.379109
O O4 0.410303 0.884846 0.165640
O O5 0.303768 0.628880 0.368055
O O6 0.332760 0.368518 0.285476
O O7 0.194237 0.513907 0.172601
O O8 0.186107 0.426916 0.415631
O O9 0.687249 0.296247 0.483517
O O10 0.701526 0.308802 0.231810
O O11 0.451447 0.289787 0.483710
O O12 0.516708 0.360526 0.257153
O O13 0.585146 0.268403 0.673542
O O14 0.602411 0.520457 0.573670
O O15 0.044112 0.447055 0.014801
O O16 0.075339 0.708053 0.059273
#
# Coordination Sequence:
#
# PCOD8055481 Si02
#       8
#     4   4   4   4   4   4   4   4
#     4  11  26  42  70 101 141 186 247 301 373 439
#     4  11  26  42  79 102 144 185 246 302 376 441
#     4  10  22  46  64  96 138 185 231 296 366 432
#     4  12  25  44  65 107 138 185 248 303 357 461
#     4  11  23  45  68  98 140 185 233 302 371 438
#     4  11  23  49  71 103 139 196 235 300 376 444
#     4  12  24  45  71  97 145 188 243 303 372 442
#     4  10  23  43  68  96 141 178 235 297 357 437
#
# _framework density 23.542142999999999
#
# number of rings (size 3 to 8) (size 9 to 14) (size 15 to 20)
#    0.000    1.000    3.750    2.250    8.750    0.000 
#    0.000    0.000    0.000    0.000    0.000    0.000 
#    0.000    0.000    0.000    0.000    0.000    0.000 
#
# Total GULP energy -198258.705151 kJ/mol
# GULP energy per Si atom -12391.169072 kJ/mol
# Density = 2.348856 g / cm^3
# Si number density = 23.542143 Si / 1000 Ang^3
#
#
#
# Elastic Constant Matrix: (Units=GPa)
#
#
# Indices 1 2 3 4 5 6 
#
# 1 85.9504 31.6905 16.0740 0.0000 -13.4575 0.0000
# 2 31.6905 121.0981 5.2181 0.0000 -11.5606 0.0000
# 3 16.0740 5.2181 62.4376 0.0000 -7.8634 0.0000
# 4 0.0000 0.0000 0.0000 31.8088 0.0000 -8.0613
# 5 -13.4575 -11.5606 -7.8634 0.0000 25.8143 0.0000
# 6 0.0000 0.0000 0.0000 -8.0613 0.0000 46.3757
#
#
#
# Elastic Compliance Matrix: (Units=1/GPa)
#
#
# Indices 1 2 3 4 5 6 
#
# 1 0.014082 -0.003078 -0.002722 0.000000 0.005134 0.000000
# 2 -0.003078 0.009303 0.000351 0.000000 0.002669 0.000000
# 3 -0.002722 0.000351 0.017188 0.000000 0.003974 0.000000
# 4 0.000000 0.000000 0.000000 0.032887 0.000000 0.005717
# 5 0.005134 0.002669 0.003974 0.000000 0.043820 0.000000
# 6 0.000000 0.000000 0.000000 0.005717 0.000000 0.022557
#
#
# Mechanical properties :
#
#
# Convention : Reuss Voigt Hill
#
# Bulk Modulus (GPa) = 33.69721 41.71680 37.70701
# Shear Modulus (GPa) = 31.12837 35.23335 33.18086
#
# Velocity S-wave (km/s) = 3.64021 3.87280 3.75830
# Velocity P-wave (km/s) = 5.65798 6.14464 5.90633
#
# Compressibility (1/GPa) = 0.02967605
#
# Stress axis : x y z
#
# Youngs Moduli (GPa) = 71.01140 107.49402 58.18082
#
# Poissons Ratio (x) = 0.33085 0.15834
# Poissons Ratio (y) = 0.21856 -0.02042
# Poissons Ratio (z) = 0.19326 -0.03773
#
# Static dielectric constant tensor:
#      x y z
#    x 4.249370 0.000000 -0.067200 
#    y 0.000000 4.822240 0.000000 
#    z -0.067200 0.000000 3.869250 
# 
# 
# High freq. dielectric constant tensor:
#      x y z
#    x 1.926110 0.000000 -0.013470 
#    y 0.000000 1.959590 0.000000 
#    z -0.013470 0.000000 1.907140 
# 
# From -- ./inp_files/17777.got.cif
#   From: 2010.06.25/outbox.cif.g09.slc.cpg/sg9_9_cif.got.tgz:17777.got - 2010.06.27 21:40:51.
