data_PCOD8055957
_publ_section_title
;
Structure prediction by ZEFSAII (Michael W. Deem and Ramdas Pophale) SiO2 
 PCOD8055957
Probable space group: C C
;
_chemical_formula_sum "Si O2"
_cell_formula_units_Z 32
_cell_length_a 15.976376
_cell_length_b 13.518048
_cell_length_c 12.261258
_cell_angle_alpha 90.000000
_cell_angle_beta 32.969236
_cell_angle_gamma 90.000000
_cell_volume 1441.042419
_symmetry_space_group_name_H-M "C C"
_symmetry_group_IT_number 9
_symmetry_cell_setting 'monoclinic'
loop_
_space_group_symop_operation_xyz
x,y,z
x,-y,1/2+z
1/2+x,1/2+y,z
1/2+x,1/2-y,1/2+z
loop_
_atom_site_type_symbol
_atom_site_label
_atom_site_fract_x
_atom_site_fract_y
_atom_site_fract_z
Si Si1 0.265880 0.339298 0.643760
Si Si2 0.000397 0.289441 0.778670
Si Si3 0.335040 0.013857 0.400355
Si Si4 0.674312 0.819357 0.174637
Si Si5 0.327686 0.138655 0.083078
Si Si6 0.338264 0.460521 0.152796
Si Si7 0.119864 0.589083 0.507066
Si Si8 0.605515 0.388514 0.012734
O O1 0.158437 0.331854 0.654706
O O2 0.394997 0.254603 0.492079
O O3 0.354773 0.445088 0.552554
O O4 0.156700 0.330343 0.871262
O O5 0.030346 0.204108 0.656605
O O6 0.912509 0.378812 0.817970
O O7 0.166687 0.027907 0.530669
O O8 0.320337 0.971573 0.539420
O O9 0.438934 0.935873 0.217111
O O10 0.501719 0.825269 0.407334
O O11 0.730471 0.706454 0.105054
O O12 0.790403 0.866837 0.134673
O O13 0.691714 0.869642 0.039108
O O14 0.255589 0.145341 0.281546
O O15 0.205230 0.485809 0.386238
O O16 0.492577 0.438737 0.049683
#
# Coordination Sequence:
#
# PCOD8055957 Si02
#       8
#     4   4   4   4   4   4   4   4
#     4  10  25  45  70 108 145 189 241 302 369 432
#     4  12  26  47  74 110 148 185 252 303 366 437
#     4  11  26  47  73 105 148 187 245 300 364 434
#     4  11  23  46  70 102 147 186 244 294 363 434
#     4  11  27  45  70 108 140 193 237 304 355 442
#     4  10  25  43  73 100 149 187 245 288 370 429
#     4   9  24  45  74  96 141 200 231 296 371 428
#     4  12  28  42  72 107 146 191 245 299 360 434
#
# _framework density 22.206146
#
# number of rings (size 3 to 8) (size 9 to 14) (size 15 to 20)
#    0.750    0.500    1.250    3.000   12.250    3.000 
#    2.250    0.000    0.000    0.000    0.000    0.000 
#    0.000    0.000    0.000    0.000    0.000    0.000 
#
# Total GULP energy -198343.918540 kJ/mol
# GULP energy per Si atom -12396.494909 kJ/mol
# Density = 2.215560 g / cm^3
# Si number density = 22.206146 Si / 1000 Ang^3
#
#
#
# Elastic Constant Matrix: (Units=GPa)
#
#
# Indices 1 2 3 4 5 6 
#
# 1 128.1633 42.0494 25.9993 0.0000 -24.2668 0.0000
# 2 42.0494 85.5418 28.3047 0.0000 -4.6527 0.0000
# 3 25.9993 28.3047 84.8942 0.0000 9.8750 0.0000
# 4 0.0000 0.0000 0.0000 30.9335 0.0000 -5.3193
# 5 -24.2668 -4.6527 9.8750 0.0000 35.7981 0.0000
# 6 0.0000 0.0000 0.0000 -5.3193 0.0000 36.0168
#
#
#
# Elastic Compliance Matrix: (Units=1/GPa)
#
#
# Indices 1 2 3 4 5 6 
#
# 1 0.011261 -0.004112 -0.003000 0.000000 0.007927 0.000000
# 2 -0.004112 0.014963 -0.003752 0.000000 0.000193 0.000000
# 3 -0.003000 -0.003752 0.014715 0.000000 -0.006580 0.000000
# 4 0.000000 0.000000 0.000000 0.033170 0.000000 0.004899
# 5 0.007927 0.000193 -0.006580 0.000000 0.035148 0.000000
# 6 0.000000 0.000000 0.000000 0.004899 0.000000 0.028488
#
#
# Mechanical properties :
#
#
# Convention : Reuss Voigt Hill
#
# Bulk Modulus (GPa) = 52.05241 54.58956 53.32099
# Shear Modulus (GPa) = 30.14291 34.03272 32.08782
#
# Velocity S-wave (km/s) = 3.68831 3.91907 3.80544
# Velocity P-wave (km/s) = 6.45210 6.71679 6.58577
#
# Compressibility (1/GPa) = 0.01921140
#
# Stress axis : x y z
#
# Youngs Moduli (GPa) = 88.80197 66.82977 67.96010
#
# Poissons Ratio (x) = 0.27479 0.20387
# Poissons Ratio (y) = 0.36513 0.25499
# Poissons Ratio (z) = 0.26640 0.25075
#
# Static dielectric constant tensor:
#      x y z
#    x 3.851890 0.000000 -0.032090 
#    y 0.000000 3.956710 0.000000 
#    z -0.032090 0.000000 4.054710 
# 
# 
# High freq. dielectric constant tensor:
#      x y z
#    x 1.876230 0.000000 -0.001900 
#    y 0.000000 1.867100 0.000000 
#    z -0.001900 0.000000 1.877900 
# 
# From -- ./inp_files/18444.got.cif
#   From: 2010.06.25/outbox.cif.g09.slc.cpg/sg9_10_cif.got.tgz:18444.got - 2010.06.27 21:40:51.
