data_PCOD8055478
_publ_section_title
;
Structure prediction by ZEFSAII (Michael W. Deem and Ramdas Pophale) SiO2 
 PCOD8055478
Probable space group: C C
;
_chemical_formula_sum "Si O2"
_cell_formula_units_Z 32
_cell_length_a 14.399024
_cell_length_b 11.574923
_cell_length_c 9.860950
_cell_angle_alpha 90.000000
_cell_angle_beta 62.946205
_cell_angle_gamma 90.000000
_cell_volume 1463.668756
_symmetry_space_group_name_H-M "C C"
_symmetry_group_IT_number 9
_symmetry_cell_setting 'monoclinic'
loop_
_space_group_symop_operation_xyz
x,y,z
x,-y,1/2+z
1/2+x,1/2+y,z
1/2+x,1/2-y,1/2+z
loop_
_atom_site_type_symbol
_atom_site_label
_atom_site_fract_x
_atom_site_fract_y
_atom_site_fract_z
Si Si1 0.281290 0.253617 0.851530
Si Si2 0.850667 0.182239 0.593915
Si Si3 0.498377 0.111526 0.010970
Si Si4 0.896452 0.527661 0.820063
Si Si5 0.098379 0.099630 0.899393
Si Si6 0.364561 0.413905 0.567343
Si Si7 0.718193 0.816906 0.438981
Si Si8 0.180793 0.068297 0.558018
O O1 0.361225 0.147864 0.775191
O O2 0.163784 0.213568 0.896061
O O3 0.314460 0.358341 0.733796
O O4 0.282711 0.294724 0.005289
O O5 0.781280 0.223601 0.765704
O O6 0.956546 0.257347 0.522383
O O7 0.879746 0.048784 0.585515
O O8 0.438254 0.053237 0.174876
O O9 0.482796 0.044982 0.879278
O O10 0.620888 0.105019 0.958807
O O11 0.799132 0.470832 0.961415
O O12 0.143628 0.040571 0.734266
O O13 0.978685 0.139229 0.961204
O O14 0.104491 0.001330 0.009936
O O15 0.291512 0.392084 0.487340
O O16 0.672611 0.705404 0.544684
#
# Coordination Sequence:
#
# PCOD8055478 Si02
#       8
#     4   4   4   4   4   4   4   4
#     4  10  24  47  70 103 133 178 233 283 338 405
#     4  11  26  47  70 101 140 179 227 283 345 407
#     4  11  25  45  71 100 133 184 221 283 342 405
#     4  10  22  45  74  99 133 171 234 283 334 402
#     4  11  26  43  75  99 136 183 231 281 341 405
#     4  12  27  48  67  99 145 181 227 285 339 413
#     4  12  27  43  69 102 142 178 226 282 342 415
#     4  11  23  46  72 105 130 182 235 280 333 410
#
# _framework density 21.862870000000001
#
# number of rings (size 3 to 8) (size 9 to 14) (size 15 to 20)
#    0.000    1.000    2.500    3.000   10.500    2.000 
#    2.250    0.000    0.000    0.000    0.000    0.000 
#    0.000    0.000    0.000    0.000    0.000    0.000 
#
# Total GULP energy -198503.921361 kJ/mol
# GULP energy per Si atom -12406.495085 kJ/mol
# Density = 2.181311 g / cm^3
# Si number density = 21.862870 Si / 1000 Ang^3
#
#
#
# Elastic Constant Matrix: (Units=GPa)
#
#
# Indices 1 2 3 4 5 6 
#
# 1 151.4967 29.7265 26.9520 0.0000 14.0935 0.0000
# 2 29.7265 99.5287 23.1339 0.0000 14.4932 0.0000
# 3 26.9520 23.1339 98.3055 0.0000 26.2300 0.0000
# 4 0.0000 0.0000 0.0000 34.3831 0.0000 4.8930
# 5 14.0935 14.4932 26.2300 0.0000 31.0923 0.0000
# 6 0.0000 0.0000 0.0000 4.8930 0.0000 23.7286
#
#
#
# Elastic Compliance Matrix: (Units=1/GPa)
#
#
# Indices 1 2 3 4 5 6 
#
# 1 0.007284 -0.001677 -0.001200 0.000000 -0.001507 0.000000
# 2 -0.001677 0.011350 -0.001293 0.000000 -0.003439 0.000000
# 3 -0.001200 -0.001293 0.013550 0.000000 -0.010284 0.000000
# 4 0.000000 0.000000 0.000000 0.029963 0.000000 -0.006179
# 5 -0.001507 -0.003439 -0.010284 0.000000 0.043124 0.000000
# 6 0.000000 0.000000 0.000000 -0.006179 0.000000 0.043417
#
#
# Mechanical properties :
#
#
# Convention : Reuss Voigt Hill
#
# Bulk Modulus (GPa) = 41.94286 56.55063 49.24674
# Shear Modulus (GPa) = 30.30741 35.80872 33.05806
#
# Velocity S-wave (km/s) = 3.72728 4.05146 3.89275
# Velocity P-wave (km/s) = 6.14407 6.91433 6.54055
#
# Compressibility (1/GPa) = 0.02384196
#
# Stress axis : x y z
#
# Youngs Moduli (GPa) = 137.29498 88.10833 73.80225
#
# Poissons Ratio (x) = 0.14775 0.08857
# Poissons Ratio (y) = 0.23024 0.09546
# Poissons Ratio (z) = 0.16476 0.11397
#
# Static dielectric constant tensor:
#      x y z
#    x 4.003530 0.000000 0.179350 
#    y 0.000000 3.951840 0.000000 
#    z 0.179350 0.000000 3.911890 
# 
# 
# High freq. dielectric constant tensor:
#      x y z
#    x 1.866340 0.000000 0.013760 
#    y 0.000000 1.859120 0.000000 
#    z 0.013760 0.000000 1.867750 
# 
# From -- ./inp_files/9077.got.cif
#   From: 2010.06.25/outbox.cif.g09.slc.cpg/sg9_5_cif.got.tgz:9077.got - 2010.06.27 21:40:51.
