data_PCOD8055100
_publ_section_title
;
Structure prediction by ZEFSAII (Michael W. Deem and Ramdas Pophale) SiO2 
 PCOD8055100
Probable space group: C C
;
_chemical_formula_sum "Si O2"
_cell_formula_units_Z 32
_cell_length_a 8.484863
_cell_length_b 12.005723
_cell_length_c 13.697710
_cell_angle_alpha 90.000000
_cell_angle_beta 91.033990
_cell_angle_gamma 90.000000
_cell_volume 1395.116249
_symmetry_space_group_name_H-M "C C"
_symmetry_group_IT_number 9
_symmetry_cell_setting 'monoclinic'
loop_
_space_group_symop_operation_xyz
x,y,z
x,-y,1/2+z
1/2+x,1/2+y,z
1/2+x,1/2-y,1/2+z
loop_
_atom_site_type_symbol
_atom_site_label
_atom_site_fract_x
_atom_site_fract_y
_atom_site_fract_z
Si Si1 0.112850 0.047232 0.516310
Si Si2 0.257987 0.943918 0.830866
Si Si3 0.332035 0.662920 0.396406
Si Si4 0.563606 0.237238 0.753899
Si Si5 0.682172 0.693399 0.058649
Si Si6 0.052868 0.112680 0.721209
Si Si7 0.480397 0.859157 0.691681
Si Si8 0.221024 0.489144 0.249435
O O1 0.083094 0.915622 0.528377
O O2 0.267053 0.063026 0.448435
O O3 0.148589 0.102484 0.620758
O O4 0.970000 0.111255 0.463550
O O5 0.182472 0.832959 0.786181
O O6 0.423975 0.943736 0.778407
O O7 0.152872 0.053544 0.806656
O O8 0.397834 0.740804 0.307515
O O9 0.213668 0.731957 0.463819
O O10 0.240606 0.561104 0.347531
O O11 0.569951 0.241848 0.634883
O O12 0.623922 0.117060 0.785718
O O13 0.855167 0.657737 0.103796
O O14 0.029152 0.242598 0.742868
O O15 0.886446 0.049693 0.704876
O O16 0.634886 0.932947 0.664933
#
# Coordination Sequence:
#
# PCOD8055100 Si02
#       8
#     4   4   4   4   4   4   4   4
#     4  11  21  40  73  93 128 184 224 272 343 402
#     4  10  22  43  67  92 138 181 217 278 340 399
#     4  11  24  42  68  98 132 180 225 279 338 406
#     4  10  21  44  66  90 139 173 217 280 329 402
#     4  11  22  44  67  95 137 173 227 282 335 406
#     4  12  21  46  67  95 140 179 224 274 343 410
#     4  11  25  42  67  98 135 176 221 280 335 401
#     4  12  24  41  71  99 131 178 225 277 343 398
#
# _framework density 22.937156000000002
#
# number of rings (size 3 to 8) (size 9 to 14) (size 15 to 20)
#    0.000    1.000    8.750    0.000    3.500    0.000 
#    4.500    1.250    2.750    0.000    0.000    0.000 
#    0.000    0.000    0.000    0.000    0.000    0.000 
#
# Total GULP energy -198264.490765 kJ/mol
# GULP energy per Si atom -12391.530673 kJ/mol
# Density = 2.288495 g / cm^3
# Si number density = 22.937156 Si / 1000 Ang^3
#
#
#
# Elastic Constant Matrix: (Units=GPa)
#
#
# Indices 1 2 3 4 5 6 
#
# 1 45.5898 31.4679 16.1977 0.0000 -20.0194 0.0000
# 2 31.4679 92.0897 5.8303 0.0000 -11.6656 0.0000
# 3 16.1977 5.8303 101.4565 0.0000 -38.8757 0.0000
# 4 0.0000 0.0000 0.0000 33.1356 0.0000 -3.0801
# 5 -20.0194 -11.6656 -38.8757 0.0000 30.4457 0.0000
# 6 0.0000 0.0000 0.0000 -3.0801 0.0000 29.6861
#
#
#
# Elastic Compliance Matrix: (Units=1/GPa)
#
#
# Indices 1 2 3 4 5 6 
#
# 1 0.039958 -0.010292 0.005421 0.000000 0.029253 0.000000
# 2 -0.010292 0.014274 0.000637 0.000000 -0.000484 0.000000
# 3 0.005421 0.000637 0.020390 0.000000 0.029845 0.000000
# 4 0.000000 0.000000 0.000000 0.030473 0.000000 0.003162
# 5 0.029253 -0.000484 0.029845 0.000000 0.090003 0.000000
# 6 0.000000 0.000000 0.000000 0.003162 0.000000 0.034014
#
#
# Mechanical properties :
#
#
# Convention : Reuss Voigt Hill
#
# Bulk Modulus (GPa) = 15.11588 38.45866 26.78727
# Shear Modulus (GPa) = 19.25816 31.02949 25.14382
#
# Velocity S-wave (km/s) = 2.90074 3.68204 3.31449
# Velocity P-wave (km/s) = 4.22179 5.90592 5.13339
#
# Compressibility (1/GPa) = 0.06615561
#
# Stress axis : x y z
#
# Youngs Moduli (GPa) = 25.02640 70.05738 49.04335
#
# Poissons Ratio (x) = 0.72100 -0.26587
# Poissons Ratio (y) = 0.25756 -0.03125
# Poissons Ratio (z) = -0.13567 -0.04464
#
# Static dielectric constant tensor:
#      x y z
#    x 4.221630 0.000000 -0.395620 
#    y 0.000000 4.317110 0.000000 
#    z -0.395620 0.000000 4.311760 
# 
# 
# High freq. dielectric constant tensor:
#      x y z
#    x 1.887680 0.000000 -0.016620 
#    y 0.000000 1.924920 0.000000 
#    z -0.016620 0.000000 1.894630 
# 
# From -- ./inp_files/22892.got.cif
#   From: 2010.06.25/outbox.cif.g09.slc.cpg/sg9_12_cif.got.tgz:22892.got - 2010.06.27 21:40:51.
