data_PCOD8055123
_publ_section_title
;
Structure prediction by ZEFSAII (Michael W. Deem and Ramdas Pophale) SiO2 
 PCOD8055123
Probable space group: C C
;
_chemical_formula_sum "Si O2"
_cell_formula_units_Z 20
_cell_length_a 6.713602
_cell_length_b 19.115638
_cell_length_c 9.763349
_cell_angle_alpha 90.000000
_cell_angle_beta 49.437852
_cell_angle_gamma 90.000000
_cell_volume 951.888196
_symmetry_space_group_name_H-M "C C"
_symmetry_group_IT_number 9
_symmetry_cell_setting 'monoclinic'
loop_
_space_group_symop_operation_xyz
x,y,z
x,-y,1/2+z
1/2+x,1/2+y,z
1/2+x,1/2-y,1/2+z
loop_
_atom_site_type_symbol
_atom_site_label
_atom_site_fract_x
_atom_site_fract_y
_atom_site_fract_z
Si Si1 0.936410 0.031449 0.895420
Si Si2 0.796482 0.834538 0.596639
Si Si3 0.337693 0.814405 0.003866
Si Si4 0.839384 0.369563 0.300293
Si Si5 0.377594 0.582648 0.636186
O O1 0.897157 0.025069 0.749010
O O2 0.237320 0.053492 0.795639
O O3 0.743394 0.094655 0.032396
O O4 0.877323 0.957290 0.991080
O O5 0.752716 0.766456 0.519120
O O6 0.108966 0.835082 0.497814
O O7 0.612493 0.833342 0.810630
O O8 0.378473 0.822782 0.147622
O O9 0.112433 0.862619 0.040735
O O10 0.104397 0.375421 0.268248
#
# Coordination Sequence:
#
# PCOD8055123 Si02
#       5
#     4   4   4   4   4
#     4   9  24  40  66  95 137 164 224 272 329 383
#     4  10  21  45  65  91 139 171 212 284 325 386
#     4  11  21  45  65  94 135 175 216 275 331 388
#     4   9  23  41  62  98 129 171 223 267 324 396
#     4  11  23  43  68  98 132 177 221 272 329 401
#
# _framework density 21.010871999999999
#
# number of rings (size 3 to 8) (size 9 to 14) (size 15 to 20)
#    1.200    0.800    2.000    0.000    5.600    1.600 
#   10.800    0.000    0.000    0.000    0.000    0.000 
#    0.000    0.000    0.000    0.000    0.000    0.000 
#
# Total GULP energy -123902.007130 kJ/mol
# GULP energy per Si atom -12390.200713 kJ/mol
# Density = 2.096305 g / cm^3
# Si number density = 21.010872 Si / 1000 Ang^3
#
#
#
# Elastic Constant Matrix: (Units=GPa)
#
#
# Indices 1 2 3 4 5 6 
#
# 1 114.7634 42.7128 65.0865 0.0000 -17.7692 0.0000
# 2 42.7128 95.7530 19.7775 0.0000 -9.6116 0.0000
# 3 65.0865 19.7775 118.0862 0.0000 -33.1106 0.0000
# 4 0.0000 0.0000 0.0000 30.4944 0.0000 -1.0004
# 5 -17.7692 -9.6116 -33.1106 0.0000 29.4475 0.0000
# 6 0.0000 0.0000 0.0000 -1.0004 0.0000 16.8320
#
#
#
# Elastic Compliance Matrix: (Units=1/GPa)
#
#
# Indices 1 2 3 4 5 6 
#
# 1 0.014757 -0.005139 -0.007662 0.000000 -0.001388 0.000000
# 2 -0.005139 0.012704 0.001458 0.000000 0.002684 0.000000
# 3 -0.007662 0.001458 0.016480 0.000000 0.014383 0.000000
# 4 0.000000 0.000000 0.000000 0.032857 0.000000 0.001953
# 5 -0.001388 0.002684 0.014383 0.000000 0.050169 0.000000
# 6 0.000000 0.000000 0.000000 0.001953 0.000000 0.059527
#
#
# Mechanical properties :
#
#
# Convention : Reuss Voigt Hill
#
# Bulk Modulus (GPa) = 47.05038 64.86181 55.95609
# Shear Modulus (GPa) = 23.11958 28.75649 25.93804
#
# Velocity S-wave (km/s) = 3.32077 3.70354 3.51736
# Velocity P-wave (km/s) = 6.09470 7.01611 6.57157
#
# Compressibility (1/GPa) = 0.02125381
#
# Stress axis : x y z
#
# Youngs Moduli (GPa) = 67.76474 78.71237 60.67868
#
# Poissons Ratio (x) = 0.40454 0.46493
# Poissons Ratio (y) = 0.34827 -0.08845
# Poissons Ratio (z) = 0.51922 -0.11473
#
# Static dielectric constant tensor:
#      x y z
#    x 3.399780 0.000000 -0.184880 
#    y 0.000000 3.690460 0.000000 
#    z -0.184880 0.000000 3.777290 
# 
# 
# High freq. dielectric constant tensor:
#      x y z
#    x 1.790470 0.000000 -0.016330 
#    y 0.000000 1.819840 0.000000 
#    z -0.016330 0.000000 1.826160 
# 
# From -- ./inp_files/3727.got.cif
#   From: 2010.06.25/outbox.cif.g09.slc.cpg/sg9_2_cif.got.tgz:3727.got - 2010.06.27 21:40:51.
