data_PCOD8055891
_publ_section_title
;
Structure prediction by ZEFSAII (Michael W. Deem and Ramdas Pophale) SiO2 
 PCOD8055891
Probable space group: C C
;
_chemical_formula_sum "Si O2"
_cell_formula_units_Z 24
_cell_length_a 7.269954
_cell_length_b 7.347233
_cell_length_c 22.522294
_cell_angle_alpha 90.000000
_cell_angle_beta 63.817885
_cell_angle_gamma 90.000000
_cell_volume 1079.573704
_symmetry_space_group_name_H-M "C C"
_symmetry_group_IT_number 9
_symmetry_cell_setting 'monoclinic'
loop_
_space_group_symop_operation_xyz
x,y,z
x,-y,1/2+z
1/2+x,1/2+y,z
1/2+x,1/2-y,1/2+z
loop_
_atom_site_type_symbol
_atom_site_label
_atom_site_fract_x
_atom_site_fract_y
_atom_site_fract_z
Si Si1 0.851460 0.618832 0.872670
Si Si2 0.014725 0.932060 0.512203
Si Si3 0.002231 0.892409 0.766226
Si Si4 0.078445 0.285715 0.562770
Si Si5 0.641514 0.444137 0.619788
Si Si6 0.276382 0.754196 0.821062
O O1 0.859823 0.407772 0.853128
O O2 0.833877 0.751242 0.817153
O O3 0.064228 0.665503 0.876542
O O4 0.660559 0.660366 0.942636
O O5 0.061696 0.844623 0.570838
O O6 0.780878 0.905832 0.525810
O O7 0.057524 0.149201 0.509354
O O8 0.016080 0.864903 0.693435
O O9 0.222699 0.846738 0.764779
O O10 0.946920 0.099803 0.789922
O O11 0.883782 0.416627 0.594552
O O12 0.099663 0.161133 0.619300
#
# Coordination Sequence:
#
# PCOD8055891 Si02
#       6
#     4   4   4   4   4   4
#     4  10  26  43  69 101 134 177 221 278 338 401
#     4  10  26  43  69  99 134 178 222 281 332 402
#     4  10  24  45  68 100 134 179 220 281 333 402
#     4  10  25  40  68  94 137 173 228 272 337 392
#     4  10  24  46  65 103 129 183 221 282 328 404
#     4  10  25  41  67  97 134 170 224 270 338 399
#
# _framework density 22.230996000000001
#
# number of rings (size 3 to 8) (size 9 to 14) (size 15 to 20)
#    2.000    0.000    0.000    1.000    9.333    1.333 
#    6.000    0.000    0.000    0.000    0.000    0.000 
#    0.000    0.000    0.000    0.000    0.000    0.000 
#
# Total GULP energy -148664.334094 kJ/mol
# GULP energy per Si atom -12388.694508 kJ/mol
# Density = 2.218040 g / cm^3
# Si number density = 22.230996 Si / 1000 Ang^3
#
#
#
# Elastic Constant Matrix: (Units=GPa)
#
#
# Indices 1 2 3 4 5 6 
#
# 1 95.8066 53.7738 21.7454 0.0000 -13.8752 0.0000
# 2 53.7738 112.3351 34.0047 0.0000 1.1349 0.0000
# 3 21.7454 34.0047 125.9265 0.0000 2.4228 0.0000
# 4 0.0000 0.0000 0.0000 18.4371 0.0000 -5.2023
# 5 -13.8752 1.1349 2.4228 0.0000 19.7558 0.0000
# 6 0.0000 0.0000 0.0000 -5.2023 0.0000 48.3285
#
#
#
# Elastic Compliance Matrix: (Units=1/GPa)
#
#
# Indices 1 2 3 4 5 6 
#
# 1 0.016917 -0.007914 -0.001024 0.000000 0.012461 0.000000
# 2 -0.007914 0.013398 -0.002135 0.000000 -0.006066 0.000000
# 3 -0.001024 -0.002135 0.008726 0.000000 -0.001667 0.000000
# 4 0.000000 0.000000 0.000000 0.055938 0.000000 0.006021
# 5 0.012461 -0.006066 -0.001667 0.000000 0.059923 0.000000
# 6 0.000000 0.000000 0.000000 0.006021 0.000000 0.021340
#
#
# Mechanical properties :
#
#
# Convention : Reuss Voigt Hill
#
# Bulk Modulus (GPa) = 59.18529 61.45733 60.32131
# Shear Modulus (GPa) = 24.50771 32.27391 28.39081
#
# Velocity S-wave (km/s) = 3.32386 3.81432 3.57751
# Velocity P-wave (km/s) = 6.43517 6.86321 6.65263
#
# Compressibility (1/GPa) = 0.01689609
#
# Stress axis : x y z
#
# Youngs Moduli (GPa) = 59.11359 74.64029 114.59435
#
# Poissons Ratio (x) = 0.59068 0.11734
# Poissons Ratio (y) = 0.46781 0.24461
# Poissons Ratio (z) = 0.06053 0.15932
#
# Static dielectric constant tensor:
#      x y z
#    x 3.736890 0.000000 0.031510 
#    y 0.000000 3.740810 0.000000 
#    z 0.031510 0.000000 3.778900 
# 
# 
# High freq. dielectric constant tensor:
#      x y z
#    x 1.867360 0.000000 -0.003240 
#    y 0.000000 1.867110 0.000000 
#    z -0.003240 0.000000 1.857390 
# 
# From -- ./inp_files/32287.got.cif
#   From: 2010.06.25/outbox.cif.g09.slc.cpg/sg9_17_cif.got.tgz:32287.got - 2010.06.27 21:40:51.
