data_PCOD8055662
_publ_section_title
;
Structure prediction by ZEFSAII (Michael W. Deem and Ramdas Pophale) SiO2 
 PCOD8055662
Probable space group: C C
;
_chemical_formula_sum "Si O2"
_cell_formula_units_Z 32
_cell_length_a 11.839810
_cell_length_b 11.486399
_cell_length_c 21.112447
_cell_angle_alpha 90.000000
_cell_angle_beta 148.845533
_cell_angle_gamma 90.000000
_cell_volume 1485.419811
_symmetry_space_group_name_H-M "C C"
_symmetry_group_IT_number 9
_symmetry_cell_setting 'monoclinic'
loop_
_space_group_symop_operation_xyz
x,y,z
x,-y,1/2+z
1/2+x,1/2+y,z
1/2+x,1/2-y,1/2+z
loop_
_atom_site_type_symbol
_atom_site_label
_atom_site_fract_x
_atom_site_fract_y
_atom_site_fract_z
Si Si1 0.079720 0.602015 0.814860
Si Si2 0.312456 0.371860 0.141442
Si Si3 0.007554 0.194174 0.952000
Si Si4 0.293249 0.197556 0.901117
Si Si5 0.672944 0.126765 0.439794
Si Si6 0.952102 0.789591 0.850138
Si Si7 0.605551 0.947933 0.627234
Si Si8 0.783496 0.467746 0.065742
O O1 0.086483 0.487596 0.862482
O O2 0.068089 0.714915 0.852330
O O3 0.856424 0.588907 0.667468
O O4 0.288795 0.628536 0.869834
O O5 0.115315 0.278060 0.057613
O O6 0.537913 0.314852 0.268397
O O7 0.281934 0.483117 0.170912
O O8 0.318735 0.411939 0.070324
O O9 0.190433 0.097304 0.026679
O O10 0.989622 0.278713 0.879769
O O11 0.326659 0.309724 0.962096
O O12 0.413405 0.210823 0.892466
O O13 0.400682 0.085889 0.985055
O O14 0.722982 0.836821 0.714071
O O15 0.108122 0.894267 0.943833
O O16 0.511998 0.028043 0.637848
#
# Coordination Sequence:
#
# PCOD8055662 Si02
#       8
#     4   4   4   4   4   4   4   4
#     4  12  26  47  72 102 152 187 246 305 364 442
#     4  10  24  41  67 104 138 185 239 295 365 435
#     4  10  23  46  70 104 137 190 239 296 365 429
#     4  12  22  43  71  96 142 186 238 292 356 441
#     4  10  23  44  69 103 135 190 235 292 364 425
#     4  12  27  44  68 109 139 187 242 299 370 435
#     4  12  23  42  70 101 143 183 233 299 363 436
#     4  12  24  45  73 103 138 192 240 298 365 443
#
# _framework density 21.542731
#
# number of rings (size 3 to 8) (size 9 to 14) (size 15 to 20)
#    0.750    0.000    1.250    7.500    1.750    1.000 
#    2.250    1.250    0.000    0.000    0.000    0.000 
#    0.000    0.000    0.000    0.000    0.000    0.000 
#
# Total GULP energy -198299.282621 kJ/mol
# GULP energy per Si atom -12393.705164 kJ/mol
# Density = 2.149370 g / cm^3
# Si number density = 21.542731 Si / 1000 Ang^3
#
#
#
# Elastic Constant Matrix: (Units=GPa)
#
#
# Indices 1 2 3 4 5 6 
#
# 1 93.2692 20.9871 38.3913 0.0002 -9.6501 0.0004
# 2 20.9871 83.9031 39.9178 0.0000 -8.2384 0.0003
# 3 38.3913 39.9178 88.2009 -0.0003 -4.4522 0.0001
# 4 0.0002 0.0000 -0.0003 30.4149 0.0001 4.4036
# 5 -9.6501 -8.2384 -4.4522 0.0001 30.3672 0.0002
# 6 0.0004 0.0003 0.0001 4.4036 0.0002 25.3826
#
#
#
# Elastic Compliance Matrix: (Units=1/GPa)
#
#
# Indices 1 2 3 4 5 6 
#
# 1 0.013419 -0.000420 -0.005482 0.000000 0.003347 0.000000
# 2 -0.000420 0.015504 -0.006678 0.000000 0.003094 0.000000
# 3 -0.005482 -0.006678 0.016690 0.000000 -0.001107 0.000000
# 4 0.000000 0.000000 0.000000 0.033726 0.000000 -0.005851
# 5 0.003347 0.003094 -0.001107 0.000000 0.034671 0.000000
# 6 0.000000 0.000000 0.000000 -0.005851 0.000000 0.040412
#
#
# Mechanical properties :
#
#
# Convention : Reuss Voigt Hill
#
# Bulk Modulus (GPa) = 48.89010 51.55173 50.22092
# Shear Modulus (GPa) = 26.82402 28.30472 27.56437
#
# Velocity S-wave (km/s) = 3.53250 3.62869 3.58092
# Velocity P-wave (km/s) = 6.27549 6.44503 6.36083
#
# Compressibility (1/GPa) = 0.02045404
#
# Stress axis : x y z
#
# Youngs Moduli (GPa) = 74.52222 64.49748 59.91493
#
# Poissons Ratio (x) = 0.02708 0.32845
# Poissons Ratio (y) = 0.03129 0.40012
# Poissons Ratio (z) = 0.40852 0.43072
#
# Static dielectric constant tensor:
#      x y z
#    x 4.015950 0.000000 -0.184380 
#    y 0.000000 3.969280 0.000000 
#    z -0.184380 0.000000 3.818310 
# 
# 
# High freq. dielectric constant tensor:
#      x y z
#    x 1.849810 0.000000 -0.016010 
#    y 0.000000 1.847460 0.000000 
#    z -0.016010 0.000000 1.845450 
# 
# From -- ./inp_files/20320.got.cif
#   From: 2010.06.25/outbox.cif.g09.slc.cpg/sg9_11_cif.got.tgz:20320.got - 2010.06.27 21:40:51.
