data_PCOD8055430
_publ_section_title
;
Structure prediction by ZEFSAII (Michael W. Deem and Ramdas Pophale) SiO2 
 PCOD8055430
Probable space group: C C
;
_chemical_formula_sum "Si O2"
_cell_formula_units_Z 28
_cell_length_a 10.918052
_cell_length_b 7.905870
_cell_length_c 14.401269
_cell_angle_alpha 90.000000
_cell_angle_beta 118.483203
_cell_angle_gamma 90.000000
_cell_volume 1092.605039
_symmetry_space_group_name_H-M "C C"
_symmetry_group_IT_number 9
_symmetry_cell_setting 'monoclinic'
loop_
_space_group_symop_operation_xyz
x,y,z
x,-y,1/2+z
1/2+x,1/2+y,z
1/2+x,1/2-y,1/2+z
loop_
_atom_site_type_symbol
_atom_site_label
_atom_site_fract_x
_atom_site_fract_y
_atom_site_fract_z
Si Si1 0.754550 0.581237 0.473640
Si Si2 0.041624 0.225071 0.635191
Si Si3 0.362834 0.552222 0.983106
Si Si4 0.207017 0.488240 0.096419
Si Si5 0.805731 0.592497 0.820883
Si Si6 0.938719 0.912594 0.818391
Si Si7 0.279933 0.139005 0.149798
O O1 0.850023 0.747952 0.500749
O O2 0.835131 0.441490 0.440563
O O3 0.604348 0.572841 0.368512
O O4 0.732341 0.525456 0.572467
O O5 0.092771 0.372077 0.581843
O O6 0.161852 0.190586 0.752423
O O7 0.918015 0.295468 0.651443
O O8 0.001948 0.048395 0.568693
O O9 0.229421 0.480282 0.992514
O O10 0.360365 0.518763 0.872121
O O11 0.360073 0.532095 0.196021
O O12 0.167140 0.294071 0.110896
O O13 0.928610 0.712841 0.832214
O O14 0.810215 0.416993 0.765454
#
# Coordination Sequence:
#
# PCOD8055430 Si02
#       7
#     4   4   4   4   4   4   4
#     4  12  25  40  66  99 131 171 218 272 332 396
#     4  10  23  44  66  92 131 174 218 270 326 398
#     4  11  22  41  65  94 131 171 213 264 327 392
#     4  10  22  44  69  92 129 174 218 274 330 393
#     4  11  24  43  66  95 128 167 217 269 327 392
#     4  11  24  43  65  94 131 172 218 269 329 397
#     4  11  24  41  65  98 129 169 218 272 337 392
#
# _framework density 25.626825
#
# number of rings (size 3 to 8) (size 9 to 14) (size 15 to 20)
#    0.000    1.143    0.000    7.714    0.000    5.714 
#    0.000    8.571    0.000    0.000    0.000    0.000 
#    0.000    0.000    0.000    0.000    0.000    0.000 
#
# Total GULP energy -173469.755535 kJ/mol
# GULP energy per Si atom -12390.696824 kJ/mol
# Density = 2.556850 g / cm^3
# Si number density = 25.626825 Si / 1000 Ang^3
#
#
#
# Elastic Constant Matrix: (Units=GPa)
#
#
# Indices 1 2 3 4 5 6 
#
# 1 80.7503 27.0895 18.8746 0.0000 -4.9693 0.0000
# 2 27.0895 165.3263 12.0435 0.0000 -2.8391 0.0000
# 3 18.8746 12.0435 53.0339 0.0000 -8.1999 0.0000
# 4 0.0000 0.0000 0.0000 44.5492 0.0000 -11.8051
# 5 -4.9693 -2.8391 -8.1999 0.0000 38.8830 0.0000
# 6 0.0000 0.0000 0.0000 -11.8051 0.0000 42.0703
#
#
#
# Elastic Compliance Matrix: (Units=1/GPa)
#
#
# Indices 1 2 3 4 5 6 
#
# 1 0.014137 -0.001978 -0.004471 0.000000 0.000719 0.000000
# 2 -0.001978 0.006428 -0.000747 0.000000 0.000059 0.000000
# 3 -0.004471 -0.000747 0.021211 0.000000 0.003847 0.000000
# 4 0.000000 0.000000 0.000000 0.024250 0.000000 0.006805
# 5 0.000719 0.000059 0.003847 0.000000 0.026626 0.000000
# 6 0.000000 0.000000 0.000000 0.006805 0.000000 0.025679
#
#
# Mechanical properties :
#
#
# Convention : Reuss Voigt Hill
#
# Bulk Modulus (GPa) = 36.51625 46.12510 41.32068
# Shear Modulus (GPa) = 35.24818 41.17402 38.21110
#
# Velocity S-wave (km/s) = 3.71272 4.01269 3.86561
# Velocity P-wave (km/s) = 5.71482 6.28543 6.00691
#
# Compressibility (1/GPa) = 0.02738507
#
# Stress axis : x y z
#
# Youngs Moduli (GPa) = 70.73737 155.56439 47.14450
#
# Poissons Ratio (x) = 0.30776 0.21077
# Poissons Ratio (y) = 0.13994 0.03520
# Poissons Ratio (z) = 0.31625 0.11614
#
# Static dielectric constant tensor:
#      x y z
#    x 4.466630 0.000000 -0.136290 
#    y 0.000000 5.062060 0.000000 
#    z -0.136290 0.000000 4.520330 
# 
# 
# High freq. dielectric constant tensor:
#      x y z
#    x 2.030110 0.000000 -0.014160 
#    y 0.000000 2.037780 0.000000 
#    z -0.014160 0.000000 2.012680 
# 
# From -- ./inp_files/24311.got.cif
#   From: 2010.06.25/outbox.cif.g09.slc.cpg/sg9_13_cif.got.tgz:24311.got - 2010.06.27 21:40:51.
