data_PCOD8055135
_publ_section_title
;
Structure prediction by ZEFSAII (Michael W. Deem and Ramdas Pophale) SiO2 
 PCOD8055135
Probable space group: C C
;
_chemical_formula_sum "Si O2"
_cell_formula_units_Z 28
_cell_length_a 8.879142
_cell_length_b 14.676544
_cell_length_c 14.777333
_cell_angle_alpha 90.000000
_cell_angle_beta 38.413881
_cell_angle_gamma 90.000000
_cell_volume 1196.516017
_symmetry_space_group_name_H-M "C C"
_symmetry_group_IT_number 9
_symmetry_cell_setting 'monoclinic'
loop_
_space_group_symop_operation_xyz
x,y,z
x,-y,1/2+z
1/2+x,1/2+y,z
1/2+x,1/2-y,1/2+z
loop_
_atom_site_type_symbol
_atom_site_label
_atom_site_fract_x
_atom_site_fract_y
_atom_site_fract_z
Si Si1 0.406120 0.361363 0.236420
Si Si2 0.148314 0.852090 0.467557
Si Si3 0.824203 0.961113 0.862102
Si Si4 0.044440 0.223544 0.200525
Si Si5 0.069315 0.727492 0.029695
Si Si6 0.700700 0.932991 0.584243
Si Si7 0.521626 0.982728 0.347826
O O1 0.491548 0.450604 0.252926
O O2 0.292864 0.283039 0.355454
O O3 0.615177 0.312869 0.077584
O O4 0.195767 0.393710 0.265963
O O5 0.025688 0.787926 0.600756
O O6 0.363304 0.804064 0.311715
O O7 0.248239 0.942872 0.473303
O O8 0.952454 0.882617 0.486879
O O9 0.585193 0.958637 0.908384
O O10 0.970533 0.868471 0.787585
O O11 0.746369 0.975955 0.002969
O O12 0.321117 0.245918 0.093597
O O13 0.037040 0.634451 0.101467
O O14 0.560622 0.956421 0.741214
#
# Coordination Sequence:
#
# PCOD8055135 Si02
#       7
#     4   4   4   4   4   4   4
#     4   9  20  42  64  89 130 172 222 265 329 399
#     4  12  25  42  68 100 135 175 232 274 338 400
#     4   9  22  43  63  91 134 171 218 273 332 392
#     4  12  22  44  67  99 135 177 220 282 337 401
#     4  11  21  42  65  94 132 174 223 269 338 403
#     4  11  25  43  66 103 132 178 229 275 339 398
#     4  10  21  46  63  92 140 171 224 278 329 405
#
# _framework density 23.401273
#
# number of rings (size 3 to 8) (size 9 to 14) (size 15 to 20)
#    0.857    0.571    4.286    0.000    4.000    3.429 
#    2.571    2.857    0.000    0.000    0.000    0.000 
#    0.000    0.000    0.000    0.000    0.000    0.000 
#
# Total GULP energy -173498.383242 kJ/mol
# GULP energy per Si atom -12392.741660 kJ/mol
# Density = 2.334801 g / cm^3
# Si number density = 23.401273 Si / 1000 Ang^3
#
#
#
# Elastic Constant Matrix: (Units=GPa)
#
#
# Indices 1 2 3 4 5 6 
#
# 1 77.4617 -3.9540 28.0985 0.0111 22.1722 -0.0014
# 2 -3.9540 27.1924 1.1882 0.0086 -2.2437 -0.0031
# 3 28.0985 1.1882 48.4133 0.0229 9.6140 -0.0117
# 4 0.0111 0.0086 0.0229 46.1409 -0.0174 10.3560
# 5 22.1722 -2.2437 9.6140 -0.0174 29.6085 0.0040
# 6 -0.0014 -0.0031 -0.0117 10.3560 0.0040 32.3497
#
#
#
# Elastic Compliance Matrix: (Units=1/GPa)
#
#
# Indices 1 2 3 4 5 6 
#
# 1 0.019668 0.002306 -0.009173 -0.000005 -0.011575 0.000001
# 2 0.002306 0.037388 -0.002646 -0.000007 0.001966 0.000005
# 3 -0.009173 -0.002646 0.026424 -0.000014 -0.001911 0.000014
# 4 -0.000005 -0.000007 -0.000014 0.023350 0.000023 -0.007475
# 5 -0.011575 0.001966 -0.001911 0.000023 0.043212 -0.000014
# 6 0.000001 0.000005 0.000014 -0.007475 -0.000014 0.033305
#
#
# Mechanical properties :
#
#
# Convention : Reuss Voigt Hill
#
# Bulk Modulus (GPa) = 15.51525 22.63699 19.07612
# Shear Modulus (GPa) = 22.33555 30.13548 26.23552
#
# Velocity S-wave (km/s) = 3.09278 3.59245 3.35194
# Velocity P-wave (km/s) = 4.40434 5.18671 4.81145
#
# Compressibility (1/GPa) = 0.06445270
#
# Stress axis : x y z
#
# Youngs Moduli (GPa) = 50.84432 26.74651 37.84455
#
# Poissons Ratio (x) = -0.06167 0.34715
# Poissons Ratio (y) = -0.11723 0.10014
# Poissons Ratio (z) = 0.46639 0.07078
#
# Static dielectric constant tensor:
#      x y z
#    x 4.075250 -0.000010 0.256980 
#    y -0.000010 4.076750 0.000010 
#    z 0.256980 0.000010 3.931290 
# 
# 
# High freq. dielectric constant tensor:
#      x y z
#    x 1.919830 0.000000 0.024640 
#    y 0.000000 1.919980 0.000000 
#    z 0.024640 0.000000 1.905750 
# 
# From -- ./inp_files/23322.got.cif
#   From: 2010.06.25/outbox.cif.g09.slc.cpg/sg9_12_cif.got.tgz:23322.got - 2010.06.27 21:40:51.
