data_PCOD8055302
_publ_section_title
;
Structure prediction by ZEFSAII (Michael W. Deem and Ramdas Pophale) SiO2 
 PCOD8055302
Probable space group: C C
;
_chemical_formula_sum "Si O2"
_cell_formula_units_Z 28
_cell_length_a 6.832344
_cell_length_b 20.219430
_cell_length_c 13.317066
_cell_angle_alpha 90.000000
_cell_angle_beta 40.557606
_cell_angle_gamma 90.000000
_cell_volume 1196.195950
_symmetry_space_group_name_H-M "C C"
_symmetry_group_IT_number 9
_symmetry_cell_setting 'monoclinic'
loop_
_space_group_symop_operation_xyz
x,y,z
x,-y,1/2+z
1/2+x,1/2+y,z
1/2+x,1/2-y,1/2+z
loop_
_atom_site_type_symbol
_atom_site_label
_atom_site_fract_x
_atom_site_fract_y
_atom_site_fract_z
Si Si1 0.271890 0.588716 0.992280
Si Si2 0.957169 0.707765 0.461169
Si Si3 0.551546 0.944364 0.363821
Si Si4 0.004489 0.028783 0.522035
Si Si5 0.820045 0.335112 0.325383
Si Si6 0.950109 0.706696 0.228697
Si Si7 0.830027 0.843860 0.976452
O O1 0.118254 0.557096 0.955035
O O2 0.601244 0.619569 0.839726
O O3 0.299025 0.530109 0.061286
O O4 0.065845 0.645482 0.119177
O O5 0.001795 0.694124 0.327035
O O6 0.610286 0.724741 0.629189
O O7 0.143184 0.770698 0.427984
O O8 0.110193 0.647676 0.464571
O O9 0.862534 0.947433 0.181783
O O10 0.384726 0.876002 0.401377
O O11 0.344582 0.007039 0.413876
O O12 0.995811 0.087815 0.442878
O O13 0.123191 0.317674 0.147771
O O14 0.589893 0.710978 0.352862
#
# Coordination Sequence:
#
# PCOD8055302 Si02
#       7
#     4   4   4   4   4   4   4
#     4  10  23  44  68  96 142 179 226 292 350 416
#     4  11  24  45  66  98 145 184 229 293 342 417
#     4  10  22  41  69  94 141 177 227 286 348 408
#     4  10  23  42  66 105 131 180 236 282 350 422
#     4   9  22  43  64  98 134 182 229 279 348 413
#     4  11  26  42  69 105 137 188 238 280 357 421
#     4  11  24  41  70 102 138 182 237 290 345 411
#
# _framework density 23.407537000000001
#
# number of rings (size 3 to 8) (size 9 to 14) (size 15 to 20)
#    0.000    1.714    1.429    0.857    2.000   14.857 
#    0.000    0.000    0.000    0.000    0.000    0.000 
#    0.000    0.000    0.000    0.000    0.000    0.000 
#
# Total GULP energy -173549.434341 kJ/mol
# GULP energy per Si atom -12396.388167 kJ/mol
# Density = 2.335426 g / cm^3
# Si number density = 23.407537 Si / 1000 Ang^3
#
#
#
# Elastic Constant Matrix: (Units=GPa)
#
#
# Indices 1 2 3 4 5 6 
#
# 1 117.5095 23.2650 45.4037 0.0000 9.2197 0.0000
# 2 23.2650 50.5384 18.7181 0.0000 -4.3947 0.0000
# 3 45.4037 18.7181 112.0676 0.0001 -3.7630 0.0000
# 4 0.0000 0.0000 0.0001 20.3512 0.0000 -0.0250
# 5 9.2197 -4.3947 -3.7630 0.0000 45.4452 0.0000
# 6 0.0000 0.0000 0.0000 -0.0250 0.0000 33.6577
#
#
#
# Elastic Compliance Matrix: (Units=1/GPa)
#
#
# Indices 1 2 3 4 5 6 
#
# 1 0.011021 -0.003878 -0.003916 0.000000 -0.002935 0.000000
# 2 -0.003878 0.022597 -0.002109 0.000000 0.002797 0.000000
# 3 -0.003916 -0.002109 0.010912 0.000000 0.001494 0.000000
# 4 0.000000 0.000000 0.000000 0.049137 0.000000 0.000036
# 5 -0.002935 0.002797 0.001494 0.000000 0.022994 0.000000
# 6 0.000000 0.000000 0.000000 0.000036 0.000000 0.029711
#
#
# Mechanical properties :
#
#
# Convention : Reuss Voigt Hill
#
# Bulk Modulus (GPa) = 40.44756 50.54321 45.49539
# Shear Modulus (GPa) = 28.66642 32.73940 30.70291
#
# Velocity S-wave (km/s) = 3.50332 3.74394 3.62562
# Velocity P-wave (km/s) = 5.80358 6.35051 6.08320
#
# Compressibility (1/GPa) = 0.02472337
#
# Stress axis : x y z
#
# Youngs Moduli (GPa) = 90.73453 44.25431 91.64112
#
# Poissons Ratio (x) = 0.17164 0.35886
# Poissons Ratio (y) = 0.35190 0.19327
# Poissons Ratio (z) = 0.35531 0.09333
#
# Static dielectric constant tensor:
#      x y z
#    x 4.309040 0.000000 -0.317390 
#    y 0.000000 4.176540 0.000000 
#    z -0.317390 0.000000 4.157290 
# 
# 
# High freq. dielectric constant tensor:
#      x y z
#    x 1.933970 0.000000 -0.011760 
#    y 0.000000 1.913620 0.000000 
#    z -0.011760 0.000000 1.926180 
# 
# From -- ./inp_files/13713.got.cif
#   From: 2010.06.25/outbox.cif.g09.slc.cpg/sg9_7_cif.got.tgz:13713.got - 2010.06.27 21:40:51.
