data_PCOD8055587
_publ_section_title
;
Structure prediction by ZEFSAII (Michael W. Deem and Ramdas Pophale) SiO2 
 PCOD8055587
Probable space group: C C
;
_chemical_formula_sum "Si O2"
_cell_formula_units_Z 28
_cell_length_a 16.897482
_cell_length_b 8.894917
_cell_length_c 11.347284
_cell_angle_alpha 90.000000
_cell_angle_beta 131.747818
_cell_angle_gamma 90.000000
_cell_volume 1272.456095
_symmetry_space_group_name_H-M "C C"
_symmetry_group_IT_number 9
_symmetry_cell_setting 'monoclinic'
loop_
_space_group_symop_operation_xyz
x,y,z
x,-y,1/2+z
1/2+x,1/2+y,z
1/2+x,1/2-y,1/2+z
loop_
_atom_site_type_symbol
_atom_site_label
_atom_site_fract_x
_atom_site_fract_y
_atom_site_fract_z
Si Si1 0.759830 0.281029 0.858500
Si Si2 0.660711 0.068249 0.577169
Si Si3 0.802934 0.801366 0.024221
Si Si4 0.267979 0.722219 0.139181
Si Si5 0.674877 0.588814 0.728735
Si Si6 0.939714 0.927487 0.957672
Si Si7 0.440677 0.232502 0.377690
O O1 0.727522 0.134157 0.752242
O O2 0.673057 0.411400 0.755623
O O3 0.870536 0.340224 0.913072
O O4 0.772887 0.235756 0.005366
O O5 0.714112 0.106991 0.505641
O O6 0.542032 0.126345 0.466652
O O7 0.674106 0.888262 0.595335
O O8 0.883967 0.723603 0.195078
O O9 0.741396 0.671031 0.895405
O O10 0.865602 0.915641 0.000106
O O11 0.235371 0.881631 0.164371
O O12 0.383376 0.663989 0.295909
O O13 0.553387 0.645162 0.602042
O O14 0.963810 0.095659 0.936794
#
# Coordination Sequence:
#
# PCOD8055587 Si02
#       7
#     4   4   4   4   4   4   4
#     4  11  25  45  68 103 141 184 236 293 346 425
#     4  11  23  44  69 100 139 182 236 289 350 410
#     4  10  23  42  67  98 139 177 232 288 340 421
#     4  11  26  44  72 103 145 180 240 296 346 424
#     4  11  26  44  71 100 141 179 240 289 354 415
#     4  11  22  44  72 100 130 194 229 280 355 422
#     4  11  23  41  73  98 141 184 233 285 357 413
#
# _framework density 22.00469
#
# number of rings (size 3 to 8) (size 9 to 14) (size 15 to 20)
#    0.000    1.143    4.286    1.714    6.000    4.571 
#    2.571    0.000    0.000    0.000    0.000    0.000 
#    0.000    0.000    0.000    0.000    0.000    0.000 
#
# Total GULP energy -173577.620727 kJ/mol
# GULP energy per Si atom -12398.401481 kJ/mol
# Density = 2.195461 g / cm^3
# Si number density = 22.004690 Si / 1000 Ang^3
#
#
#
# Elastic Constant Matrix: (Units=GPa)
#
#
# Indices 1 2 3 4 5 6 
#
# 1 122.6832 33.5620 97.5467 0.0000 0.7824 0.0000
# 2 33.5620 72.1699 46.5657 0.0000 -2.6494 0.0000
# 3 97.5467 46.5657 151.2068 0.0000 -9.9611 0.0000
# 4 0.0000 0.0000 0.0000 25.8418 0.0000 1.4605
# 5 0.7824 -2.6494 -9.9611 0.0000 51.5951 0.0000
# 6 0.0000 0.0000 0.0000 1.4605 0.0000 12.9645
#
#
#
# Elastic Compliance Matrix: (Units=1/GPa)
#
#
# Indices 1 2 3 4 5 6 
#
# 1 0.017086 -0.001023 -0.010866 0.000000 -0.002410 0.000000
# 2 -0.001023 0.017355 -0.004684 0.000000 0.000002 0.000000
# 3 -0.010866 -0.004684 0.015255 0.000000 0.002869 0.000000
# 4 0.000000 0.000000 0.000000 0.038945 0.000000 -0.004387
# 5 -0.002410 0.000002 0.002869 0.000000 0.019972 0.000000
# 6 0.000000 0.000000 0.000000 -0.004387 0.000000 0.077628
#
#
# Mechanical properties :
#
#
# Convention : Reuss Voigt Hill
#
# Bulk Modulus (GPa) = 60.42871 77.93427 69.18149
# Shear Modulus (GPa) = 22.23160 29.30596 25.76878
#
# Velocity S-wave (km/s) = 3.18199 3.65335 3.42579
# Velocity P-wave (km/s) = 6.40480 7.30000 6.86700
#
# Compressibility (1/GPa) = 0.01654843
#
# Stress axis : x y z
#
# Youngs Moduli (GPa) = 58.52634 57.62194 65.55115
#
# Poissons Ratio (x) = 0.05895 0.71231
# Poissons Ratio (y) = 0.05987 0.30707
# Poissons Ratio (z) = 0.63597 0.26992
#
# Static dielectric constant tensor:
#      x y z
#    x 4.038010 0.000000 -0.004610 
#    y 0.000000 3.857500 0.000000 
#    z -0.004610 0.000000 4.077310 
# 
# 
# High freq. dielectric constant tensor:
#      x y z
#    x 1.866680 0.000000 -0.004370 
#    y 0.000000 1.858850 0.000000 
#    z -0.004370 0.000000 1.878480 
# 
# From -- ./inp_files/19008.got.cif
#   From: 2010.06.25/outbox.cif.g09.slc.cpg/sg9_10_cif.got.tgz:19008.got - 2010.06.27 21:40:51.
