data_PCOD8055929
_publ_section_title
;
Structure prediction by ZEFSAII (Michael W. Deem and Ramdas Pophale) SiO2 
 PCOD8055929
Probable space group: C C
;
_chemical_formula_sum "Si O2"
_cell_formula_units_Z 28
_cell_length_a 14.698517
_cell_length_b 5.303880
_cell_length_c 14.122405
_cell_angle_alpha 90.000000
_cell_angle_beta 82.776190
_cell_angle_gamma 90.000000
_cell_volume 1092.232055
_symmetry_space_group_name_H-M "C C"
_symmetry_group_IT_number 9
_symmetry_cell_setting 'monoclinic'
loop_
_space_group_symop_operation_xyz
x,y,z
x,-y,1/2+z
1/2+x,1/2+y,z
1/2+x,1/2-y,1/2+z
loop_
_atom_site_type_symbol
_atom_site_label
_atom_site_fract_x
_atom_site_fract_y
_atom_site_fract_z
Si Si1 0.253730 0.222502 0.756390
Si Si2 0.001466 0.045571 0.391788
Si Si3 0.928100 0.997816 0.704856
Si Si4 0.416140 0.864559 0.555849
Si Si5 0.725965 0.581365 0.558220
Si Si6 0.186175 0.730163 0.863914
Si Si7 0.565947 0.748010 0.051109
O O1 0.361941 0.255045 0.719973
O O2 0.199998 0.205750 0.663078
O O3 0.221477 0.466315 0.819363
O O4 0.243617 0.967039 0.817152
O O5 0.955602 0.918037 0.306549
O O6 0.924331 0.176194 0.466103
O O7 0.079527 0.244542 0.348549
O O8 0.050541 0.823377 0.443222
O O9 0.016188 0.941864 0.629302
O O10 0.878322 0.226669 0.655803
O O11 0.336409 0.057916 0.536673
O O12 0.517816 0.979442 0.566735
O O13 0.693310 0.768163 0.478202
O O14 0.674280 0.304838 0.557435
#
# Coordination Sequence:
#
# PCOD8055929 Si02
#       7
#     4   4   4   4   4   4   4
#     4  12  26  48  75 117 153 208 262 321 404 473
#     4  10  25  47  69 110 149 200 259 326 386 483
#     4  11  24  45  70 109 154 196 260 322 395 477
#     4  11  24  48  77 111 151 211 259 330 410 474
#     4  11  25  51  76 113 160 202 269 337 396 489
#     4  11  28  48  77 115 152 209 263 321 403 473
#     4  10  24  47  72 109 149 202 260 317 404 459
#
# _framework density 25.635579
#
# number of rings (size 3 to 8) (size 9 to 14) (size 15 to 20)
#    0.000    1.143    1.429    2.571    6.000    3.429 
#   23.143    0.000    0.000    0.000    0.000    0.000 
#    0.000    0.000    0.000    0.000    0.000    0.000 
#
# Total GULP energy -173534.929277 kJ/mol
# GULP energy per Si atom -12395.352091 kJ/mol
# Density = 2.557723 g / cm^3
# Si number density = 25.635579 Si / 1000 Ang^3
#
#
#
# Elastic Constant Matrix: (Units=GPa)
#
#
# Indices 1 2 3 4 5 6 
#
# 1 97.0893 8.7963 27.2085 0.0000 1.9153 0.0000
# 2 8.7963 81.7741 35.1049 0.0000 -3.7554 0.0000
# 3 27.2085 35.1049 164.6281 0.0000 22.7521 0.0000
# 4 0.0000 0.0000 0.0000 37.7691 0.0000 -7.4782
# 5 1.9153 -3.7554 22.7521 0.0000 35.9810 0.0000
# 6 0.0000 0.0000 0.0000 -7.4782 0.0000 35.9468
#
#
#
# Elastic Compliance Matrix: (Units=1/GPa)
#
#
# Indices 1 2 3 4 5 6 
#
# 1 0.010822 -0.000377 -0.001779 0.000000 0.000509 0.000000
# 2 -0.000377 0.013896 -0.003401 0.000000 0.003621 0.000000
# 3 -0.001779 -0.003401 0.007812 0.000000 -0.005200 0.000000
# 4 0.000000 0.000000 0.000000 0.027614 0.000000 0.005745
# 5 0.000509 0.003621 -0.005200 0.000000 0.031432 0.000000
# 6 0.000000 0.000000 0.000000 0.005745 0.000000 0.029014
#
#
# Mechanical properties :
#
#
# Convention : Reuss Voigt Hill
#
# Bulk Modulus (GPa) = 46.69334 53.96786 50.33060
# Shear Modulus (GPa) = 36.01194 40.09817 38.05505
#
# Velocity S-wave (km/s) = 3.75208 3.95924 3.85705
# Velocity P-wave (km/s) = 6.08479 6.48062 6.28582
#
# Compressibility (1/GPa) = 0.02141633
#
# Stress axis : x y z
#
# Youngs Moduli (GPa) = 92.40135 71.96427 128.00485
#
# Poissons Ratio (x) = 0.02715 0.22767
# Poissons Ratio (y) = 0.03486 0.43537
# Poissons Ratio (z) = 0.16434 0.24477
#
# Static dielectric constant tensor:
#      x y z
#    x 4.662910 0.000000 -0.153710 
#    y 0.000000 4.282850 0.000000 
#    z -0.153710 0.000000 4.912280 
# 
# 
# High freq. dielectric constant tensor:
#      x y z
#    x 2.023800 0.000000 -0.011940 
#    y 0.000000 2.003530 0.000000 
#    z -0.011940 0.000000 2.043850 
# 
# From -- ./inp_files/25264.got.cif
#   From: 2010.06.25/outbox.cif.g09.slc.cpg/sg9_13_cif.got.tgz:25264.got - 2010.06.27 21:40:51.
