data_PCOD8055595
_publ_section_title
;
Structure prediction by ZEFSAII (Michael W. Deem and Ramdas Pophale) SiO2 
 PCOD8055595
Probable space group: C C
;
_chemical_formula_sum "Si O2"
_cell_formula_units_Z 28
_cell_length_a 27.814114
_cell_length_b 7.261622
_cell_length_c 8.231239
_cell_angle_alpha 90.000000
_cell_angle_beta 137.175461
_cell_angle_gamma 90.000000
_cell_volume 1130.099814
_symmetry_space_group_name_H-M "C C"
_symmetry_group_IT_number 9
_symmetry_cell_setting 'monoclinic'
loop_
_space_group_symop_operation_xyz
x,y,z
x,-y,1/2+z
1/2+x,1/2+y,z
1/2+x,1/2-y,1/2+z
loop_
_atom_site_type_symbol
_atom_site_label
_atom_site_fract_x
_atom_site_fract_y
_atom_site_fract_z
Si Si1 0.708020 0.154805 0.164220
Si Si2 0.067090 0.232698 0.714628
Si Si3 0.117269 0.413034 0.148579
Si Si4 0.206359 0.071711 0.947024
Si Si5 0.414703 0.391550 0.874951
Si Si6 0.860468 0.782320 0.068043
Si Si7 0.301950 0.121670 0.474132
O O1 0.706775 0.336023 0.270931
O O2 0.789327 0.119391 0.321453
O O3 0.682313 0.977704 0.197992
O O4 0.653404 0.202014 0.883169
O O5 0.075361 0.412326 0.619597
O O6 0.126821 0.078654 0.819829
O O7 0.992610 0.138621 0.493075
O O8 0.069463 0.286976 0.912769
O O9 0.246466 0.880564 0.993722
O O10 0.257861 0.170167 0.202904
O O11 0.392905 0.607506 0.803818
O O12 0.358731 0.280191 0.629057
O O13 0.416330 0.313681 0.061558
O O14 0.847224 0.569803 0.079776
#
# Coordination Sequence:
#
# PCOD8055595 Si02
#       7
#     4   4   4   4   4   4   4
#     4   9  19  37  68 104 133 181 237 308 359 431
#     4  10  24  42  69 108 149 200 243 309 375 459
#     4   9  19  39  69 103 145 183 241 301 378 433
#     4  10  23  42  70 104 136 188 248 303 365 433
#     4  12  28  45  72 105 152 202 245 301 390 444
#     4  11  26  44  70 107 143 188 243 315 362 447
#     4  11  25  47  74 107 146 190 253 313 371 449
#
# _framework density 24.776571000000001
#
# number of rings (size 3 to 8) (size 9 to 14) (size 15 to 20)
#    0.000    1.714    1.429    0.857   14.000    1.143 
#    0.000    1.429    0.000    0.000    0.000    0.000 
#    0.000    0.000    0.000    0.000    0.000    0.000 
#
# Total GULP energy -173464.607355 kJ/mol
# GULP energy per Si atom -12390.329097 kJ/mol
# Density = 2.472018 g / cm^3
# Si number density = 24.776571 Si / 1000 Ang^3
#
#
#
# Elastic Constant Matrix: (Units=GPa)
#
#
# Indices 1 2 3 4 5 6 
#
# 1 99.5860 19.2868 42.8155 0.0000 13.0536 0.0000
# 2 19.2868 76.2813 25.9250 0.0000 10.9876 0.0000
# 3 42.8155 25.9250 105.5426 0.0000 14.3164 0.0000
# 4 0.0000 0.0000 0.0000 33.5005 0.0000 -3.7651
# 5 13.0536 10.9876 14.3164 0.0000 45.0237 0.0000
# 6 0.0000 0.0000 0.0000 -3.7651 0.0000 29.5034
#
#
#
# Elastic Compliance Matrix: (Units=1/GPa)
#
#
# Indices 1 2 3 4 5 6 
#
# 1 0.012473 -0.001366 -0.004472 0.000000 -0.001861 0.000000
# 2 -0.001366 0.014723 -0.002747 0.000000 -0.002323 0.000000
# 3 -0.004472 -0.002747 0.012224 0.000000 -0.001920 0.000000
# 4 0.000000 0.000000 0.000000 0.030285 0.000000 0.003865
# 5 -0.001861 -0.002323 -0.001920 0.000000 0.023928 0.000000
# 6 0.000000 0.000000 0.000000 0.003865 0.000000 0.034388
#
#
# Mechanical properties :
#
#
# Convention : Reuss Voigt Hill
#
# Bulk Modulus (GPa) = 44.94355 50.82939 47.88647
# Shear Modulus (GPa) = 32.76405 34.49769 33.63087
#
# Velocity S-wave (km/s) = 3.64040 3.73547 3.68824
# Velocity P-wave (km/s) = 5.98740 6.25816 6.12428
#
# Compressibility (1/GPa) = 0.02225013
#
# Stress axis : x y z
#
# Youngs Moduli (GPa) = 80.17571 67.92076 81.80475
#
# Poissons Ratio (x) = 0.09276 0.36582
# Poissons Ratio (y) = 0.10949 0.22474
# Poissons Ratio (z) = 0.35854 0.18660
#
# Static dielectric constant tensor:
#      x y z
#    x 4.661110 0.000000 -0.121210 
#    y 0.000000 4.352330 0.000000 
#    z -0.121210 0.000000 4.454690 
# 
# 
# High freq. dielectric constant tensor:
#      x y z
#    x 1.995720 0.000000 -0.009550 
#    y 0.000000 1.980810 0.000000 
#    z -0.009550 0.000000 1.978910 
# 
# From -- ./inp_files/12434.got.cif
#   From: 2010.06.25/outbox.cif.g09.slc.cpg/sg9_7_cif.got.tgz:12434.got - 2010.06.27 21:40:51.
