data_PCOD8055571
_publ_section_title
;
Structure prediction by ZEFSAII (Michael W. Deem and Ramdas Pophale) SiO2 
 PCOD8055571
Probable space group: C C
;
_chemical_formula_sum "Si O2"
_cell_formula_units_Z 32
_cell_length_a 8.518089
_cell_length_b 35.957572
_cell_length_c 5.346433
_cell_angle_alpha 90.000000
_cell_angle_beta 60.537765
_cell_angle_gamma 90.000000
_cell_volume 1425.789023
_symmetry_space_group_name_H-M "C C"
_symmetry_group_IT_number 9
_symmetry_cell_setting 'monoclinic'
loop_
_space_group_symop_operation_xyz
x,y,z
x,-y,1/2+z
1/2+x,1/2+y,z
1/2+x,1/2-y,1/2+z
loop_
_atom_site_type_symbol
_atom_site_label
_atom_site_fract_x
_atom_site_fract_y
_atom_site_fract_z
Si Si1 0.185550 0.287358 0.809220
Si Si2 0.280056 0.672533 0.737470
Si Si3 0.798553 0.295659 0.279898
Si Si4 0.907572 0.646445 0.062998
Si Si5 0.028899 0.476982 0.101217
Si Si6 0.224292 0.919967 0.411727
Si Si7 0.122637 0.858584 0.168126
Si Si8 0.440262 0.476528 0.781873
O O1 0.271820 0.297479 0.472068
O O2 0.213657 0.244799 0.864881
O O3 0.275441 0.310237 0.965442
O O4 0.971341 0.295143 0.957992
O O5 0.462997 0.648485 0.598009
O O6 0.122864 0.642132 0.905135
O O7 0.869163 0.311686 0.489569
O O8 0.632139 0.322955 0.342783
O O9 0.823842 0.642384 0.399538
O O10 0.822586 0.613457 0.971693
O O11 0.995704 0.494538 0.400348
O O12 0.883183 0.444835 0.170514
O O13 0.234313 0.461565 0.936151
O O14 0.098568 0.899608 0.303773
O O15 0.084412 0.943120 0.691042
O O16 0.477988 0.498039 0.493162
#
# Coordination Sequence:
#
# PCOD8055571 Si02
#       8
#     4   4   4   4   4   4   4   4
#     4  11  24  42  70  94 126 174 219 282 338 384
#     4  11  26  45  65  96 131 174 222 277 329 388
#     4  10  23  42  64  97 129 167 226 277 332 393
#     4  10  25  44  61  96 137 172 222 269 324 398
#     4  10  23  44  70 101 134 170 215 271 320 379
#     4  11  25  41  69  99 131 183 213 267 326 391
#     4  11  25  42  66  93 137 173 222 269 325 397
#     4  10  23  44  69 102 135 165 221 270 316 384
#
# _framework density 22.443712000000001
#
# number of rings (size 3 to 8) (size 9 to 14) (size 15 to 20)
#    0.000    1.500    1.250    1.500   10.500    3.000 
#    2.250    0.000    0.000    0.000    0.000    0.000 
#    0.000    0.000    0.000    0.000    0.000    0.000 
#
# Total GULP energy -198289.562468 kJ/mol
# GULP energy per Si atom -12393.097654 kJ/mol
# Density = 2.239263 g / cm^3
# Si number density = 22.443712 Si / 1000 Ang^3
#
#
#
# Elastic Constant Matrix: (Units=GPa)
#
#
# Indices 1 2 3 4 5 6 
#
# 1 107.0395 48.0098 20.1787 0.0000 -5.9925 0.0000
# 2 48.0098 106.2752 21.6845 0.0000 -13.7024 0.0000
# 3 20.1787 21.6845 71.5112 0.0000 4.8971 0.0000
# 4 0.0000 0.0000 0.0000 19.7497 0.0000 -7.6118
# 5 -5.9925 -13.7024 4.8971 0.0000 36.5573 0.0000
# 6 0.0000 0.0000 0.0000 -7.6118 0.0000 18.9432
#
#
#
# Elastic Compliance Matrix: (Units=1/GPa)
#
#
# Indices 1 2 3 4 5 6 
#
# 1 0.011945 -0.004966 -0.001889 0.000000 0.000350 0.000000
# 2 -0.004966 0.012779 -0.002771 0.000000 0.004347 0.000000
# 3 -0.001889 -0.002771 0.015593 0.000000 -0.003437 0.000000
# 4 0.000000 0.000000 0.000000 0.059912 0.000000 0.024074
# 5 0.000350 0.004347 -0.003437 0.000000 0.029501 0.000000
# 6 0.000000 0.000000 0.000000 0.024074 0.000000 0.062463
#
#
# Mechanical properties :
#
#
# Convention : Reuss Voigt Hill
#
# Bulk Modulus (GPa) = 47.47300 51.61907 49.54604
# Shear Modulus (GPa) = 22.88678 28.04689 25.46683
#
# Velocity S-wave (km/s) = 3.19680 3.53888 3.37218
# Velocity P-wave (km/s) = 5.90119 6.30456 6.10621
#
# Compressibility (1/GPa) = 0.02106460
#
# Stress axis : x y z
#
# Youngs Moduli (GPa) = 83.71517 78.25482 64.13312
#
# Poissons Ratio (x) = 0.38859 0.12114
# Poissons Ratio (y) = 0.41571 0.17774
# Poissons Ratio (z) = 0.15812 0.21688
#
# Static dielectric constant tensor:
#      x y z
#    x 4.337680 0.000000 -0.042210 
#    y 0.000000 3.956180 0.000000 
#    z -0.042210 0.000000 4.102200 
# 
# 
# High freq. dielectric constant tensor:
#      x y z
#    x 1.899180 0.000000 -0.006770 
#    y 0.000000 1.873080 0.000000 
#    z -0.006770 0.000000 1.885430 
# 
# From -- ./inp_files/1353.got.cif
#   From: 2010.06.25/outbox.cif.g09.slc.cpg/sg9_1_cif.got.tgz:1353.got - 2010.06.27 21:40:51.
