data_PCOD8055183
_publ_section_title
;
Structure prediction by ZEFSAII (Michael W. Deem and Ramdas Pophale) SiO2 
 PCOD8055183
Probable space group: C C
;
_chemical_formula_sum "Si O2"
_cell_formula_units_Z 32
_cell_length_a 15.023946
_cell_length_b 16.638757
_cell_length_c 9.923081
_cell_angle_alpha 90.000000
_cell_angle_beta 142.810490
_cell_angle_gamma 90.000000
_cell_volume 1499.388454
_symmetry_space_group_name_H-M "C C"
_symmetry_group_IT_number 9
_symmetry_cell_setting 'monoclinic'
loop_
_space_group_symop_operation_xyz
x,y,z
x,-y,1/2+z
1/2+x,1/2+y,z
1/2+x,1/2-y,1/2+z
loop_
_atom_site_type_symbol
_atom_site_label
_atom_site_fract_x
_atom_site_fract_y
_atom_site_fract_z
Si Si1 0.703170 0.379380 0.461200
Si Si2 0.174941 0.712164 0.537459
Si Si3 0.635235 0.005898 0.743403
Si Si4 0.897280 0.293051 0.507617
Si Si5 0.930740 0.308960 0.240080
Si Si6 0.437013 0.992089 0.246799
Si Si7 0.362652 0.374343 0.067084
Si Si8 0.188694 0.685131 0.857584
O O1 0.735770 0.302908 0.595711
O O2 0.762098 0.353194 0.382811
O O3 0.794187 0.457017 0.617760
O O4 0.532102 0.401885 0.265008
O O5 0.305163 0.650237 0.648619
O O6 0.128290 0.702707 0.635397
O O7 0.031397 0.696217 0.273808
O O8 0.510884 0.975206 0.698151
O O9 0.709075 0.088860 0.884426
O O10 0.560993 0.006991 0.508178
O O11 0.770197 0.945752 0.893260
O O12 0.956967 0.306804 0.430888
O O13 0.836079 0.202545 0.440104
O O14 0.881901 0.400915 0.152704
O O15 0.080099 0.288947 0.344313
O O16 0.828951 0.239163 0.058245
#
# Coordination Sequence:
#
# PCOD8055183 Si02
#       8
#     4   4   4   4   4   4   4   4
#     4  10  22  38  72  98 127 168 237 276 316 391
#     4  10  22  43  69  96 130 177 228 268 333 416
#     4  11  24  44  68  94 133 182 221 272 340 413
#     4  10  22  43  69  96 130 177 228 268 333 416
#     4  11  27  43  66  98 138 174 216 282 348 397
#     4  11  24  44  68  94 133 182 221 272 340 413
#     4  10  22  38  72  98 127 168 237 276 316 391
#     4  11  27  43  66  98 138 174 216 282 348 397
#
# _framework density 21.342034999999999
#
# number of rings (size 3 to 8) (size 9 to 14) (size 15 to 20)
#    0.000    1.500    0.000    3.750   17.500    2.000 
#    0.000    5.000    0.000    0.000    0.000    0.000 
#    0.000    0.000    0.000    0.000    0.000    0.000 
#
# Total GULP energy -198325.893814 kJ/mol
# GULP energy per Si atom -12395.368363 kJ/mol
# Density = 2.129346 g / cm^3
# Si number density = 21.342035 Si / 1000 Ang^3
#
#
#
# Elastic Constant Matrix: (Units=GPa)
#
#
# Indices 1 2 3 4 5 6 
#
# 1 126.9206 21.3430 39.3719 0.0000 -9.0996 0.0000
# 2 21.3430 92.7362 25.8232 0.0000 29.7578 0.0000
# 3 39.3719 25.8232 81.0128 0.0000 3.4460 0.0000
# 4 0.0000 0.0000 0.0000 29.8653 0.0000 13.2882
# 5 -9.0996 29.7578 3.4460 0.0000 44.3935 0.0000
# 6 0.0000 0.0000 0.0000 13.2882 0.0000 36.0589
#
#
#
# Elastic Compliance Matrix: (Units=1/GPa)
#
#
# Indices 1 2 3 4 5 6 
#
# 1 0.009863 -0.002359 -0.004209 0.000000 0.003930 0.000000
# 2 -0.002359 0.015729 -0.003409 0.000000 -0.010762 0.000000
# 3 -0.004209 -0.003409 0.015466 0.000000 0.000222 0.000000
# 4 0.000000 0.000000 0.000000 0.040051 0.000000 -0.014759
# 5 0.003930 -0.010762 0.000222 0.000000 0.030528 0.000000
# 6 0.000000 0.000000 0.000000 -0.014759 0.000000 0.033171
#
#
# Mechanical properties :
#
#
# Convention : Reuss Voigt Hill
#
# Bulk Modulus (GPa) = 47.38352 52.63845 50.01098
# Shear Modulus (GPa) = 29.10405 36.33897 32.72151
#
# Velocity S-wave (km/s) = 3.69683 4.13085 3.91985
# Velocity P-wave (km/s) = 6.36178 6.88982 6.63106
#
# Compressibility (1/GPa) = 0.02110438
#
# Stress axis : x y z
#
# Youngs Moduli (GPa) = 101.39011 63.57643 64.65629
#
# Poissons Ratio (x) = 0.14998 0.27211
# Poissons Ratio (y) = 0.23918 0.22044
# Poissons Ratio (z) = 0.42671 0.21676
#
# Static dielectric constant tensor:
#      x y z
#    x 4.212060 0.000000 -0.002160 
#    y 0.000000 4.116350 0.000000 
#    z -0.002160 0.000000 3.446880 
# 
# 
# High freq. dielectric constant tensor:
#      x y z
#    x 1.855930 0.000000 0.001110 
#    y 0.000000 1.851920 0.000000 
#    z 0.001110 0.000000 1.805660 
# 
# From -- ./inp_files/9962.got.cif
#   From: 2010.06.25/outbox.cif.g09.slc.cpg/sg9_5_cif.got.tgz:9962.got - 2010.06.27 21:40:51.
