data_PCOD8055069
_publ_section_title
;
Structure prediction by ZEFSAII (Michael W. Deem and Ramdas Pophale) SiO2 
 PCOD8055069
Probable space group: C C
;
_chemical_formula_sum "Si O2"
_cell_formula_units_Z 32
_cell_length_a 6.598260
_cell_length_b 12.194640
_cell_length_c 17.770890
_cell_angle_alpha 90.000000
_cell_angle_beta 84.517648
_cell_angle_gamma 90.000000
_cell_volume 1423.365466
_symmetry_space_group_name_H-M "C C"
_symmetry_group_IT_number 9
_symmetry_cell_setting 'monoclinic'
loop_
_space_group_symop_operation_xyz
x,y,z
x,-y,1/2+z
1/2+x,1/2+y,z
1/2+x,1/2-y,1/2+z
loop_
_atom_site_type_symbol
_atom_site_label
_atom_site_fract_x
_atom_site_fract_y
_atom_site_fract_z
Si Si1 0.070360 0.818432 0.153680
Si Si2 0.211581 0.232801 0.434718
Si Si3 0.871703 0.832312 0.567453
Si Si4 0.581318 0.469116 0.020062
Si Si5 0.880503 0.600900 0.909059
Si Si6 0.171970 0.204069 0.189848
Si Si7 0.922494 0.603172 0.301834
Si Si8 0.769283 0.256842 0.286139
O O1 0.171596 0.702747 0.121118
O O2 0.135877 0.920660 0.100124
O O3 0.157832 0.842129 0.233522
O O4 0.827197 0.803287 0.165218
O O5 0.379884 0.250897 0.494798
O O6 0.056664 0.133190 0.463660
O O7 0.323009 0.200905 0.354689
O O8 0.088582 0.346613 0.432431
O O9 0.071900 0.827897 0.613667
O O10 0.874832 0.958169 0.535853
O O11 0.760337 0.549161 0.983278
O O12 0.922972 0.513005 0.841905
O O13 0.753447 0.696501 0.871501
O O14 0.300062 0.105727 0.226414
O O15 0.004425 0.244929 0.255173
O O16 0.157723 0.638886 0.283422
#
# Coordination Sequence:
#
# PCOD8055069 Si02
#       8
#     4   4   4   4   4   4   4   4
#     4   9  22  44  62  95 137 165 224 277 319 390
#     4  10  22  44  61  97 137 162 217 270 321 395
#     4  10  22  40  65  95 125 173 215 264 327 386
#     4  10  23  41  65  96 126 175 216 265 326 392
#     4  11  23  41  71  96 130 177 212 272 332 387
#     4  10  21  44  67  92 135 172 218 283 327 380
#     4  10  22  43  66  95 128 168 221 266 327 395
#     4  10  21  43  67  94 132 174 215 277 327 385
#
# _framework density 22.481928
#
# number of rings (size 3 to 8) (size 9 to 14) (size 15 to 20)
#    0.000    2.000    1.250    0.750    5.250    1.000 
#   18.000    0.000    0.000    0.000    0.000    0.000 
#    0.000    0.000    0.000    0.000    0.000    0.000 
#
# Total GULP energy -198233.866230 kJ/mol
# GULP energy per Si atom -12389.616639 kJ/mol
# Density = 2.243076 g / cm^3
# Si number density = 22.481928 Si / 1000 Ang^3
#
#
#
# Elastic Constant Matrix: (Units=GPa)
#
#
# Indices 1 2 3 4 5 6 
#
# 1 113.6924 40.0693 34.6593 0.0000 2.6988 0.0000
# 2 40.0693 91.7729 21.1486 0.0000 1.6329 0.0000
# 3 34.6593 21.1486 84.0506 0.0000 10.6308 0.0000
# 4 0.0000 0.0000 0.0000 41.3435 0.0000 -8.6473
# 5 2.6988 1.6329 10.6308 0.0000 31.5365 0.0000
# 6 0.0000 0.0000 0.0000 -8.6473 0.0000 33.4441
#
#
#
# Elastic Compliance Matrix: (Units=1/GPa)
#
#
# Indices 1 2 3 4 5 6 
#
# 1 0.011367 -0.004116 -0.003714 0.000000 0.000492 0.000000
# 2 -0.004116 0.013062 -0.001617 0.000000 0.000221 0.000000
# 3 -0.003714 -0.001617 0.014399 0.000000 -0.004452 0.000000
# 4 0.000000 0.000000 0.000000 0.025570 0.000000 0.006611
# 5 0.000492 0.000221 -0.004452 0.000000 0.033157 0.000000
# 6 0.000000 0.000000 0.000000 0.006611 0.000000 0.031610
#
#
# Mechanical properties :
#
#
# Convention : Reuss Voigt Hill
#
# Bulk Modulus (GPa) = 50.16574 53.47446 51.82010
# Shear Modulus (GPa) = 32.31976 34.17407 33.24692
#
# Velocity S-wave (km/s) = 3.79567 3.90304 3.84973
# Velocity P-wave (km/s) = 6.44761 6.64445 6.54677
#
# Compressibility (1/GPa) = 0.01993392
#
# Stress axis : x y z
#
# Youngs Moduli (GPa) = 87.97627 76.55644 69.44844
#
# Poissons Ratio (x) = 0.31509 0.25792
# Poissons Ratio (y) = 0.36209 0.11233
# Poissons Ratio (z) = 0.32673 0.12383
#
# Static dielectric constant tensor:
#      x y z
#    x 3.844880 0.000000 0.012130 
#    y 0.000000 3.913490 0.000000 
#    z 0.012130 0.000000 4.333630 
# 
# 
# High freq. dielectric constant tensor:
#      x y z
#    x 1.865610 0.000000 -0.000470 
#    y 0.000000 1.864690 0.000000 
#    z -0.000470 0.000000 1.910940 
# 
# From -- ./inp_files/32003.got.cif
#   From: 2010.06.25/outbox.cif.g09.slc.cpg/sg9_17_cif.got.tgz:32003.got - 2010.06.27 21:40:51.
