data_PCOD8055336
_publ_section_title
;
Structure prediction by ZEFSAII (Michael W. Deem and Ramdas Pophale) SiO2 
 PCOD8055336
Probable space group: C C
;
_chemical_formula_sum "Si O2"
_cell_formula_units_Z 24
_cell_length_a 17.808089
_cell_length_b 4.890802
_cell_length_c 23.986548
_cell_angle_alpha 90.000000
_cell_angle_beta 151.249944
_cell_angle_gamma 90.000000
_cell_volume 1004.849127
_symmetry_space_group_name_H-M "C C"
_symmetry_group_IT_number 9
_symmetry_cell_setting 'monoclinic'
loop_
_space_group_symop_operation_xyz
x,y,z
x,-y,1/2+z
1/2+x,1/2+y,z
1/2+x,1/2-y,1/2+z
loop_
_atom_site_type_symbol
_atom_site_label
_atom_site_fract_x
_atom_site_fract_y
_atom_site_fract_z
Si Si1 0.810890 0.277179 0.970680
Si Si2 0.757706 0.078316 0.819820
Si Si3 0.527315 0.273559 0.113291
Si Si4 0.116782 0.921695 0.057535
Si Si5 0.063609 0.277143 0.406682
Si Si6 0.347180 0.273529 0.264070
O O1 0.719303 0.227794 0.852714
O O2 0.687253 0.250011 0.938685
O O3 0.875137 0.582974 0.011310
O O4 0.959056 0.077291 0.078057
O O5 0.745342 0.262556 0.755394
O O6 0.642207 0.816937 0.738375
O O7 0.937241 0.999987 0.938677
O O8 0.629158 0.237468 0.121971
O O9 0.232276 0.183079 0.138978
O O10 0.155194 0.772226 0.024648
O O11 0.999350 0.582928 0.366043
O O12 0.915453 0.077242 0.299311
#
# Coordination Sequence:
#
# PCOD8055336 Si02
#       6
#     4   4   4   4   4   4
#     4  11  25  44  66  96 134 171 215 269 327 387
#     4  10  22  42  67  95 128 168 217 269 316 381
#     4  11  23  42  67  96 128 173 220 265 323 385
#     4  10  22  42  67  95 128 168 217 269 316 381
#     4  11  25  44  66  96 134 171 215 269 327 387
#     4  11  23  42  67  96 128 173 220 265 323 385
#
# _framework density 23.884183
#
# number of rings (size 3 to 8) (size 9 to 14) (size 15 to 20)
#    0.000    1.333    0.000    6.000    0.000    9.333 
#    0.000    6.667    0.000    0.000    0.000    0.000 
#    0.000    0.000    0.000    0.000    0.000    0.000 
#
# Total GULP energy -148781.796268 kJ/mol
# GULP energy per Si atom -12398.483022 kJ/mol
# Density = 2.382982 g / cm^3
# Si number density = 23.884183 Si / 1000 Ang^3
#
#
#
# Elastic Constant Matrix: (Units=GPa)
#
#
# Indices 1 2 3 4 5 6 
#
# 1 167.6196 9.6607 21.8583 0.0057 1.9388 0.0803
# 2 9.6607 49.0334 -3.5912 -0.0024 4.7804 0.0964
# 3 21.8583 -3.5912 105.3069 0.0160 -9.9303 0.0413
# 4 0.0057 -0.0024 0.0160 39.2228 -0.0151 8.0193
# 5 1.9388 4.7804 -9.9303 -0.0151 31.3312 -0.0065
# 6 0.0803 0.0964 0.0413 8.0193 -0.0065 20.0422
#
#
#
# Elastic Compliance Matrix: (Units=1/GPa)
#
#
# Indices 1 2 3 4 5 6 
#
# 1 0.006228 -0.001267 -0.001396 0.000003 -0.000634 -0.000017
# 2 -0.001267 0.020978 0.000705 0.000022 -0.002899 -0.000107
# 3 -0.001396 0.000705 0.010110 0.000001 0.003183 -0.000018
# 4 0.000003 0.000022 0.000001 0.027767 0.000008 -0.011110
# 5 -0.000634 -0.002899 0.003183 0.000008 0.033407 0.000018
# 6 -0.000017 -0.000107 -0.000018 -0.011110 0.000018 0.054341
#
#
# Mechanical properties :
#
#
# Convention : Reuss Voigt Hill
#
# Bulk Modulus (GPa) = 29.93968 41.97951 35.95959
# Shear Modulus (GPa) = 29.78284 37.72137 33.75211
#
# Velocity S-wave (km/s) = 3.53508 3.97841 3.76328
# Velocity P-wave (km/s) = 5.40601 6.22239 5.82851
#
# Compressibility (1/GPa) = 0.03340049
#
# Stress axis : x y z
#
# Youngs Moduli (GPa) = 160.55720 47.66798 98.91194
#
# Poissons Ratio (x) = 0.06042 0.13807
# Poissons Ratio (y) = 0.20350 -0.06975
# Poissons Ratio (z) = 0.22411 -0.03361
#
# Static dielectric constant tensor:
#      x y z
#    x 4.715910 -0.000100 -0.721260 
#    y -0.000100 4.249080 0.000080 
#    z -0.721260 0.000080 4.906640 
# 
# 
# High freq. dielectric constant tensor:
#      x y z
#    x 1.932460 -0.000010 -0.003700 
#    y -0.000010 1.945740 0.000000 
#    z -0.003700 0.000000 1.965760 
# 
# From -- ./inp_files/18737.got.cif
#   From: 2010.06.25/outbox.cif.g09.slc.cpg/sg9_10_cif.got.tgz:18737.got - 2010.06.27 21:40:51.
