data_PCOD8055990
_publ_section_title
;
Structure prediction by ZEFSAII (Michael W. Deem and Ramdas Pophale) SiO2 
 PCOD8055990
Probable space group: C C
;
_chemical_formula_sum "Si O2"
_cell_formula_units_Z 32
_cell_length_a 28.626497
_cell_length_b 5.332614
_cell_length_c 24.639572
_cell_angle_alpha 90.000000
_cell_angle_beta 159.435796
_cell_angle_gamma 90.000000
_cell_volume 1321.192858
_symmetry_space_group_name_H-M "C C"
_symmetry_group_IT_number 9
_symmetry_cell_setting 'monoclinic'
loop_
_space_group_symop_operation_xyz
x,y,z
x,-y,1/2+z
1/2+x,1/2+y,z
1/2+x,1/2-y,1/2+z
loop_
_atom_site_type_symbol
_atom_site_label
_atom_site_fract_x
_atom_site_fract_y
_atom_site_fract_z
Si Si1 0.463170 0.136963 0.423210
Si Si2 0.044450 0.130779 0.473787
Si Si3 0.062559 0.768491 0.232944
Si Si4 0.736861 0.844176 0.015404
Si Si5 0.162728 0.171216 0.487086
Si Si6 0.301579 0.003060 0.441045
Si Si7 0.427813 0.628325 0.155263
Si Si8 0.718995 0.348010 0.736811
O O1 0.454742 0.375366 0.372503
O O2 0.613366 0.123519 0.611490
O O3 0.354808 0.184756 0.351381
O O4 0.447497 0.872388 0.374296
O O5 0.139144 0.143818 0.524893
O O6 0.143436 0.101568 0.633723
O O7 0.102515 0.634800 0.333198
O O8 0.188551 0.794070 0.330107
O O9 0.011617 0.047543 0.193263
O O10 0.940840 0.619733 0.073461
O O11 0.740298 0.576631 0.049882
O O12 0.749947 0.079330 0.071005
O O13 0.856693 0.877983 0.102503
O O14 0.023010 0.228530 0.305951
O O15 0.320327 0.168202 0.516546
O O16 0.250953 0.161241 0.335059
#
# Coordination Sequence:
#
# PCOD8055990 Si02
#       8
#     4   4   4   4   4   4   4   4
#     4  10  25  48  74 107 146 187 247 308 366 434
#     4  10  25  46  73 107 142 194 245 302 369 429
#     4  11  25  44  71 105 147 189 241 296 364 434
#     4  11  23  42  69 107 142 187 239 294 361 431
#     4  11  24  43  72 105 143 194 239 303 360 435
#     4  12  26  46  72 109 147 199 240 305 363 448
#     4  11  24  41  68 102 151 186 245 292 366 431
#     4  10  28  44  77 104 152 188 254 298 373 430
#
# _framework density 24.220534000000001
#
# number of rings (size 3 to 8) (size 9 to 14) (size 15 to 20)
#    0.750    0.500    2.500    2.250    5.250    3.000 
#    0.000    0.000    0.000    0.000    0.000    0.000 
#    0.000    0.000    0.000    0.000    0.000    0.000 
#
# Total GULP energy -198263.375314 kJ/mol
# GULP energy per Si atom -12391.460957 kJ/mol
# Density = 2.416541 g / cm^3
# Si number density = 24.220534 Si / 1000 Ang^3
#
#
#
# Elastic Constant Matrix: (Units=GPa)
#
#
# Indices 1 2 3 4 5 6 
#
# 1 81.8036 29.9417 6.0733 0.0011 17.0464 0.0014
# 2 29.9417 137.2368 20.4677 0.0121 12.1108 -0.0020
# 3 6.0733 20.4677 37.2190 0.0045 21.0403 0.0029
# 4 0.0011 0.0121 0.0045 29.2902 0.0015 6.2443
# 5 17.0464 12.1108 21.0403 0.0015 41.1136 0.0008
# 6 0.0014 -0.0020 0.0029 6.2443 0.0008 28.8730
#
#
#
# Elastic Compliance Matrix: (Units=1/GPa)
#
#
# Indices 1 2 3 4 5 6 
#
# 1 0.014501 -0.003033 0.003089 0.000001 -0.006700 -0.000001
# 2 -0.003033 0.008573 -0.004929 -0.000003 0.001255 0.000002
# 3 0.003089 -0.004929 0.040774 -0.000002 -0.020695 -0.000004
# 4 0.000001 -0.000003 -0.000002 0.035791 0.000001 -0.007741
# 5 -0.006700 0.001255 -0.020695 0.000001 0.037322 0.000001
# 6 -0.000001 0.000002 -0.000004 -0.007741 0.000001 0.036308
#
#
# Mechanical properties :
#
#
# Convention : Reuss Voigt Hill
#
# Bulk Modulus (GPa) = 18.48344 41.02498 29.75421
# Shear Modulus (GPa) = 24.86952 33.17383 29.02168
#
# Velocity S-wave (km/s) = 3.20784 3.70490 3.46530
# Velocity P-wave (km/s) = 4.62257 5.93941 5.32188
#
# Compressibility (1/GPa) = 0.05410247
#
# Stress axis : x y z
#
# Youngs Moduli (GPa) = 68.95851 116.64755 24.52571
#
# Poissons Ratio (x) = 0.35383 -0.07577
# Poissons Ratio (y) = 0.20918 0.12088
# Poissons Ratio (z) = -0.21304 0.57493
#
# Static dielectric constant tensor:
#      x y z
#    x 4.033160 -0.000010 0.115670 
#    y -0.000010 4.267240 -0.000010 
#    z 0.115670 -0.000010 4.279220 
# 
# 
# High freq. dielectric constant tensor:
#      x y z
#    x 1.947510 0.000000 0.012410 
#    y 0.000000 1.955100 0.000000 
#    z 0.012410 0.000000 1.964360 
# 
# From -- ./inp_files/37071.got.cif
#   From: 2010.06.25/outbox.cif.g09.slc.cpg/sg9_19_cif.got.tgz:37071.got - 2010.06.27 21:40:51.
