data_PCOD8055568
_publ_section_title
;
Structure prediction by ZEFSAII (Michael W. Deem and Ramdas Pophale) SiO2 
 PCOD8055568
Probable space group: C C
;
_chemical_formula_sum "Si O2"
_cell_formula_units_Z 32
_cell_length_a 18.780077
_cell_length_b 13.187836
_cell_length_c 13.220601
_cell_angle_alpha 90.000000
_cell_angle_beta 28.357716
_cell_angle_gamma 90.000000
_cell_volume 1555.223349
_symmetry_space_group_name_H-M "C C"
_symmetry_group_IT_number 9
_symmetry_cell_setting 'monoclinic'
loop_
_space_group_symop_operation_xyz
x,y,z
x,-y,1/2+z
1/2+x,1/2+y,z
1/2+x,1/2-y,1/2+z
loop_
_atom_site_type_symbol
_atom_site_label
_atom_site_fract_x
_atom_site_fract_y
_atom_site_fract_z
Si Si1 0.111350 0.978839 0.447360
Si Si2 0.743421 0.183566 0.123765
Si Si3 0.839607 0.599840 0.032321
Si Si4 0.595986 0.021160 0.845340
Si Si5 0.746415 0.203017 0.757233
Si Si6 0.460920 0.703019 0.035465
Si Si7 0.963912 0.816437 0.168942
Si Si8 0.867729 0.400161 0.260377
O O1 0.987466 0.903917 0.556466
O O2 0.206337 0.919419 0.412518
O O3 0.219478 0.018871 0.223401
O O4 0.025773 0.070591 0.609150
O O5 0.608547 0.264081 0.289031
O O6 0.681556 0.070596 0.183561
O O7 0.853681 0.214458 0.896343
O O8 0.822625 0.191181 0.132975
O O9 0.785973 0.713306 0.123730
O O10 0.853663 0.584619 0.896355
O O11 0.000999 0.580575 0.880176
O O12 0.719878 0.096083 0.736212
O O13 0.487847 0.981138 0.069312
O O14 0.884686 0.191175 0.659767
O O15 0.598782 0.235920 0.003662
O O16 0.421383 0.786702 0.168939
#
# Coordination Sequence:
#
# PCOD8055568 Si02
#       8
#     4   4   4   4   4   4   4   4
#     4  10  23  42  62  95 127 161 215 256 306 377
#     4  11  24  40  65  95 125 168 207 258 314 367
#     4  10  23  42  66  92 126 168 204 260 317 364
#     4  10  23  42  62  95 127 161 215 256 306 377
#     4  11  22  44  62  94 131 160 211 260 305 379
#     4  11  22  44  62  94 131 160 211 260 305 379
#     4  11  24  40  65  95 125 168 207 258 314 367
#     4  10  23  42  66  92 126 168 204 260 317 364
#
# _framework density 20.575823
#
# number of rings (size 3 to 8) (size 9 to 14) (size 15 to 20)
#    0.000    1.500    2.500    1.500    3.500    3.000 
#    0.000    0.000    0.000    0.000    0.000    0.000 
#    0.000    0.000    0.000    0.000    0.000    0.000 
#
# Total GULP energy -198520.179781 kJ/mol
# GULP energy per Si atom -12407.511236 kJ/mol
# Density = 2.052899 g / cm^3
# Si number density = 20.575823 Si / 1000 Ang^3
#
#
#
# Elastic Constant Matrix: (Units=GPa)
#
#
# Indices 1 2 3 4 5 6 
#
# 1 76.5804 6.1567 16.7660 0.0000 5.3726 0.0001
# 2 6.1567 71.0830 -1.0412 0.0000 -4.3296 0.0000
# 3 16.7660 -1.0412 70.2957 -0.0001 6.3341 0.0001
# 4 0.0000 0.0000 -0.0001 17.6991 0.0000 -9.1863
# 5 5.3726 -4.3296 6.3341 0.0000 40.7538 -0.0001
# 6 0.0001 0.0000 0.0001 -9.1863 -0.0001 28.4327
#
#
#
# Elastic Compliance Matrix: (Units=1/GPa)
#
#
# Indices 1 2 3 4 5 6 
#
# 1 0.013976 -0.001348 -0.003219 0.000000 -0.001485 0.000000
# 2 -0.001348 0.014290 0.000386 0.000000 0.001636 0.000000
# 3 -0.003219 0.000386 0.015170 0.000000 -0.001892 0.000000
# 4 0.000000 0.000000 0.000000 0.067883 0.000000 0.021932
# 5 -0.001485 0.001636 -0.001892 0.000000 0.025201 0.000000
# 6 0.000000 0.000000 0.000000 0.021932 0.000000 0.042257
#
#
# Mechanical properties :
#
#
# Convention : Reuss Voigt Hill
#
# Bulk Modulus (GPa) = 28.51277 29.08020 28.79649
# Shear Modulus (GPa) = 25.14700 30.44898 27.79799
#
# Velocity S-wave (km/s) = 3.49974 3.85105 3.67959
# Velocity P-wave (km/s) = 5.49712 5.82563 5.66376
#
# Compressibility (1/GPa) = 0.03507201
#
# Stress axis : x y z
#
# Youngs Moduli (GPa) = 71.55335 69.97841 65.92091
#
# Poissons Ratio (x) = 0.09434 0.21223
# Poissons Ratio (y) = 0.09646 -0.02543
# Poissons Ratio (z) = 0.23036 -0.02700
#
# Static dielectric constant tensor:
#      x y z
#    x 3.642890 0.000000 -0.220260 
#    y 0.000000 3.784490 0.000000 
#    z -0.220260 0.000000 3.660840 
# 
# 
# High freq. dielectric constant tensor:
#      x y z
#    x 1.807990 0.000000 -0.015920 
#    y 0.000000 1.815140 0.000000 
#    z -0.015920 0.000000 1.800500 
# 
# From -- ./inp_files/7591.got.cif
#   From: 2010.06.25/outbox.cif.g09.slc.cpg/sg9_4_cif.got.tgz:7591.got - 2010.06.27 21:40:51.
