data_PCOD8055131
_publ_section_title
;
Structure prediction by ZEFSAII (Michael W. Deem and Ramdas Pophale) SiO2 
 PCOD8055131
Probable space group: C C
;
_chemical_formula_sum "Si O2"
_cell_formula_units_Z 28
_cell_length_a 11.990670
_cell_length_b 19.639929
_cell_length_c 5.605135
_cell_angle_alpha 90.000000
_cell_angle_beta 68.240537
_cell_angle_gamma 90.000000
_cell_volume 1225.935133
_symmetry_space_group_name_H-M "C C"
_symmetry_group_IT_number 9
_symmetry_cell_setting 'monoclinic'
loop_
_space_group_symop_operation_xyz
x,y,z
x,-y,1/2+z
1/2+x,1/2+y,z
1/2+x,1/2-y,1/2+z
loop_
_atom_site_type_symbol
_atom_site_label
_atom_site_fract_x
_atom_site_fract_y
_atom_site_fract_z
Si Si1 0.606860 0.237701 0.569620
Si Si2 0.398886 0.039548 0.899642
Si Si3 0.962731 0.040621 0.991329
Si Si4 0.192325 0.122228 0.892639
Si Si5 0.559338 0.139481 0.977530
Si Si6 0.777273 0.159762 0.088786
Si Si7 0.877156 0.703764 0.448080
O O1 0.619323 0.318605 0.585386
O O2 0.606784 0.210476 0.836948
O O3 0.720265 0.201374 0.354539
O O4 0.478636 0.217330 0.564685
O O5 0.281266 0.086521 0.009511
O O6 0.524039 0.082152 0.811491
O O7 0.398052 0.007270 0.635767
O O8 0.876167 0.105493 0.086815
O O9 0.940178 0.997809 0.255280
O O10 0.099716 0.066401 0.866211
O O11 0.265649 0.158637 0.624105
O O12 0.670948 0.115566 0.050472
O O13 0.434654 0.154947 0.206615
O O14 0.836104 0.221369 0.884039
#
# Coordination Sequence:
#
# PCOD8055131 Si02
#       7
#     4   4   4   4   4   4   4
#     4  10  22  44  72 108 137 182 241 312 371 418
#     4  12  27  46  71 102 143 192 239 291 349 429
#     4  12  29  50  73 106 152 204 240 289 358 448
#     4  11  23  47  75 105 146 183 248 305 367 431
#     4  11  25  42  74 107 140 190 245 303 371 425
#     4  10  25  44  70 106 147 190 242 297 371 435
#     4  10  21  45  71 108 141 181 237 317 369 420
#
# _framework density 22.839708999999999
#
# number of rings (size 3 to 8) (size 9 to 14) (size 15 to 20)
#    0.000    1.143    2.857    1.714    6.000    3.429 
#    2.571    0.000    0.000    0.000    0.000    0.000 
#    0.000    0.000    0.000    0.000    0.000    0.000 
#
# Total GULP energy -173449.864140 kJ/mol
# GULP energy per Si atom -12389.276010 kJ/mol
# Density = 2.278772 g / cm^3
# Si number density = 22.839709 Si / 1000 Ang^3
#
#
#
# Elastic Constant Matrix: (Units=GPa)
#
#
# Indices 1 2 3 4 5 6 
#
# 1 112.3104 53.8212 29.0124 0.0000 -5.1930 0.0000
# 2 53.8212 96.3298 21.4742 0.0000 11.7330 0.0000
# 3 29.0124 21.4742 64.1075 0.0000 13.5093 0.0000
# 4 0.0000 0.0000 0.0000 27.8997 0.0000 -2.8822
# 5 -5.1930 11.7330 13.5093 0.0000 32.5307 0.0000
# 6 0.0000 0.0000 0.0000 -2.8822 0.0000 55.7787
#
#
#
# Elastic Compliance Matrix: (Units=1/GPa)
#
#
# Indices 1 2 3 4 5 6 
#
# 1 0.014335 -0.007685 -0.005457 0.000000 0.007326 0.000000
# 2 -0.007685 0.015563 -0.000322 0.000000 -0.006706 0.000000
# 3 -0.005457 -0.000322 0.020094 0.000000 -0.009100 0.000000
# 4 0.000000 0.000000 0.000000 0.036035 0.000000 0.001862
# 5 0.007326 -0.006706 -0.009100 0.000000 0.038107 0.000000
# 6 0.000000 0.000000 0.000000 0.001862 0.000000 0.018024
#
#
# Mechanical properties :
#
#
# Convention : Reuss Voigt Hill
#
# Bulk Modulus (GPa) = 43.35791 53.48479 48.42135
# Shear Modulus (GPa) = 28.28438 34.47115 31.37776
#
# Velocity S-wave (km/s) = 3.52289 3.88914 3.71054
# Velocity P-wave (km/s) = 5.96426 6.60572 6.29317
#
# Compressibility (1/GPa) = 0.02306384
#
# Stress axis : x y z
#
# Youngs Moduli (GPa) = 69.75823 64.25293 49.76636
#
# Poissons Ratio (x) = 0.49380 0.27158
# Poissons Ratio (y) = 0.53611 0.01603
# Poissons Ratio (z) = 0.38068 0.02070
#
# Static dielectric constant tensor:
#      x y z
#    x 4.311690 0.000000 -0.156100 
#    y 0.000000 4.369370 0.000000 
#    z -0.156100 0.000000 3.921870 
# 
# 
# High freq. dielectric constant tensor:
#      x y z
#    x 1.921340 0.000000 -0.009000 
#    y 0.000000 1.911960 0.000000 
#    z -0.009000 0.000000 1.881760 
# 
# From -- ./inp_files/1659.got.cif
#   From: 2010.06.25/outbox.cif.g09.slc.cpg/sg9_1_cif.got.tgz:1659.got - 2010.06.27 21:40:51.
