data_PCOD8055629
_publ_section_title
;
Structure prediction by ZEFSAII (Michael W. Deem and Ramdas Pophale) SiO2 
 PCOD8055629
Probable space group: C C
;
_chemical_formula_sum "Si O2"
_cell_formula_units_Z 32
_cell_length_a 9.322886
_cell_length_b 10.927502
_cell_length_c 18.274533
_cell_angle_alpha 90.000000
_cell_angle_beta 121.032735
_cell_angle_gamma 90.000000
_cell_volume 1595.269143
_symmetry_space_group_name_H-M "C C"
_symmetry_group_IT_number 9
_symmetry_cell_setting 'monoclinic'
loop_
_space_group_symop_operation_xyz
x,y,z
x,-y,1/2+z
1/2+x,1/2+y,z
1/2+x,1/2-y,1/2+z
loop_
_atom_site_type_symbol
_atom_site_label
_atom_site_fract_x
_atom_site_fract_y
_atom_site_fract_z
Si Si1 0.643940 0.192565 0.642550
Si Si2 0.903254 0.339531 0.803756
Si Si3 0.273841 0.431109 0.663974
Si Si4 0.981537 0.800805 0.468967
Si Si5 0.785979 0.746252 0.549296
Si Si6 0.039565 0.064646 0.429801
Si Si7 0.710809 0.195578 0.296652
Si Si8 0.138509 0.017395 0.797119
O O1 0.791978 0.240039 0.732107
O O2 0.640107 0.259079 0.561438
O O3 0.464027 0.212724 0.634342
O O4 0.657478 0.048303 0.637093
O O5 0.982448 0.275162 0.895115
O O6 0.794228 0.456560 0.796282
O O7 0.057701 0.380642 0.792903
O O8 0.219312 0.363920 0.575045
O O9 0.226403 0.337087 0.715760
O O10 0.466796 0.475273 0.713462
O O11 0.810577 0.777278 0.469559
O O12 0.981135 0.943778 0.454618
O O13 0.661674 0.631803 0.519092
O O14 0.884513 0.156274 0.378959
O O15 0.133198 0.026828 0.379604
O O16 0.668872 0.337977 0.298687
#
# Coordination Sequence:
#
# PCOD8055629 Si02
#       8
#     4   4   4   4   4   4   4   4
#     4  10  23  43  69  97 134 179 215 278 339 398
#     4  12  21  46  71  95 136 182 217 269 354 393
#     4  11  23  44  66 100 136 167 237 277 326 406
#     4  10  23  43  69  97 134 179 215 278 339 398
#     4  10  24  42  66  98 132 184 212 282 338 390
#     4  11  23  44  66 100 136 167 237 277 326 406
#     4  11  26  39  69 105 128 181 224 282 330 395
#     4  11  21  43  70  96 136 171 225 283 330 408
#
# _framework density 20.059311999999998
#
# number of rings (size 3 to 8) (size 9 to 14) (size 15 to 20)
#    0.750    0.500    5.000    0.750    0.000    8.000 
#    2.250    0.000    0.000    0.000    0.000    0.000 
#    0.000    0.000    0.000    0.000    0.000    0.000 
#
# Total GULP energy -198340.848675 kJ/mol
# GULP energy per Si atom -12396.303042 kJ/mol
# Density = 2.001366 g / cm^3
# Si number density = 20.059312 Si / 1000 Ang^3
#
#
#
# Elastic Constant Matrix: (Units=GPa)
#
#
# Indices 1 2 3 4 5 6 
#
# 1 107.6755 40.0211 12.6858 0.0000 4.2828 0.0000
# 2 40.0211 116.2110 20.5228 0.0000 -3.2261 0.0000
# 3 12.6858 20.5228 67.9539 0.0000 -4.1291 0.0000
# 4 0.0000 0.0000 0.0000 27.7432 0.0000 -1.6734
# 5 4.2828 -3.2261 -4.1291 0.0000 15.0891 0.0000
# 6 0.0000 0.0000 0.0000 -1.6734 0.0000 26.6212
#
#
#
# Elastic Compliance Matrix: (Units=1/GPa)
#
#
# Indices 1 2 3 4 5 6 
#
# 1 0.010964 -0.003683 -0.001191 0.000000 -0.004226 0.000000
# 2 -0.003683 0.010349 -0.002278 0.000000 0.002635 0.000000
# 3 -0.001191 -0.002278 0.015881 0.000000 0.004197 0.000000
# 4 0.000000 0.000000 0.000000 0.036182 0.000000 0.002274
# 5 -0.004226 0.002635 0.004197 0.000000 0.069184 0.000000
# 6 0.000000 0.000000 0.000000 0.002274 0.000000 0.037707
#
#
# Mechanical properties :
#
#
# Convention : Reuss Voigt Hill
#
# Bulk Modulus (GPa) = 43.68657 48.69994 46.19326
# Shear Modulus (GPa) = 24.72773 28.46473 26.59623
#
# Velocity S-wave (km/s) = 3.51484 3.77109 3.64521
# Velocity P-wave (km/s) = 6.18854 6.57968 6.38710
#
# Compressibility (1/GPa) = 0.02289033
#
# Stress axis : x y z
#
# Youngs Moduli (GPa) = 91.20380 96.62995 62.96746
#
# Poissons Ratio (x) = 0.35588 0.07502
# Poissons Ratio (y) = 0.33589 0.14343
# Poissons Ratio (z) = 0.10866 0.22011
#
# Static dielectric constant tensor:
#      x y z
#    x 3.722160 0.000000 -0.049120 
#    y 0.000000 3.557110 0.000000 
#    z -0.049120 0.000000 3.665630 
# 
# 
# High freq. dielectric constant tensor:
#      x y z
#    x 1.783080 0.000000 -0.001300 
#    y 0.000000 1.789380 0.000000 
#    z -0.001300 0.000000 1.777920 
# 
# From -- ./inp_files/32512.got.cif
#   From: 2010.06.25/outbox.cif.g09.slc.cpg/sg9_17_cif.got.tgz:32512.got - 2010.06.27 21:40:51.
