data_PCOD8055486
_publ_section_title
;
Structure prediction by ZEFSAII (Michael W. Deem and Ramdas Pophale) SiO2 
 PCOD8055486
Probable space group: C C
;
_chemical_formula_sum "Si O2"
_cell_formula_units_Z 28
_cell_length_a 16.062177
_cell_length_b 9.242000
_cell_length_c 9.983550
_cell_angle_alpha 90.000000
_cell_angle_beta 53.033467
_cell_angle_gamma 90.000000
_cell_volume 1184.118121
_symmetry_space_group_name_H-M "C C"
_symmetry_group_IT_number 9
_symmetry_cell_setting 'monoclinic'
loop_
_space_group_symop_operation_xyz
x,y,z
x,-y,1/2+z
1/2+x,1/2+y,z
1/2+x,1/2-y,1/2+z
loop_
_atom_site_type_symbol
_atom_site_label
_atom_site_fract_x
_atom_site_fract_y
_atom_site_fract_z
Si Si1 0.763320 0.919636 0.867190
Si Si2 0.063296 0.852105 0.307978
Si Si3 0.150410 0.955403 0.501298
Si Si4 0.062713 0.453933 0.912686
Si Si5 0.366357 0.877485 0.250425
Si Si6 0.881094 0.966349 0.020809
Si Si7 0.533459 0.230684 0.788749
O O1 0.803431 0.766813 0.768171
O O2 0.821991 0.038999 0.719248
O O3 0.638166 0.936757 0.969992
O O4 0.794720 0.939937 0.990296
O O5 0.114590 0.941438 0.382215
O O6 0.087856 0.681056 0.289749
O O7 0.938888 0.879354 0.440287
O O8 0.100762 0.908796 0.126769
O O9 0.274626 0.986527 0.383562
O O10 0.119075 0.806691 0.609768
O O11 0.939512 0.446823 0.065498
O O12 0.090423 0.608411 0.821168
O O13 0.442262 0.847510 0.298185
O O14 0.974986 0.850215 0.934853
#
# Coordination Sequence:
#
# PCOD8055486 Si02
#       7
#     4   4   4   4   4   4   4
#     4  11  23  42  76  96 140 189 237 282 362 416
#     4  11  22  47  74 102 137 186 244 287 350 429
#     4  11  24  46  73 100 141 196 231 291 357 429
#     4  12  25  43  72 108 141 181 239 302 349 421
#     4  11  22  44  68  96 144 191 221 289 357 417
#     4  10  22  46  69  98 134 194 230 282 357 431
#     4  10  24  42  70 100 143 181 234 293 356 415
#
# _framework density 23.646291999999999
#
# number of rings (size 3 to 8) (size 9 to 14) (size 15 to 20)
#    0.000    1.143    4.286    1.714    8.000    0.000 
#    7.714    0.000    0.000    0.000    0.000    0.000 
#    0.000    0.000    0.000    0.000    0.000    0.000 
#
# Total GULP energy -173526.031057 kJ/mol
# GULP energy per Si atom -12394.716504 kJ/mol
# Density = 2.359247 g / cm^3
# Si number density = 23.646292 Si / 1000 Ang^3
#
#
#
# Elastic Constant Matrix: (Units=GPa)
#
#
# Indices 1 2 3 4 5 6 
#
# 1 94.5734 29.6511 23.3572 0.0000 -21.4952 0.0000
# 2 29.6511 72.8055 4.4244 0.0000 7.8640 0.0000
# 3 23.3572 4.4244 99.3451 0.0000 -17.8819 0.0000
# 4 0.0000 0.0000 0.0000 23.3307 0.0000 4.7361
# 5 -21.4952 7.8640 -17.8819 0.0000 44.4431 0.0000
# 6 0.0000 0.0000 0.0000 4.7361 0.0000 33.6158
#
#
#
# Elastic Compliance Matrix: (Units=1/GPa)
#
#
# Indices 1 2 3 4 5 6 
#
# 1 0.014894 -0.006784 -0.001819 0.000000 0.007672 0.000000
# 2 -0.006784 0.017216 -0.000335 0.000000 -0.006462 0.000000
# 3 -0.001819 -0.000335 0.011170 0.000000 0.003674 0.000000
# 4 0.000000 0.000000 0.000000 0.044124 0.000000 -0.006217
# 5 0.007672 -0.006462 0.003674 0.000000 0.028833 0.000000
# 6 0.000000 0.000000 0.000000 -0.006217 0.000000 0.030624
#
#
# Mechanical properties :
#
#
# Convention : Reuss Voigt Hill
#
# Bulk Modulus (GPa) = 39.36240 42.39883 40.88061
# Shear Modulus (GPa) = 28.86779 34.23066 31.54923
#
# Velocity S-wave (km/s) = 3.49781 3.80888 3.65665
# Velocity P-wave (km/s) = 5.74416 6.10842 5.92909
#
# Compressibility (1/GPa) = 0.02540496
#
# Stress axis : x y z
#
# Youngs Moduli (GPa) = 67.14305 58.08416 89.52786
#
# Poissons Ratio (x) = 0.39403 0.16282
# Poissons Ratio (y) = 0.45549 0.02999
# Poissons Ratio (z) = 0.12211 0.01946
#
# Static dielectric constant tensor:
#      x y z
#    x 4.194410 0.000000 -0.311240 
#    y 0.000000 4.235260 0.000000 
#    z -0.311240 0.000000 4.297460 
# 
# 
# High freq. dielectric constant tensor:
#      x y z
#    x 1.934880 0.000000 -0.018260 
#    y 0.000000 1.918140 0.000000 
#    z -0.018260 0.000000 1.939480 
# 
# From -- ./inp_files/19013.got.cif
#   From: 2010.06.25/outbox.cif.g09.slc.cpg/sg9_10_cif.got.tgz:19013.got - 2010.06.27 21:40:51.
