data_PCOD8055283
_publ_section_title
;
Structure prediction by ZEFSAII (Michael W. Deem and Ramdas Pophale) SiO2 
 PCOD8055283
Probable space group: C C
;
_chemical_formula_sum "Si O2"
_cell_formula_units_Z 32
_cell_length_a 6.908568
_cell_length_b 22.529033
_cell_length_c 10.142776
_cell_angle_alpha 90.000000
_cell_angle_beta 110.198019
_cell_angle_gamma 90.000000
_cell_volume 1481.576206
_symmetry_space_group_name_H-M "C C"
_symmetry_group_IT_number 9
_symmetry_cell_setting 'monoclinic'
loop_
_space_group_symop_operation_xyz
x,y,z
x,-y,1/2+z
1/2+x,1/2+y,z
1/2+x,1/2-y,1/2+z
loop_
_atom_site_type_symbol
_atom_site_label
_atom_site_fract_x
_atom_site_fract_y
_atom_site_fract_z
Si Si1 0.831020 0.451989 0.391850
Si Si2 0.118783 0.214282 0.439952
Si Si3 0.242393 0.638422 0.254452
Si Si4 0.125805 0.651865 0.930405
Si Si5 0.052181 0.515275 0.209309
Si Si6 0.369411 0.414885 0.271400
Si Si7 0.027882 0.282314 0.900378
Si Si8 0.422766 0.700197 0.650924
O O1 0.914904 0.499944 0.305731
O O2 0.900626 0.469146 0.554594
O O3 0.584389 0.449533 0.338377
O O4 0.917097 0.386773 0.374352
O O5 0.070562 0.280749 0.373325
O O6 0.345741 0.194704 0.450769
O O7 0.962020 0.164466 0.350443
O O8 0.113646 0.213485 0.598276
O O9 0.213920 0.568513 0.275552
O O10 0.062824 0.668714 0.297158
O O11 0.218397 0.654419 0.097356
O O12 0.305987 0.622044 0.886329
O O13 0.190490 0.460658 0.194873
O O14 0.383313 0.370297 0.150546
O O15 0.967450 0.222484 0.808775
O O16 0.223852 0.268331 0.038152
#
# Coordination Sequence:
#
# PCOD8055283 Si02
#       8
#     4   4   4   4   4   4   4   4
#     4  10  25  44  74  96 138 187 231 291 355 406
#     4  11  24  39  68 101 140 180 222 281 352 414
#     4  10  24  43  66 100 139 176 228 288 341 423
#     4  10  22  41  66 101 138 176 232 274 344 424
#     4  10  25  48  68 103 135 180 243 293 339 431
#     4  11  25  46  73  98 137 184 231 290 347 410
#     4  11  25  41  66 101 142 179 225 286 343 424
#     4  11  26  42  67 104 139 180 230 285 345 424
#
# _framework density 21.598618999999999
#
# number of rings (size 3 to 8) (size 9 to 14) (size 15 to 20)
#    0.000    1.500    2.500    0.000    8.750    8.000 
#    0.000    0.000    0.000    0.000    0.000    0.000 
#    0.000    0.000    0.000    0.000    0.000    0.000 
#
# Total GULP energy -198393.979861 kJ/mol
# GULP energy per Si atom -12399.623741 kJ/mol
# Density = 2.154946 g / cm^3
# Si number density = 21.598619 Si / 1000 Ang^3
#
#
#
# Elastic Constant Matrix: (Units=GPa)
#
#
# Indices 1 2 3 4 5 6 
#
# 1 137.1330 25.4363 34.9549 0.0000 -16.1608 0.0000
# 2 25.4363 101.8906 25.3132 0.0000 -1.7539 0.0000
# 3 34.9549 25.3132 83.8006 0.0000 3.7307 0.0000
# 4 0.0000 0.0000 0.0000 32.2851 0.0000 -4.0877
# 5 -16.1608 -1.7539 3.7307 0.0000 27.5130 0.0000
# 6 0.0000 0.0000 0.0000 -4.0877 0.0000 35.5403
#
#
#
# Elastic Compliance Matrix: (Units=1/GPa)
#
#
# Indices 1 2 3 4 5 6 
#
# 1 0.009151 -0.001268 -0.003692 0.000000 0.005795 0.000000
# 2 -0.001268 0.010821 -0.002754 0.000000 0.000319 0.000000
# 3 -0.003692 -0.002754 0.014497 0.000000 -0.004310 0.000000
# 4 0.000000 0.000000 0.000000 0.031432 0.000000 0.003615
# 5 0.005795 0.000319 -0.004310 0.000000 0.040355 0.000000
# 6 0.000000 0.000000 0.000000 0.003615 0.000000 0.028553
#
#
# Mechanical properties :
#
#
# Convention : Reuss Voigt Hill
#
# Bulk Modulus (GPa) = 52.51757 54.91476 53.71616
# Shear Modulus (GPa) = 31.93180 34.87567 33.40374
#
# Velocity S-wave (km/s) = 3.84919 4.02271 3.93691
# Velocity P-wave (km/s) = 6.64252 6.85978 6.75203
#
# Compressibility (1/GPa) = 0.01904125
#
# Stress axis : x y z
#
# Youngs Moduli (GPa) = 109.27252 92.41680 68.97977
#
# Poissons Ratio (x) = 0.11714 0.25470
# Poissons Ratio (y) = 0.13851 0.18997
# Poissons Ratio (z) = 0.40347 0.25451
#
# Static dielectric constant tensor:
#      x y z
#    x 3.980890 0.000000 -0.280780 
#    y 0.000000 4.048460 0.000000 
#    z -0.280780 0.000000 3.729360 
# 
# 
# High freq. dielectric constant tensor:
#      x y z
#    x 1.856640 0.000000 -0.016440 
#    y 0.000000 1.851740 0.000000 
#    z -0.016440 0.000000 1.843390 
# 
# From -- ./inp_files/13777.got.cif
#   From: 2010.06.25/outbox.cif.g09.slc.cpg/sg9_7_cif.got.tgz:13777.got - 2010.06.27 21:40:51.
