data_PCOD8055876
_publ_section_title
;
Structure prediction by ZEFSAII (Michael W. Deem and Ramdas Pophale) SiO2 
 PCOD8055876
Probable space group: C C
;
_chemical_formula_sum "Si O2"
_cell_formula_units_Z 32
_cell_length_a 12.628171
_cell_length_b 11.272635
_cell_length_c 12.068678
_cell_angle_alpha 90.000000
_cell_angle_beta 52.434873
_cell_angle_gamma 90.000000
_cell_volume 1361.799009
_symmetry_space_group_name_H-M "C C"
_symmetry_group_IT_number 9
_symmetry_cell_setting 'monoclinic'
loop_
_space_group_symop_operation_xyz
x,y,z
x,-y,1/2+z
1/2+x,1/2+y,z
1/2+x,1/2-y,1/2+z
loop_
_atom_site_type_symbol
_atom_site_label
_atom_site_fract_x
_atom_site_fract_y
_atom_site_fract_z
Si Si1 0.969130 0.678980 0.911710
Si Si2 0.494818 0.174956 0.287972
Si Si3 0.271803 0.952912 0.039860
Si Si4 0.142094 0.844342 0.326419
Si Si5 0.636358 0.960560 0.138047
Si Si6 0.791825 0.184649 0.372525
Si Si7 0.880327 0.944207 0.598516
Si Si8 0.526213 0.339008 0.075604
O O1 0.851011 0.578842 0.995397
O O2 0.902722 0.793095 0.895205
O O3 0.093034 0.633916 0.758875
O O4 0.039989 0.729256 0.978646
O O5 0.374937 0.153447 0.450279
O O6 0.623553 0.215601 0.278475
O O7 0.515697 0.055167 0.201225
O O8 0.466938 0.284951 0.225798
O O9 0.155852 0.925646 0.019658
O O10 0.212678 0.938711 0.200826
O O11 0.234092 0.814172 0.373770
O O12 0.997706 0.889292 0.451567
O O13 0.751408 0.049731 0.104198
O O14 0.673138 0.896886 0.999239
O O15 0.863741 0.124912 0.223481
O O16 0.909493 0.080300 0.605439
#
# Coordination Sequence:
#
# PCOD8055876 Si02
#       8
#     4   4   4   4   4   4   4   4
#     4  11  26  47  70 106 144 190 233 299 363 423
#     4  10  24  44  70 103 134 187 234 290 359 421
#     4  10  25  45  71 102 144 184 246 289 351 440
#     4  11  24  44  73  98 140 187 232 298 356 423
#     4  11  26  45  68 104 137 179 237 290 351 430
#     4  12  25  45  72 100 144 182 237 297 358 429
#     4  12  26  44  68 106 134 181 237 288 352 433
#     4  11  26  42  72 103 141 188 230 297 360 429
#
# _framework density 23.498325999999999
#
# number of rings (size 3 to 8) (size 9 to 14) (size 15 to 20)
#    0.000    1.000    2.500    2.250    8.750    4.000 
#    0.000    0.000    0.000    0.000    0.000    0.000 
#    0.000    0.000    0.000    0.000    0.000    0.000 
#
# Total GULP energy -198240.273860 kJ/mol
# GULP energy per Si atom -12390.017116 kJ/mol
# Density = 2.344484 g / cm^3
# Si number density = 23.498326 Si / 1000 Ang^3
#
#
#
# Elastic Constant Matrix: (Units=GPa)
#
#
# Indices 1 2 3 4 5 6 
#
# 1 69.3126 20.7009 23.4502 0.0000 9.3942 0.0000
# 2 20.7009 84.9736 39.6891 0.0000 -2.2493 0.0000
# 3 23.4502 39.6891 152.4585 0.0000 -7.3634 0.0000
# 4 0.0000 0.0000 0.0000 36.9720 0.0000 -2.4881
# 5 9.3942 -2.2493 -7.3634 0.0000 30.6719 0.0000
# 6 0.0000 0.0000 0.0000 -2.4881 0.0000 39.6577
#
#
#
# Elastic Compliance Matrix: (Units=1/GPa)
#
#
# Indices 1 2 3 4 5 6 
#
# 1 0.016906 -0.003332 -0.002018 0.000000 -0.005907 0.000000
# 2 -0.003332 0.014055 -0.003083 0.000000 0.001311 0.000000
# 3 -0.002018 -0.003083 0.007781 0.000000 0.002260 0.000000
# 4 0.000000 0.000000 0.000000 0.027162 0.000000 0.001704
# 5 -0.005907 0.001311 0.002260 0.000000 0.035051 0.000000
# 6 0.000000 0.000000 0.000000 0.001704 0.000000 0.025323
#
#
# Mechanical properties :
#
#
# Convention : Reuss Voigt Hill
#
# Bulk Modulus (GPa) = 45.71368 52.71390 49.21379
# Shear Modulus (GPa) = 33.23655 36.32061 34.77858
#
# Velocity S-wave (km/s) = 3.76496 3.93576 3.85131
# Velocity P-wave (km/s) = 6.19646 6.56775 6.38481
#
# Compressibility (1/GPa) = 0.02187529
#
# Stress axis : x y z
#
# Youngs Moduli (GPa) = 59.15060 71.14982 128.51276
#
# Poissons Ratio (x) = 0.23709 0.25936
# Poissons Ratio (y) = 0.19711 0.39620
# Poissons Ratio (z) = 0.11938 0.21935
#
# Static dielectric constant tensor:
#      x y z
#    x 4.172950 0.000000 0.036710 
#    y 0.000000 4.196210 0.000000 
#    z 0.036710 0.000000 4.253880 
# 
# 
# High freq. dielectric constant tensor:
#      x y z
#    x 1.924020 0.000000 -0.000270 
#    y 0.000000 1.940040 0.000000 
#    z -0.000270 0.000000 1.936150 
# 
# From -- ./inp_files/18279.got.cif
#   From: 2010.06.25/outbox.cif.g09.slc.cpg/sg9_10_cif.got.tgz:18279.got - 2010.06.27 21:40:51.
