data_PCOD8055172
_publ_section_title
;
Structure prediction by ZEFSAII (Michael W. Deem and Ramdas Pophale) SiO2 
 PCOD8055172
Probable space group: C C
;
_chemical_formula_sum "Si O2"
_cell_formula_units_Z 32
_cell_length_a 7.476971
_cell_length_b 12.979428
_cell_length_c 22.490615
_cell_angle_alpha 90.000000
_cell_angle_beta 52.225042
_cell_angle_gamma 90.000000
_cell_volume 1725.210329
_symmetry_space_group_name_H-M "C C"
_symmetry_group_IT_number 9
_symmetry_cell_setting 'monoclinic'
loop_
_space_group_symop_operation_xyz
x,y,z
x,-y,1/2+z
1/2+x,1/2+y,z
1/2+x,1/2-y,1/2+z
loop_
_atom_site_type_symbol
_atom_site_label
_atom_site_fract_x
_atom_site_fract_y
_atom_site_fract_z
Si Si1 0.620840 0.198662 0.667450
Si Si2 0.217162 0.502600 0.322550
Si Si3 0.430300 0.167677 0.835272
Si Si4 0.334936 0.616069 0.412638
Si Si5 0.027095 0.431839 0.082295
Si Si6 0.730636 0.467667 0.905293
Si Si7 0.424631 0.474576 0.074992
Si Si8 0.092559 0.932213 0.654308
O O1 0.481950 0.180622 0.755480
O O2 0.470321 0.158082 0.642005
O O3 0.681635 0.317607 0.646433
O O4 0.856921 0.134255 0.620564
O O5 0.149569 0.381782 0.325496
O O6 0.283667 0.523582 0.377185
O O7 0.425416 0.536237 0.240361
O O8 0.993050 0.570538 0.350795
O O9 0.348449 0.275059 0.877716
O O10 0.222659 0.087260 0.885200
O O11 0.136577 0.619329 0.501607
O O12 0.579864 0.600156 0.392283
O O13 0.214713 0.508247 0.074667
O O14 0.804816 0.492220 0.109872
O O15 0.647693 0.459048 0.990186
O O16 0.466377 0.560347 0.116641
#
# Coordination Sequence:
#
# PCOD8055172 Si02
#       8
#     4   4   4   4   4   4   4   4
#     4  10  22  41  61  91 123 160 207 249 302 365
#     4  10  22  38  62  93 119 163 200 248 310 360
#     4  10  22  41  61  91 124 157 207 252 300 369
#     4  11  21  43  61  88 125 161 202 254 308 356
#     4   9  24  40  61  91 120 161 210 246 302 370
#     4   9  22  40  62  86 127 156 200 260 291 367
#     4   9  20  42  59  90 122 155 209 249 298 360
#     4  12  21  41  65  84 130 159 197 260 299 361
#
# _framework density 18.548463999999999
#
# number of rings (size 3 to 8) (size 9 to 14) (size 15 to 20)
#    1.500    0.500    2.500    0.750    3.500    0.000 
#    6.750    1.250    0.000    0.000    0.000    0.000 
#    0.000    0.000    0.000    0.000    0.000    0.000 
#
# Total GULP energy -198243.693605 kJ/mol
# GULP energy per Si atom -12390.230850 kJ/mol
# Density = 1.850625 g / cm^3
# Si number density = 18.548464 Si / 1000 Ang^3
#
#
#
# Elastic Constant Matrix: (Units=GPa)
#
#
# Indices 1 2 3 4 5 6 
#
# 1 56.2712 12.7963 45.0160 0.0010 -0.1874 -0.0009
# 2 12.7963 82.7669 53.5535 0.0006 0.8799 -0.0009
# 3 45.0160 53.5535 150.3842 -0.0001 8.9408 0.0000
# 4 0.0010 0.0006 -0.0001 27.6979 -0.0006 -1.2633
# 5 -0.1874 0.8799 8.9408 -0.0006 36.0489 0.0008
# 6 -0.0009 -0.0009 0.0000 -1.2633 0.0008 26.5378
#
#
#
# Elastic Compliance Matrix: (Units=1/GPa)
#
#
# Indices 1 2 3 4 5 6 
#
# 1 0.023595 0.001270 -0.007633 -0.000001 0.001985 0.000001
# 2 0.001270 0.015805 -0.006075 0.000000 0.001128 0.000001
# 3 -0.007633 -0.006075 0.011258 0.000000 -0.002684 0.000000
# 4 -0.000001 0.000000 0.000000 0.036182 0.000000 0.001722
# 5 0.001985 0.001128 -0.002684 0.000000 0.028388 -0.000001
# 6 0.000001 0.000001 0.000000 0.001722 -0.000001 0.037764
#
#
# Mechanical properties :
#
#
# Convention : Reuss Voigt Hill
#
# Bulk Modulus (GPa) = 38.78934 56.90598 47.84766
# Shear Modulus (GPa) = 26.81484 29.92736 28.37110
#
# Velocity S-wave (km/s) = 3.80631 4.02116 3.91521
# Velocity P-wave (km/s) = 6.34627 7.23228 6.80371
#
# Compressibility (1/GPa) = 0.02578028
#
# Stress axis : x y z
#
# Youngs Moduli (GPa) = 42.38117 63.27158 88.82831
#
# Poissons Ratio (x) = -0.08035 0.67805
# Poissons Ratio (y) = -0.05382 0.53968
# Poissons Ratio (z) = 0.32351 0.38441
#
# Static dielectric constant tensor:
#      x y z
#    x 3.260130 0.000000 0.085360 
#    y 0.000000 3.170380 0.000000 
#    z 0.085360 0.000000 3.569620 
# 
# 
# High freq. dielectric constant tensor:
#      x y z
#    x 1.707720 0.000000 0.007010 
#    y 0.000000 1.694990 0.000000 
#    z 0.007010 0.000000 1.740450 
# 
# From -- ./inp_files/32627.got.cif
#   From: 2010.06.25/outbox.cif.g09.slc.cpg/sg9_17_cif.got.tgz:32627.got - 2010.06.27 21:40:51.
