data_PCOD8055090
_publ_section_title
;
Structure prediction by ZEFSAII (Michael W. Deem and Ramdas Pophale) SiO2 
 PCOD8055090
Probable space group: C C
;
_chemical_formula_sum "Si O2"
_cell_formula_units_Z 32
_cell_length_a 6.945163
_cell_length_b 18.175838
_cell_length_c 15.147628
_cell_angle_alpha 90.000000
_cell_angle_beta 60.621421
_cell_angle_gamma 90.000000
_cell_volume 1666.240624
_symmetry_space_group_name_H-M "C C"
_symmetry_group_IT_number 9
_symmetry_cell_setting 'monoclinic'
loop_
_space_group_symop_operation_xyz
x,y,z
x,-y,1/2+z
1/2+x,1/2+y,z
1/2+x,1/2-y,1/2+z
loop_
_atom_site_type_symbol
_atom_site_label
_atom_site_fract_x
_atom_site_fract_y
_atom_site_fract_z
Si Si1 0.209740 0.684921 0.383430
Si Si2 0.657318 0.979538 0.639615
Si Si3 0.044145 0.925880 0.457420
Si Si4 0.800878 0.224151 0.004637
Si Si5 0.558233 0.927365 0.325673
Si Si6 0.745891 0.023592 0.433459
Si Si7 0.623594 0.232762 0.860208
Si Si8 0.549241 0.825368 0.725652
O O1 0.278356 0.609937 0.415477
O O2 0.389803 0.744932 0.371440
O O3 0.197209 0.677528 0.280572
O O4 0.967716 0.707394 0.471985
O O5 0.512501 0.909492 0.702673
O O6 0.918427 0.953622 0.576281
O O7 0.611332 0.048182 0.713920
O O8 0.592982 0.004534 0.554004
O O9 0.302831 0.917905 0.408332
O O10 0.941553 0.848409 0.450960
O O11 0.986598 0.985854 0.393982
O O12 0.678998 0.221910 0.124557
O O13 0.618976 0.233655 0.967982
O O14 0.678892 0.849812 0.314539
O O15 0.640444 0.992539 0.368897
O O16 0.810450 0.289233 0.787570
#
# Coordination Sequence:
#
# PCOD8055090 Si02
#       8
#     4   4   4   4   4   4   4   4
#     4  11  23  40  66  93 123 165 212 263 307 377
#     4   9  22  42  61  92 125 162 215 255 320 377
#     4   9  21  41  63  89 123 167 206 253 314 378
#     4  10  21  44  60  88 132 161 203 261 314 379
#     4  12  20  43  64  87 129 166 205 266 312 373
#     4  10  23  42  59  95 123 157 218 255 306 377
#     4  11  24  38  66  93 122 166 211 256 319 372
#     4  10  22  42  61  91 129 164 206 261 318 377
#
# _framework density 19.204908
#
# number of rings (size 3 to 8) (size 9 to 14) (size 15 to 20)
#    0.750    1.000    3.750    0.000    1.750    3.000 
#    9.000    0.000    0.000    0.000    0.000    0.000 
#    0.000    0.000    0.000    0.000    0.000    0.000 
#
# Total GULP energy -198313.699289 kJ/mol
# GULP energy per Si atom -12394.606206 kJ/mol
# Density = 1.916120 g / cm^3
# Si number density = 19.204908 Si / 1000 Ang^3
#
#
#
# Elastic Constant Matrix: (Units=GPa)
#
#
# Indices 1 2 3 4 5 6 
#
# 1 55.2294 18.6936 17.1327 0.0000 -0.6455 0.0000
# 2 18.6936 84.2520 29.5578 0.0000 7.9062 0.0000
# 3 17.1327 29.5578 93.8467 0.0000 8.5097 0.0000
# 4 0.0000 0.0000 0.0000 32.5493 0.0000 3.6204
# 5 -0.6455 7.9062 8.5097 0.0000 20.3769 0.0000
# 6 0.0000 0.0000 0.0000 3.6204 0.0000 26.5672
#
#
#
# Elastic Compliance Matrix: (Units=1/GPa)
#
#
# Indices 1 2 3 4 5 6 
#
# 1 0.020311 -0.003834 -0.002800 0.000000 0.003300 0.000000
# 2 -0.003834 0.014320 -0.003425 0.000000 -0.004247 0.000000
# 3 -0.002800 -0.003425 0.012611 0.000000 -0.004026 0.000000
# 4 0.000000 0.000000 0.000000 0.031195 0.000000 -0.004251
# 5 0.003300 -0.004247 -0.004026 0.000000 0.052509 0.000000
# 6 0.000000 0.000000 0.000000 -0.004251 0.000000 0.038220
#
#
# Mechanical properties :
#
#
# Convention : Reuss Voigt Hill
#
# Bulk Modulus (GPa) = 36.86773 40.45513 38.66143
# Shear Modulus (GPa) = 25.21115 27.09494 26.15305
#
# Velocity S-wave (km/s) = 3.62711 3.76018 3.69425
# Velocity P-wave (km/s) = 6.06465 6.32160 6.19446
#
# Compressibility (1/GPa) = 0.02712399
#
# Stress axis : x y z
#
# Youngs Moduli (GPa) = 49.23425 69.83224 79.29808
#
# Poissons Ratio (x) = 0.26774 0.22201
# Poissons Ratio (y) = 0.18877 0.27161
# Poissons Ratio (z) = 0.13784 0.23919
#
# Static dielectric constant tensor:
#      x y z
#    x 3.322750 0.000000 0.101510 
#    y 0.000000 3.564820 0.000000 
#    z 0.101510 0.000000 3.430780 
# 
# 
# High freq. dielectric constant tensor:
#      x y z
#    x 1.730940 0.000000 0.009970 
#    y 0.000000 1.761330 0.000000 
#    z 0.009970 0.000000 1.740900 
# 
# From -- ./inp_files/21960.got.cif
#   From: 2010.06.25/outbox.cif.g09.slc.cpg/sg9_11_cif.got.tgz:21960.got - 2010.06.27 21:40:51.
