data_PCOD8055347
_publ_section_title
;
Structure prediction by ZEFSAII (Michael W. Deem and Ramdas Pophale) SiO2 
 PCOD8055347
Probable space group: C C
;
_chemical_formula_sum "Si O2"
_cell_formula_units_Z 32
_cell_length_a 13.660272
_cell_length_b 7.017466
_cell_length_c 15.713812
_cell_angle_alpha 90.000000
_cell_angle_beta 90.001426
_cell_angle_gamma 90.000000
_cell_volume 1506.333785
_symmetry_space_group_name_H-M "C C"
_symmetry_group_IT_number 9
_symmetry_cell_setting 'monoclinic'
loop_
_space_group_symop_operation_xyz
x,y,z
x,-y,1/2+z
1/2+x,1/2+y,z
1/2+x,1/2-y,1/2+z
loop_
_atom_site_type_symbol
_atom_site_label
_atom_site_fract_x
_atom_site_fract_y
_atom_site_fract_z
Si Si1 0.633270 0.645781 0.137600
Si Si2 0.303074 0.992530 0.745843
Si Si3 0.599966 0.343327 0.999733
Si Si4 0.677157 0.076218 0.495955
Si Si5 0.394906 0.477883 0.999009
Si Si6 0.922310 0.838667 0.681145
Si Si7 0.921430 0.850537 0.315087
Si Si8 0.635104 0.356649 0.356824
O O1 0.734667 0.644085 0.188739
O O2 0.629806 0.448167 0.086182
O O3 0.625907 0.826741 0.075883
O O4 0.539330 0.671414 0.198903
O O5 0.372453 0.133548 0.692900
O O6 0.232764 0.126558 0.801628
O O7 0.372454 0.854073 0.799790
O O8 0.481615 0.320172 0.997631
O O9 0.656363 0.146115 0.997771
O O10 0.634028 0.461748 0.918414
O O11 0.636113 0.159945 0.408672
O O12 0.791830 0.127697 0.501377
O O13 0.405384 0.607778 0.082717
O O14 0.401151 0.603984 0.913753
O O15 0.878677 0.992058 0.748839
O O16 0.038397 0.841869 0.298623
#
# Coordination Sequence:
#
# PCOD8055347 Si02
#       8
#     4   4   4   4   4   4   4   4
#     4  10  23  41  62  95 134 166 229 284 327 411
#     4  12  24  42  68  92 136 186 216 282 348 398
#     4   9  21  41  66  88 132 172 214 291 333 399
#     4  11  21  39  66  98 122 180 221 269 360 405
#     4  10  22  42  68  98 138 172 231 286 333 412
#     4  11  24  45  67  99 135 181 231 285 340 410
#     4  11  24  45  67  99 135 181 231 285 340 410
#     4  10  23  41  62  95 134 166 229 284 327 411
#
# _framework density 21.243631000000001
#
# number of rings (size 3 to 8) (size 9 to 14) (size 15 to 20)
#    0.000    1.500    1.250    3.750    0.000    7.000 
#    6.750    3.750    0.000    0.000    0.000    0.000 
#    0.000    0.000    0.000    0.000    0.000    0.000 
#
# Total GULP energy -198403.236400 kJ/mol
# GULP energy per Si atom -12400.202275 kJ/mol
# Density = 2.119528 g / cm^3
# Si number density = 21.243631 Si / 1000 Ang^3
#
#
#
# Elastic Constant Matrix: (Units=GPa)
#
#
# Indices 1 2 3 4 5 6 
#
# 1 108.9035 34.0060 32.0178 0.0000 -0.3477 0.0000
# 2 34.0060 79.4294 26.4539 0.0000 -0.4681 0.0000
# 3 32.0178 26.4539 108.7061 0.0000 -0.1200 0.0000
# 4 0.0000 0.0000 0.0000 15.8181 0.0000 2.7317
# 5 -0.3477 -0.4681 -0.1200 0.0000 28.1467 0.0000
# 6 0.0000 0.0000 0.0000 2.7317 0.0000 27.9869
#
#
#
# Elastic Compliance Matrix: (Units=1/GPa)
#
#
# Indices 1 2 3 4 5 6 
#
# 1 0.011104 -0.003988 -0.002300 0.000000 0.000061 0.000000
# 2 -0.003988 0.015133 -0.002508 0.000000 0.000192 0.000000
# 3 -0.002300 -0.002508 0.010487 0.000000 -0.000025 0.000000
# 4 0.000000 0.000000 0.000000 0.064303 0.000000 -0.006276
# 5 0.000061 0.000192 -0.000025 0.000000 0.035532 0.000000
# 6 0.000000 0.000000 0.000000 -0.006276 0.000000 0.036344
#
#
# Mechanical properties :
#
#
# Convention : Reuss Voigt Hill
#
# Bulk Modulus (GPa) = 52.26592 53.55493 52.91042
# Shear Modulus (GPa) = 25.39724 28.02775 26.71250
#
# Velocity S-wave (km/s) = 3.46138 3.63622 3.54988
# Velocity P-wave (km/s) = 6.37428 6.54936 6.46241
#
# Compressibility (1/GPa) = 0.01913293
#
# Stress axis : x y z
#
# Youngs Moduli (GPa) = 90.05758 66.07895 95.35725
#
# Poissons Ratio (x) = 0.26349 0.21933
# Poissons Ratio (y) = 0.35911 0.23916
# Poissons Ratio (z) = 0.20714 0.16573
#
# Static dielectric constant tensor:
#      x y z
#    x 4.135270 0.000000 0.026850 
#    y 0.000000 3.500370 0.000000 
#    z 0.026850 0.000000 3.937520 
# 
# 
# High freq. dielectric constant tensor:
#      x y z
#    x 1.848420 0.000000 -0.000750 
#    y 0.000000 1.815630 0.000000 
#    z -0.000750 0.000000 1.841430 
# 
# From -- ./inp_files/30380.got.cif
#   From: 2010.06.25/outbox.cif.g09.slc.cpg/sg9_16_cif.got.tgz:30380.got - 2010.06.27 21:40:51.
