data_PCOD8055906
_publ_section_title
;
Structure prediction by ZEFSAII (Michael W. Deem and Ramdas Pophale) SiO2 
 PCOD8055906
Probable space group: C C
;
_chemical_formula_sum "Si O2"
_cell_formula_units_Z 28
_cell_length_a 12.534293
_cell_length_b 9.044445
_cell_length_c 13.584213
_cell_angle_alpha 90.000000
_cell_angle_beta 55.058070
_cell_angle_gamma 90.000000
_cell_volume 1262.375740
_symmetry_space_group_name_H-M "C C"
_symmetry_group_IT_number 9
_symmetry_cell_setting 'monoclinic'
loop_
_space_group_symop_operation_xyz
x,y,z
x,-y,1/2+z
1/2+x,1/2+y,z
1/2+x,1/2-y,1/2+z
loop_
_atom_site_type_symbol
_atom_site_label
_atom_site_fract_x
_atom_site_fract_y
_atom_site_fract_z
Si Si1 0.239720 0.020298 0.801430
Si Si2 0.819909 0.530378 0.967814
Si Si3 0.453488 0.422704 0.395532
Si Si4 0.403839 0.250830 0.221608
Si Si5 0.798781 0.275880 0.114639
Si Si6 0.584113 0.954460 0.725885
Si Si7 0.310267 0.334473 0.072844
O O1 0.241166 0.078425 0.912436
O O2 0.342514 0.121260 0.684047
O O3 0.105495 0.046786 0.816032
O O4 0.270768 0.845589 0.788441
O O5 0.971238 0.491449 0.863989
O O6 0.752195 0.386553 0.051663
O O7 0.807771 0.661417 0.052043
O O8 0.409361 0.352534 0.315544
O O9 0.416645 0.320801 0.508829
O O10 0.379593 0.578329 0.447541
O O11 0.518396 0.125782 0.164887
O O12 0.397509 0.352341 0.127136
O O13 0.684047 0.168336 0.214412
O O14 0.663019 0.103600 0.660101
#
# Coordination Sequence:
#
# PCOD8055906 Si02
#       7
#     4   4   4   4   4   4   4
#     4  11  23  40  72  97 135 180 230 288 334 421
#     4  11  24  44  66 104 137 181 240 286 349 419
#     4  11  25  43  68 103 136 184 232 282 356 416
#     4  11  23  47  69 100 144 181 228 294 345 410
#     4  11  20  44  68  96 139 188 224 279 361 397
#     4  10  24  46  66 102 144 174 238 293 331 428
#     4  11  27  42  71 104 135 188 232 286 364 409
#
# _framework density 22.180399999999999
#
# number of rings (size 3 to 8) (size 9 to 14) (size 15 to 20)
#    0.000    1.143    5.714    0.000    4.000    4.571 
#    2.571    0.000    0.000    0.000    0.000    0.000 
#    0.000    0.000    0.000    0.000    0.000    0.000 
#
# Total GULP energy -173480.790159 kJ/mol
# GULP energy per Si atom -12391.485011 kJ/mol
# Density = 2.212992 g / cm^3
# Si number density = 22.180400 Si / 1000 Ang^3
#
#
#
# Elastic Constant Matrix: (Units=GPa)
#
#
# Indices 1 2 3 4 5 6 
#
# 1 93.3346 39.9260 39.5783 0.0000 8.2376 0.0000
# 2 39.9260 120.3976 37.7059 0.0000 -5.8460 0.0000
# 3 39.5783 37.7059 79.1017 0.0000 8.2207 0.0000
# 4 0.0000 0.0000 0.0000 40.1235 0.0000 6.0645
# 5 8.2376 -5.8460 8.2207 0.0000 35.8200 0.0000
# 6 0.0000 0.0000 0.0000 6.0645 0.0000 40.8147
#
#
#
# Elastic Compliance Matrix: (Units=1/GPa)
#
#
# Indices 1 2 3 4 5 6 
#
# 1 0.014685 -0.003272 -0.005513 0.000000 -0.002646 0.000000
# 2 -0.003272 0.010759 -0.003844 0.000000 0.003391 0.000000
# 3 -0.005513 -0.003844 0.017586 0.000000 -0.003395 0.000000
# 4 0.000000 0.000000 0.000000 0.025496 0.000000 -0.003788
# 5 -0.002646 0.003391 -0.003395 0.000000 0.029858 0.000000
# 6 0.000000 0.000000 0.000000 -0.003788 0.000000 0.025064
#
#
# Mechanical properties :
#
#
# Convention : Reuss Voigt Hill
#
# Bulk Modulus (GPa) = 56.26757 58.58380 57.42568
# Shear Modulus (GPa) = 32.33532 35.05990 33.69761
#
# Velocity S-wave (km/s) = 3.82230 3.98008 3.90199
# Velocity P-wave (km/s) = 6.70098 6.89863 6.80053
#
# Compressibility (1/GPa) = 0.01777223
#
# Stress axis : x y z
#
# Youngs Moduli (GPa) = 68.09661 92.94301 56.86451
#
# Poissons Ratio (x) = 0.30408 0.31350
# Poissons Ratio (y) = 0.22279 0.21859
# Poissons Ratio (z) = 0.37542 0.35728
#
# Static dielectric constant tensor:
#      x y z
#    x 3.879750 0.000000 0.004120 
#    y 0.000000 4.209610 0.000000 
#    z 0.004120 0.000000 4.061900 
# 
# 
# High freq. dielectric constant tensor:
#      x y z
#    x 1.849090 0.000000 0.002860 
#    y 0.000000 1.889180 0.000000 
#    z 0.002860 0.000000 1.872030 
# 
# From -- ./inp_files/17728.got.cif
#   From: 2010.06.25/outbox.cif.g09.slc.cpg/sg9_9_cif.got.tgz:17728.got - 2010.06.27 21:40:51.
