data_PCOD8055604
_publ_section_title
;
Structure prediction by ZEFSAII (Michael W. Deem and Ramdas Pophale) SiO2 
 PCOD8055604
Probable space group: C C
;
_chemical_formula_sum "Si O2"
_cell_formula_units_Z 32
_cell_length_a 24.665318
_cell_length_b 10.393686
_cell_length_c 13.363502
_cell_angle_alpha 90.000000
_cell_angle_beta 154.182406
_cell_angle_gamma 90.000000
_cell_volume 1492.011860
_symmetry_space_group_name_H-M "C C"
_symmetry_group_IT_number 9
_symmetry_cell_setting 'monoclinic'
loop_
_space_group_symop_operation_xyz
x,y,z
x,-y,1/2+z
1/2+x,1/2+y,z
1/2+x,1/2-y,1/2+z
loop_
_atom_site_type_symbol
_atom_site_label
_atom_site_fract_x
_atom_site_fract_y
_atom_site_fract_z
Si Si1 0.556190 0.168736 0.285030
Si Si2 0.122558 0.125178 0.747273
Si Si3 0.945840 0.193931 0.106442
Si Si4 0.396453 0.801420 0.716046
Si Si5 0.387984 0.673936 0.234243
Si Si6 0.207044 0.890960 0.003995
Si Si7 0.828820 0.921927 0.233203
Si Si8 0.901984 0.546844 0.421523
O O1 0.551934 0.305294 0.222299
O O2 0.486994 0.180739 0.274401
O O3 0.698433 0.140075 0.544604
O O4 0.501191 0.056821 0.123748
O O5 0.032169 0.150185 0.503298
O O6 0.255216 0.187431 0.941813
O O7 0.147733 0.975649 0.815198
O O8 0.880883 0.164837 0.103380
O O9 0.096573 0.196672 0.365335
O O10 0.905909 0.079095 0.964961
O O11 0.897244 0.332248 0.987874
O O12 0.407692 0.660485 0.783367
O O13 0.434576 0.907572 0.862638
O O14 0.324927 0.807727 0.161777
O O15 0.307518 0.563317 0.154176
O O16 0.263582 0.983594 0.184919
#
# Coordination Sequence:
#
# PCOD8055604 Si02
#       8
#     4   4   4   4   4   4   4   4
#     4  11  22  42  74  93 138 191 224 288 361 416
#     4  10  23  43  67 104 138 174 242 283 341 430
#     4  11  26  43  69 103 138 190 230 292 360 402
#     4   9  23  42  68  98 137 190 219 296 362 403
#     4  12  25  43  73 102 137 190 234 294 351 420
#     4  11  24  46  69 101 147 177 231 298 339 426
#     4  10  24  46  61 104 142 173 246 289 340 439
#     4  10  23  43  65 105 141 171 242 286 338 430
#
# _framework density 21.447551000000001
#
# number of rings (size 3 to 8) (size 9 to 14) (size 15 to 20)
#    0.000    1.500    2.500    1.500    7.000    3.000 
#    0.000    2.500    0.000    0.000    0.000    0.000 
#    0.000    0.000    0.000    0.000    0.000    0.000 
#
# Total GULP energy -198360.287038 kJ/mol
# GULP energy per Si atom -12397.517940 kJ/mol
# Density = 2.139874 g / cm^3
# Si number density = 21.447551 Si / 1000 Ang^3
#
#
#
# Elastic Constant Matrix: (Units=GPa)
#
#
# Indices 1 2 3 4 5 6 
#
# 1 125.8378 49.5825 42.5895 0.0000 -1.9082 0.0000
# 2 49.5825 121.1208 45.1935 0.0000 -7.2462 0.0000
# 3 42.5895 45.1935 101.1343 0.0000 -6.8485 0.0000
# 4 0.0000 0.0000 0.0000 45.4487 0.0000 -0.0842
# 5 -1.9082 -7.2462 -6.8485 0.0000 22.6718 0.0000
# 6 0.0000 0.0000 0.0000 -0.0842 0.0000 18.2438
#
#
#
# Elastic Compliance Matrix: (Units=1/GPa)
#
#
# Indices 1 2 3 4 5 6 
#
# 1 0.010160 -0.003118 -0.002955 0.000000 -0.001034 0.000000
# 2 -0.003118 0.010943 -0.003428 0.000000 0.002200 0.000000
# 3 -0.002955 -0.003428 0.012836 0.000000 0.002533 0.000000
# 4 0.000000 0.000000 0.000000 0.022003 0.000000 0.000102
# 5 -0.001034 0.002200 0.002533 0.000000 0.045489 0.000000
# 6 0.000000 0.000000 0.000000 0.000102 0.000000 0.054814
#
#
# Mechanical properties :
#
#
# Convention : Reuss Voigt Hill
#
# Bulk Modulus (GPa) = 66.95230 69.20265 68.07747
# Shear Modulus (GPa) = 27.74292 31.32137 29.53215
#
# Velocity S-wave (km/s) = 3.60046 3.82563 3.71475
# Velocity P-wave (km/s) = 6.96914 7.20069 7.08586
#
# Compressibility (1/GPa) = 0.01493601
#
# Stress axis : x y z
#
# Youngs Moduli (GPa) = 98.42644 91.37866 77.90766
#
# Poissons Ratio (x) = 0.28495 0.23022
# Poissons Ratio (y) = 0.30693 0.26708
# Poissons Ratio (z) = 0.29086 0.31326
#
# Static dielectric constant tensor:
#      x y z
#    x 3.518150 0.000000 -0.088970 
#    y 0.000000 4.026520 0.000000 
#    z -0.088970 0.000000 4.110960 
# 
# 
# High freq. dielectric constant tensor:
#      x y z
#    x 1.818350 0.000000 -0.003620 
#    y 0.000000 1.848890 0.000000 
#    z -0.003620 0.000000 1.858420 
# 
# From -- ./inp_files/20270.got.cif
#   From: 2010.06.25/outbox.cif.g09.slc.cpg/sg9_11_cif.got.tgz:20270.got - 2010.06.27 21:40:51.
