data_PCOD8055440
_publ_section_title
;
Structure prediction by ZEFSAII (Michael W. Deem and Ramdas Pophale) SiO2 
 PCOD8055440
Probable space group: C C
;
_chemical_formula_sum "Si O2"
_cell_formula_units_Z 32
_cell_length_a 11.090709
_cell_length_b 14.155589
_cell_length_c 13.600543
_cell_angle_alpha 90.000000
_cell_angle_beta 136.852020
_cell_angle_gamma 90.000000
_cell_volume 1460.247823
_symmetry_space_group_name_H-M "C C"
_symmetry_group_IT_number 9
_symmetry_cell_setting 'monoclinic'
loop_
_space_group_symop_operation_xyz
x,y,z
x,-y,1/2+z
1/2+x,1/2+y,z
1/2+x,1/2-y,1/2+z
loop_
_atom_site_type_symbol
_atom_site_label
_atom_site_fract_x
_atom_site_fract_y
_atom_site_fract_z
Si Si1 0.619310 0.821841 0.251060
Si Si2 0.683224 0.652857 0.926021
Si Si3 0.720938 0.268229 0.002080
Si Si4 0.521766 0.541700 0.348190
Si Si5 0.715681 0.030318 0.306098
Si Si6 0.293314 0.282770 0.163603
Si Si7 0.029484 0.363418 0.530306
Si Si8 0.711305 0.021185 0.533130
O O1 0.719105 0.809373 0.414280
O O2 0.628226 0.930908 0.225882
O O3 0.721653 0.759094 0.230200
O O4 0.419363 0.791544 0.147595
O O5 0.664948 0.541122 0.931648
O O6 0.502547 0.701218 0.784913
O O7 0.748978 0.696073 0.067350
O O8 0.826065 0.666453 0.923923
O O9 0.619970 0.359271 0.900410
O O10 0.629254 0.227340 0.045211
O O11 0.416576 0.531738 0.387981
O O12 0.387691 0.533038 0.175723
O O13 0.608457 0.111826 0.184926
O O14 0.714283 0.046114 0.420769
O O15 0.190872 0.377406 0.071180
O O16 0.047955 0.453586 0.467231
#
# Coordination Sequence:
#
# PCOD8055440 Si02
#       8
#     4   4   4   4   4   4   4   4
#     4  12  23  45  74 100 137 186 241 288 350 416
#     4  11  25  45  68 101 143 180 229 290 351 420
#     4  12  27  43  74 105 140 189 234 293 350 422
#     4  10  24  46  67 103 141 179 238 284 349 422
#     4  11  22  45  71 100 145 183 229 293 350 414
#     4  11  25  45  70 103 137 182 234 288 352 414
#     4  11  24  45  68 101 147 176 236 282 355 424
#     4  10  22  44  70  99 142 185 223 294 351 408
#
# _framework density 21.914090000000002
#
# number of rings (size 3 to 8) (size 9 to 14) (size 15 to 20)
#    0.000    1.000    5.000    3.000    3.500    2.000 
#    2.250    0.000    0.000    0.000    0.000    0.000 
#    0.000    0.000    0.000    0.000    0.000    0.000 
#
# Total GULP energy -198440.170516 kJ/mol
# GULP energy per Si atom -12402.510657 kJ/mol
# Density = 2.186421 g / cm^3
# Si number density = 21.914090 Si / 1000 Ang^3
#
#
#
# Elastic Constant Matrix: (Units=GPa)
#
#
# Indices 1 2 3 4 5 6 
#
# 1 137.4173 21.3543 44.1989 0.0000 3.7373 0.0000
# 2 21.3543 82.6046 29.2374 0.0000 3.7305 0.0000
# 3 44.1989 29.2374 73.9800 0.0001 -15.8815 0.0000
# 4 0.0000 0.0000 0.0001 22.1840 0.0000 1.2712
# 5 3.7373 3.7305 -15.8815 0.0000 47.3634 0.0000
# 6 0.0000 0.0000 0.0000 1.2712 0.0000 36.9100
#
#
#
# Elastic Compliance Matrix: (Units=1/GPa)
#
#
# Indices 1 2 3 4 5 6 
#
# 1 0.009344 -0.000119 -0.006133 0.000000 -0.002785 0.000000
# 2 -0.000119 0.014542 -0.006379 0.000000 -0.003275 0.000000
# 3 -0.006133 -0.006379 0.021459 0.000000 0.008182 0.000000
# 4 0.000000 0.000000 0.000000 0.045167 0.000000 -0.001556
# 5 -0.002785 -0.003275 0.008182 0.000000 0.024335 0.000000
# 6 0.000000 0.000000 0.000000 -0.001556 0.000000 0.027147
#
#
# Mechanical properties :
#
#
# Convention : Reuss Voigt Hill
#
# Bulk Modulus (GPa) = 49.79467 53.73146 51.76306
# Shear Modulus (GPa) = 28.74385 34.57223 31.65804
#
# Velocity S-wave (km/s) = 3.62561 3.97624 3.80497
# Velocity P-wave (km/s) = 6.34813 6.75670 6.55560
#
# Compressibility (1/GPa) = 0.02008247
#
# Stress axis : x y z
#
# Youngs Moduli (GPa) = 107.02020 68.76437 46.60045
#
# Poissons Ratio (x) = 0.00818 0.28581
# Poissons Ratio (y) = 0.01273 0.29728
# Poissons Ratio (z) = 0.65639 0.43867
#
# Static dielectric constant tensor:
#      x y z
#    x 4.120540 0.000000 -0.037610 
#    y 0.000000 4.044580 0.000000 
#    z -0.037610 0.000000 3.818170 
# 
# 
# High freq. dielectric constant tensor:
#      x y z
#    x 1.872280 0.000000 -0.004020 
#    y 0.000000 1.867430 0.000000 
#    z -0.004020 0.000000 1.849320 
# 
# From -- ./inp_files/24866.got.cif
#   From: 2010.06.25/outbox.cif.g09.slc.cpg/sg9_13_cif.got.tgz:24866.got - 2010.06.27 21:40:51.
