data_PCOD8055847
_publ_section_title
;
Structure prediction by ZEFSAII (Michael W. Deem and Ramdas Pophale) SiO2 
 PCOD8055847
Probable space group: C C
;
_chemical_formula_sum "Si O2"
_cell_formula_units_Z 32
_cell_length_a 12.155309
_cell_length_b 12.394199
_cell_length_c 10.385015
_cell_angle_alpha 90.000000
_cell_angle_beta 77.349370
_cell_angle_gamma 90.000000
_cell_volume 1526.575940
_symmetry_space_group_name_H-M "C C"
_symmetry_group_IT_number 9
_symmetry_cell_setting 'monoclinic'
loop_
_space_group_symop_operation_xyz
x,y,z
x,-y,1/2+z
1/2+x,1/2+y,z
1/2+x,1/2-y,1/2+z
loop_
_atom_site_type_symbol
_atom_site_label
_atom_site_fract_x
_atom_site_fract_y
_atom_site_fract_z
Si Si1 0.781100 0.893470 0.964270
Si Si2 0.335841 0.626633 0.048663
Si Si3 0.988427 0.891854 0.750502
Si Si4 0.137864 0.936087 0.301220
Si Si5 0.892269 0.680317 0.355255
Si Si6 0.263919 0.998428 0.013520
Si Si7 0.641685 0.808330 0.779050
Si Si8 0.233967 0.794281 0.655680
O O1 0.896300 0.843591 0.873203
O O2 0.681119 0.884962 0.885391
O O3 0.748795 0.826989 0.100244
O O4 0.792963 0.018734 0.991755
O O5 0.433265 0.596570 0.124677
O O6 0.226583 0.683783 0.138273
O O7 0.391754 0.710229 0.937001
O O8 0.101398 0.819689 0.713209
O O9 0.017049 0.012899 0.793797
O O10 0.215457 0.948117 0.156094
O O11 0.134403 0.811727 0.338971
O O12 0.179598 0.004328 0.413523
O O13 0.870764 0.574443 0.448698
O O14 0.797688 0.693147 0.272593
O O15 0.016234 0.660622 0.263812
O O16 0.291206 0.123632 0.037860
#
# Coordination Sequence:
#
# PCOD8055847 Si02
#       8
#     4   4   4   4   4   4   4   4
#     4  11  25  44  64  98 139 173 223 277 346 409
#     4  11  26  44  67 100 136 178 224 283 344 411
#     4  10  24  43  73  98 123 184 233 285 331 393
#     4  11  22  43  72  99 132 174 241 281 328 401
#     4  12  25  42  69  98 136 180 225 279 349 410
#     4  11  22  43  69  98 132 170 233 284 330 396
#     4  11  25  43  65  97 135 183 215 280 348 408
#     4  11  25  42  69 102 131 174 236 283 334 404
#
# _framework density 20.961945
#
# number of rings (size 3 to 8) (size 9 to 14) (size 15 to 20)
#    0.000    1.000    5.000    1.500   10.500    2.000 
#    2.250    0.000    0.000    0.000    0.000    0.000 
#    0.000    0.000    0.000    0.000    0.000    0.000 
#
# Total GULP energy -198353.586294 kJ/mol
# GULP energy per Si atom -12397.099143 kJ/mol
# Density = 2.091423 g / cm^3
# Si number density = 20.961945 Si / 1000 Ang^3
#
#
#
# Elastic Constant Matrix: (Units=GPa)
#
#
# Indices 1 2 3 4 5 6 
#
# 1 115.3796 36.7720 36.1422 0.0000 1.2333 0.0000
# 2 36.7720 99.0156 20.0588 0.0000 -0.2081 0.0000
# 3 36.1422 20.0588 84.2331 0.0000 10.4097 0.0000
# 4 0.0000 0.0000 0.0000 32.0752 0.0000 4.1371
# 5 1.2333 -0.2081 10.4097 0.0000 32.8569 0.0000
# 6 0.0000 0.0000 0.0000 4.1371 0.0000 29.5232
#
#
#
# Elastic Compliance Matrix: (Units=1/GPa)
#
#
# Indices 1 2 3 4 5 6 
#
# 1 0.010957 -0.003251 -0.004032 0.000000 0.000845 0.000000
# 2 -0.003251 0.011602 -0.001449 0.000000 0.000655 0.000000
# 3 -0.004032 -0.001449 0.014497 0.000000 -0.004451 0.000000
# 4 0.000000 0.000000 0.000000 0.031751 0.000000 -0.004449
# 5 0.000845 0.000655 -0.004451 0.000000 0.031818 0.000000
# 6 0.000000 0.000000 0.000000 -0.004449 0.000000 0.034495
#
#
# Mechanical properties :
#
#
# Convention : Reuss Voigt Hill
#
# Bulk Modulus (GPa) = 51.03910 53.84159 52.44034
# Shear Modulus (GPa) = 31.42444 32.60140 32.01292
#
# Velocity S-wave (km/s) = 3.87605 3.94796 3.91217
# Velocity P-wave (km/s) = 6.66580 6.82078 6.74374
#
# Compressibility (1/GPa) = 0.01959282
#
# Stress axis : x y z
#
# Youngs Moduli (GPa) = 91.26666 86.19572 68.98085
#
# Poissons Ratio (x) = 0.28019 0.27811
# Poissons Ratio (y) = 0.29667 0.09994
# Poissons Ratio (z) = 0.36796 0.12489
#
# Static dielectric constant tensor:
#      x y z
#    x 3.812040 0.000000 -0.052730 
#    y 0.000000 3.891720 0.000000 
#    z -0.052730 0.000000 3.909470 
# 
# 
# High freq. dielectric constant tensor:
#      x y z
#    x 1.818870 0.000000 0.001110 
#    y 0.000000 1.819930 0.000000 
#    z 0.001110 0.000000 1.831220 
# 
# From -- ./inp_files/16433.got.cif
#   From: 2010.06.25/outbox.cif.g09.slc.cpg/sg9_9_cif.got.tgz:16433.got - 2010.06.27 21:40:51.
