data_PCOD8055580
_publ_section_title
;
Structure prediction by ZEFSAII (Michael W. Deem and Ramdas Pophale) SiO2 
 PCOD8055580
Probable space group: C C
;
_chemical_formula_sum "Si O2"
_cell_formula_units_Z 32
_cell_length_a 11.744824
_cell_length_b 9.558013
_cell_length_c 14.565042
_cell_angle_alpha 90.000000
_cell_angle_beta 67.059030
_cell_angle_gamma 90.000000
_cell_volume 1505.710951
_symmetry_space_group_name_H-M "C C"
_symmetry_group_IT_number 9
_symmetry_cell_setting 'monoclinic'
loop_
_space_group_symop_operation_xyz
x,y,z
x,-y,1/2+z
1/2+x,1/2+y,z
1/2+x,1/2-y,1/2+z
loop_
_atom_site_type_symbol
_atom_site_label
_atom_site_fract_x
_atom_site_fract_y
_atom_site_fract_z
Si Si1 0.796290 0.154694 0.120750
Si Si2 0.248494 0.297124 0.841853
Si Si3 0.545041 0.857685 0.607225
Si Si4 0.489100 0.881789 0.997539
Si Si5 0.996268 0.948447 0.089068
Si Si6 0.901067 0.674028 0.333103
Si Si7 0.678580 0.502239 0.381167
Si Si8 0.961326 0.992353 0.307682
O O1 0.730796 0.161610 0.240822
O O2 0.693515 0.158546 0.072990
O O3 0.897560 0.277649 0.080280
O O4 0.868113 0.007655 0.088324
O O5 0.270034 0.130040 0.837708
O O6 0.358617 0.386627 0.852976
O O7 0.123743 0.317150 0.938872
O O8 0.489910 0.717994 0.579566
O O9 0.490387 0.880652 0.725346
O O10 0.504432 0.979553 0.552226
O O11 0.432130 0.913121 0.915389
O O12 0.013380 0.994495 0.188613
O O13 0.113336 0.012001 0.000063
O O14 0.760449 0.641740 0.349704
O O15 0.907500 0.840073 0.349960
O O16 0.575912 0.523257 0.336135
#
# Coordination Sequence:
#
# PCOD8055580 Si02
#       8
#     4   4   4   4   4   4   4   4
#     4  11  22  47  68  95 139 176 221 276 335 398
#     4  11  23  42  71  97 135 174 226 275 329 403
#     4  11  25  44  68  95 137 178 220 276 336 397
#     4  12  24  42  71 101 131 179 222 277 340 391
#     4  10  23  42  66  96 128 176 218 269 328 397
#     4  11  24  46  67 100 134 175 226 277 331 401
#     4  12  23  43  68  97 133 169 222 274 335 391
#     4  10  24  46  65  93 135 179 217 272 336 388
#
# _framework density 21.252420000000001
#
# number of rings (size 3 to 8) (size 9 to 14) (size 15 to 20)
#    0.000    1.000    3.750    2.250    5.250    2.000 
#    0.000    7.500    0.000    0.000    0.000    0.000 
#    0.000    0.000    0.000    0.000    0.000    0.000 
#
# Total GULP energy -198412.728096 kJ/mol
# GULP energy per Si atom -12400.795506 kJ/mol
# Density = 2.120405 g / cm^3
# Si number density = 21.252420 Si / 1000 Ang^3
#
#
#
# Elastic Constant Matrix: (Units=GPa)
#
#
# Indices 1 2 3 4 5 6 
#
# 1 145.5725 80.5030 47.4655 0.0000 2.1319 0.0000
# 2 80.5030 99.0964 42.6662 0.0000 19.1810 0.0000
# 3 47.4655 42.6662 84.1276 0.0000 -5.2437 0.0000
# 4 0.0000 0.0000 0.0000 31.3910 0.0000 -4.0325
# 5 2.1319 19.1810 -5.2437 0.0000 23.4532 0.0000
# 6 0.0000 0.0000 0.0000 -4.0325 0.0000 41.9090
#
#
#
# Elastic Compliance Matrix: (Units=1/GPa)
#
#
# Indices 1 2 3 4 5 6 
#
# 1 0.014128 -0.012833 -0.000901 0.000000 0.009010 0.000000
# 2 -0.012833 0.029253 -0.009141 0.000000 -0.024802 0.000000
# 3 -0.000901 -0.009141 0.017750 0.000000 0.011526 0.000000
# 4 0.000000 0.000000 0.000000 0.032255 0.000000 0.003104
# 5 0.009010 -0.024802 0.011526 0.000000 0.064680 0.000000
# 6 0.000000 0.000000 0.000000 0.003104 0.000000 0.024160
#
#
# Mechanical properties :
#
#
# Convention : Reuss Voigt Hill
#
# Bulk Modulus (GPa) = 65.02136 74.45176 69.73656
# Shear Modulus (GPa) = 21.44969 29.89475 25.67222
#
# Velocity S-wave (km/s) = 3.18037 3.75460 3.47935
# Velocity P-wave (km/s) = 6.64436 7.34195 7.00185
#
# Compressibility (1/GPa) = 0.01537956
#
# Stress axis : x y z
#
# Youngs Moduli (GPa) = 70.78000 34.18456 56.33927
#
# Poissons Ratio (x) = 0.43870 0.05077
# Poissons Ratio (y) = 0.90835 0.51501
# Poissons Ratio (z) = 0.06378 0.31249
#
# Static dielectric constant tensor:
#      x y z
#    x 3.823690 0.000000 -0.089040 
#    y 0.000000 3.899140 0.000000 
#    z -0.089040 0.000000 4.066090 
# 
# 
# High freq. dielectric constant tensor:
#      x y z
#    x 1.830590 0.000000 -0.008330 
#    y 0.000000 1.828690 0.000000 
#    z -0.008330 0.000000 1.851530 
# 
# From -- ./inp_files/24189.got.cif
#   From: 2010.06.25/outbox.cif.g09.slc.cpg/sg9_13_cif.got.tgz:24189.got - 2010.06.27 21:40:51.
