data_PCOD8055808
_publ_section_title
;
Structure prediction by ZEFSAII (Michael W. Deem and Ramdas Pophale) SiO2 
 PCOD8055808
Probable space group: C C
;
_chemical_formula_sum "Si O2"
_cell_formula_units_Z 28
_cell_length_a 12.740343
_cell_length_b 11.772369
_cell_length_c 8.574424
_cell_angle_alpha 90.000000
_cell_angle_beta 61.165516
_cell_angle_gamma 90.000000
_cell_volume 1126.580591
_symmetry_space_group_name_H-M "C C"
_symmetry_group_IT_number 9
_symmetry_cell_setting 'monoclinic'
loop_
_space_group_symop_operation_xyz
x,y,z
x,-y,1/2+z
1/2+x,1/2+y,z
1/2+x,1/2-y,1/2+z
loop_
_atom_site_type_symbol
_atom_site_label
_atom_site_fract_x
_atom_site_fract_y
_atom_site_fract_z
Si Si1 0.781060 0.440624 0.046550
Si Si2 0.446906 0.724166 0.608143
Si Si3 0.330111 0.763493 0.259142
Si Si4 0.438733 0.401247 0.435037
Si Si5 0.134693 0.923907 0.851053
Si Si6 0.754026 0.896739 0.068354
Si Si7 0.989254 0.411761 0.371917
O O1 0.756916 0.353826 0.206451
O O2 0.715480 0.560749 0.138158
O O3 0.724563 0.395693 0.928603
O O4 0.922196 0.466033 0.921835
O O5 0.476665 0.673504 0.756183
O O6 0.541292 0.678391 0.408456
O O7 0.314271 0.680743 0.659712
O O8 0.469311 0.858712 0.562674
O O9 0.242006 0.682053 0.422632
O O10 0.425218 0.827906 0.297333
O O11 0.402190 0.685322 0.091322
O O12 0.554860 0.462175 0.423154
O O13 0.333102 0.491545 0.471305
O O14 0.625469 0.935402 0.225151
#
# Coordination Sequence:
#
# PCOD8055808 Si02
#       7
#     4   4   4   4   4   4   4
#     4  12  26  46  69 108 147 189 237 307 361 427
#     4  10  24  41  73 102 135 188 238 294 356 424
#     4  11  27  44  73 104 144 194 242 294 372 425
#     4  11  24  47  73 104 137 190 247 297 356 433
#     4  11  24  45  73  99 140 185 247 299 352 434
#     4  10  24  48  70 102 142 188 239 292 360 432
#     4  11  27  45  71 105 149 188 236 301 365 429
#
# _framework density 24.85397
#
# number of rings (size 3 to 8) (size 9 to 14) (size 15 to 20)
#    0.000    1.143    2.857    1.714   12.000    2.286 
#    0.000    0.000    0.000    0.000    0.000    0.000 
#    0.000    0.000    0.000    0.000    0.000    0.000 
#
# Total GULP energy -173494.801114 kJ/mol
# GULP energy per Si atom -12392.485794 kJ/mol
# Density = 2.479740 g / cm^3
# Si number density = 24.853970 Si / 1000 Ang^3
#
#
#
# Elastic Constant Matrix: (Units=GPa)
#
#
# Indices 1 2 3 4 5 6 
#
# 1 94.3458 18.2109 18.0664 0.0000 -15.7335 0.0000
# 2 18.2109 64.0993 15.8145 0.0000 4.5104 0.0000
# 3 18.0664 15.8145 73.8337 0.0000 -9.0735 0.0000
# 4 0.0000 0.0000 0.0000 39.2222 0.0000 8.4043
# 5 -15.7335 4.5104 -9.0735 0.0000 49.2779 0.0000
# 6 0.0000 0.0000 0.0000 8.4043 0.0000 25.2339
#
#
#
# Elastic Compliance Matrix: (Units=1/GPa)
#
#
# Indices 1 2 3 4 5 6 
#
# 1 0.012229 -0.003300 -0.001809 0.000000 0.003873 0.000000
# 2 -0.003300 0.017600 -0.003366 0.000000 -0.003284 0.000000
# 3 -0.001809 -0.003366 0.015014 0.000000 0.002495 0.000000
# 4 0.000000 0.000000 0.000000 0.027455 0.000000 -0.009144
# 5 0.003873 -0.003284 0.002495 0.000000 0.022290 0.000000
# 6 0.000000 0.000000 0.000000 -0.009144 0.000000 0.042675
#
#
# Mechanical properties :
#
#
# Convention : Reuss Voigt Hill
#
# Bulk Modulus (GPa) = 35.85276 37.38470 36.61873
# Shear Modulus (GPa) = 30.57900 34.75928 32.66914
#
# Velocity S-wave (km/s) = 3.51144 3.74376 3.62946
# Velocity P-wave (km/s) = 5.55850 5.81051 5.68590
#
# Compressibility (1/GPa) = 0.02789186
#
# Stress axis : x y z
#
# Youngs Moduli (GPa) = 81.77440 56.81833 66.60365
#
# Poissons Ratio (x) = 0.18752 0.12051
# Poissons Ratio (y) = 0.26989 0.22417
# Poissons Ratio (z) = 0.14796 0.19124
#
# Static dielectric constant tensor:
#      x y z
#    x 4.442990 0.000000 -0.035470 
#    y 0.000000 4.634460 0.000000 
#    z -0.035470 0.000000 4.620500 
# 
# 
# High freq. dielectric constant tensor:
#      x y z
#    x 1.983550 0.000000 -0.007730 
#    y 0.000000 1.987600 0.000000 
#    z -0.007730 0.000000 1.998010 
# 
# From -- ./inp_files/9215.got.cif
#   From: 2010.06.25/outbox.cif.g09.slc.cpg/sg9_5_cif.got.tgz:9215.got - 2010.06.27 21:40:51.
