data_PCOD8055279
_publ_section_title
;
Structure prediction by ZEFSAII (Michael W. Deem and Ramdas Pophale) SiO2 
 PCOD8055279
Probable space group: C C
;
_chemical_formula_sum "Si O2"
_cell_formula_units_Z 24
_cell_length_a 12.430030
_cell_length_b 8.452451
_cell_length_c 8.923544
_cell_angle_alpha 90.000000
_cell_angle_beta 103.913531
_cell_angle_gamma 90.000000
_cell_volume 910.037349
_symmetry_space_group_name_H-M "C C"
_symmetry_group_IT_number 9
_symmetry_cell_setting 'monoclinic'
loop_
_space_group_symop_operation_xyz
x,y,z
x,-y,1/2+z
1/2+x,1/2+y,z
1/2+x,1/2-y,1/2+z
loop_
_atom_site_type_symbol
_atom_site_label
_atom_site_fract_x
_atom_site_fract_y
_atom_site_fract_z
Si Si1 0.860830 0.874168 0.585160
Si Si2 0.570143 0.456183 0.841590
Si Si3 0.230832 0.470462 0.276623
Si Si4 0.911203 0.526112 0.631442
Si Si5 0.693518 0.357482 0.613903
Si Si6 0.549391 0.106403 0.934572
O O1 0.843001 0.950748 0.414684
O O2 0.881989 0.693769 0.547544
O O3 0.958177 0.967171 0.704797
O O4 0.752141 0.888708 0.661732
O O5 0.671531 0.455863 0.757854
O O6 0.575158 0.293001 0.938507
O O7 0.593276 0.603535 0.961526
O O8 0.195312 0.325350 0.157751
O O9 0.139824 0.498095 0.375087
O O10 0.810783 0.404442 0.581291
O O11 0.933654 0.567594 0.811987
O O12 0.025065 0.454234 0.595205
#
# Coordination Sequence:
#
# PCOD8055279 Si02
#       6
#     4   4   4   4   4   4
#     4  11  24  44  68 102 140 182 236 296 355 422
#     4  10  23  42  66 101 140 183 236 290 350 422
#     4  11  24  43  67  99 141 185 233 291 355 421
#     4  11  22  41  68  98 136 182 233 287 350 419
#     4  11  23  43  69 101 140 186 236 289 350 423
#     4  10  22  41  64  97 137 184 230 285 350 421
#
# _framework density 26.372543
#
# number of rings (size 3 to 8) (size 9 to 14) (size 15 to 20)
#    0.000    1.333    0.000    6.000    0.000    5.333 
#    0.000    8.333    0.000    0.000    0.000    0.000 
#    0.000    0.000    0.000    0.000    0.000    0.000 
#
# Total GULP energy -148707.408763 kJ/mol
# GULP energy per Si atom -12392.284064 kJ/mol
# Density = 2.631252 g / cm^3
# Si number density = 26.372543 Si / 1000 Ang^3
#
#
#
# Elastic Constant Matrix: (Units=GPa)
#
#
# Indices 1 2 3 4 5 6 
#
# 1 93.7515 42.7997 24.2582 0.0000 -19.4556 0.0000
# 2 42.7997 57.8368 50.5915 0.0000 -10.6376 0.0000
# 3 24.2582 50.5915 131.0287 0.0000 -1.1366 0.0000
# 4 0.0000 0.0000 0.0000 44.3711 0.0000 -3.8268
# 5 -19.4556 -10.6376 -1.1366 0.0000 43.8279 0.0000
# 6 0.0000 0.0000 0.0000 -3.8268 0.0000 32.2343
#
#
#
# Elastic Compliance Matrix: (Units=1/GPa)
#
#
# Indices 1 2 3 4 5 6 
#
# 1 0.017399 -0.014021 0.002231 0.000000 0.004378 0.000000
# 2 -0.014021 0.039132 -0.012488 0.000000 0.002950 0.000000
# 3 0.002231 -0.012488 0.012026 0.000000 -0.001729 0.000000
# 4 0.000000 0.000000 0.000000 0.022770 0.000000 0.002703
# 5 0.004378 0.002950 -0.001729 0.000000 0.025431 0.000000
# 6 0.000000 0.000000 0.000000 0.002703 0.000000 0.031344
#
#
# Mechanical properties :
#
#
# Convention : Reuss Voigt Hill
#
# Bulk Modulus (GPa) = 50.00131 57.54622 53.77376
# Shear Modulus (GPa) = 24.59119 35.08451 29.83785
#
# Velocity S-wave (km/s) = 3.05692 3.65134 3.36728
# Velocity P-wave (km/s) = 5.60896 6.29637 5.96258
#
# Compressibility (1/GPa) = 0.01999947
#
# Stress axis : x y z
#
# Youngs Moduli (GPa) = 57.47482 25.55469 83.15583
#
# Poissons Ratio (x) = 0.35831 -0.18548
# Poissons Ratio (y) = 0.80587 1.03843
# Poissons Ratio (z) = -0.12820 0.31912
#
# Static dielectric constant tensor:
#      x y z
#    x 5.123190 0.000000 0.063540 
#    y 0.000000 4.183880 0.000000 
#    z 0.063540 0.000000 5.084350 
# 
# 
# High freq. dielectric constant tensor:
#      x y z
#    x 2.073050 0.000000 0.006650 
#    y 0.000000 2.015590 0.000000 
#    z 0.006650 0.000000 2.083490 
# 
# From -- ./inp_files/8770.got.cif
#   From: 2010.06.25/outbox.cif.g09.slc.cpg/sg9_5_cif.got.tgz:8770.got - 2010.06.27 21:40:51.
