data_PCOD8055531
_publ_section_title
;
Structure prediction by ZEFSAII (Michael W. Deem and Ramdas Pophale) SiO2 
 PCOD8055531
Probable space group: C C
;
_chemical_formula_sum "Si O2"
_cell_formula_units_Z 32
_cell_length_a 19.352521
_cell_length_b 17.769194
_cell_length_c 12.207458
_cell_angle_alpha 90.000000
_cell_angle_beta 160.720858
_cell_angle_gamma 90.000000
_cell_volume 1386.018932
_symmetry_space_group_name_H-M "C C"
_symmetry_group_IT_number 9
_symmetry_cell_setting 'monoclinic'
loop_
_space_group_symop_operation_xyz
x,y,z
x,-y,1/2+z
1/2+x,1/2+y,z
1/2+x,1/2-y,1/2+z
loop_
_atom_site_type_symbol
_atom_site_label
_atom_site_fract_x
_atom_site_fract_y
_atom_site_fract_z
Si Si1 0.071430 0.754306 0.195360
Si Si2 0.538895 0.898435 0.319470
Si Si3 0.780266 0.491042 0.785619
Si Si4 0.113619 0.243961 0.516494
Si Si5 0.831838 0.990287 0.351480
Si Si6 0.390214 0.410364 0.662431
Si Si7 0.073377 0.602756 0.318363
Si Si8 0.220895 0.910700 0.473037
O O1 0.194839 0.756893 0.264780
O O2 0.107078 0.830212 0.318123
O O3 0.136037 0.684412 0.367892
O O4 0.838569 0.749102 0.794823
O O5 0.480605 0.816552 0.279140
O O6 0.698127 0.897988 0.455604
O O7 0.647538 0.946580 0.579033
O O8 0.323956 0.937773 0.957309
O O9 0.555610 0.530891 0.461536
O O10 0.799563 0.440018 0.707099
O O11 0.963572 0.554803 0.056850
O O12 0.998055 0.169781 0.303953
O O13 0.809533 0.940645 0.426455
O O14 0.788184 0.937039 0.179901
O O15 0.057780 0.029497 0.677940
O O16 0.915324 0.602666 0.184386
#
# Coordination Sequence:
#
# PCOD8055531 Si02
#       8
#     4   4   4   4   4   4   4   4
#     4  12  23  43  68  95 129 176 215 266 328 389
#     4  11  23  43  66  97 131 168 220 269 321 388
#     4  10  23  40  65  94 130 173 211 268 326 377
#     4  12  23  43  68  95 129 176 215 266 328 389
#     4  10  23  40  65  94 130 173 211 268 326 377
#     4  11  22  44  65  95 134 167 218 272 321 382
#     4  11  23  43  66  97 131 168 220 269 321 388
#     4  11  22  44  65  95 134 167 218 272 321 382
#
# _framework density 23.087707000000002
#
# number of rings (size 3 to 8) (size 9 to 14) (size 15 to 20)
#    0.000    1.000    5.000    1.500    0.000    5.000 
#    4.500    0.000    0.000    0.000    0.000    0.000 
#    0.000    0.000    0.000    0.000    0.000    0.000 
#
# Total GULP energy -198366.174050 kJ/mol
# GULP energy per Si atom -12397.885878 kJ/mol
# Density = 2.303516 g / cm^3
# Si number density = 23.087707 Si / 1000 Ang^3
#
#
#
# Elastic Constant Matrix: (Units=GPa)
#
#
# Indices 1 2 3 4 5 6 
#
# 1 52.6996 32.0218 8.6527 0.0000 -16.4152 0.0000
# 2 32.0218 172.4758 44.1979 0.0000 -16.2403 0.0000
# 3 8.6527 44.1979 102.6248 0.0000 -19.7539 0.0000
# 4 0.0000 0.0000 0.0000 30.4142 0.0000 -10.8150
# 5 -16.4152 -16.2403 -19.7539 0.0000 29.4909 0.0000
# 6 0.0000 0.0000 0.0000 -10.8150 0.0000 38.2092
#
#
#
# Elastic Compliance Matrix: (Units=1/GPa)
#
#
# Indices 1 2 3 4 5 6 
#
# 1 0.025167 -0.003973 0.002140 0.000000 0.013254 0.000000
# 2 -0.003973 0.007245 -0.002804 0.000000 -0.000100 0.000000
# 3 0.002140 -0.002804 0.012288 0.000000 0.007878 0.000000
# 4 0.000000 0.000000 0.000000 0.036559 0.000000 0.010348
# 5 0.013254 -0.000100 0.007878 0.000000 0.046508 0.000000
# 6 0.000000 0.000000 0.000000 0.010348 0.000000 0.029101
#
#
# Mechanical properties :
#
#
# Convention : Reuss Voigt Hill
#
# Bulk Modulus (GPa) = 28.22848 55.28280 41.75564
# Shear Modulus (GPa) = 28.09791 35.81804 31.95797
#
# Velocity S-wave (km/s) = 3.49235 3.94304 3.72452
# Velocity P-wave (km/s) = 5.33996 6.68781 6.05153
#
# Compressibility (1/GPa) = 0.03542522
#
# Stress axis : x y z
#
# Youngs Moduli (GPa) = 39.73532 138.03129 81.38048
#
# Poissons Ratio (x) = 0.54838 -0.17418
# Poissons Ratio (y) = 0.15786 0.22823
# Poissons Ratio (z) = -0.08505 0.38710
#
# Static dielectric constant tensor:
#      x y z
#    x 3.925550 0.000000 -0.122850 
#    y 0.000000 4.425140 0.000000 
#    z -0.122850 0.000000 4.273590 
# 
# 
# High freq. dielectric constant tensor:
#      x y z
#    x 1.904460 0.000000 -0.004880 
#    y 0.000000 1.922840 0.000000 
#    z -0.004880 0.000000 1.910100 
# 
# From -- ./inp_files/20395.got.cif
#   From: 2010.06.25/outbox.cif.g09.slc.cpg/sg9_11_cif.got.tgz:20395.got - 2010.06.27 21:40:51.
