data_PCOD8055421
_publ_section_title
;
Structure prediction by ZEFSAII (Michael W. Deem and Ramdas Pophale) SiO2 
 PCOD8055421
Probable space group: C C
;
_chemical_formula_sum "Si O2"
_cell_formula_units_Z 32
_cell_length_a 13.309620
_cell_length_b 6.793272
_cell_length_c 16.024252
_cell_angle_alpha 90.000000
_cell_angle_beta 79.506006
_cell_angle_gamma 90.000000
_cell_volume 1424.613265
_symmetry_space_group_name_H-M "C C"
_symmetry_group_IT_number 9
_symmetry_cell_setting 'monoclinic'
loop_
_space_group_symop_operation_xyz
x,y,z
x,-y,1/2+z
1/2+x,1/2+y,z
1/2+x,1/2-y,1/2+z
loop_
_atom_site_type_symbol
_atom_site_label
_atom_site_fract_x
_atom_site_fract_y
_atom_site_fract_z
Si Si1 0.290210 0.573141 0.426000
Si Si2 0.072980 0.028854 0.518375
Si Si3 0.794643 0.690030 0.239869
Si Si4 0.912083 0.050707 0.164004
Si Si5 0.426377 0.855420 0.296454
Si Si6 0.904198 0.236735 0.001768
Si Si7 0.617236 0.834948 0.375414
Si Si8 0.285321 0.098762 0.050879
O O1 0.342909 0.727316 0.357392
O O2 0.352477 0.369635 0.429560
O O3 0.178791 0.516513 0.407322
O O4 0.287393 0.678604 0.517104
O O5 0.062806 0.202707 0.453641
O O6 0.189489 0.011393 0.525525
O O7 0.004186 0.082121 0.610382
O O8 0.024911 0.824406 0.486719
O O9 0.875571 0.557515 0.275948
O O10 0.689480 0.698073 0.307011
O O11 0.775803 0.601647 0.151429
O O12 0.837301 0.912737 0.228696
O O13 0.961624 0.221425 0.213372
O O14 0.852194 0.157012 0.096270
O O15 0.525231 0.920994 0.333998
O O16 0.883957 0.472067 0.002970
#
# Coordination Sequence:
#
# PCOD8055421 Si02
#       8
#     4   4   4   4   4   4   4   4
#     4  12  25  45  70 101 145 186 237 297 358 429
#     4  10  22  44  68 103 134 188 237 287 359 432
#     4  12  25  46  72 105 141 188 239 295 360 427
#     4  10  22  48  69  96 146 181 229 301 352 419
#     4  12  25  48  69 105 147 188 233 297 366 421
#     4  10  22  45  69  96 139 182 230 299 346 422
#     4  12  26  47  70 106 147 188 240 296 363 431
#     4  12  23  43  75 102 135 191 243 292 360 433
#
# _framework density 22.462236999999998
#
# number of rings (size 3 to 8) (size 9 to 14) (size 15 to 20)
#    0.750    0.000    6.250    1.500    0.000    1.000 
#   13.500    0.000    0.000    0.000    0.000    0.000 
#    0.000    0.000    0.000    0.000    0.000    0.000 
#
# Total GULP energy -198339.588272 kJ/mol
# GULP energy per Si atom -12396.224267 kJ/mol
# Density = 2.241111 g / cm^3
# Si number density = 22.462237 Si / 1000 Ang^3
#
#
#
# Elastic Constant Matrix: (Units=GPa)
#
#
# Indices 1 2 3 4 5 6 
#
# 1 106.4359 39.8474 31.6890 0.0000 21.1249 0.0000
# 2 39.8474 99.6428 31.9937 0.0000 13.2966 0.0000
# 3 31.6890 31.9937 68.5258 0.0000 8.4128 0.0000
# 4 0.0000 0.0000 0.0000 38.3798 0.0000 9.8766
# 5 21.1249 13.2966 8.4128 0.0000 44.0574 0.0000
# 6 0.0000 0.0000 0.0000 9.8766 0.0000 42.8008
#
#
#
# Elastic Compliance Matrix: (Units=1/GPa)
#
#
# Indices 1 2 3 4 5 6 
#
# 1 0.012596 -0.003245 -0.003777 0.000000 -0.004339 0.000000
# 2 -0.003245 0.012933 -0.004351 0.000000 -0.001516 0.000000
# 3 -0.003777 -0.004351 0.018419 0.000000 -0.000393 0.000000
# 4 0.000000 0.000000 0.000000 0.027700 0.000000 -0.006392
# 5 -0.004339 -0.001516 -0.000393 0.000000 0.025311 0.000000
# 6 0.000000 0.000000 0.000000 -0.006392 0.000000 0.024839
#
#
# Mechanical properties :
#
#
# Convention : Reuss Voigt Hill
#
# Bulk Modulus (GPa) = 47.16720 53.51828 50.34274
# Shear Modulus (GPa) = 32.97863 36.45257 34.71560
#
# Velocity S-wave (km/s) = 3.83584 4.03282 3.93556
# Velocity P-wave (km/s) = 6.37670 6.74999 6.56600
#
# Compressibility (1/GPa) = 0.02120117
#
# Stress axis : x y z
#
# Youngs Moduli (GPa) = 79.39005 77.32048 54.29037
#
# Poissons Ratio (x) = 0.25094 0.20505
# Poissons Ratio (y) = 0.25766 0.23624
# Poissons Ratio (z) = 0.29985 0.33645
#
# Static dielectric constant tensor:
#      x y z
#    x 3.830500 0.000000 0.099850 
#    y 0.000000 3.898340 0.000000 
#    z 0.099850 0.000000 4.248110 
# 
# 
# High freq. dielectric constant tensor:
#      x y z
#    x 1.872960 0.000000 0.011120 
#    y 0.000000 1.879160 0.000000 
#    z 0.011120 0.000000 1.901140 
# 
# From -- ./inp_files/30382.got.cif
#   From: 2010.06.25/outbox.cif.g09.slc.cpg/sg9_16_cif.got.tgz:30382.got - 2010.06.27 21:40:51.
