data_PCOD8055457
_publ_section_title
;
Structure prediction by ZEFSAII (Michael W. Deem and Ramdas Pophale) SiO2 
 PCOD8055457
Probable space group: C C
;
_chemical_formula_sum "Si O2"
_cell_formula_units_Z 24
_cell_length_a 11.247847
_cell_length_b 9.169697
_cell_length_c 23.483049
_cell_angle_alpha 90.000000
_cell_angle_beta 150.572760
_cell_angle_gamma 90.000000
_cell_volume 1189.984910
_symmetry_space_group_name_H-M "C C"
_symmetry_group_IT_number 9
_symmetry_cell_setting 'monoclinic'
loop_
_space_group_symop_operation_xyz
x,y,z
x,-y,1/2+z
1/2+x,1/2+y,z
1/2+x,1/2-y,1/2+z
loop_
_atom_site_type_symbol
_atom_site_label
_atom_site_fract_x
_atom_site_fract_y
_atom_site_fract_z
Si Si1 0.879700 0.606421 0.547410
Si Si2 0.251323 0.222133 0.272979
Si Si3 0.009447 0.079087 0.489920
Si Si4 0.207952 0.074656 0.689074
Si Si5 0.811359 0.277343 0.493844
Si Si6 0.200075 0.299313 0.373346
O O1 0.641820 0.622454 0.487196
O O2 0.907210 0.441096 0.538373
O O3 0.861450 0.708405 0.484572
O O4 0.117464 0.651654 0.681624
O O5 0.533043 0.261532 0.393994
O O6 0.148018 0.208559 0.294081
O O7 0.195196 0.066979 0.222254
O O8 0.203256 0.032328 0.619728
O O9 0.855186 0.219602 0.447480
O O10 0.830507 0.944964 0.405755
O O11 0.453540 0.162460 0.803575
O O12 0.973171 0.176663 0.604258
#
# Coordination Sequence:
#
# PCOD8055457 Si02
#       6
#     4   4   4   4   4   4
#     4  12  25  43  69 102 133 175 230 278 328 406
#     4  12  23  44  72  95 139 179 220 280 337 395
#     4  10  22  45  66  93 137 175 220 273 337 394
#     4  10  22  46  66  96 136 180 218 274 340 397
#     4  10  24  41  70 103 125 180 228 265 345 394
#     4  12  24  43  71  97 134 181 222 278 339 394
#
# _framework density 20.168323000000001
#
# number of rings (size 3 to 8) (size 9 to 14) (size 15 to 20)
#    1.000    0.000    6.667    0.000    2.333    1.333 
#    3.000    3.333    0.000    0.000    0.000    0.000 
#    0.000    0.000    0.000    0.000    0.000    0.000 
#
# Total GULP energy -148767.225214 kJ/mol
# GULP energy per Si atom -12397.268768 kJ/mol
# Density = 2.012242 g / cm^3
# Si number density = 20.168323 Si / 1000 Ang^3
#
#
#
# Elastic Constant Matrix: (Units=GPa)
#
#
# Indices 1 2 3 4 5 6 
#
# 1 91.1118 62.0991 28.0510 0.0001 -7.6429 0.0000
# 2 62.0991 126.5256 52.1405 -0.0001 7.6060 0.0000
# 3 28.0510 52.1405 107.1166 -0.0012 8.5252 0.0002
# 4 0.0001 -0.0001 -0.0012 34.9720 0.0000 4.8269
# 5 -7.6429 7.6060 8.5252 0.0000 40.0483 0.0000
# 6 0.0000 0.0000 0.0002 4.8269 0.0000 30.5996
#
#
#
# Elastic Compliance Matrix: (Units=1/GPa)
#
#
# Indices 1 2 3 4 5 6 
#
# 1 0.017490 -0.008553 -0.000826 0.000000 0.005138 0.000000
# 2 -0.008553 0.014099 -0.004354 0.000000 -0.003383 0.000000
# 3 -0.000826 -0.004354 0.011818 0.000000 -0.001847 0.000000
# 4 0.000000 0.000000 0.000000 0.029231 0.000000 -0.004611
# 5 0.005138 -0.003383 -0.001847 0.000000 0.026986 0.000000
# 6 0.000000 0.000000 0.000000 -0.004611 0.000000 0.033408
#
#
# Mechanical properties :
#
#
# Convention : Reuss Voigt Hill
#
# Bulk Modulus (GPa) = 62.72701 67.70391 65.21546
# Shear Modulus (GPa) = 30.15496 33.28819 31.72158
#
# Velocity S-wave (km/s) = 3.87093 4.06706 3.97021
# Velocity P-wave (km/s) = 7.15179 7.46304 7.30907
#
# Compressibility (1/GPa) = 0.01594209
#
# Stress axis : x y z
#
# Youngs Moduli (GPa) = 57.17531 70.92823 84.61549
#
# Poissons Ratio (x) = 0.60662 0.06989
# Poissons Ratio (y) = 0.48900 0.36840
# Poissons Ratio (z) = 0.04723 0.30881
#
# Static dielectric constant tensor:
#      x y z
#    x 3.495360 0.000000 -0.021990 
#    y 0.000000 3.622150 0.000000 
#    z -0.021990 0.000000 3.672870 
# 
# 
# High freq. dielectric constant tensor:
#      x y z
#    x 1.776090 0.000000 0.002760 
#    y 0.000000 1.788380 0.000000 
#    z 0.002760 0.000000 1.792460 
# 
# From -- ./inp_files/15846.got.cif
#   From: 2010.06.25/outbox.cif.g09.slc.cpg/sg9_8_cif.got.tgz:15846.got - 2010.06.27 21:40:51.
