data_PCOD8055287
_publ_section_title
;
Structure prediction by ZEFSAII (Michael W. Deem and Ramdas Pophale) SiO2 
 PCOD8055287
Probable space group: C C
;
_chemical_formula_sum "Si O2"
_cell_formula_units_Z 28
_cell_length_a 12.093239
_cell_length_b 7.521290
_cell_length_c 14.079734
_cell_angle_alpha 90.000000
_cell_angle_beta 112.777857
_cell_angle_gamma 90.000000
_cell_volume 1180.772940
_symmetry_space_group_name_H-M "C C"
_symmetry_group_IT_number 9
_symmetry_cell_setting 'monoclinic'
loop_
_space_group_symop_operation_xyz
x,y,z
x,-y,1/2+z
1/2+x,1/2+y,z
1/2+x,1/2-y,1/2+z
loop_
_atom_site_type_symbol
_atom_site_label
_atom_site_fract_x
_atom_site_fract_y
_atom_site_fract_z
Si Si1 0.485800 0.757297 0.879770
Si Si2 0.705249 0.845915 0.532316
Si Si3 0.458662 0.642097 0.176592
Si Si4 0.543222 0.936347 0.087392
Si Si5 0.472899 0.361065 0.900926
Si Si6 0.903688 0.263500 0.653024
Si Si7 0.745234 0.175498 0.442042
O O1 0.457735 0.568790 0.917756
O O2 0.393229 0.800710 0.762963
O O3 0.617074 0.741210 0.871283
O O4 0.480823 0.905316 0.961501
O O5 0.832559 0.761990 0.603781
O O6 0.597137 0.705876 0.488245
O O7 0.673821 0.983541 0.608038
O O8 0.724878 0.961327 0.442524
O O9 0.557469 0.750510 0.148694
O O10 0.479244 0.683307 0.292898
O O11 0.464435 0.432387 0.155041
O O12 0.477065 0.080574 0.128767
O O13 0.353828 0.271693 0.907384
O O14 0.775817 0.254563 0.557547
#
# Coordination Sequence:
#
# PCOD8055287 Si02
#       7
#     4   4   4   4   4   4   4
#     4  10  24  42  67 100 133 177 220 275 333 388
#     4  10  23  40  66  95 130 177 214 273 327 386
#     4  10  25  43  65  99 132 180 217 270 338 389
#     4  11  23  41  70  94 135 172 226 270 324 398
#     4  11  23  42  68  97 135 171 222 274 326 396
#     4  10  22  43  66  95 138 168 223 274 321 400
#     4  10  22  41  66  94 133 173 218 272 329 393
#
# _framework density 23.713280000000001
#
# number of rings (size 3 to 8) (size 9 to 14) (size 15 to 20)
#    0.000    1.714    1.429    1.714    8.000    0.000 
#    0.000    2.857    3.143    0.000    0.000    0.000 
#    0.000    0.000    0.000    0.000    0.000    0.000 
#
# Total GULP energy -173449.737139 kJ/mol
# GULP energy per Si atom -12389.266939 kJ/mol
# Density = 2.365931 g / cm^3
# Si number density = 23.713280 Si / 1000 Ang^3
#
#
#
# Elastic Constant Matrix: (Units=GPa)
#
#
# Indices 1 2 3 4 5 6 
#
# 1 55.8983 18.1708 9.3374 0.0000 -6.0404 0.0000
# 2 18.1708 65.9594 28.6906 0.0000 -17.0563 0.0000
# 3 9.3374 28.6906 90.1761 0.0000 -10.1767 0.0000
# 4 0.0000 0.0000 0.0000 39.3732 0.0000 -7.1169
# 5 -6.0404 -17.0563 -10.1767 0.0000 32.3289 0.0000
# 6 0.0000 0.0000 0.0000 -7.1169 0.0000 31.0546
#
#
#
# Elastic Compliance Matrix: (Units=1/GPa)
#
#
# Indices 1 2 3 4 5 6 
#
# 1 0.019683 -0.005042 -0.000331 0.000000 0.000913 0.000000
# 2 -0.005042 0.021013 -0.005203 0.000000 0.008506 0.000000
# 3 -0.000331 -0.005203 0.012921 0.000000 0.001260 0.000000
# 4 0.000000 0.000000 0.000000 0.026496 0.000000 0.006072
# 5 0.000913 0.008506 0.001260 0.000000 0.035987 0.000000
# 6 0.000000 0.000000 0.000000 0.006072 0.000000 0.033593
#
#
# Mechanical properties :
#
#
# Convention : Reuss Voigt Hill
#
# Bulk Modulus (GPa) = 30.80332 36.04792 33.42562
# Shear Modulus (GPa) = 27.52293 30.94035 29.23164
#
# Velocity S-wave (km/s) = 3.41053 3.61608 3.51481
# Velocity P-wave (km/s) = 5.34108 5.71570 5.53156
#
# Compressibility (1/GPa) = 0.03246403
#
# Stress axis : x y z
#
# Youngs Moduli (GPa) = 50.80618 47.58997 77.39071
#
# Poissons Ratio (x) = 0.23996 0.02560
# Poissons Ratio (y) = 0.25618 0.40270
# Poissons Ratio (z) = 0.01680 0.24763
#
# Static dielectric constant tensor:
#      x y z
#    x 4.215450 0.000000 -0.060820 
#    y 0.000000 4.303170 0.000000 
#    z -0.060820 0.000000 4.289560 
# 
# 
# High freq. dielectric constant tensor:
#      x y z
#    x 1.924330 0.000000 -0.009350 
#    y 0.000000 1.935750 0.000000 
#    z -0.009350 0.000000 1.934810 
# 
# From -- ./inp_files/24151.got.cif
#   From: 2010.06.25/outbox.cif.g09.slc.cpg/sg9_13_cif.got.tgz:24151.got - 2010.06.27 21:40:51.
