data_PCOD8055924
_publ_section_title
;
Structure prediction by ZEFSAII (Michael W. Deem and Ramdas Pophale) SiO2 
 PCOD8055924
Probable space group: C C
;
_chemical_formula_sum "Si O2"
_cell_formula_units_Z 32
_cell_length_a 9.469228
_cell_length_b 15.131862
_cell_length_c 14.910285
_cell_angle_alpha 90.000000
_cell_angle_beta 40.996606
_cell_angle_gamma 90.000000
_cell_volume 1401.542304
_symmetry_space_group_name_H-M "C C"
_symmetry_group_IT_number 9
_symmetry_cell_setting 'monoclinic'
loop_
_space_group_symop_operation_xyz
x,y,z
x,-y,1/2+z
1/2+x,1/2+y,z
1/2+x,1/2-y,1/2+z
loop_
_atom_site_type_symbol
_atom_site_label
_atom_site_fract_x
_atom_site_fract_y
_atom_site_fract_z
Si Si1 0.992080 0.468461 0.700010
Si Si2 0.714665 0.404042 0.679735
Si Si3 0.757503 0.101332 0.338266
Si Si4 0.813118 0.786290 0.158496
Si Si5 0.187958 0.230690 0.773762
Si Si6 0.206494 0.279191 0.572365
Si Si7 0.120539 0.645163 0.585468
Si Si8 0.017321 0.557822 0.873955
O O1 0.799009 0.467198 0.719301
O O2 0.106376 0.373770 0.646826
O O3 0.160137 0.540804 0.582716
O O4 0.919116 0.506235 0.833502
O O5 0.484023 0.437916 0.760432
O O6 0.694583 0.306545 0.732906
O O7 0.845252 0.399420 0.523338
O O8 0.758294 0.166735 0.253199
O O9 0.657858 0.164748 0.463338
O O10 0.622044 0.015348 0.385838
O O11 0.797791 0.803444 0.059160
O O12 0.690918 0.866608 0.266462
O O13 0.063685 0.773242 0.066486
O O14 0.195934 0.215580 0.663376
O O15 0.373650 0.171000 0.731544
O O16 0.949799 0.207438 0.922324
#
# Coordination Sequence:
#
# PCOD8055924 Si02
#       8
#     4   4   4   4   4   4   4   4
#     4  10  24  47  67 106 141 189 242 302 371 439
#     4  11  25  45  74 105 146 191 249 308 364 455
#     4  12  25  45  71 106 146 191 245 300 376 439
#     4  10  26  44  72 104 142 191 244 304 368 441
#     4  12  25  45  74 105 148 193 245 299 379 441
#     4  11  26  45  73 106 146 192 245 306 366 451
#     4  11  24  46  71 102 145 191 241 301 371 440
#     4  11  25  49  70 104 150 190 247 314 375 438
#
# _framework density 22.831990000000001
#
# number of rings (size 3 to 8) (size 9 to 14) (size 15 to 20)
#    0.000    1.000    5.000    0.000    5.250    6.000 
#    4.500    0.000    0.000    0.000    0.000    0.000 
#    0.000    0.000    0.000    0.000    0.000    0.000 
#
# Total GULP energy -198257.681343 kJ/mol
# GULP energy per Si atom -12391.105084 kJ/mol
# Density = 2.278002 g / cm^3
# Si number density = 22.831990 Si / 1000 Ang^3
#
#
#
# Elastic Constant Matrix: (Units=GPa)
#
#
# Indices 1 2 3 4 5 6 
#
# 1 147.9896 33.8324 55.0592 -0.0017 9.6875 0.0025
# 2 33.8324 86.3080 18.0940 -0.0017 3.7236 0.0013
# 3 55.0592 18.0940 114.5017 -0.0020 1.3114 0.0023
# 4 -0.0017 -0.0017 -0.0020 24.3804 0.0012 5.9149
# 5 9.6875 3.7236 1.3114 0.0012 31.1743 -0.0014
# 6 0.0025 0.0013 0.0023 5.9149 -0.0014 36.8834
#
#
#
# Elastic Compliance Matrix: (Units=1/GPa)
#
#
# Indices 1 2 3 4 5 6 
#
# 1 0.008938 -0.002595 -0.003861 0.000000 -0.002305 0.000000
# 2 -0.002595 0.012794 -0.000766 0.000001 -0.000690 0.000000
# 3 -0.003861 -0.000766 0.010702 0.000001 0.000841 0.000000
# 4 0.000000 0.000001 0.000001 0.042677 -0.000002 -0.006844
# 5 -0.002305 -0.000690 0.000841 -0.000002 0.032841 0.000002
# 6 0.000000 0.000000 0.000000 -0.006844 0.000002 0.028210
#
#
# Mechanical properties :
#
#
# Convention : Reuss Voigt Hill
#
# Bulk Modulus (GPa) = 55.58962 62.53007 59.05985
# Shear Modulus (GPa) = 31.92794 34.60852 33.26823
#
# Velocity S-wave (km/s) = 3.74356 3.89754 3.82132
# Velocity P-wave (km/s) = 6.56397 6.90658 6.73746
#
# Compressibility (1/GPa) = 0.01798897
#
# Stress axis : x y z
#
# Youngs Moduli (GPa) = 111.88238 78.16234 93.44259
#
# Poissons Ratio (x) = 0.20280 0.36083
# Poissons Ratio (y) = 0.29030 0.07159
# Poissons Ratio (z) = 0.43203 0.05989
#
# Static dielectric constant tensor:
#      x y z
#    x 4.429580 0.000000 0.244040 
#    y 0.000000 4.075920 0.000000 
#    z 0.244040 0.000000 3.874390 
# 
# 
# High freq. dielectric constant tensor:
#      x y z
#    x 1.920470 0.000000 0.016180 
#    y 0.000000 1.907190 0.000000 
#    z 0.016180 0.000000 1.882560 
# 
# From -- ./inp_files/23363.got.cif
#   From: 2010.06.25/outbox.cif.g09.slc.cpg/sg9_12_cif.got.tgz:23363.got - 2010.06.27 21:40:51.
