data_PCOD8056849
_publ_section_title
;
Structure prediction by ZEFSAII (Michael W. Deem and Ramdas Pophale) SiO2 
 PCOD8056849
Probable space group: P 2/M
;
_chemical_formula_sum "Si O2"
_cell_formula_units_Z 32
_cell_length_a 27.914028
_cell_length_b 9.223026
_cell_length_c 12.324334
_cell_angle_alpha 90.000000
_cell_angle_beta 139.193111
_cell_angle_gamma 90.000000
_cell_volume 2073.541417
_symmetry_space_group_name_H-M "P 2/M"
_symmetry_group_IT_number 10
_symmetry_cell_setting 'monoclinic'
loop_
_space_group_symop_operation_xyz
x,y,z
-x,y,-z
-x,-y,-z
x,-y,z
loop_
_atom_site_type_symbol
_atom_site_label
_atom_site_fract_x
_atom_site_fract_y
_atom_site_fract_z
Si Si1 0.845071 0.660272 0.168103
Si Si2 0.303391 0.331844 0.998081
Si Si3 0.975883 0.837001 0.334127
Si Si4 0.751293 0.829190 0.303312
Si Si5 0.109876 0.336259 0.504585
Si Si6 0.509219 0.828403 0.192024
Si Si7 0.389566 0.169459 0.820649
Si Si8 0.531763 0.669126 0.668209
O O1 0.860888 0.500000 0.148663
O O2 0.866965 0.665863 0.331280
O O3 0.893900 0.771946 0.182613
O O4 0.758383 0.697749 0.014645
O O5 0.297617 0.500000 0.949538
O O6 0.381852 0.295072 0.183004
O O7 0.289013 0.225844 0.873487
O O8 0.032038 0.744281 0.357357
O O9 0.000000 0.832594 0.500000
O O10 0.974627 0.000000 0.287019
O O11 0.827884 0.747963 0.457353
O O12 0.696147 0.793179 0.308678
O O13 0.766504 0.000000 0.317442
O O14 0.102455 0.500000 0.447888
O O15 0.581940 0.779466 0.248654
O O16 0.511559 0.751248 0.311645
O O17 0.506448 0.000000 0.207087
O O18 0.439216 0.767906 0.004160
O O19 0.403730 0.000000 0.851717
O O20 0.500000 0.725241 0.500000
O O21 0.516836 0.500000 0.658442
#
# Coordination Sequence:
#
# PCOD8056849 Si02
#       8
#     4   4   4   4   4   4   4   4
#     4   8  14  23  34  46  64  94 128 161 195 232
#     4   9  17  28  39  53  75 103 134 165 202 246
#     4   9  15  22  32  48  68  93 127 163 194 227
#     4  10  16  24  39  58  77 101 131 167 204 236
#     4   9  16  24  33  48  73 103 130 157 190 233
#     4   9  16  30  46  61  79 104 137 169 207 253
#     4   8  15  26  43  62  82 104 130 171 213 245
#     4  10  20  32  44  60  84 110 137 174 214 247
#
# _framework density 15.432534
#
# number of rings (size 3 to 8) (size 9 to 14) (size 15 to 20)
#    0.000    3.000    1.250    2.625    0.000    4.750 
#    0.000    2.500    0.000    0.000    0.000    0.000 
#    0.000    0.000    0.000    1.125    0.000   23.625 
#
# Total GULP energy -396574.538441 kJ/mol
# GULP energy per Si atom -12392.954326 kJ/mol
# Density = 1.539741 g / cm^3
# Si number density = 15.432534 Si / 1000 Ang^3
#
#
#
# Elastic Constant Matrix: (Units=GPa)
#
#
# Indices 1 2 3 4 5 6 
#
# 1 131.8660 60.9862 44.4285 0.0000 20.8047 0.0000
# 2 60.9862 86.1607 23.6310 0.0000 11.5347 0.0000
# 3 44.4285 23.6310 35.9722 0.0000 2.4920 0.0000
# 4 0.0000 0.0000 0.0000 12.4290 0.0000 6.3730
# 5 20.8047 11.5347 2.4920 0.0000 23.2464 0.0000
# 6 0.0000 0.0000 0.0000 6.3730 0.0000 19.7241
#
#
#
# Elastic Compliance Matrix: (Units=1/GPa)
#
#
# Indices 1 2 3 4 5 6 
#
# 1 0.018330 -0.006680 -0.017473 0.000000 -0.011217 0.000000
# 2 -0.006680 0.017497 -0.003079 0.000000 -0.002373 0.000000
# 3 -0.017473 -0.003079 0.050589 0.000000 0.011743 0.000000
# 4 0.000000 0.000000 0.000000 0.096433 0.000000 -0.031158
# 5 -0.011217 -0.002373 0.011743 0.000000 0.052975 0.000000
# 6 0.000000 0.000000 0.000000 -0.031158 0.000000 0.060767
#
#
# Mechanical properties :
#
#
# Convention : Reuss Voigt Hill
#
# Bulk Modulus (GPa) = 31.29811 56.89893 44.09852
# Shear Modulus (GPa) = 13.82336 19.41011 16.61674
#
# Velocity S-wave (km/s) = 2.99612 3.55031 3.28492
# Velocity P-wave (km/s) = 5.68275 7.33183 6.55932
#
# Compressibility (1/GPa) = 0.03195081
#
# Stress axis : x y z
#
# Youngs Moduli (GPa) = 54.55613 57.15338 19.76698
#
# Poissons Ratio (x) = 0.38180 0.34539
# Poissons Ratio (y) = 0.36445 0.06086
# Poissons Ratio (z) = 0.95327 0.17598
#
# Static dielectric constant tensor:
#      x y z
#    x 3.225670 0.000000 0.366720 
#    y 0.000000 2.962910 0.000000 
#    z 0.366720 0.000000 2.522350 
# 
# 
# High freq. dielectric constant tensor:
#      x y z
#    x 1.596230 0.000000 0.039240 
#    y 0.000000 1.591920 0.000000 
#    z 0.039240 0.000000 1.522170 
# 
# From -- ./inp_files/57192.got.cif
#   From: 2010.06.25/outbox.cif.g09.slc.cpg/sg10_29_cif.got.tgz:57192.got - 2010.06.27 22:07:45.
