data_PCOD8056739
_publ_section_title
;
Structure prediction by ZEFSAII (Michael W. Deem and Ramdas Pophale) SiO2 
 PCOD8056739
Probable space group: C C
;
_chemical_formula_sum "Si O2"
_cell_formula_units_Z 16
_cell_length_a 4.995555
_cell_length_b 23.814047
_cell_length_c 5.684097
_cell_angle_alpha 90.000000
_cell_angle_beta 101.303449
_cell_angle_gamma 90.000000
_cell_volume 663.088641
_symmetry_space_group_name_H-M "C C"
_symmetry_group_IT_number 9
_symmetry_cell_setting 'monoclinic'
loop_
_space_group_symop_operation_xyz
x,y,z
x,-y,1/2+z
1/2+x,1/2+y,z
1/2+x,1/2-y,1/2+z
loop_
_atom_site_type_symbol
_atom_site_label
_atom_site_fract_x
_atom_site_fract_y
_atom_site_fract_z
Si Si1 0.312820 0.032448 0.685680
Si Si2 0.941522 0.200302 0.972951
Si Si3 0.785377 0.104927 0.619810
Si Si4 0.000447 0.315058 0.756262
O O1 0.552300 0.078608 0.746268
O O2 0.013933 0.058903 0.610494
O O3 0.345918 0.999700 0.441468
O O4 0.177365 0.173754 0.177464
O O5 0.643459 0.202189 0.037557
O O6 0.045258 0.263411 0.942927
O O7 0.925152 0.160692 0.745122
O O8 0.635434 0.126291 0.358434
#
# Coordination Sequence:
#
# PCOD8056739 Si02
#       4
#     4   4   4   4
#     4  12  30  54  79 110 149 200 270 326 374 440
#     4  12  26  44  72 110 156 194 243 297 377 471
#     4  12  28  48  79 106 149 204 240 318 390 440
#     4  12  26  44  72 110 156 194 243 297 377 471
#
# _framework density 24.129507
#
# number of rings (size 3 to 8) (size 9 to 14) (size 15 to 20)
#    0.000    0.000    2.500    6.000   14.000    0.000 
#    0.000    0.000    0.000    0.000    0.000    0.000 
#    0.000    0.000    0.000    0.000    0.000    0.000 
#
# Total GULP energy -99179.963893 kJ/mol
# GULP energy per Si atom -12397.495487 kJ/mol
# Density = 2.407459 g / cm^3
# Si number density = 24.129507 Si / 1000 Ang^3
#
#
#
# Elastic Constant Matrix: (Units=GPa)
#
#
# Indices 1 2 3 4 5 6 
#
# 1 128.2782 23.4499 15.6568 0.0000 8.7939 0.0000
# 2 23.4499 71.0236 31.8076 0.0000 4.2778 0.0000
# 3 15.6568 31.8076 100.4343 0.0000 -3.5970 0.0000
# 4 0.0000 0.0000 0.0000 33.5516 0.0000 7.2544
# 5 8.7939 4.2778 -3.5970 0.0000 44.7045 0.0000
# 6 0.0000 0.0000 0.0000 7.2544 0.0000 47.5281
#
#
#
# Elastic Compliance Matrix: (Units=1/GPa)
#
#
# Indices 1 2 3 4 5 6 
#
# 1 0.008412 -0.002421 -0.000597 0.000000 -0.001471 0.000000
# 2 -0.002421 0.017283 -0.005153 0.000000 -0.001592 0.000000
# 3 -0.000597 -0.005153 0.011738 0.000000 0.001555 0.000000
# 4 0.000000 0.000000 0.000000 0.030822 0.000000 -0.004704
# 5 -0.001471 -0.001592 0.001555 0.000000 0.022936 0.000000
# 6 0.000000 0.000000 0.000000 -0.004704 0.000000 0.021758
#
#
# Mechanical properties :
#
#
# Convention : Reuss Voigt Hill
#
# Bulk Modulus (GPa) = 47.41759 49.06275 48.24017
# Shear Modulus (GPa) = 36.67798 40.41162 38.54480
#
# Velocity S-wave (km/s) = 3.90301 4.09685 4.00110
# Velocity P-wave (km/s) = 6.32497 6.53882 6.43278
#
# Compressibility (1/GPa) = 0.02108922
#
# Stress axis : x y z
#
# Youngs Moduli (GPa) = 118.87888 57.86050 85.19685
#
# Poissons Ratio (x) = 0.14010 0.05088
# Poissons Ratio (y) = 0.28784 0.43903
# Poissons Ratio (z) = 0.07099 0.29816
#
# Static dielectric constant tensor:
#      x y z
#    x 4.643640 0.000000 0.104650 
#    y 0.000000 4.397890 0.000000 
#    z 0.104650 0.000000 4.153060 
# 
# 
# High freq. dielectric constant tensor:
#      x y z
#    x 1.982190 0.000000 0.007850 
#    y 0.000000 1.960480 0.000000 
#    z 0.007850 0.000000 1.953500 
# 
# From -- ./inp_files/113.got.cif
#   From: 2010.06.25/outbox.cif.g09.slc.cpg/sg9_1_cif.got.tgz:113.got - 2010.06.27 21:40:51.
