data_PCOD8056080
_publ_section_title
;
Structure prediction by ZEFSAII (Michael W. Deem and Ramdas Pophale) SiO2 
 PCOD8056080
Probable space group: C C
;
_chemical_formula_sum "Si O2"
_cell_formula_units_Z 32
_cell_length_a 26.459832
_cell_length_b 9.463147
_cell_length_c 8.937864
_cell_angle_alpha 90.000000
_cell_angle_beta 142.529855
_cell_angle_gamma 90.000000
_cell_volume 1361.471215
_symmetry_space_group_name_H-M "C C"
_symmetry_group_IT_number 9
_symmetry_cell_setting 'monoclinic'
loop_
_space_group_symop_operation_xyz
x,y,z
x,-y,1/2+z
1/2+x,1/2+y,z
1/2+x,1/2-y,1/2+z
loop_
_atom_site_type_symbol
_atom_site_label
_atom_site_fract_x
_atom_site_fract_y
_atom_site_fract_z
Si Si1 0.298150 0.050802 0.726350
Si Si2 0.101641 0.753135 0.437696
Si Si3 0.889239 0.733237 0.426533
Si Si4 0.533544 0.670208 0.476628
Si Si5 0.761787 0.079686 0.795096
Si Si6 0.184408 0.033100 0.711831
Si Si7 0.967727 0.133279 0.819948
Si Si8 0.329532 0.635625 0.264473
O O1 0.269245 0.081795 0.828660
O O2 0.331635 0.197788 0.740902
O O3 0.369626 0.933782 0.877259
O O4 0.212810 0.012251 0.443029
O O5 0.052412 0.733270 0.165764
O O6 0.169101 0.628773 0.620024
O O7 0.038930 0.756946 0.431664
O O8 0.148951 0.901175 0.537199
O O9 0.805446 0.812575 0.281243
O O10 0.914800 0.788667 0.322679
O O11 0.963259 0.752019 0.717601
O O12 0.615701 0.656366 0.565274
O O13 0.507464 0.512844 0.471082
O O14 0.756478 0.926676 0.700684
O O15 0.820657 0.065303 0.080025
O O16 0.914489 0.090047 0.546736
#
# Coordination Sequence:
#
# PCOD8056080 Si02
#       8
#     4   4   4   4   4   4   4   4
#     4  12  24  45  72 108 148 190 248 307 365 436
#     4  11  23  44  70 104 147 191 245 308 359 439
#     4  12  24  43  73 112 145 194 249 306 366 440
#     4  11  23  40  73 108 149 195 251 298 363 446
#     4  12  25  46  70 108 145 192 253 309 372 435
#     4  11  21  41  71 104 143 193 246 295 360 435
#     4  11  24  42  72 108 148 195 250 300 377 444
#     4  12  26  45  73 106 149 194 246 315 370 441
#
# _framework density 23.503986999999999
#
# number of rings (size 3 to 8) (size 9 to 14) (size 15 to 20)
#    0.000    0.500    5.000    3.750    1.750    1.000 
#    0.000    3.750    0.000    0.000    0.000    0.000 
#    0.000    0.000    0.000    0.000    0.000    0.000 
#
# Total GULP energy -198394.303610 kJ/mol
# GULP energy per Si atom -12399.643976 kJ/mol
# Density = 2.345049 g / cm^3
# Si number density = 23.503987 Si / 1000 Ang^3
#
#
#
# Elastic Constant Matrix: (Units=GPa)
#
#
# Indices 1 2 3 4 5 6 
#
# 1 130.8946 31.8890 33.3298 0.0000 -7.0887 0.0000
# 2 31.8890 95.3989 37.1594 0.0000 -5.8098 0.0000
# 3 33.3298 37.1594 112.3761 0.0000 -2.0171 0.0000
# 4 0.0000 0.0000 0.0000 30.3238 0.0000 10.3996
# 5 -7.0887 -5.8098 -2.0171 0.0000 29.7162 0.0000
# 6 0.0000 0.0000 0.0000 10.3996 0.0000 31.5896
#
#
#
# Elastic Compliance Matrix: (Units=1/GPa)
#
#
# Indices 1 2 3 4 5 6 
#
# 1 0.008707 -0.002091 -0.001863 0.000000 0.001542 0.000000
# 2 -0.002091 0.012665 -0.003536 0.000000 0.001737 0.000000
# 3 -0.001863 -0.003536 0.010613 0.000000 -0.000415 0.000000
# 4 0.000000 0.000000 0.000000 0.037175 0.000000 -0.012238
# 5 0.001542 0.001737 -0.000415 0.000000 0.034331 0.000000
# 6 0.000000 0.000000 0.000000 -0.012238 0.000000 0.035685
#
#
# Mechanical properties :
#
#
# Convention : Reuss Voigt Hill
#
# Bulk Modulus (GPa) = 58.81130 60.38066 59.59598
# Shear Modulus (GPa) = 31.28432 34.07868 32.68150
#
# Velocity S-wave (km/s) = 3.65228 3.81190 3.73294
# Velocity P-wave (km/s) = 6.54688 6.71710 6.63254
#
# Compressibility (1/GPa) = 0.01700354
#
# Stress axis : x y z
#
# Youngs Moduli (GPa) = 114.84910 78.96087 94.22132
#
# Poissons Ratio (x) = 0.16509 0.17557
# Poissons Ratio (y) = 0.24013 0.33321
# Poissons Ratio (z) = 0.21401 0.27924
#
# Static dielectric constant tensor:
#      x y z
#    x 4.307100 0.000000 -0.004950 
#    y 0.000000 3.925990 0.000000 
#    z -0.004950 0.000000 4.253880 
# 
# 
# High freq. dielectric constant tensor:
#      x y z
#    x 1.940230 0.000000 -0.007570 
#    y 0.000000 1.898710 0.000000 
#    z -0.007570 0.000000 1.938360 
# 
# From -- ./inp_files/12456.got.cif
#   From: 2010.06.25/outbox.cif.g09.slc.cpg/sg9_7_cif.got.tgz:12456.got - 2010.06.27 21:40:51.
