data_PCOD8056120
_publ_section_title
;
Structure prediction by ZEFSAII (Michael W. Deem and Ramdas Pophale) SiO2 
 PCOD8056120
Probable space group: C C
;
_chemical_formula_sum "Si O2"
_cell_formula_units_Z 28
_cell_length_a 16.151973
_cell_length_b 14.564855
_cell_length_c 7.811305
_cell_angle_alpha 90.000000
_cell_angle_beta 49.733818
_cell_angle_gamma 90.000000
_cell_volume 1402.194670
_symmetry_space_group_name_H-M "C C"
_symmetry_group_IT_number 9
_symmetry_cell_setting 'monoclinic'
loop_
_space_group_symop_operation_xyz
x,y,z
x,-y,1/2+z
1/2+x,1/2+y,z
1/2+x,1/2-y,1/2+z
loop_
_atom_site_type_symbol
_atom_site_label
_atom_site_fract_x
_atom_site_fract_y
_atom_site_fract_z
Si Si1 0.392790 0.797079 0.357990
Si Si2 0.677029 0.389637 0.102935
Si Si3 0.608552 0.889635 0.613040
Si Si4 0.309700 0.722518 0.811727
Si Si5 0.782786 0.554918 0.801869
Si Si6 0.502794 0.945084 0.414110
Si Si7 0.975881 0.777482 0.404252
O O1 0.366155 0.729439 0.551178
O O2 0.297746 0.867200 0.426628
O O3 0.487830 0.867205 0.289353
O O4 0.419430 0.729438 0.164799
O O5 0.741618 0.390984 0.193273
O O6 0.549419 0.369230 0.298586
O O7 0.732123 0.310730 0.917298
O O8 0.689347 0.486280 0.990151
O O9 0.736162 0.869229 0.417387
O O10 0.543968 0.890980 0.522690
O O11 0.553459 0.810729 0.798676
O O12 0.596232 0.986279 0.725825
O O13 0.392788 0.720197 0.857997
O O14 0.892792 0.500001 0.607996
#
# Coordination Sequence:
#
# PCOD8056120 Si02
#       7
#     4   4   4   4   4   4   4
#     4  12  22  38  70  88 124 162 208 254 306 362
#     4  11  22  38  65  95 125 160 210 258 315 355
#     4  11  22  38  65  95 125 160 210 258 315 355
#     4  11  23  42  60  92 132 163 199 262 311 373
#     4  12  19  37  66  95 118 157 210 263 295 363
#     4  12  19  37  66  95 118 157 210 263 295 363
#     4  11  23  42  60  92 132 163 199 262 311 373
#
# _framework density 19.968698
#
# number of rings (size 3 to 8) (size 9 to 14) (size 15 to 20)
#    0.000    0.571    8.571    0.000    0.000    1.143 
#    5.143    1.429    0.000    0.000    0.000    0.000 
#    0.000    0.000    0.000    0.000    0.000    0.000 
#
# Total GULP energy -173575.852748 kJ/mol
# GULP energy per Si atom -12398.275196 kJ/mol
# Density = 1.992325 g / cm^3
# Si number density = 19.968698 Si / 1000 Ang^3
#
#
#
# Elastic Constant Matrix: (Units=GPa)
#
#
# Indices 1 2 3 4 5 6 
#
# 1 82.1179 22.2913 56.5029 0.0000 9.8243 0.0000
# 2 22.2913 68.9430 57.6303 0.0000 -8.3717 0.0000
# 3 56.5029 57.6303 125.0188 0.0000 11.5157 0.0000
# 4 0.0000 0.0000 0.0000 27.3749 0.0000 -10.4076
# 5 9.8243 -8.3717 11.5157 0.0000 36.0559 0.0000
# 6 0.0000 0.0000 0.0000 -10.4076 0.0000 31.5987
#
#
#
# Elastic Compliance Matrix: (Units=1/GPa)
#
#
# Indices 1 2 3 4 5 6 
#
# 1 0.017899 0.000942 -0.008340 0.000000 -0.001995 0.000000
# 2 0.000942 0.027055 -0.013860 0.000000 0.010452 0.000000
# 3 -0.008340 -0.013860 0.018798 0.000000 -0.006949 0.000000
# 4 0.000000 0.000000 0.000000 0.041759 0.000000 0.013754
# 5 -0.001995 0.010452 -0.006949 0.000000 0.032925 0.000000
# 6 0.000000 0.000000 0.000000 0.013754 0.000000 0.036177
#
#
# Mechanical properties :
#
#
# Convention : Reuss Voigt Hill
#
# Bulk Modulus (GPa) = 47.09145 60.99207 54.04176
# Shear Modulus (GPa) = 22.30074 28.31624 25.30849
#
# Velocity S-wave (km/s) = 3.34546 3.76976 3.56393
# Velocity P-wave (km/s) = 6.20940 7.03976 6.63758
#
# Compressibility (1/GPa) = 0.02123528
#
# Stress axis : x y z
#
# Youngs Moduli (GPa) = 55.86862 36.96122 53.19825
#
# Poissons Ratio (x) = -0.03482 0.44369
# Poissons Ratio (y) = -0.05264 0.73735
# Poissons Ratio (z) = 0.46596 0.51230
#
# Static dielectric constant tensor:
#      x y z
#    x 3.661820 0.000000 0.075190 
#    y 0.000000 3.602730 0.000000 
#    z 0.075190 0.000000 3.771630 
# 
# 
# High freq. dielectric constant tensor:
#      x y z
#    x 1.780510 0.000000 0.023430 
#    y 0.000000 1.763300 0.000000 
#    z 0.023430 0.000000 1.769150 
# 
# From -- ./inp_files/7165.got.cif
#   From: 2010.06.25/outbox.cif.g09.slc.cpg/sg9_4_cif.got.tgz:7165.got - 2010.06.27 21:40:51.
