data_PCOD8056804
_publ_section_title
;
Structure prediction by ZEFSAII (Michael W. Deem and Ramdas Pophale) SiO2 
 PCOD8056804
Probable space group: P 2/M
;
_chemical_formula_sum "Si O2"
_cell_formula_units_Z 28
_cell_length_a 9.237014
_cell_length_b 17.341478
_cell_length_c 21.007001
_cell_angle_alpha 90.000000
_cell_angle_beta 151.547616
_cell_angle_gamma 90.000000
_cell_volume 1603.168872
_symmetry_space_group_name_H-M "P 2/M"
_symmetry_group_IT_number 10
_symmetry_cell_setting 'monoclinic'
loop_
_space_group_symop_operation_xyz
x,y,z
-x,y,-z
-x,-y,-z
x,-y,z
loop_
_atom_site_type_symbol
_atom_site_label
_atom_site_fract_x
_atom_site_fract_y
_atom_site_fract_z
Si Si1 0.460185 0.500000 0.909122
Si Si2 0.972678 0.083809 0.711106
Si Si3 0.774892 0.332377 0.708978
Si Si4 0.831889 0.243155 0.241625
Si Si5 0.229317 0.500000 0.345186
Si Si6 0.390377 0.916140 0.559756
Si Si7 0.669721 0.341221 0.998411
Si Si8 0.832068 0.757753 0.497546
O O1 0.104639 0.500000 0.751262
O O2 0.500000 0.500000 0.000000
O O3 0.627300 0.423735 0.946534
O O4 0.776531 0.088683 0.571784
O O5 0.749876 0.092125 0.685509
O O6 0.200349 0.156211 0.798890
O O7 0.141428 0.000000 0.779743
O O8 0.740017 0.423823 0.685797
O O9 0.447871 0.296908 0.594466
O O10 0.926637 0.292839 0.705834
O O11 0.980261 0.320142 0.851949
O O12 0.933932 0.243831 0.353880
O O13 0.491096 0.276740 0.107103
O O14 0.500000 0.500000 0.500000
O O15 0.281839 0.845184 0.561377
O O16 0.325446 0.000000 0.567209
O O17 0.500000 0.345383 0.000000
O O18 0.000000 0.726141 0.500000
#
# Coordination Sequence:
#
# PCOD8056804 Si02
#       8
#     2   4   4   4   2   4   4   4
#     4  10  14  30  46  79 108 115 157 210 251 284
#     4   8  13  23  44  73 100 124 156 201 252 299
#     4  11  20  34  52  75 102 129 164 208 251 293
#     4  10  17  31  53  75  96 131 166 203 252 296
#     4  12  20  28  51  83 106 128 158 204 259 297
#     4   8  14  26  45  69  97 129 162 201 247 293
#     4   9  17  29  51  75 101 124 159 208 247 291
#     4  11  22  33  47  73 105 133 167 209 247 293
#
# _framework density 17.465409999999999
#
# number of rings (size 3 to 8) (size 9 to 14) (size 15 to 20)
#    0.000    2.286    5.714    2.143    0.000    0.286 
#    0.000    1.071    0.000    4.714    0.000    2.000 
#    0.000    5.714    0.000    0.000    0.000    0.000 
#
# Total GULP energy -346947.052238 kJ/mol
# GULP energy per Si atom -12390.966151 kJ/mol
# Density = 1.742566 g / cm^3
# Si number density = 17.465410 Si / 1000 Ang^3
#
#
#
# Elastic Constant Matrix: (Units=GPa)
#
#
# Indices 1 2 3 4 5 6 
#
# 1 45.2900 16.8478 15.6909 0.0000 -4.6765 0.0000
# 2 16.8478 138.4479 37.7767 0.0000 -8.1173 0.0000
# 3 15.6909 37.7767 92.9533 0.0000 -7.7037 0.0000
# 4 0.0000 0.0000 0.0000 15.8157 0.0000 -5.8016
# 5 -4.6765 -8.1173 -7.7037 0.0000 5.8732 0.0000
# 6 0.0000 0.0000 0.0000 -5.8016 0.0000 5.8644
#
#
#
# Elastic Compliance Matrix: (Units=1/GPa)
#
#
# Indices 1 2 3 4 5 6 
#
# 1 0.024988 -0.001532 -0.002381 0.000000 0.014657 0.000000
# 2 -0.001532 0.008544 -0.002621 0.000000 0.007151 0.000000
# 3 -0.002381 -0.002621 0.013203 0.000000 0.011800 0.000000
# 4 0.000000 0.000000 0.000000 0.099244 0.000000 0.098181
# 5 0.014657 0.007151 0.011800 0.000000 0.207297 0.000000
# 6 0.000000 0.000000 0.000000 0.098181 0.000000 0.267649
#
#
# Mechanical properties :
#
#
# Convention : Reuss Voigt Hill
#
# Bulk Modulus (GPa) = 29.70219 46.36911 38.03565
# Shear Modulus (GPa) = 7.74936 19.26904 13.50920
#
# Velocity S-wave (km/s) = 2.10870 3.32515 2.78417
# Velocity P-wave (km/s) = 4.79291 6.43031 5.67102
#
# Compressibility (1/GPa) = 0.03366755
#
# Stress axis : x y z
#
# Youngs Moduli (GPa) = 40.01917 117.04448 75.73957
#
# Poissons Ratio (x) = 0.17929 0.18032
# Poissons Ratio (y) = 0.06130 0.19852
# Poissons Ratio (z) = 0.09528 0.30678
#
# Static dielectric constant tensor:
#      x y z
#    x 2.655080 0.000000 0.030740 
#    y 0.000000 3.892210 0.000000 
#    z 0.030740 0.000000 3.334110 
# 
# 
# High freq. dielectric constant tensor:
#      x y z
#    x 1.604980 0.000000 0.002180 
#    y 0.000000 1.700810 0.000000 
#    z 0.002180 0.000000 1.659210 
# 
# From -- ./inp_files/56121.got.cif
#   From: 2010.06.25/outbox.cif.g09.slc.cpg/sg10_29_cif.got.tgz:56121.got - 2010.06.27 22:07:45.
