data_PCOD8056108
_publ_section_title
;
Structure prediction by ZEFSAII (Michael W. Deem and Ramdas Pophale) SiO2 
 PCOD8056108
Probable space group: C C
;
_chemical_formula_sum "Si O2"
_cell_formula_units_Z 32
_cell_length_a 7.359754
_cell_length_b 12.156770
_cell_length_c 22.019490
_cell_angle_alpha 90.000000
_cell_angle_beta 130.685486
_cell_angle_gamma 90.000000
_cell_volume 1493.927507
_symmetry_space_group_name_H-M "C C"
_symmetry_group_IT_number 9
_symmetry_cell_setting 'monoclinic'
loop_
_space_group_symop_operation_xyz
x,y,z
x,-y,1/2+z
1/2+x,1/2+y,z
1/2+x,1/2-y,1/2+z
loop_
_atom_site_type_symbol
_atom_site_label
_atom_site_fract_x
_atom_site_fract_y
_atom_site_fract_z
Si Si1 0.264150 0.076668 0.821650
Si Si2 0.501379 0.776208 0.471527
Si Si3 0.494852 0.549680 0.420935
Si Si4 0.531075 0.759158 0.046664
Si Si5 0.123941 0.630618 0.802782
Si Si6 0.699520 0.075816 0.685386
Si Si7 0.295240 0.142761 0.385457
Si Si8 0.881945 0.600016 0.063041
O O1 0.320267 0.151702 0.892012
O O2 0.373101 0.126807 0.783856
O O3 0.982020 0.070613 0.752684
O O4 0.373351 0.954955 0.857315
O O5 0.418208 0.648668 0.449337
O O6 0.485619 0.812670 0.537688
O O7 0.770916 0.792015 0.505293
O O8 0.292314 0.458838 0.371755
O O9 0.554516 0.603109 0.368360
O O10 0.738645 0.497147 0.499007
O O11 0.628501 0.831314 0.122408
O O12 0.715115 0.659860 0.076062
O O13 0.506462 0.830950 0.979667
O O14 0.076036 0.606170 0.722280
O O15 0.243804 0.749696 0.834469
O O16 0.606000 0.955597 0.645810
#
# Coordination Sequence:
#
# PCOD8056108 Si02
#       8
#     4   4   4   4   4   4   4   4
#     4  12  25  43  73 108 139 190 240 286 366 425
#     4  11  23  45  78 103 136 187 249 291 343 436
#     4  11  21  46  73 106 135 178 243 299 337 425
#     4  11  25  47  72 104 141 187 246 288 351 425
#     4  12  26  45  74 103 144 190 237 292 361 422
#     4  12  28  46  65 109 156 180 230 308 362 418
#     4  11  22  46  74 103 137 182 248 292 331 437
#     4  12  24  46  71 102 144 186 227 302 363 410
#
# _framework density 21.420048000000001
#
# number of rings (size 3 to 8) (size 9 to 14) (size 15 to 20)
#    0.000    0.500    8.750    0.000    1.750    6.000 
#    2.250    0.000    0.000    0.000    0.000    0.000 
#    0.000    0.000    0.000    0.000    0.000    0.000 
#
# Total GULP energy -198474.696575 kJ/mol
# GULP energy per Si atom -12404.668536 kJ/mol
# Density = 2.137129 g / cm^3
# Si number density = 21.420048 Si / 1000 Ang^3
#
#
#
# Elastic Constant Matrix: (Units=GPa)
#
#
# Indices 1 2 3 4 5 6 
#
# 1 63.2264 25.5945 36.9625 0.0000 -2.0493 0.0000
# 2 25.5945 132.9748 37.8926 0.0000 -1.9560 0.0000
# 3 36.9625 37.8926 105.4551 0.0000 1.6548 0.0000
# 4 0.0000 0.0000 0.0000 33.0867 0.0000 -7.3760
# 5 -2.0493 -1.9560 1.6548 0.0000 40.7097 0.0000
# 6 0.0000 0.0000 0.0000 -7.3760 0.0000 36.9814
#
#
#
# Elastic Compliance Matrix: (Units=1/GPa)
#
#
# Indices 1 2 3 4 5 6 
#
# 1 0.020465 -0.002086 -0.006442 0.000000 0.001192 0.000000
# 2 -0.002086 0.008602 -0.002366 0.000000 0.000405 0.000000
# 3 -0.006442 -0.002366 0.012606 0.000000 -0.000950 0.000000
# 4 0.000000 0.000000 0.000000 0.031630 0.000000 0.006309
# 5 0.001192 0.000405 -0.000950 0.000000 0.024682 0.000000
# 6 0.000000 0.000000 0.000000 0.006309 0.000000 0.028299
#
#
# Mechanical properties :
#
#
# Convention : Reuss Voigt Hill
#
# Bulk Modulus (GPa) = 50.29029 55.83951 53.06490
# Shear Modulus (GPa) = 32.32034 35.56935 33.94485
#
# Velocity S-wave (km/s) = 3.88865 4.07942 3.98518
# Velocity P-wave (km/s) = 6.60993 6.95085 6.78253
#
# Compressibility (1/GPa) = 0.01988455
#
# Stress axis : x y z
#
# Youngs Moduli (GPa) = 48.86284 116.25356 79.32749
#
# Poissons Ratio (x) = 0.24247 0.51107
# Poissons Ratio (y) = 0.10191 0.18770
# Poissons Ratio (z) = 0.31480 0.27508
#
# Static dielectric constant tensor:
#      x y z
#    x 3.821560 0.000000 -0.089670 
#    y 0.000000 4.104090 0.000000 
#    z -0.089670 0.000000 3.859600 
# 
# 
# High freq. dielectric constant tensor:
#      x y z
#    x 1.840030 0.000000 -0.003790 
#    y 0.000000 1.856770 0.000000 
#    z -0.003790 0.000000 1.832120 
# 
# From -- ./inp_files/29240.got.cif
#   From: 2010.06.25/outbox.cif.g09.slc.cpg/sg9_15_cif.got.tgz:29240.got - 2010.06.27 21:40:51.
