data_PCOD8056126
_publ_section_title
;
Structure prediction by ZEFSAII (Michael W. Deem and Ramdas Pophale) SiO2 
 PCOD8056126
Probable space group: C C
;
_chemical_formula_sum "Si O2"
_cell_formula_units_Z 32
_cell_length_a 10.863795
_cell_length_b 16.841457
_cell_length_c 11.065220
_cell_angle_alpha 90.000000
_cell_angle_beta 132.138710
_cell_angle_gamma 90.000000
_cell_volume 1501.224826
_symmetry_space_group_name_H-M "C C"
_symmetry_group_IT_number 9
_symmetry_cell_setting 'monoclinic'
loop_
_space_group_symop_operation_xyz
x,y,z
x,-y,1/2+z
1/2+x,1/2+y,z
1/2+x,1/2-y,1/2+z
loop_
_atom_site_type_symbol
_atom_site_label
_atom_site_fract_x
_atom_site_fract_y
_atom_site_fract_z
Si Si1 0.166360 0.076199 0.772520
Si Si2 0.091855 0.160349 0.960471
Si Si3 0.292290 0.338092 0.680031
Si Si4 0.539901 0.712781 0.541009
Si Si5 0.451613 0.434066 0.583045
Si Si6 0.618688 0.968275 0.850140
Si Si7 0.025668 0.532556 0.038568
Si Si8 0.966900 0.697251 0.238070
O O1 0.072615 0.108786 0.827322
O O2 0.123254 0.128245 0.626572
O O3 0.361558 0.085770 0.925768
O O4 0.117820 0.984005 0.721343
O O5 0.018290 0.247720 0.885170
O O6 0.279694 0.165713 0.134370
O O7 0.973435 0.114654 0.975085
O O8 0.169838 0.268310 0.553217
O O9 0.420376 0.366040 0.662003
O O10 0.189792 0.414777 0.650775
O O11 0.382847 0.301836 0.854626
O O12 0.475147 0.755943 0.618054
O O13 0.305953 0.499801 0.479443
O O14 0.531263 0.011661 0.674725
O O15 0.601817 0.873768 0.818784
O O16 0.525423 0.980594 0.916686
#
# Coordination Sequence:
#
# PCOD8056126 Si02
#       8
#     4   4   4   4   4   4   4   4
#     4  11  24  39  68  98 130 177 224 277 330 409
#     4  11  25  42  65  99 131 174 224 274 334 403
#     4  11  23  43  65 100 136 176 227 280 344 403
#     4  11  22  39  71  96 129 176 232 277 328 407
#     4  11  28  42  66 100 140 177 217 284 350 403
#     4  11  24  43  69  97 138 180 228 280 340 407
#     4  11  23  42  68  98 136 179 230 281 340 402
#     4  11  23  42  70  96 130 175 230 273 334 406
#
# _framework density 21.315926999999999
#
# number of rings (size 3 to 8) (size 9 to 14) (size 15 to 20)
#    0.000    1.000    2.500    3.750    8.750    1.000 
#    0.000    2.500    0.000    0.000    0.000    0.000 
#    0.000    0.000    0.000    0.000    0.000    0.000 
#
# Total GULP energy -198366.417687 kJ/mol
# GULP energy per Si atom -12397.901105 kJ/mol
# Density = 2.126741 g / cm^3
# Si number density = 21.315927 Si / 1000 Ang^3
#
#
#
# Elastic Constant Matrix: (Units=GPa)
#
#
# Indices 1 2 3 4 5 6 
#
# 1 69.4020 45.4293 31.0816 0.0000 -17.0856 0.0000
# 2 45.4293 93.0545 37.6851 0.0000 -7.1183 0.0000
# 3 31.0816 37.6851 102.6469 0.0000 -6.2471 0.0000
# 4 0.0000 0.0000 0.0000 38.6519 0.0000 -2.1293
# 5 -17.0856 -7.1183 -6.2471 0.0000 35.8749 0.0000
# 6 0.0000 0.0000 0.0000 -2.1293 0.0000 32.0659
#
#
#
# Elastic Compliance Matrix: (Units=1/GPa)
#
#
# Indices 1 2 3 4 5 6 
#
# 1 0.024697 -0.010045 -0.003230 0.000000 0.009207 0.000000
# 2 -0.010045 0.016814 -0.003254 0.000000 -0.002014 0.000000
# 3 -0.003230 -0.003254 0.011908 0.000000 -0.000110 0.000000
# 4 0.000000 0.000000 0.000000 0.025967 0.000000 0.001724
# 5 0.009207 -0.002014 -0.000110 0.000000 0.031840 0.000000
# 6 0.000000 0.000000 0.000000 0.001724 0.000000 0.031300
#
#
# Mechanical properties :
#
#
# Convention : Reuss Voigt Hill
#
# Bulk Modulus (GPa) = 49.11276 54.83281 51.97279
# Shear Modulus (GPa) = 27.41653 31.37903 29.39778
#
# Velocity S-wave (km/s) = 3.59025 3.84095 3.71771
# Velocity P-wave (km/s) = 6.34641 6.74168 6.54703
#
# Compressibility (1/GPa) = 0.02036131
#
# Stress axis : x y z
#
# Youngs Moduli (GPa) = 40.49072 59.47455 83.97585
#
# Poissons Ratio (x) = 0.59740 0.27126
# Poissons Ratio (y) = 0.40672 0.27326
# Poissons Ratio (z) = 0.13080 0.19353
#
# Static dielectric constant tensor:
#      x y z
#    x 3.945260 0.000000 -0.164570 
#    y 0.000000 3.876510 0.000000 
#    z -0.164570 0.000000 3.983480 
# 
# 
# High freq. dielectric constant tensor:
#      x y z
#    x 1.830690 0.000000 0.002110 
#    y 0.000000 1.829490 0.000000 
#    z 0.002110 0.000000 1.844440 
# 
# From -- ./inp_files/7489.got.cif
#   From: 2010.06.25/outbox.cif.g09.slc.cpg/sg9_4_cif.got.tgz:7489.got - 2010.06.27 21:40:51.
