data_PCOD8056506
_publ_section_title
;
Structure prediction by ZEFSAII (Michael W. Deem and Ramdas Pophale) SiO2 
 PCOD8056506
Probable space group: C C
;
_chemical_formula_sum "Si O2"
_cell_formula_units_Z 32
_cell_length_a 16.819885
_cell_length_b 11.582757
_cell_length_c 14.467284
_cell_angle_alpha 90.000000
_cell_angle_beta 30.188375
_cell_angle_gamma 90.000000
_cell_volume 1417.280290
_symmetry_space_group_name_H-M "C C"
_symmetry_group_IT_number 9
_symmetry_cell_setting 'monoclinic'
loop_
_space_group_symop_operation_xyz
x,y,z
x,-y,1/2+z
1/2+x,1/2+y,z
1/2+x,1/2-y,1/2+z
loop_
_atom_site_type_symbol
_atom_site_label
_atom_site_fract_x
_atom_site_fract_y
_atom_site_fract_z
Si Si1 0.171980 0.954855 0.310500
Si Si2 0.482471 0.733248 0.806627
Si Si3 0.091336 0.014547 0.589222
Si Si4 0.531974 0.999062 0.991520
Si Si5 0.128043 0.638498 0.741512
Si Si6 0.993258 0.113847 0.346750
Si Si7 0.218391 0.701384 0.205450
Si Si8 0.942580 0.477672 0.783744
O O1 0.073396 0.002152 0.497284
O O2 0.093179 0.014200 0.299966
O O3 0.175086 0.816669 0.304794
O O4 0.355296 0.983986 0.132870
O O5 0.524515 0.639120 0.687247
O O6 0.643391 0.792897 0.678906
O O7 0.397251 0.843478 0.846952
O O8 0.399815 0.686822 0.986522
O O9 0.267541 0.974111 0.442498
O O10 0.982395 0.921047 0.750010
O O11 0.655876 0.903136 0.830271
O O12 0.581153 0.119803 0.895526
O O13 0.547562 0.006909 0.085866
O O14 0.085554 0.766829 0.757381
O O15 0.314875 0.622619 0.557320
O O16 0.035996 0.544130 0.770869
#
# Coordination Sequence:
#
# PCOD8056506 Si02
#       8
#     4   4   4   4   4   4   4   4
#     4  11  25  45  69 101 138 176 227 282 340 403
#     4  12  22  43  71  99 134 180 228 281 338 403
#     4  11  25  44  70 102 137 177 226 283 340 402
#     4  11  25  44  70 102 137 177 226 283 340 402
#     4  12  26  46  68  96 138 181 224 277 341 406
#     4  12  26  46  68  96 138 181 224 277 341 406
#     4  12  22  43  71  99 134 180 228 281 338 403
#     4  11  25  45  69 101 138 176 227 282 340 403
#
# _framework density 22.578455999999999
#
# number of rings (size 3 to 8) (size 9 to 14) (size 15 to 20)
#    0.000    0.500    5.000    3.000    3.500    1.000 
#    0.000    0.000    0.000    0.000    0.000    0.000 
#    0.000    0.000    0.000    0.000    0.000    0.000 
#
# Total GULP energy -198256.156150 kJ/mol
# GULP energy per Si atom -12391.009759 kJ/mol
# Density = 2.252707 g / cm^3
# Si number density = 22.578456 Si / 1000 Ang^3
#
#
#
# Elastic Constant Matrix: (Units=GPa)
#
#
# Indices 1 2 3 4 5 6 
#
# 1 51.4725 1.9294 28.2501 -0.0001 12.5715 0.0000
# 2 1.9294 99.1091 19.4236 -0.0001 19.5908 0.0001
# 3 28.2501 19.4236 84.3612 -0.0002 21.7943 0.0002
# 4 -0.0001 -0.0001 -0.0002 20.9403 0.0001 25.6144
# 5 12.5715 19.5908 21.7943 0.0001 43.3669 -0.0001
# 6 0.0000 0.0001 0.0002 25.6144 -0.0001 11.2442
#
#
#
# Elastic Compliance Matrix: (Units=1/GPa)
#
#
# Indices 1 2 3 4 5 6 
#
# 1 0.024519 0.001821 -0.007563 0.000000 -0.004130 0.000000
# 2 0.001821 0.011370 -0.002028 0.000000 -0.004645 0.000000
# 3 -0.007563 -0.002028 0.016147 0.000000 -0.005006 0.000000
# 4 0.000000 0.000000 0.000000 -0.026731 0.000000 0.060894
# 5 -0.004130 -0.004645 -0.005006 0.000000 0.028870 0.000000
# 6 0.000000 0.000000 0.000000 0.060894 0.000000 -0.049782
#
#
# Mechanical properties :
#
#
# Convention : Reuss Voigt Hill
#
# Bulk Modulus (GPa) = 27.39983 37.12764 32.26374
# Shear Modulus (GPa) = 155.77483 27.46628 91.62055
#
# Velocity S-wave (km/s) = 8.31519 3.49159 6.37706
# Velocity P-wave (km/s) = 10.21527 5.72141 8.27908
#
# Compressibility (1/GPa) = 0.03649658
#
# Stress axis : x y z
#
# Youngs Moduli (GPa) = 40.78440 87.95037 61.93241
#
# Poissons Ratio (x) = -0.16018 0.46841
# Poissons Ratio (y) = -0.07428 0.12558
# Poissons Ratio (z) = 0.30846 0.17833
#
# Static dielectric constant tensor:
#      x y z
#    x 4.044430 0.000000 0.028090 
#    y 0.000000 4.215270 0.000000 
#    z 0.028090 0.000000 4.356310 
# 
# 
# High freq. dielectric constant tensor:
#      x y z
#    x 1.879240 0.000000 -0.003280 
#    y 0.000000 1.892970 0.000000 
#    z -0.003280 0.000000 1.914780 
# 
# From -- ./inp_files/9091.got.cif
#   From: 2010.06.25/outbox.cif.g09.slc.cpg/sg9_5_cif.got.tgz:9091.got - 2010.06.27 21:40:51.
