data_PCOD8056565
_publ_section_title
;
Structure prediction by ZEFSAII (Michael W. Deem and Ramdas Pophale) SiO2 
 PCOD8056565
Probable space group: C C
;
_chemical_formula_sum "Si O2"
_cell_formula_units_Z 32
_cell_length_a 8.158453
_cell_length_b 17.417391
_cell_length_c 14.115602
_cell_angle_alpha 90.000000
_cell_angle_beta 140.985367
_cell_angle_gamma 90.000000
_cell_volume 1262.696743
_symmetry_space_group_name_H-M "C C"
_symmetry_group_IT_number 9
_symmetry_cell_setting 'monoclinic'
loop_
_space_group_symop_operation_xyz
x,y,z
x,-y,1/2+z
1/2+x,1/2+y,z
1/2+x,1/2-y,1/2+z
loop_
_atom_site_type_symbol
_atom_site_label
_atom_site_fract_x
_atom_site_fract_y
_atom_site_fract_z
Si Si1 0.929410 0.690474 0.120500
Si Si2 0.284259 0.687686 0.991169
Si Si3 0.946289 0.649428 0.493440
Si Si4 0.916816 0.949410 0.255403
Si Si5 0.919977 0.574862 0.277051
Si Si6 0.914959 0.032096 0.968284
Si Si7 0.402761 0.384002 0.734799
Si Si8 0.228153 0.178000 0.830132
O O1 0.820732 0.638362 0.155799
O O2 0.194116 0.648208 0.212029
O O3 0.980422 0.777085 0.177954
O O4 0.743533 0.700837 0.947659
O O5 0.427587 0.758178 0.001358
O O6 0.278355 0.614214 0.921571
O O7 0.981430 0.701311 0.883886
O O8 0.435446 0.669730 0.156827
O O9 0.955917 0.621382 0.389512
O O10 0.676063 0.615624 0.413719
O O11 0.180951 0.611399 0.656415
O O12 0.014143 0.970588 0.404392
O O13 0.154758 0.912715 0.300288
O O14 0.827312 0.029471 0.166480
O O15 0.193893 0.533182 0.381675
O O16 0.664180 0.518855 0.152148
#
# Coordination Sequence:
#
# PCOD8056565 Si02
#       8
#     4   4   4   4   4   4   4   4
#     4  11  25  49  75 108 153 204 258 324 384 473
#     4  11  27  51  75 111 156 203 260 331 390 472
#     4  12  29  47  81 110 155 206 263 322 400 469
#     4  12  29  45  81 116 153 208 262 320 399 473
#     4  12  28  51  77 114 161 205 264 325 397 471
#     4  12  28  48  78 114 163 203 264 326 400 473
#     4  11  25  52  75 111 155 201 259 325 389 469
#     4  11  27  47  78 110 154 204 264 321 399 466
#
# _framework density 25.342585
#
# number of rings (size 3 to 8) (size 9 to 14) (size 15 to 20)
#    0.000    0.500    5.000    0.750   14.000    0.000 
#    0.000    0.000    0.000    0.000    0.000    0.000 
#    0.000    0.000    0.000    0.000    0.000    0.000 
#
# Total GULP energy -198293.629108 kJ/mol
# GULP energy per Si atom -12393.351819 kJ/mol
# Density = 2.528490 g / cm^3
# Si number density = 25.342585 Si / 1000 Ang^3
#
#
#
# Elastic Constant Matrix: (Units=GPa)
#
#
# Indices 1 2 3 4 5 6 
#
# 1 41.0407 15.3258 21.5317 -0.0023 -13.8277 -0.0003
# 2 15.3258 129.5686 23.0063 -0.0007 -4.8448 0.0002
# 3 21.5317 23.0063 89.9226 0.0202 -3.6993 0.0057
# 4 -0.0023 -0.0007 0.0202 35.7894 0.0034 -0.4718
# 5 -13.8277 -4.8448 -3.6993 0.0034 31.8709 0.0008
# 6 -0.0003 0.0002 0.0057 -0.4718 0.0008 48.2846
#
#
#
# Elastic Compliance Matrix: (Units=1/GPa)
#
#
# Indices 1 2 3 4 5 6 
#
# 1 0.033272 -0.002222 -0.006851 0.000005 0.013303 0.000001
# 2 -0.002222 0.008265 -0.001578 0.000001 0.000109 0.000000
# 3 -0.006851 -0.001578 0.013095 -0.000008 -0.001692 -0.000002
# 4 0.000005 0.000001 -0.000008 0.027945 -0.000002 0.000273
# 5 0.013303 0.000109 -0.001692 -0.000002 0.036968 0.000000
# 6 0.000001 0.000000 -0.000002 0.000273 0.000000 0.020713
#
#
# Mechanical properties :
#
#
# Convention : Reuss Voigt Hill
#
# Bulk Modulus (GPa) = 30.00255 42.25104 36.12680
# Shear Modulus (GPa) = 28.95678 36.56684 32.76181
#
# Velocity S-wave (km/s) = 3.38392 3.80267 3.59939
# Velocity P-wave (km/s) = 5.20888 5.99905 5.61787
#
# Compressibility (1/GPa) = 0.03333050
#
# Stress axis : x y z
#
# Youngs Moduli (GPa) = 30.05513 120.99222 76.36310
#
# Poissons Ratio (x) = 0.26880 0.52319
# Poissons Ratio (y) = 0.06677 0.12051
# Poissons Ratio (z) = 0.20592 0.19094
#
# Static dielectric constant tensor:
#      x y z
#    x 4.722370 -0.000010 0.151630 
#    y -0.000010 4.693420 -0.000010 
#    z 0.151630 -0.000010 4.520910 
# 
# 
# High freq. dielectric constant tensor:
#      x y z
#    x 2.022330 0.000000 0.010470 
#    y 0.000000 2.016000 0.000000 
#    z 0.010470 0.000000 2.011260 
# 
# From -- ./inp_files/23694.got.cif
#   From: 2010.06.25/outbox.cif.g09.slc.cpg/sg9_12_cif.got.tgz:23694.got - 2010.06.27 21:40:51.
