data_PCOD8056934
_publ_section_title
;
Structure prediction by ZEFSAII (Michael W. Deem and Ramdas Pophale) SiO2 
 PCOD8056934
Probable space group: P 2/M
;
_chemical_formula_sum "Si O2"
_cell_formula_units_Z 32
_cell_length_a 17.714682
_cell_length_b 14.753944
_cell_length_c 11.313588
_cell_angle_alpha 90.000000
_cell_angle_beta 30.787748
_cell_angle_gamma 90.000000
_cell_volume 1513.534563
_symmetry_space_group_name_H-M "P 2/M"
_symmetry_group_IT_number 10
_symmetry_cell_setting 'monoclinic'
loop_
_space_group_symop_operation_xyz
x,y,z
-x,y,-z
-x,-y,-z
x,-y,z
loop_
_atom_site_type_symbol
_atom_site_label
_atom_site_fract_x
_atom_site_fract_y
_atom_site_fract_z
Si Si1 0.844516 0.402300 0.770816
Si Si2 0.936357 0.369198 0.913985
Si Si3 0.248839 0.101750 0.851481
Si Si4 0.319580 0.797203 0.527165
Si Si5 0.232945 0.596327 0.629398
Si Si6 0.952945 0.816014 0.255988
Si Si7 0.159300 0.778710 0.340336
Si Si8 0.608922 0.105395 0.089989
O O1 0.761753 0.500000 0.861889
O O2 0.867890 0.389938 0.878879
O O3 0.768127 0.314544 0.811820
O O4 0.000000 0.408269 0.500000
O O5 0.105787 0.401965 0.699897
O O6 0.937096 0.262134 0.939230
O O7 0.835840 0.414000 0.147971
O O8 0.317364 0.172163 0.666118
O O9 0.329825 0.126285 0.863122
O O10 0.288677 0.000000 0.756511
O O11 0.070570 0.103270 0.114863
O O12 0.331089 0.687756 0.493410
O O13 0.169901 0.840398 0.674923
O O14 0.457845 0.840205 0.273397
O O15 0.321114 0.500000 0.490799
O O16 0.866037 0.776276 0.485856
O O17 0.000000 0.799197 0.500000
O O18 0.270802 0.860395 0.165747
O O19 0.580847 0.000000 0.104190
#
# Coordination Sequence:
#
# PCOD8056934 Si02
#       8
#     4   4   4   4   4   4   4   4
#     4  10  18  29  53  87 119 153 195 242 290 343
#     4  10  16  32  53  87 126 159 197 246 291 352
#     4  11  22  40  66  90 118 156 199 247 305 367
#     4  11  24  39  60  89 130 157 199 246 303 365
#     4  10  20  32  55  86 122 165 199 237 297 360
#     4  11  21  38  61  95 123 158 197 256 303 345
#     4  11  21  40  63  86 123 155 208 256 299 350
#     4  11  25  44  66  88 116 163 204 246 311 373
#
# _framework density 21.142562000000002
#
# number of rings (size 3 to 8) (size 9 to 14) (size 15 to 20)
#    0.000    1.375    5.000    2.625    0.000    3.750 
#    0.000    1.250    0.000    1.500    0.000    2.625 
#    0.000    0.000    0.000    0.000    0.000    0.000 
#
# Total GULP energy -396501.517321 kJ/mol
# GULP energy per Si atom -12390.672416 kJ/mol
# Density = 2.109444 g / cm^3
# Si number density = 21.142562 Si / 1000 Ang^3
#
#
#
# Elastic Constant Matrix: (Units=GPa)
#
#
# Indices 1 2 3 4 5 6 
#
# 1 27.0528 7.1070 -4.3291 0.0000 7.6415 0.0000
# 2 7.1070 125.1613 35.5132 0.0000 -12.6250 0.0000
# 3 -4.3291 35.5132 58.8582 0.0000 -8.6190 0.0000
# 4 0.0000 0.0000 0.0000 169.1810 0.0000 1.0562
# 5 7.6415 -12.6250 -8.6190 0.0000 27.2744 0.0000
# 6 0.0000 0.0000 0.0000 1.0562 0.0000 17.8871
#
#
#
# Elastic Compliance Matrix: (Units=1/GPa)
#
#
# Indices 1 2 3 4 5 6 
#
# 1 0.042562 -0.004909 0.004208 0.000000 -0.012867 0.000000
# 2 -0.004909 0.010407 -0.006012 0.000000 0.004293 0.000000
# 3 0.004208 -0.006012 0.021334 0.000000 0.002780 0.000000
# 4 0.000000 0.000000 0.000000 0.005913 0.000000 -0.000349
# 5 -0.012867 0.004293 0.002780 0.000000 0.043135 0.000000
# 6 0.000000 0.000000 0.000000 -0.000349 0.000000 0.055927
#
#
# Mechanical properties :
#
#
# Convention : Reuss Voigt Hill
#
# Bulk Modulus (GPa) = 16.42618 31.96161 24.19390
# Shear Modulus (GPa) = 23.47465 54.38725 38.93095
#
# Velocity S-wave (km/s) = 3.33574 5.07739 4.29576
# Velocity P-wave (km/s) = 4.75629 7.03727 6.00606
#
# Compressibility (1/GPa) = 0.06087842
#
# Stress axis : x y z
#
# Youngs Moduli (GPa) = 23.49507 96.08709 46.87367
#
# Poissons Ratio (x) = 0.47166 -0.19725
# Poissons Ratio (y) = 0.11533 0.28180
# Poissons Ratio (z) = -0.09887 0.57766
#
# Static dielectric constant tensor:
#      x y z
#    x 3.766570 0.000000 0.142690 
#    y 0.000000 4.437840 0.000000 
#    z 0.142690 0.000000 3.530780 
# 
# 
# High freq. dielectric constant tensor:
#      x y z
#    x 1.816860 0.000000 0.020070 
#    y 0.000000 1.844110 0.000000 
#    z 0.020070 0.000000 1.794110 
# 
# From -- ./inp_files/54031.got.cif
#   From: 2010.06.25/outbox.cif.g09.slc.cpg/sg10_28_cif.got.tgz:54031.got - 2010.06.27 22:07:45.
