data_PCOD8056193
_publ_section_title
;
Structure prediction by ZEFSAII (Michael W. Deem and Ramdas Pophale) SiO2 
 PCOD8056193
Probable space group: C C
;
_chemical_formula_sum "Si O2"
_cell_formula_units_Z 28
_cell_length_a 10.093998
_cell_length_b 9.824560
_cell_length_c 23.682197
_cell_angle_alpha 90.000000
_cell_angle_beta 33.933286
_cell_angle_gamma 90.000000
_cell_volume 1311.019995
_symmetry_space_group_name_H-M "C C"
_symmetry_group_IT_number 9
_symmetry_cell_setting 'monoclinic'
loop_
_space_group_symop_operation_xyz
x,y,z
x,-y,1/2+z
1/2+x,1/2+y,z
1/2+x,1/2-y,1/2+z
loop_
_atom_site_type_symbol
_atom_site_label
_atom_site_fract_x
_atom_site_fract_y
_atom_site_fract_z
Si Si1 0.309500 0.038838 0.300430
Si Si2 0.761202 0.021974 0.695656
Si Si3 0.583545 0.826297 0.967063
Si Si4 0.541097 0.164492 0.355354
Si Si5 0.530274 0.327843 0.194013
Si Si6 0.948376 0.057406 0.840641
Si Si7 0.146884 0.031108 0.970657
O O1 0.451566 0.179442 0.242851
O O2 0.503571 0.936232 0.260901
O O3 0.110436 0.036070 0.420669
O O4 0.196545 0.991094 0.281603
O O5 0.866478 0.139601 0.698095
O O6 0.744847 0.881522 0.738698
O O7 0.911439 0.001687 0.587022
O O8 0.640420 0.799704 0.881201
O O9 0.688073 0.693291 0.959954
O O10 0.730407 0.959158 0.934888
O O11 0.304293 0.838851 0.078789
O O12 0.392719 0.292534 0.383906
O O13 0.369964 0.034627 0.423610
O O14 0.485123 0.436707 0.260152
#
# Coordination Sequence:
#
# PCOD8056193 Si02
#       7
#     4   4   4   4   4   4   4
#     4  11  26  43  73 101 145 181 235 293 348 419
#     4  11  23  45  73  98 141 189 231 286 361 412
#     4  12  25  43  73 106 138 183 242 288 354 417
#     4  11  23  44  68  99 143 184 232 287 349 422
#     4  12  25  46  71 107 142 182 238 298 348 427
#     4  12  26  44  70 104 141 185 235 295 345 423
#     4  11  22  45  72  97 138 192 223 291 355 416
#
# _framework density 21.357417000000002
#
# number of rings (size 3 to 8) (size 9 to 14) (size 15 to 20)
#    0.000    0.571    8.571    0.000    4.000    2.286 
#    0.000    0.000    0.000    0.000    0.000    0.000 
#    0.000    0.000    0.000    0.000    0.000    0.000 
#
# Total GULP energy -173502.872481 kJ/mol
# GULP energy per Si atom -12393.062320 kJ/mol
# Density = 2.130881 g / cm^3
# Si number density = 21.357417 Si / 1000 Ang^3
#
#
#
# Elastic Constant Matrix: (Units=GPa)
#
#
# Indices 1 2 3 4 5 6 
#
# 1 118.7924 39.5732 48.9086 -0.0004 -8.4984 0.0002
# 2 39.5732 98.6453 44.4537 -0.0005 -11.1487 0.0002
# 3 48.9086 44.4537 130.0430 -0.0012 5.3679 0.0005
# 4 -0.0004 -0.0005 -0.0012 29.3664 0.0006 -4.7342
# 5 -8.4984 -11.1487 5.3679 0.0006 31.0648 -0.0002
# 6 0.0002 0.0002 0.0005 -4.7342 -0.0002 39.8433
#
#
#
# Elastic Compliance Matrix: (Units=1/GPa)
#
#
# Indices 1 2 3 4 5 6 
#
# 1 0.010816 -0.002556 -0.003302 0.000000 0.002612 0.000000
# 2 -0.002556 0.013427 -0.003826 0.000000 0.004781 0.000000
# 3 -0.003302 -0.003826 0.010408 0.000000 -0.004075 0.000000
# 4 0.000000 0.000000 0.000000 0.034718 -0.000001 0.004125
# 5 0.002612 0.004781 -0.004075 -0.000001 0.035325 0.000000
# 6 0.000000 0.000000 0.000000 0.004125 0.000000 0.025589
#
#
# Mechanical properties :
#
#
# Convention : Reuss Voigt Hill
#
# Bulk Modulus (GPa) = 65.43149 68.15019 66.79084
# Shear Modulus (GPa) = 32.31148 34.35789 33.33469
#
# Velocity S-wave (km/s) = 3.89381 4.01522 3.95498
# Velocity P-wave (km/s) = 7.13573 7.31264 7.22473
#
# Compressibility (1/GPa) = 0.01528316
#
# Stress axis : x y z
#
# Youngs Moduli (GPa) = 92.45761 74.47633 96.08256
#
# Poissons Ratio (x) = 0.19034 0.31726
# Poissons Ratio (y) = 0.23629 0.36762
# Poissons Ratio (z) = 0.30529 0.28495
#
# Static dielectric constant tensor:
#      x y z
#    x 3.910030 0.000000 0.185950 
#    y 0.000000 3.898630 0.000000 
#    z 0.185950 0.000000 4.018930 
# 
# 
# High freq. dielectric constant tensor:
#      x y z
#    x 1.842730 0.000000 0.013690 
#    y 0.000000 1.833340 0.000000 
#    z 0.013690 0.000000 1.836900 
# 
# From -- ./inp_files/20842.got.cif
#   From: 2010.06.25/outbox.cif.g09.slc.cpg/sg9_11_cif.got.tgz:20842.got - 2010.06.27 21:40:51.
