data_PCOD8056504
_publ_section_title
;
Structure prediction by ZEFSAII (Michael W. Deem and Ramdas Pophale) SiO2 
 PCOD8056504
Probable space group: C C
;
_chemical_formula_sum "Si O2"
_cell_formula_units_Z 16
_cell_length_a 7.004655
_cell_length_b 19.823347
_cell_length_c 4.960534
_cell_angle_alpha 90.000000
_cell_angle_beta 111.928755
_cell_angle_gamma 90.000000
_cell_volume 638.963160
_symmetry_space_group_name_H-M "C C"
_symmetry_group_IT_number 9
_symmetry_cell_setting 'monoclinic'
loop_
_space_group_symop_operation_xyz
x,y,z
x,-y,1/2+z
1/2+x,1/2+y,z
1/2+x,1/2-y,1/2+z
loop_
_atom_site_type_symbol
_atom_site_label
_atom_site_fract_x
_atom_site_fract_y
_atom_site_fract_z
Si Si1 0.747790 0.630068 0.798660
Si Si2 0.126541 0.456437 0.550521
Si Si3 0.413867 0.197667 0.389828
Si Si4 0.336000 0.651575 0.828575
O O1 0.752035 0.659975 0.499781
O O2 0.512987 0.613125 0.752436
O O3 0.885647 0.562873 0.893063
O O4 0.843842 0.687315 0.046147
O O5 0.172267 0.480120 0.878024
O O6 0.272953 0.393338 0.553456
O O7 0.425531 0.276393 0.473968
O O8 0.636805 0.163347 0.537711
#
# Coordination Sequence:
#
# PCOD8056504 Si02
#       4
#     4   4   4   4
#     4  11  26  44  70 100 140 184 221 289 341 405
#     4  11  26  47  67 100 139 184 241 276 325 417
#     4  11  25  41  68 110 139 169 230 279 354 417
#     4  11  25  44  75 102 142 181 220 292 352 409
#
# _framework density 25.040564
#
# number of rings (size 3 to 8) (size 9 to 14) (size 15 to 20)
#    0.000    1.000    2.500    3.000    7.000   10.000 
#    0.000    0.000    0.000    0.000    0.000    0.000 
#    0.000    0.000    0.000    0.000    0.000    0.000 
#
# Total GULP energy -99240.270852 kJ/mol
# GULP energy per Si atom -12405.033857 kJ/mol
# Density = 2.498357 g / cm^3
# Si number density = 25.040564 Si / 1000 Ang^3
#
#
#
# Elastic Constant Matrix: (Units=GPa)
#
#
# Indices 1 2 3 4 5 6 
#
# 1 186.8954 28.7650 5.8015 0.0000 -5.0922 0.0000
# 2 28.7650 92.0971 0.7213 0.0000 -6.1601 0.0000
# 3 5.8015 0.7213 49.9210 0.0000 -14.3410 0.0000
# 4 0.0000 0.0000 0.0000 30.1220 0.0000 -4.5002
# 5 -5.0922 -6.1601 -14.3410 0.0000 26.6235 0.0000
# 6 0.0000 0.0000 0.0000 -4.5002 0.0000 40.4076
#
#
#
# Elastic Compliance Matrix: (Units=1/GPa)
#
#
# Indices 1 2 3 4 5 6 
#
# 1 0.005644 -0.001732 -0.000516 0.000000 0.000401 0.000000
# 2 -0.001732 0.011580 0.000838 0.000000 0.002800 0.000000
# 3 -0.000516 0.000838 0.023788 0.000000 0.012909 0.000000
# 4 0.000000 0.000000 0.000000 0.033760 0.000000 0.003760
# 5 0.000401 0.002800 0.012909 0.000000 0.045239 0.000000
# 6 0.000000 0.000000 0.000000 0.003760 0.000000 0.025167
#
#
# Mechanical properties :
#
#
# Convention : Reuss Voigt Hill
#
# Bulk Modulus (GPa) = 26.18299 44.38768 35.28533
# Shear Modulus (GPa) = 31.10868 39.00567 35.05718
#
# Velocity S-wave (km/s) = 3.52850 3.95105 3.74574
# Velocity P-wave (km/s) = 5.20378 6.21122 5.72968
#
# Compressibility (1/GPa) = 0.03819273
#
# Stress axis : x y z
#
# Youngs Moduli (GPa) = 177.17651 86.35766 42.03831
#
# Poissons Ratio (x) = 0.14957 0.02168
# Poissons Ratio (y) = 0.30687 -0.03524
# Poissons Ratio (z) = 0.09137 -0.07239
#
# Static dielectric constant tensor:
#      x y z
#    x 4.839670 0.000000 -0.161630 
#    y 0.000000 4.381370 0.000000 
#    z -0.161630 0.000000 4.072090 
# 
# 
# High freq. dielectric constant tensor:
#      x y z
#    x 2.013760 0.000000 -0.007700 
#    y 0.000000 1.989440 0.000000 
#    z -0.007700 0.000000 1.985690 
# 
# From -- ./inp_files/131.got.cif
#   From: 2010.06.25/outbox.cif.g09.slc.cpg/sg9_1_cif.got.tgz:131.got - 2010.06.27 21:40:51.
