data_PCOD8056248
_publ_section_title
;
Structure prediction by ZEFSAII (Michael W. Deem and Ramdas Pophale) SiO2 
 PCOD8056248
Probable space group: C C
;
_chemical_formula_sum "Si O2"
_cell_formula_units_Z 32
_cell_length_a 13.192874
_cell_length_b 8.638101
_cell_length_c 15.989132
_cell_angle_alpha 90.000000
_cell_angle_beta 129.018141
_cell_angle_gamma 90.000000
_cell_volume 1415.708332
_symmetry_space_group_name_H-M "C C"
_symmetry_group_IT_number 9
_symmetry_cell_setting 'monoclinic'
loop_
_space_group_symop_operation_xyz
x,y,z
x,-y,1/2+z
1/2+x,1/2+y,z
1/2+x,1/2-y,1/2+z
loop_
_atom_site_type_symbol
_atom_site_label
_atom_site_fract_x
_atom_site_fract_y
_atom_site_fract_z
Si Si1 0.191220 0.548342 0.491620
Si Si2 0.687001 0.595798 0.244146
Si Si3 0.428643 0.923597 0.426531
Si Si4 0.722365 0.073220 0.825689
Si Si5 0.963805 0.096185 0.388265
Si Si6 0.942306 0.543674 0.618988
Si Si7 0.426909 0.378967 0.680349
Si Si8 0.200053 0.883836 0.559554
O O1 0.240694 0.491431 0.427873
O O2 0.296935 0.482809 0.612323
O O3 0.181989 0.733109 0.492817
O O4 0.049104 0.482996 0.435261
O O5 0.795870 0.463704 0.307952
O O6 0.718028 0.740751 0.320925
O O7 0.547670 0.526071 0.201502
O O8 0.674171 0.656932 0.142618
O O9 0.441510 0.738273 0.440910
O O10 0.420423 0.004958 0.511220
O O11 0.590676 0.001187 0.718773
O O12 0.847712 0.025970 0.837148
O O13 0.962098 0.164011 0.293775
O O14 0.101999 0.016404 0.477448
O O15 0.909104 0.722878 0.617574
O O16 0.847701 0.441612 0.627064
#
# Coordination Sequence:
#
# PCOD8056248 Si02
#       8
#     4   4   4   4   4   4   4   4
#     4  12  24  42  67  95 130 174 218 271 328 391
#     4  11  23  43  67  94 128 173 220 270 327 392
#     4  12  24  42  67  95 130 174 218 271 328 391
#     4  11  24  43  65  95 129 169 221 274 327 391
#     4  12  25  42  65  98 134 172 216 271 331 396
#     4  11  24  43  65  95 129 169 221 274 327 391
#     4  11  23  43  67  94 128 173 220 270 327 392
#     4  12  25  42  65  98 134 172 216 271 331 396
#
# _framework density 22.603524
#
# number of rings (size 3 to 8) (size 9 to 14) (size 15 to 20)
#    0.000    0.500    0.000   10.500    0.000    3.000 
#    0.000    0.000    0.000    0.000    0.000    0.000 
#    0.000    0.000    0.000    0.000    0.000    0.000 
#
# Total GULP energy -198516.430950 kJ/mol
# GULP energy per Si atom -12407.276934 kJ/mol
# Density = 2.255208 g / cm^3
# Si number density = 22.603524 Si / 1000 Ang^3
#
#
#
# Elastic Constant Matrix: (Units=GPa)
#
#
# Indices 1 2 3 4 5 6 
#
# 1 98.9382 6.2867 12.7725 0.0000 6.9305 0.0000
# 2 6.2867 101.8478 27.2954 0.0000 2.8808 0.0000
# 3 12.7725 27.2954 92.3110 0.0000 -9.5770 0.0000
# 4 0.0000 0.0000 0.0000 31.1300 0.0000 5.5699
# 5 6.9305 2.8808 -9.5770 0.0000 52.1566 0.0000
# 6 0.0000 0.0000 0.0000 5.5699 0.0000 38.2464
#
#
#
# Elastic Compliance Matrix: (Units=1/GPa)
#
#
# Indices 1 2 3 4 5 6 
#
# 1 0.010437 -0.000178 -0.001564 0.000000 -0.001664 0.000000
# 2 -0.000178 0.010740 -0.003272 0.000000 -0.001170 0.000000
# 3 -0.001564 -0.003272 0.012291 0.000000 0.002646 0.000000
# 4 0.000000 0.000000 0.000000 0.032983 0.000000 -0.004803
# 5 -0.001664 -0.001170 0.002646 0.000000 0.019945 0.000000
# 6 0.000000 0.000000 0.000000 -0.004803 0.000000 0.026846
#
#
# Mechanical properties :
#
#
# Convention : Reuss Voigt Hill
#
# Bulk Modulus (GPa) = 42.66362 42.86735 42.76548
# Shear Modulus (GPa) = 38.14361 40.75608 39.44984
#
# Velocity S-wave (km/s) = 4.11238 4.25088 4.18221
# Velocity P-wave (km/s) = 6.43931 6.56501 6.50246
#
# Compressibility (1/GPa) = 0.02343917
#
# Stress axis : x y z
#
# Youngs Moduli (GPa) = 95.81168 93.11267 81.35734
#
# Poissons Ratio (x) = 0.01657 0.12726
# Poissons Ratio (y) = 0.01705 0.26623
# Poissons Ratio (z) = 0.14986 0.30470
#
# Static dielectric constant tensor:
#      x y z
#    x 4.357920 0.000000 0.142270 
#    y 0.000000 3.930700 0.000000 
#    z 0.142270 0.000000 4.050180 
# 
# 
# High freq. dielectric constant tensor:
#      x y z
#    x 1.915490 0.000000 0.004690 
#    y 0.000000 1.883150 0.000000 
#    z 0.004690 0.000000 1.895400 
# 
# From -- ./inp_files/24425.got.cif
#   From: 2010.06.25/outbox.cif.g09.slc.cpg/sg9_13_cif.got.tgz:24425.got - 2010.06.27 21:40:51.
