data_PCOD8056264
_publ_section_title
;
Structure prediction by ZEFSAII (Michael W. Deem and Ramdas Pophale) SiO2 
 PCOD8056264
Probable space group: C C
;
_chemical_formula_sum "Si O2"
_cell_formula_units_Z 32
_cell_length_a 12.400393
_cell_length_b 8.651612
_cell_length_c 15.419292
_cell_angle_alpha 90.000000
_cell_angle_beta 57.857301
_cell_angle_gamma 90.000000
_cell_volume 1400.682303
_symmetry_space_group_name_H-M "C C"
_symmetry_group_IT_number 9
_symmetry_cell_setting 'monoclinic'
loop_
_space_group_symop_operation_xyz
x,y,z
x,-y,1/2+z
1/2+x,1/2+y,z
1/2+x,1/2-y,1/2+z
loop_
_atom_site_type_symbol
_atom_site_label
_atom_site_fract_x
_atom_site_fract_y
_atom_site_fract_z
Si Si1 0.965360 0.877201 0.225290
Si Si2 0.100575 0.565585 0.129017
Si Si3 0.333023 0.083061 0.746661
Si Si4 0.773691 0.074984 0.216741
Si Si5 0.730070 0.221802 0.936011
Si Si6 0.666727 0.389890 0.690688
Si Si7 0.579171 0.856532 0.353234
Si Si8 0.792987 0.545556 0.961812
O O1 0.864344 0.806199 0.333960
O O2 0.044268 0.738016 0.152500
O O3 0.902352 0.974669 0.173388
O O4 0.053733 0.987176 0.244995
O O5 0.209787 0.541792 0.152463
O O6 0.985995 0.442587 0.187058
O O7 0.180825 0.565954 0.005575
O O8 0.304471 0.246493 0.715827
O O9 0.269409 0.085975 0.870181
O O10 0.278826 0.948269 0.707376
O O11 0.669024 0.008293 0.329129
O O12 0.619796 0.262130 0.912264
O O13 0.755349 0.365963 0.989891
O O14 0.610513 0.226890 0.748040
O O15 0.711666 0.364963 0.570769
O O16 0.437538 0.916259 0.422253
#
# Coordination Sequence:
#
# PCOD8056264 Si02
#       8
#     4   4   4   4   4   4   4   4
#     4  11  23  44  69 100 146 185 234 302 355 427
#     4  12  23  47  73 102 146 188 242 300 359 428
#     4  12  23  46  76 104 148 192 239 305 360 431
#     4  11  24  45  70 104 145 186 236 304 359 421
#     4  11  23  44  73 105 139 197 237 291 375 427
#     4  12  25  47  74 109 147 192 245 301 367 440
#     4  11  24  46  71 103 151 188 240 311 354 435
#     4  12  23  45  78 105 142 196 243 292 375 429
#
# _framework density 22.846007
#
# number of rings (size 3 to 8) (size 9 to 14) (size 15 to 20)
#    0.000    0.500    6.250    2.250    0.000    0.000 
#   11.250    1.250    0.000    0.000    0.000    0.000 
#    0.000    0.000    0.000    0.000    0.000    0.000 
#
# Total GULP energy -198264.601090 kJ/mol
# GULP energy per Si atom -12391.537568 kJ/mol
# Density = 2.279401 g / cm^3
# Si number density = 22.846007 Si / 1000 Ang^3
#
#
#
# Elastic Constant Matrix: (Units=GPa)
#
#
# Indices 1 2 3 4 5 6 
#
# 1 121.5798 26.3501 30.9553 0.0000 10.2299 0.0000
# 2 26.3501 76.6458 -0.1614 0.0000 -1.9695 0.0000
# 3 30.9553 -0.1614 79.0115 0.0000 17.5393 0.0000
# 4 0.0000 0.0000 0.0000 25.3553 0.0000 4.3073
# 5 10.2299 -1.9695 17.5393 0.0000 24.3088 0.0000
# 6 0.0000 0.0000 0.0000 4.3073 0.0000 35.4103
#
#
#
# Elastic Compliance Matrix: (Units=1/GPa)
#
#
# Indices 1 2 3 4 5 6 
#
# 1 0.010045 -0.003512 -0.003502 0.000000 -0.001985 0.000000
# 2 -0.003512 0.014306 0.000976 0.000000 0.001933 0.000000
# 3 -0.003502 0.000976 0.016296 0.000000 -0.010205 0.000000
# 4 0.000000 0.000000 0.000000 0.040272 0.000000 -0.004899
# 5 -0.001985 0.001933 -0.010205 0.000000 0.049492 0.000000
# 6 0.000000 0.000000 0.000000 -0.004899 0.000000 0.028836
#
#
# Mechanical properties :
#
#
# Convention : Reuss Voigt Hill
#
# Bulk Modulus (GPa) = 35.00008 43.50278 39.25143
# Shear Modulus (GPa) = 27.64790 31.68777 29.66783
#
# Velocity S-wave (km/s) = 3.48255 3.72831 3.60752
# Velocity P-wave (km/s) = 5.61463 6.13325 5.87966
#
# Compressibility (1/GPa) = 0.02857137
#
# Stress axis : x y z
#
# Youngs Moduli (GPa) = 99.55428 69.90063 61.36593
#
# Poissons Ratio (x) = 0.24547 0.21490
# Poissons Ratio (y) = 0.34960 -0.05989
# Poissons Ratio (z) = 0.34863 -0.06822
#
# Static dielectric constant tensor:
#      x y z
#    x 4.361510 0.000000 0.089420 
#    y 0.000000 4.218120 0.000000 
#    z 0.089420 0.000000 4.129650 
# 
# 
# High freq. dielectric constant tensor:
#      x y z
#    x 1.919060 0.000000 0.004350 
#    y 0.000000 1.897450 0.000000 
#    z 0.004350 0.000000 1.897630 
# 
# From -- ./inp_files/24194.got.cif
#   From: 2010.06.25/outbox.cif.g09.slc.cpg/sg9_13_cif.got.tgz:24194.got - 2010.06.27 21:40:51.
