data_PCOD8056782
_publ_section_title
;
Structure prediction by ZEFSAII (Michael W. Deem and Ramdas Pophale) SiO2 
 PCOD8056782
Probable space group: C C
;
_chemical_formula_sum "Si O2"
_cell_formula_units_Z 28
_cell_length_a 10.528168
_cell_length_b 12.406313
_cell_length_c 9.304754
_cell_angle_alpha 90.000000
_cell_angle_beta 51.587489
_cell_angle_gamma 90.000000
_cell_volume 952.294942
_symmetry_space_group_name_H-M "C C"
_symmetry_group_IT_number 9
_symmetry_cell_setting 'monoclinic'
loop_
_space_group_symop_operation_xyz
x,y,z
x,-y,1/2+z
1/2+x,1/2+y,z
1/2+x,1/2-y,1/2+z
loop_
_atom_site_type_symbol
_atom_site_label
_atom_site_fract_x
_atom_site_fract_y
_atom_site_fract_z
Si Si1 0.840740 0.417965 0.235520
Si Si2 0.565184 0.505289 0.740191
Si Si3 0.639209 0.673604 0.480264
Si Si4 0.522790 0.968418 0.365025
Si Si5 0.355844 0.679764 0.287368
Si Si6 0.245055 0.616494 0.070985
Si Si7 0.776399 0.206302 0.653570
O O1 0.666488 0.473742 0.316655
O O2 0.863162 0.423753 0.394452
O O3 0.870497 0.290612 0.186968
O O4 0.979768 0.469601 0.038907
O O5 0.674538 0.563423 0.540588
O O6 0.521383 0.380684 0.728747
O O7 0.395900 0.571066 0.874659
O O8 0.687066 0.767992 0.556990
O O9 0.750793 0.679657 0.256314
O O10 0.455231 0.665949 0.557675
O O11 0.595201 0.034796 0.177692
O O12 0.641630 0.869456 0.326678
O O13 0.278756 0.604952 0.220087
O O14 0.242136 0.703785 0.506878
#
# Coordination Sequence:
#
# PCOD8056782 Si02
#       7
#     4   4   4   4   4   4   4
#     4  12  31  56  89 134 180 239 312 380 463 557
#     4  12  29  56  89 134 182 240 314 378 467 558
#     4  12  27  51  88 130 171 242 298 373 458 562
#     4  12  28  57  84 128 180 230 299 380 457 549
#     4  12  29  58  91 128 183 240 302 383 464 545
#     4  12  27  53  90 123 180 238 299 374 469 542
#     4  12  27  55  87 131 180 239 304 380 468 547
#
# _framework density 29.402656
#
# number of rings (size 3 to 8) (size 9 to 14) (size 15 to 20)
#    0.000    0.000    4.286    3.429    6.000    2.286 
#    7.714    0.000    0.000    0.000    0.000    0.000 
#    0.000    0.000    0.000    0.000    0.000    0.000 
#
# Total GULP energy -173455.032594 kJ/mol
# GULP energy per Si atom -12389.645185 kJ/mol
# Density = 2.933573 g / cm^3
# Si number density = 29.402656 Si / 1000 Ang^3
#
#
#
# Elastic Constant Matrix: (Units=GPa)
#
#
# Indices 1 2 3 4 5 6 
#
# 1 132.0792 20.3262 0.0693 0.0000 10.6776 0.0000
# 2 20.3262 129.4122 20.3924 0.0000 4.7862 0.0000
# 3 0.0693 20.3924 81.3567 0.0000 31.6266 0.0000
# 4 0.0000 0.0000 0.0000 50.9173 0.0000 -10.5129
# 5 10.6776 4.7862 31.6266 0.0000 54.0377 0.0000
# 6 0.0000 0.0000 0.0000 -10.5129 0.0000 47.5089
#
#
#
# Elastic Compliance Matrix: (Units=1/GPa)
#
#
# Indices 1 2 3 4 5 6 
#
# 1 0.007951 -0.001353 0.001161 0.000000 -0.002130 0.000000
# 2 -0.001353 0.008291 -0.002454 0.000000 0.000969 0.000000
# 3 0.001161 -0.002454 0.016713 0.000000 -0.009793 0.000000
# 4 0.000000 0.000000 0.000000 0.020580 0.000000 0.004554
# 5 -0.002130 0.000969 -0.009793 0.000000 0.024573 0.000000
# 6 0.000000 0.000000 0.000000 0.004554 0.000000 0.022056
#
#
# Mechanical properties :
#
#
# Convention : Reuss Voigt Hill
#
# Bulk Modulus (GPa) = 36.15030 47.15821 41.65426
# Shear Modulus (GPa) = 43.60115 50.63014 47.11564
#
# Velocity S-wave (km/s) = 3.85502 4.15415 4.00738
# Velocity P-wave (km/s) = 5.66891 6.25163 5.96738
#
# Compressibility (1/GPa) = 0.02766229
#
# Stress axis : x y z
#
# Youngs Moduli (GPa) = 125.76958 120.61938 59.83482
#
# Poissons Ratio (x) = 0.16319 -0.06944
# Poissons Ratio (y) = 0.17016 0.14681
# Poissons Ratio (z) = -0.14596 0.29595
#
# Static dielectric constant tensor:
#      x y z
#    x 5.488590 0.000000 0.225930 
#    y 0.000000 5.510680 0.000000 
#    z 0.225930 0.000000 5.362670 
# 
# 
# High freq. dielectric constant tensor:
#      x y z
#    x 2.219970 0.000000 0.021950 
#    y 0.000000 2.205980 0.000000 
#    z 0.021950 0.000000 2.202040 
# 
# From -- ./inp_files/16363.got.cif
#   From: 2010.06.25/outbox.cif.g09.slc.cpg/sg9_9_cif.got.tgz:16363.got - 2010.06.27 21:40:51.
