data_PCOD8056042
_publ_section_title
;
Structure prediction by ZEFSAII (Michael W. Deem and Ramdas Pophale) SiO2 
 PCOD8056042
Probable space group: C C
;
_chemical_formula_sum "Si O2"
_cell_formula_units_Z 32
_cell_length_a 11.460198
_cell_length_b 19.182140
_cell_length_c 14.672583
_cell_angle_alpha 90.000000
_cell_angle_beta 150.146700
_cell_angle_gamma 90.000000
_cell_volume 1605.587812
_symmetry_space_group_name_H-M "C C"
_symmetry_group_IT_number 9
_symmetry_cell_setting 'monoclinic'
loop_
_space_group_symop_operation_xyz
x,y,z
x,-y,1/2+z
1/2+x,1/2+y,z
1/2+x,1/2-y,1/2+z
loop_
_atom_site_type_symbol
_atom_site_label
_atom_site_fract_x
_atom_site_fract_y
_atom_site_fract_z
Si Si1 0.188090 0.660813 0.946970
Si Si2 0.579153 0.433072 0.297887
Si Si3 0.027318 0.896170 0.060544
Si Si4 0.741130 0.688199 0.552667
Si Si5 0.058258 0.456949 0.688929
Si Si6 0.444498 0.025588 0.794506
Si Si7 0.138926 0.099484 0.311800
Si Si8 0.613250 0.060542 0.567006
O O1 0.026096 0.674616 0.747018
O O2 0.063369 0.596471 0.914855
O O3 0.185105 0.731153 0.002762
O O4 0.458690 0.635365 0.116941
O O5 0.558473 0.390113 0.190267
O O6 0.578697 0.517280 0.279912
O O7 0.372304 0.407879 0.226704
O O8 0.822064 0.412769 0.511129
O O9 0.133885 0.829895 0.079418
O O10 0.164614 0.965726 0.118073
O O11 0.754281 0.902903 0.852667
O O12 0.616445 0.639375 0.393025
O O13 0.136081 0.495551 0.650005
O O14 0.009511 0.515411 0.732907
O O15 0.537570 0.961384 0.914385
O O16 0.407536 0.112569 0.460795
#
# Coordination Sequence:
#
# PCOD8056042 Si02
#       8
#     4   4   4   4   4   4   4   4
#     4  11  21  39  58  84 121 153 198 252 292 351
#     4  11  21  37  56  88 125 155 189 247 301 362
#     4  11  21  35  55  88 121 156 196 239 302 363
#     4  11  24  37  61  90 116 159 203 242 304 353
#     4  11  21  35  57  85 128 157 192 244 304 359
#     4  11  21  36  59  86 123 156 195 244 303 356
#     4  11  21  38  57  87 123 155 197 248 298 355
#     4  11  20  35  57  88 121 157 190 246 302 357
#
# _framework density 19.930395999999998
#
# number of rings (size 3 to 8) (size 9 to 14) (size 15 to 20)
#    0.000    1.000    6.250    4.500    0.000    0.000 
#    2.250    0.000    0.000    0.000    6.500    0.000 
#    0.000    0.000    0.000    0.000    0.000    0.000 
#
# Total GULP energy -198225.462479 kJ/mol
# GULP energy per Si atom -12389.091405 kJ/mol
# Density = 1.988503 g / cm^3
# Si number density = 19.930396 Si / 1000 Ang^3
#
#
#
# Elastic Constant Matrix: (Units=GPa)
#
#
# Indices 1 2 3 4 5 6 
#
# 1 98.3042 12.6117 32.4177 0.0014 10.4977 0.0018
# 2 12.6117 51.3277 24.9241 -0.0005 -2.7960 0.0018
# 3 32.4177 24.9241 143.9018 -0.0023 14.2609 0.0033
# 4 0.0014 -0.0005 -0.0023 24.8185 0.0004 -2.3939
# 5 10.4977 -2.7960 14.2609 0.0004 35.4504 0.0021
# 6 0.0018 0.0018 0.0033 -2.3939 0.0021 15.8490
#
#
#
# Elastic Compliance Matrix: (Units=1/GPa)
#
#
# Indices 1 2 3 4 5 6 
#
# 1 0.011362 -0.001998 -0.001942 -0.000001 -0.002741 0.000000
# 2 -0.001998 0.021998 -0.003740 0.000000 0.003831 -0.000002
# 3 -0.001942 -0.003740 0.008339 0.000001 -0.003075 -0.000001
# 4 -0.000001 0.000000 0.000001 0.040888 -0.000001 0.006176
# 5 -0.002741 0.003831 -0.003075 -0.000001 0.030559 -0.000004
# 6 0.000000 -0.000002 -0.000001 0.006176 -0.000004 0.064028
#
#
# Mechanical properties :
#
#
# Convention : Reuss Voigt Hill
#
# Bulk Modulus (GPa) = 37.96517 48.16006 43.06261
# Shear Modulus (GPa) = 24.83683 30.12895 27.48289
#
# Velocity S-wave (km/s) = 3.53396 3.89229 3.71744
# Velocity P-wave (km/s) = 5.97846 6.66457 6.33082
#
# Compressibility (1/GPa) = 0.02633993
#
# Stress axis : x y z
#
# Youngs Moduli (GPa) = 88.01341 45.45819 119.91768
#
# Poissons Ratio (x) = 0.09083 0.23286
# Poissons Ratio (y) = 0.17586 0.44845
# Poissons Ratio (z) = 0.17091 0.17000
#
# Static dielectric constant tensor:
#      x y z
#    x 3.586660 0.000000 0.205360 
#    y 0.000000 3.172720 0.000000 
#    z 0.205360 0.000000 4.219290 
# 
# 
# High freq. dielectric constant tensor:
#      x y z
#    x 1.759530 0.000000 0.006740 
#    y 0.000000 1.718610 0.000000 
#    z 0.006740 0.000000 1.811330 
# 
# From -- ./inp_files/25055.got.cif
#   From: 2010.06.25/outbox.cif.g09.slc.cpg/sg9_13_cif.got.tgz:25055.got - 2010.06.27 21:40:51.
