data_PCOD8056124
_publ_section_title
;
Structure prediction by ZEFSAII (Michael W. Deem and Ramdas Pophale) SiO2 
 PCOD8056124
Probable space group: C C
;
_chemical_formula_sum "Si O2"
_cell_formula_units_Z 32
_cell_length_a 18.849733
_cell_length_b 8.874511
_cell_length_c 24.573041
_cell_angle_alpha 90.000000
_cell_angle_beta 158.759016
_cell_angle_gamma 90.000000
_cell_volume 1489.246315
_symmetry_space_group_name_H-M "C C"
_symmetry_group_IT_number 9
_symmetry_cell_setting 'monoclinic'
loop_
_space_group_symop_operation_xyz
x,y,z
x,-y,1/2+z
1/2+x,1/2+y,z
1/2+x,1/2-y,1/2+z
loop_
_atom_site_type_symbol
_atom_site_label
_atom_site_fract_x
_atom_site_fract_y
_atom_site_fract_z
Si Si1 0.326990 0.753022 0.547090
Si Si2 0.442485 0.426568 0.543847
Si Si3 0.152495 0.780644 0.785042
Si Si4 0.117251 0.475601 0.405710
Si Si5 0.348588 0.942060 0.119472
Si Si6 0.710766 0.393812 0.353688
Si Si7 0.547908 0.720499 0.549778
Si Si8 0.987446 0.781058 0.883214
O O1 0.167835 0.644380 0.463410
O O2 0.533061 0.662121 0.687329
O O3 0.216384 0.801622 0.413463
O O4 0.395822 0.896107 0.629564
O O5 0.345135 0.323639 0.427127
O O6 0.624680 0.338962 0.702658
O O7 0.282768 0.447511 0.477667
O O8 0.514231 0.580389 0.566694
O O9 0.962312 0.688957 0.668509
O O10 0.183432 0.928219 0.845384
O O11 0.910381 0.450333 0.227272
O O12 0.108011 0.370910 0.452591
O O13 0.115874 0.913791 0.947651
O O14 0.918198 0.364327 0.473536
O O15 0.769079 0.777974 0.705262
O O16 0.480535 0.681080 0.441467
#
# Coordination Sequence:
#
# PCOD8056124 Si02
#       8
#     4   4   4   4   4   4   4   4
#     4  12  22  40  73 100 141 174 240 299 346 408
#     4  11  22  43  67 102 140 177 240 291 342 413
#     4  11  22  39  71 101 139 175 239 299 341 408
#     4  11  22  44  66 106 139 177 235 297 338 421
#     4  11  23  42  67 107 132 181 233 290 352 418
#     4  12  22  40  65 107 134 185 230 290 353 410
#     4  12  26  44  68 100 144 187 231 285 356 426
#     4  12  25  44  71  95 145 188 226 283 356 426
#
# _framework density 21.487378
#
# number of rings (size 3 to 8) (size 9 to 14) (size 15 to 20)
#    0.000    0.500    6.250    3.000    1.750    2.000 
#    0.000    3.750    0.000    0.000    0.000    0.000 
#    0.000    0.000    0.000    0.000    0.000    0.000 
#
# Total GULP energy -198261.683517 kJ/mol
# GULP energy per Si atom -12391.355220 kJ/mol
# Density = 2.143847 g / cm^3
# Si number density = 21.487378 Si / 1000 Ang^3
#
#
#
# Elastic Constant Matrix: (Units=GPa)
#
#
# Indices 1 2 3 4 5 6 
#
# 1 60.9080 23.0130 7.1942 -0.0038 -4.1107 0.0007
# 2 23.0130 119.9551 35.5881 0.0081 11.8594 0.0044
# 3 7.1942 35.5881 90.0909 -0.0037 2.2802 0.0004
# 4 -0.0038 0.0081 -0.0037 43.2739 0.0013 -6.9777
# 5 -4.1107 11.8594 2.2802 0.0013 34.3978 -0.0008
# 6 0.0007 0.0044 0.0004 -6.9777 -0.0008 29.6108
#
#
#
# Elastic Compliance Matrix: (Units=1/GPa)
#
#
# Indices 1 2 3 4 5 6 
#
# 1 0.018094 -0.003806 -0.000029 0.000002 0.003477 0.000001
# 2 -0.003806 0.010566 -0.003773 -0.000003 -0.003848 -0.000002
# 3 -0.000029 -0.003773 0.012581 0.000002 0.000463 0.000001
# 4 0.000002 -0.000003 0.000002 0.024021 0.000000 0.005661
# 5 0.003477 -0.003848 0.000463 0.000000 0.030783 0.000001
# 6 0.000001 -0.000002 0.000001 0.005661 0.000001 0.035105
#
#
# Mechanical properties :
#
#
# Convention : Reuss Voigt Hill
#
# Bulk Modulus (GPa) = 38.42461 44.72718 41.57589
# Shear Modulus (GPa) = 32.24913 35.13375 33.69144
#
# Velocity S-wave (km/s) = 3.87827 4.04801 3.96405
# Velocity P-wave (km/s) = 6.16246 6.53523 6.35158
#
# Compressibility (1/GPa) = 0.02602499
#
# Stress axis : x y z
#
# Youngs Moduli (GPa) = 55.26551 94.63995 79.48625
#
# Poissons Ratio (x) = 0.36024 0.00233
# Poissons Ratio (y) = 0.21036 0.29987
# Poissons Ratio (z) = 0.00162 0.35704
#
# Static dielectric constant tensor:
#      x y z
#    x 3.701750 -0.000010 -0.171270 
#    y -0.000010 4.119780 -0.000010 
#    z -0.171270 -0.000010 4.238990 
# 
# 
# High freq. dielectric constant tensor:
#      x y z
#    x 1.808300 0.000000 -0.016610 
#    y 0.000000 1.850780 0.000000 
#    z -0.016610 0.000000 1.860660 
# 
# From -- ./inp_files/31200.got.cif
#   From: 2010.06.25/outbox.cif.g09.slc.cpg/sg9_16_cif.got.tgz:31200.got - 2010.06.27 21:40:51.
