data_PCOD8056176
_publ_section_title
;
Structure prediction by ZEFSAII (Michael W. Deem and Ramdas Pophale) SiO2 
 PCOD8056176
Probable space group: C C
;
_chemical_formula_sum "Si O2"
_cell_formula_units_Z 28
_cell_length_a 9.100931
_cell_length_b 18.690163
_cell_length_c 9.256955
_cell_angle_alpha 90.000000
_cell_angle_beta 137.455901
_cell_angle_gamma 90.000000
_cell_volume 1064.669746
_symmetry_space_group_name_H-M "C C"
_symmetry_group_IT_number 9
_symmetry_cell_setting 'monoclinic'
loop_
_space_group_symop_operation_xyz
x,y,z
x,-y,1/2+z
1/2+x,1/2+y,z
1/2+x,1/2-y,1/2+z
loop_
_atom_site_type_symbol
_atom_site_label
_atom_site_fract_x
_atom_site_fract_y
_atom_site_fract_z
Si Si1 0.833110 0.116925 0.419810
Si Si2 0.894224 0.142712 0.145480
Si Si3 0.399311 0.045469 0.153850
Si Si4 0.782361 0.694149 0.273479
Si Si5 0.624898 0.501099 0.216180
Si Si6 0.603332 0.899032 0.196094
Si Si7 0.983031 0.842604 0.319439
O O1 0.845340 0.158511 0.277347
O O2 0.583009 0.107301 0.288493
O O3 0.966584 0.163838 0.634434
O O4 0.946191 0.039093 0.489410
O O5 0.053673 0.203749 0.194958
O O6 0.666389 0.139645 0.893910
O O7 0.019186 0.067488 0.220720
O O8 0.326954 0.026803 0.264139
O O9 0.498965 0.974891 0.150764
O O10 0.199533 0.058211 0.894030
O O11 0.888869 0.768611 0.313886
O O12 0.941188 0.649126 0.487198
O O13 0.720831 0.650519 0.075139
O O14 0.828767 0.906658 0.267536
#
# Coordination Sequence:
#
# PCOD8056176 Si02
#       7
#     4   4   4   4   4   4   4
#     4  12  27  45  69 114 158 189 246 317 376 454
#     4  11  25  44  72 106 153 188 245 312 374 447
#     4  12  25  39  71 107 150 198 243 298 388 450
#     4  11  23  48  76 101 137 200 262 298 367 439
#     4  12  24  41  67 110 149 197 239 304 379 454
#     4  11  22  44  72 103 140 191 248 301 369 446
#     4  11  26  43  77 101 143 199 253 312 359 438
#
# _framework density 26.299234999999999
#
# number of rings (size 3 to 8) (size 9 to 14) (size 15 to 20)
#    0.000    0.571    5.714    1.714    6.000    0.000 
#    0.000    2.857    0.000    0.000    0.000    0.000 
#    0.000    0.000    0.000    0.000    0.000    0.000 
#
# Total GULP energy -173592.811200 kJ/mol
# GULP energy per Si atom -12399.486514 kJ/mol
# Density = 2.623938 g / cm^3
# Si number density = 26.299235 Si / 1000 Ang^3
#
#
#
# Elastic Constant Matrix: (Units=GPa)
#
#
# Indices 1 2 3 4 5 6 
#
# 1 115.7994 11.8714 73.9369 0.0000 -23.2497 0.0000
# 2 11.8714 56.6370 30.9738 0.0000 -8.2947 0.0000
# 3 73.9369 30.9738 231.1378 0.0000 -26.0436 0.0000
# 4 0.0000 0.0000 0.0000 34.8383 0.0000 -3.6465
# 5 -23.2497 -8.2947 -26.0436 0.0000 58.3924 0.0000
# 6 0.0000 0.0000 0.0000 -3.6465 0.0000 17.9392
#
#
#
# Elastic Compliance Matrix: (Units=1/GPa)
#
#
# Indices 1 2 3 4 5 6 
#
# 1 0.011347 -0.000146 -0.003268 0.000000 0.003040 0.000000
# 2 -0.000146 0.019207 -0.002344 0.000000 0.001625 0.000000
# 3 -0.003268 -0.002344 0.005793 0.000000 0.000950 0.000000
# 4 0.000000 0.000000 0.000000 0.029328 0.000000 0.005962
# 5 0.003040 0.001625 0.000950 0.000000 0.018990 0.000000
# 6 0.000000 0.000000 0.000000 0.005962 0.000000 0.056956
#
#
# Mechanical properties :
#
#
# Convention : Reuss Voigt Hill
#
# Bulk Modulus (GPa) = 40.27198 70.79316 55.53257
# Shear Modulus (GPa) = 30.97629 41.35344 36.16487
#
# Velocity S-wave (km/s) = 3.43569 3.96968 3.71230
# Velocity P-wave (km/s) = 5.57538 6.92733 6.28780
#
# Compressibility (1/GPa) = 0.02483116
#
# Stress axis : x y z
#
# Youngs Moduli (GPa) = 88.12628 52.06493 172.62778
#
# Poissons Ratio (x) = 0.00761 0.56410
# Poissons Ratio (y) = 0.01288 0.40464
# Poissons Ratio (z) = 0.28797 0.12204
#
# Static dielectric constant tensor:
#      x y z
#    x 4.981070 0.000000 0.300750 
#    y 0.000000 4.852960 0.000000 
#    z 0.300750 0.000000 5.759070 
# 
# 
# High freq. dielectric constant tensor:
#      x y z
#    x 2.044000 0.000000 0.002480 
#    y 0.000000 2.045670 0.000000 
#    z 0.002480 0.000000 2.101550 
# 
# From -- ./inp_files/5884.got.cif
#   From: 2010.06.25/outbox.cif.g09.slc.cpg/sg9_3_cif.got.tgz:5884.got - 2010.06.27 21:40:51.
