data_PCOD8056200
_publ_section_title
;
Structure prediction by ZEFSAII (Michael W. Deem and Ramdas Pophale) SiO2 
 PCOD8056200
Probable space group: C C
;
_chemical_formula_sum "Si O2"
_cell_formula_units_Z 28
_cell_length_a 9.584829
_cell_length_b 17.914833
_cell_length_c 9.967395
_cell_angle_alpha 90.000000
_cell_angle_beta 135.654963
_cell_angle_gamma 90.000000
_cell_volume 1196.305455
_symmetry_space_group_name_H-M "C C"
_symmetry_group_IT_number 9
_symmetry_cell_setting 'monoclinic'
loop_
_space_group_symop_operation_xyz
x,y,z
x,-y,1/2+z
1/2+x,1/2+y,z
1/2+x,1/2-y,1/2+z
loop_
_atom_site_type_symbol
_atom_site_label
_atom_site_fract_x
_atom_site_fract_y
_atom_site_fract_z
Si Si1 0.240850 0.661194 0.359290
Si Si2 0.975198 0.885444 0.509197
Si Si3 0.285653 0.702973 0.107549
Si Si4 0.841916 0.341776 0.278339
Si Si5 0.348196 0.007639 0.307863
Si Si6 0.613168 0.998694 0.742022
Si Si7 0.547806 0.300889 0.286866
O O1 0.357615 0.697472 0.312864
O O2 0.200643 0.581246 0.264796
O O3 0.386020 0.657102 0.585508
O O4 0.044158 0.709512 0.273126
O O5 0.946714 0.829598 0.615121
O O6 0.168970 0.934931 0.666510
O O7 0.017958 0.830285 0.415372
O O8 0.780923 0.936907 0.352428
O O9 0.268520 0.794214 0.095533
O O10 0.081195 0.659587 0.942238
O O11 0.763155 0.426204 0.211444
O O12 0.766201 0.317380 0.374744
O O13 0.532912 0.019227 0.335345
O O14 0.433045 0.017816 0.516682
#
# Coordination Sequence:
#
# PCOD8056200 Si02
#       7
#     4   4   4   4   4   4   4
#     4  11  23  44  73 104 149 194 250 300 372 461
#     4  12  28  49  74 116 149 194 254 319 373 440
#     4  11  24  46  75 105 150 195 252 304 373 454
#     4  11  22  46  70 108 142 201 243 299 376 458
#     4  12  27  45  79 103 153 194 249 308 382 439
#     4  12  25  49  71 110 148 196 245 312 375 448
#     4  11  25  43  76 108 147 196 251 310 375 448
#
# _framework density 23.405393
#
# number of rings (size 3 to 8) (size 9 to 14) (size 15 to 20)
#    0.000    0.571    2.857    6.000    2.000    6.857 
#    2.571    0.000    0.000    0.000    0.000    0.000 
#    0.000    0.000    0.000    0.000    0.000    0.000 
#
# Total GULP energy -173435.202051 kJ/mol
# GULP energy per Si atom -12388.228718 kJ/mol
# Density = 2.335212 g / cm^3
# Si number density = 23.405393 Si / 1000 Ang^3
#
#
#
# Elastic Constant Matrix: (Units=GPa)
#
#
# Indices 1 2 3 4 5 6 
#
# 1 145.2902 54.5292 42.8823 0.0000 -16.3535 0.0000
# 2 54.5292 117.2091 46.1148 0.0000 -12.6043 0.0000
# 3 42.8823 46.1148 109.0932 0.0000 -13.9687 0.0000
# 4 0.0000 0.0000 0.0000 31.5677 0.0000 1.3635
# 5 -16.3535 -12.6043 -13.9687 0.0000 32.3383 0.0000
# 6 0.0000 0.0000 0.0000 1.3635 0.0000 39.8372
#
#
#
# Elastic Compliance Matrix: (Units=1/GPa)
#
#
# Indices 1 2 3 4 5 6 
#
# 1 0.008885 -0.003141 -0.001849 0.000000 0.002471 0.000000
# 2 -0.003141 0.011500 -0.003447 0.000000 0.001405 0.000000
# 3 -0.001849 -0.003447 0.011706 0.000000 0.002778 0.000000
# 4 0.000000 0.000000 0.000000 0.031725 0.000000 -0.001086
# 5 0.002471 0.001405 0.002778 0.000000 0.033920 0.000000
# 6 0.000000 0.000000 0.000000 -0.001086 0.000000 0.025139
#
#
# Mechanical properties :
#
#
# Convention : Reuss Voigt Hill
#
# Bulk Modulus (GPa) = 65.70722 73.18279 69.44500
# Shear Modulus (GPa) = 34.52544 35.95304 35.23924
#
# Velocity S-wave (km/s) = 3.84488 3.92356 3.88442
# Velocity P-wave (km/s) = 6.91703 7.20147 7.06068
#
# Compressibility (1/GPa) = 0.01521903
#
# Stress axis : x y z
#
# Youngs Moduli (GPa) = 112.54642 86.95582 85.42744
#
# Poissons Ratio (x) = 0.27310 0.15793
# Poissons Ratio (y) = 0.35347 0.29445
# Poissons Ratio (z) = 0.20806 0.29971
#
# Static dielectric constant tensor:
#      x y z
#    x 4.257430 0.000000 -0.122600 
#    y 0.000000 4.771680 0.000000 
#    z -0.122600 0.000000 4.014100 
# 
# 
# High freq. dielectric constant tensor:
#      x y z
#    x 1.921280 0.000000 -0.001610 
#    y 0.000000 1.945520 0.000000 
#    z -0.001610 0.000000 1.919130 
# 
# From -- ./inp_files/5844.got.cif
#   From: 2010.06.25/outbox.cif.g09.slc.cpg/sg9_3_cif.got.tgz:5844.got - 2010.06.27 21:40:51.
