data_PCOD8056598
_publ_section_title
;
Structure prediction by ZEFSAII (Michael W. Deem and Ramdas Pophale) SiO2 
 PCOD8056598
Probable space group: C C
;
_chemical_formula_sum "Si O2"
_cell_formula_units_Z 32
_cell_length_a 13.130921
_cell_length_b 14.113436
_cell_length_c 9.156420
_cell_angle_alpha 90.000000
_cell_angle_beta 56.668657
_cell_angle_gamma 90.000000
_cell_volume 1417.763178
_symmetry_space_group_name_H-M "C C"
_symmetry_group_IT_number 9
_symmetry_cell_setting 'monoclinic'
loop_
_space_group_symop_operation_xyz
x,y,z
x,-y,1/2+z
1/2+x,1/2+y,z
1/2+x,1/2-y,1/2+z
loop_
_atom_site_type_symbol
_atom_site_label
_atom_site_fract_x
_atom_site_fract_y
_atom_site_fract_z
Si Si1 0.692460 0.377298 0.343770
Si Si2 0.841800 0.045877 0.418174
Si Si3 0.638400 0.174031 0.467365
Si Si4 0.664477 0.124199 0.134604
Si Si5 0.514578 0.450556 0.048718
Si Si6 0.429113 0.902073 0.316943
Si Si7 0.717143 0.673519 0.511162
Si Si8 0.432130 0.899553 0.658538
O O1 0.616767 0.281938 0.431587
O O2 0.617509 0.471185 0.437928
O O3 0.802906 0.357966 0.366103
O O4 0.737564 0.389840 0.140764
O O5 0.773210 0.141159 0.416779
O O6 0.937152 0.077511 0.467180
O O7 0.739836 0.971159 0.549702
O O8 0.917656 0.993689 0.234938
O O9 0.612245 0.113478 0.340711
O O10 0.542873 0.159599 0.672495
O O11 0.558744 0.148022 0.102061
O O12 0.741983 0.219613 0.048858
O O13 0.582752 0.356107 0.054896
O O14 0.426856 0.910299 0.491072
O O15 0.439222 0.002236 0.234638
O O16 0.815302 0.657411 0.307360
#
# Coordination Sequence:
#
# PCOD8056598 Si02
#       8
#     4   4   4   4   4   4   4   4
#     4  11  26  47  73 103 140 188 233 287 357 420
#     4  12  26  45  71 103 143 186 235 289 352 419
#     4  11  26  47  73 104 141 185 234 291 351 423
#     4  11  26  47  73 103 140 188 233 287 357 420
#     4  12  26  45  71 103 143 186 235 289 352 419
#     4  12  26  44  71 101 138 181 234 288 348 412
#     4  11  26  47  73 104 141 185 234 291 351 423
#     4  12  26  44  71 101 138 181 234 288 348 412
#
# _framework density 22.570765000000002
#
# number of rings (size 3 to 8) (size 9 to 14) (size 15 to 20)
#    0.000    0.500    5.000    2.250    7.000    2.000 
#    0.000    0.000    0.000    0.000    0.000    0.000 
#    0.000    0.000    0.000    0.000    0.000    0.000 
#
# Total GULP energy -198332.315314 kJ/mol
# GULP energy per Si atom -12395.769707 kJ/mol
# Density = 2.251939 g / cm^3
# Si number density = 22.570765 Si / 1000 Ang^3
#
#
#
# Elastic Constant Matrix: (Units=GPa)
#
#
# Indices 1 2 3 4 5 6 
#
# 1 146.5133 7.2603 35.2120 0.0000 17.8957 0.0000
# 2 7.2603 58.8242 17.5411 0.0000 13.9926 0.0000
# 3 35.2120 17.5411 139.4569 0.0000 15.2759 0.0000
# 4 0.0000 0.0000 0.0000 23.4741 0.0000 5.0273
# 5 17.8957 13.9926 15.2759 0.0000 36.6026 0.0000
# 6 0.0000 0.0000 0.0000 5.0273 0.0000 30.6355
#
#
#
# Elastic Compliance Matrix: (Units=1/GPa)
#
#
# Indices 1 2 3 4 5 6 
#
# 1 0.007581 0.000292 -0.001606 0.000000 -0.003148 0.000000
# 2 0.000292 0.019078 -0.001738 0.000000 -0.006711 0.000000
# 3 -0.001606 -0.001738 0.008002 0.000000 -0.001890 0.000000
# 4 0.000000 0.000000 0.000000 0.044152 0.000000 -0.007245
# 5 -0.003148 -0.006711 -0.001890 0.000000 0.032214 0.000000
# 6 0.000000 0.000000 0.000000 -0.007245 0.000000 0.033831
#
#
# Mechanical properties :
#
#
# Convention : Reuss Voigt Hill
#
# Bulk Modulus (GPa) = 35.01807 51.64681 43.33244
# Shear Modulus (GPa) = 31.15618 37.12783 34.14201
#
# Velocity S-wave (km/s) = 3.71937 4.06020 3.89352
# Velocity P-wave (km/s) = 5.83039 6.70165 6.28115
#
# Compressibility (1/GPa) = 0.02855668
#
# Stress axis : x y z
#
# Youngs Moduli (GPa) = 131.90234 52.41523 124.97082
#
# Poissons Ratio (x) = -0.01531 0.20072
# Poissons Ratio (y) = -0.03852 0.21725
# Poissons Ratio (z) = 0.21186 0.09112
#
# Static dielectric constant tensor:
#      x y z
#    x 4.140100 0.000000 0.203340 
#    y 0.000000 3.904550 0.000000 
#    z 0.203340 0.000000 4.335260 
# 
# 
# High freq. dielectric constant tensor:
#      x y z
#    x 1.899960 0.000000 0.006810 
#    y 0.000000 1.888400 0.000000 
#    z 0.006810 0.000000 1.901260 
# 
# From -- ./inp_files/7530.got.cif
#   From: 2010.06.25/outbox.cif.g09.slc.cpg/sg9_4_cif.got.tgz:7530.got - 2010.06.27 21:40:51.
