data_PCOD8056982
_publ_section_title
;
Structure prediction by ZEFSAII (Michael W. Deem and Ramdas Pophale) SiO2 
 PCOD8056982
Probable space group: P 2/M
;
_chemical_formula_sum "Si O2"
_cell_formula_units_Z 32
_cell_length_a 13.810017
_cell_length_b 8.736599
_cell_length_c 18.636749
_cell_angle_alpha 90.000000
_cell_angle_beta 68.446000
_cell_angle_gamma 90.000000
_cell_volume 2091.333135
_symmetry_space_group_name_H-M "P 2/M"
_symmetry_group_IT_number 10
_symmetry_cell_setting 'monoclinic'
loop_
_space_group_symop_operation_xyz
x,y,z
-x,y,-z
-x,-y,-z
x,-y,z
loop_
_atom_site_type_symbol
_atom_site_label
_atom_site_fract_x
_atom_site_fract_y
_atom_site_fract_z
Si Si1 0.631207 0.318405 0.030655
Si Si2 0.766330 0.821780 0.738651
Si Si3 0.844129 0.318380 0.037670
Si Si4 0.402998 0.319109 0.118484
Si Si5 0.013101 0.179913 0.891120
Si Si6 0.939462 0.320691 0.419548
Si Si7 0.989293 0.179558 0.733565
Si Si8 0.856710 0.177871 0.568637
O O1 0.633971 0.500000 0.026627
O O2 0.728175 0.258401 0.050972
O O3 0.522710 0.263143 0.095860
O O4 0.639405 0.256701 0.946522
O O5 0.665532 0.740872 0.797679
O O6 0.871902 0.762508 0.748668
O O7 0.768222 0.786145 0.652372
O O8 0.755447 0.000000 0.756581
O O9 0.848840 0.500000 0.047600
O O10 0.879648 0.233462 0.100724
O O11 0.918409 0.272778 0.951699
O O12 0.398602 0.500000 0.120661
O O13 0.019227 0.222563 0.806159
O O14 0.995199 0.000000 0.908113
O O15 0.959779 0.500000 0.419509
O O16 0.841894 0.273131 0.497971
O O17 0.927359 0.268487 0.340062
O O18 0.035624 0.224189 0.423449
O O19 0.999143 0.000000 0.715735
O O20 0.858078 0.000000 0.549000
#
# Coordination Sequence:
#
# PCOD8056982 Si02
#       8
#     4   4   4   4   4   4   4   4
#     4   8  16  29  43  59  79 106 136 165 203 245
#     4   9  17  27  39  58  81 106 136 167 198 233
#     4  10  18  29  44  60  81 107 135 169 208 243
#     4   9  16  28  44  59  78 105 137 169 199 237
#     4  10  19  30  43  60  81 106 139 171 200 241
#     4  10  17  24  38  59  79 100 136 175 198 228
#     4   9  18  30  41  54  80 114 138 162 202 246
#     4   9  16  27  39  51  78 114 138 158 196 245
#
# _framework density 15.301246000000001
#
# number of rings (size 3 to 8) (size 9 to 14) (size 15 to 20)
#    0.000    2.750    0.000    6.000    0.000    3.500 
#    0.000    3.125    0.000    0.000    0.000    0.000 
#    0.000    1.000    0.000   11.250    0.000    5.250 
#
# Total GULP energy -396553.673288 kJ/mol
# GULP energy per Si atom -12392.302290 kJ/mol
# Density = 1.526642 g / cm^3
# Si number density = 15.301246 Si / 1000 Ang^3
#
#
#
# Elastic Constant Matrix: (Units=GPa)
#
#
# Indices 1 2 3 4 5 6 
#
# 1 83.6823 16.3458 47.7944 0.0000 -0.5722 0.0000
# 2 16.3458 29.1825 33.1153 0.0000 -0.3749 0.0000
# 3 47.7944 33.1153 130.9534 0.0000 -1.0773 0.0000
# 4 0.0000 0.0000 0.0000 25.8540 0.0000 -2.0967
# 5 -0.5722 -0.3749 -1.0773 0.0000 18.0897 0.0000
# 6 0.0000 0.0000 0.0000 -2.0967 0.0000 8.2835
#
#
#
# Elastic Compliance Matrix: (Units=1/GPa)
#
#
# Indices 1 2 3 4 5 6 
#
# 1 0.015299 -0.003131 -0.004791 0.000000 0.000134 0.000000
# 2 -0.003131 0.048700 -0.011170 0.000000 0.000245 0.000000
# 3 -0.004791 -0.011170 0.012212 0.000000 0.000344 0.000000
# 4 0.000000 0.000000 0.000000 0.039489 0.000000 0.009995
# 5 0.000134 0.000245 0.000344 0.000000 0.055310 0.000000
# 6 0.000000 0.000000 0.000000 0.009995 0.000000 0.123252
#
#
# Mechanical properties :
#
#
# Convention : Reuss Voigt Hill
#
# Bulk Modulus (GPa) = 26.29739 48.70322 37.50031
# Shear Modulus (GPa) = 14.48764 20.21628 17.35196
#
# Velocity S-wave (km/s) = 3.08039 3.63880 3.37118
# Velocity P-wave (km/s) = 5.46585 7.03940 6.30193
#
# Compressibility (1/GPa) = 0.03802658
#
# Stress axis : x y z
#
# Youngs Moduli (GPa) = 65.36528 20.53393 81.88422
#
# Poissons Ratio (x) = 0.06429 0.39228
# Poissons Ratio (y) = 0.20466 0.91468
# Poissons Ratio (z) = 0.31315 0.22937
#
# Static dielectric constant tensor:
#      x y z
#    x 2.819700 0.000000 -0.011290 
#    y 0.000000 2.828270 0.000000 
#    z -0.011290 0.000000 3.489000 
# 
# 
# High freq. dielectric constant tensor:
#      x y z
#    x 1.536970 0.000000 -0.001000 
#    y 0.000000 1.585490 0.000000 
#    z -0.001000 0.000000 1.594050 
# 
# From -- ./inp_files/77392.got.cif
#   From: 2010.06.25/outbox.cif.g09.slc.cpg/sg10_39_cif.got.tgz:77392.got - 2010.06.27 22:07:45.
