data_PCOD8056989
_publ_section_title
;
Structure prediction by ZEFSAII (Michael W. Deem and Ramdas Pophale) SiO2 
 PCOD8056989
Probable space group: P 2/M
;
_chemical_formula_sum "Si O2"
_cell_formula_units_Z 24
_cell_length_a 22.976978
_cell_length_b 8.932450
_cell_length_c 16.524708
_cell_angle_alpha 90.000000
_cell_angle_beta 156.079256
_cell_angle_gamma 90.000000
_cell_volume 1375.177547
_symmetry_space_group_name_H-M "P 2/M"
_symmetry_group_IT_number 10
_symmetry_cell_setting 'monoclinic'
loop_
_space_group_symop_operation_xyz
x,y,z
-x,y,-z
-x,-y,-z
x,-y,z
loop_
_atom_site_type_symbol
_atom_site_label
_atom_site_fract_x
_atom_site_fract_y
_atom_site_fract_z
Si Si1 0.348254 0.827137 0.106746
Si Si2 0.932746 0.825384 0.520797
Si Si3 0.072692 0.172023 0.858692
Si Si4 0.893533 0.323583 0.934110
Si Si5 0.589925 0.173825 0.537831
Si Si6 0.209362 0.677337 0.792343
O O1 0.500920 0.798601 0.342616
O O2 0.324967 0.000000 0.054170
O O3 0.344176 0.731627 0.018043
O O4 0.222730 0.777108 0.008874
O O5 0.939767 0.804476 0.626957
O O6 0.791567 0.749609 0.299943
O O7 0.069623 0.739868 0.659301
O O8 0.940406 0.000000 0.507912
O O9 0.084380 0.000000 0.900640
O O10 0.043334 0.270644 0.899897
O O11 0.884083 0.500000 0.922595
O O12 0.736867 0.261251 0.716687
O O13 0.000000 0.264768 0.000000
O O14 0.500000 0.234804 0.500000
O O15 0.624979 0.000000 0.595995
O O16 0.208230 0.500000 0.783924
#
# Coordination Sequence:
#
# PCOD8056989 Si02
#       6
#     4   4   4   4   4   4
#     4   9  17  30  48  70  98 127 160 205 252 293
#     4   9  16  27  42  61  91 128 163 201 247 290
#     4   9  17  31  50  70  93 128 170 210 247 293
#     4  11  24  37  49  72 106 138 168 206 253 304
#     4  10  19  35  56  76  97 128 173 215 251 297
#     4  10  17  24  38  65  98 128 160 195 239 298
#
# _framework density 17.452290999999999
#
# number of rings (size 3 to 8) (size 9 to 14) (size 15 to 20)
#    0.000    2.333    1.667    4.500    0.000    5.667 
#    0.000    0.000    0.000    0.000    0.000    1.167 
#    0.000    9.333    0.000    0.000    0.000    0.000 
#
# Total GULP energy -297468.148974 kJ/mol
# GULP energy per Si atom -12394.506207 kJ/mol
# Density = 1.741257 g / cm^3
# Si number density = 17.452291 Si / 1000 Ang^3
#
#
#
# Elastic Constant Matrix: (Units=GPa)
#
#
# Indices 1 2 3 4 5 6 
#
# 1 92.1973 49.7548 67.6804 0.0000 -19.2340 0.0000
# 2 49.7548 86.0919 48.2404 0.0000 -14.3652 0.0000
# 3 67.6804 48.2404 86.6618 0.0000 -24.3028 0.0000
# 4 0.0000 0.0000 0.0000 14.1856 0.0000 -1.6176
# 5 -19.2340 -14.3652 -24.3028 0.0000 31.9333 0.0000
# 6 0.0000 0.0000 0.0000 -1.6176 0.0000 18.8336
#
#
#
# Elastic Compliance Matrix: (Units=1/GPa)
#
#
# Indices 1 2 3 4 5 6 
#
# 1 0.027117 -0.005529 -0.018075 0.000000 0.000090 0.000000
# 2 -0.005529 0.018016 -0.005558 0.000000 0.000544 0.000000
# 3 -0.018075 -0.005558 0.031777 0.000000 0.010796 0.000000
# 4 0.000000 0.000000 0.000000 0.071191 0.000000 0.006114
# 5 0.000090 0.000544 0.010796 0.000000 0.039831 0.000000
# 6 0.000000 0.000000 0.000000 0.006114 0.000000 0.053622
#
#
# Mechanical properties :
#
#
# Convention : Reuss Voigt Hill
#
# Bulk Modulus (GPa) = 53.80301 66.25580 60.02941
# Shear Modulus (GPa) = 16.33597 19.60886 17.97242
#
# Velocity S-wave (km/s) = 3.06279 3.35561 3.21254
# Velocity P-wave (km/s) = 6.58810 7.28422 6.94489
#
# Compressibility (1/GPa) = 0.01858632
#
# Stress axis : x y z
#
# Youngs Moduli (GPa) = 36.87699 55.50636 31.46954
#
# Poissons Ratio (x) = 0.30688 0.56881
# Poissons Ratio (y) = 0.20388 0.17491
# Poissons Ratio (z) = 0.66655 0.30852
#
# Static dielectric constant tensor:
#      x y z
#    x 3.361550 0.000000 -0.699620 
#    y 0.000000 3.192020 0.000000 
#    z -0.699620 0.000000 3.492290 
# 
# 
# High freq. dielectric constant tensor:
#      x y z
#    x 1.642850 0.000000 -0.053650 
#    y 0.000000 1.675350 0.000000 
#    z -0.053650 0.000000 1.661240 
# 
# From -- ./inp_files/48660.got.cif
#   From: 2010.06.25/outbox.cif.g09.slc.cpg/sg10_25_cif.got.tgz:48660.got - 2010.06.27 22:07:45.
