data_PCOD8056726
_publ_section_title
;
Structure prediction by ZEFSAII (Michael W. Deem and Ramdas Pophale) SiO2 
 PCOD8056726
Probable space group: C C
;
_chemical_formula_sum "Si O2"
_cell_formula_units_Z 32
_cell_length_a 15.005978
_cell_length_b 11.194310
_cell_length_c 8.261506
_cell_angle_alpha 90.000000
_cell_angle_beta 74.385391
_cell_angle_gamma 90.000000
_cell_volume 1336.563264
_symmetry_space_group_name_H-M "C C"
_symmetry_group_IT_number 9
_symmetry_cell_setting 'monoclinic'
loop_
_space_group_symop_operation_xyz
x,y,z
x,-y,1/2+z
1/2+x,1/2+y,z
1/2+x,1/2-y,1/2+z
loop_
_atom_site_type_symbol
_atom_site_label
_atom_site_fract_x
_atom_site_fract_y
_atom_site_fract_z
Si Si1 0.250000 0.675972 0.055620
Si Si2 0.398740 0.127248 0.032989
Si Si3 0.593298 0.728905 0.827178
Si Si4 0.912555 0.639826 0.403421
Si Si5 0.539377 0.318634 0.835766
Si Si6 0.794368 0.954005 0.222380
Si Si7 0.713835 0.751765 0.079203
Si Si8 0.506005 0.540123 0.664056
O O1 0.146521 0.721791 0.141951
O O2 0.282576 0.593883 0.191853
O O3 0.322457 0.784855 0.000781
O O4 0.237769 0.593410 0.903761
O O5 0.426523 0.142549 0.204735
O O6 0.290579 0.151139 0.064865
O O7 0.461298 0.217690 0.896764
O O8 0.409496 0.993094 0.969840
O O9 0.507668 0.808561 0.929724
O O10 0.553226 0.599875 0.798560
O O11 0.670587 0.727165 0.926730
O O12 0.638188 0.257890 0.759003
O O13 0.516119 0.397176 0.684369
O O14 0.550497 0.411035 0.978171
O O15 0.762199 0.881381 0.076952
O O16 0.899470 0.921393 0.212497
#
# Coordination Sequence:
#
# PCOD8056726 Si02
#       8
#     4   4   4   4   4   4   4   4
#     4  12  27  48  82 111 158 196 265 318 385 456
#     4  12  30  53  77 112 160 205 254 318 394 466
#     4  12  28  48  77 116 152 204 258 312 391 453
#     4  12  30  53  77 112 160 205 254 318 394 466
#     4  12  27  48  82 111 158 196 265 318 385 456
#     4  12  25  49  78 111 153 201 253 321 382 453
#     4  12  28  48  77 116 152 204 258 312 391 453
#     4  12  25  49  78 111 153 201 253 321 382 453
#
# _framework density 23.942004000000001
#
# number of rings (size 3 to 8) (size 9 to 14) (size 15 to 20)
#    0.000    0.000    5.000    3.000   10.500    0.000 
#    0.000    0.000    0.000    0.000    0.000    0.000 
#    0.000    0.000    0.000    0.000    0.000    0.000 
#
# Total GULP energy -198432.179316 kJ/mol
# GULP energy per Si atom -12402.011207 kJ/mol
# Density = 2.388751 g / cm^3
# Si number density = 23.942004 Si / 1000 Ang^3
#
#
#
# Elastic Constant Matrix: (Units=GPa)
#
#
# Indices 1 2 3 4 5 6 
#
# 1 112.9711 35.1931 18.0493 0.0000 -5.6368 0.0000
# 2 35.1931 150.8637 36.0254 0.0000 -9.9904 0.0000
# 3 18.0493 36.0254 50.4761 0.0000 -10.6449 0.0000
# 4 0.0000 0.0000 0.0000 47.1960 0.0000 8.4348
# 5 -5.6368 -9.9904 -10.6449 0.0000 47.0972 0.0000
# 6 0.0000 0.0000 0.0000 8.4348 0.0000 28.3341
#
#
#
# Elastic Compliance Matrix: (Units=1/GPa)
#
#
# Indices 1 2 3 4 5 6 
#
# 1 0.009757 -0.001733 -0.002187 0.000000 0.000306 0.000000
# 2 -0.001733 0.008306 -0.005230 0.000000 0.000372 0.000000
# 3 -0.002187 -0.005230 0.025240 0.000000 0.004334 0.000000
# 4 0.000000 0.000000 0.000000 0.022379 0.000000 -0.006662
# 5 0.000306 0.000372 0.004334 0.000000 0.022328 0.000000
# 6 0.000000 0.000000 0.000000 -0.006662 0.000000 0.037276
#
#
# Mechanical properties :
#
#
# Convention : Reuss Voigt Hill
#
# Bulk Modulus (GPa) = 39.99702 54.76072 47.37887
# Shear Modulus (GPa) = 32.91185 39.52835 36.22010
#
# Velocity S-wave (km/s) = 3.71165 4.06766 3.89373
# Velocity P-wave (km/s) = 5.92541 6.70694 6.32825
#
# Compressibility (1/GPa) = 0.02500186
#
# Stress axis : x y z
#
# Youngs Moduli (GPa) = 102.49555 120.38852 39.61962
#
# Poissons Ratio (x) = 0.20869 0.08665
# Poissons Ratio (y) = 0.17767 0.20721
# Poissons Ratio (z) = 0.22417 0.62963
#
# Static dielectric constant tensor:
#      x y z
#    x 4.278150 0.000000 -0.080290 
#    y 0.000000 4.466660 0.000000 
#    z -0.080290 0.000000 4.455400 
# 
# 
# High freq. dielectric constant tensor:
#      x y z
#    x 1.954280 0.000000 -0.001080 
#    y 0.000000 1.959140 0.000000 
#    z -0.001080 0.000000 1.963190 
# 
# From -- ./inp_files/9250.got.cif
#   From: 2010.06.25/outbox.cif.g09.slc.cpg/sg9_5_cif.got.tgz:9250.got - 2010.06.27 21:40:51.
