data_PCOD8056136
_publ_section_title
;
Structure prediction by ZEFSAII (Michael W. Deem and Ramdas Pophale) SiO2 
 PCOD8056136
Probable space group: C C
;
_chemical_formula_sum "Si O2"
_cell_formula_units_Z 28
_cell_length_a 21.640407
_cell_length_b 4.973039
_cell_length_c 12.890973
_cell_angle_alpha 90.000000
_cell_angle_beta 54.207875
_cell_angle_gamma 90.000000
_cell_volume 1125.307106
_symmetry_space_group_name_H-M "C C"
_symmetry_group_IT_number 9
_symmetry_cell_setting 'monoclinic'
loop_
_space_group_symop_operation_xyz
x,y,z
x,-y,1/2+z
1/2+x,1/2+y,z
1/2+x,1/2-y,1/2+z
loop_
_atom_site_type_symbol
_atom_site_label
_atom_site_fract_x
_atom_site_fract_y
_atom_site_fract_z
Si Si1 0.004710 0.798629 0.507990
Si Si2 0.581087 0.796691 0.510203
Si Si3 0.738060 0.647866 0.276272
Si Si4 0.423787 0.698907 0.290874
Si Si5 0.711802 0.871371 0.667850
Si Si6 0.039811 0.569598 0.269257
Si Si7 0.827287 0.690097 0.387016
O O1 0.071904 0.603886 0.483731
O O2 0.985931 0.717571 0.407618
O O3 0.933770 0.765032 0.655973
O O4 0.034120 0.104930 0.478594
O O5 0.669424 0.732017 0.419308
O O6 0.546779 0.746377 0.659108
O O7 0.720076 0.357088 0.246814
O O8 0.810562 0.658943 0.280870
O O9 0.752531 0.861177 0.170451
O O10 0.396591 0.397191 0.340012
O O11 0.501952 0.781004 0.275346
O O12 0.357861 0.901713 0.394459
O O13 0.624847 0.962636 0.731489
O O14 0.752257 0.775158 0.523277
#
# Coordination Sequence:
#
# PCOD8056136 Si02
#       7
#     4   4   4   4   4   4   4
#     4  11  24  43  69 103 143 180 239 294 362 426
#     4  11  22  41  67 108 138 176 231 301 364 414
#     4  12  24  44  72 106 143 186 238 299 365 428
#     4  11  27  46  72 102 149 197 235 291 373 435
#     4  12  26  44  77 108 138 187 250 300 365 421
#     4  11  24  45  75 108 140 183 244 307 355 427
#     4  12  27  51  68 105 151 195 237 298 360 451
#
# _framework density 24.882095
#
# number of rings (size 3 to 8) (size 9 to 14) (size 15 to 20)
#    0.000    0.571    4.286    3.429    0.000   10.286 
#    0.000    1.429    0.000    0.000    0.000    0.000 
#    0.000    0.000    0.000    0.000    0.000    0.000 
#
# Total GULP energy -173570.703137 kJ/mol
# GULP energy per Si atom -12397.907367 kJ/mol
# Density = 2.482546 g / cm^3
# Si number density = 24.882095 Si / 1000 Ang^3
#
#
#
# Elastic Constant Matrix: (Units=GPa)
#
#
# Indices 1 2 3 4 5 6 
#
# 1 102.8149 27.3418 12.9352 -0.0009 9.2294 0.0087
# 2 27.3418 88.7874 -5.7172 0.0060 2.8585 0.0366
# 3 12.9352 -5.7172 105.4636 0.0020 11.6448 0.0030
# 4 -0.0009 0.0060 0.0020 35.6572 -0.0016 -1.7331
# 5 9.2294 2.8585 11.6448 -0.0016 39.6486 0.0003
# 6 0.0087 0.0366 0.0030 -1.7331 0.0003 36.2376
#
#
#
# Elastic Compliance Matrix: (Units=1/GPa)
#
#
# Indices 1 2 3 4 5 6 
#
# 1 0.010969 -0.003401 -0.001318 0.000001 -0.001921 0.000001
# 2 -0.003401 0.012397 0.001137 -0.000003 -0.000436 -0.000012
# 3 -0.001318 0.001137 0.010005 -0.000001 -0.002714 -0.000002
# 4 0.000001 -0.000003 -0.000001 0.028110 0.000001 0.001344
# 5 -0.001921 -0.000436 -0.002714 0.000001 0.026497 0.000001
# 6 0.000001 -0.000012 -0.000002 0.001344 0.000001 0.027660
#
#
# Mechanical properties :
#
#
# Convention : Reuss Voigt Hill
#
# Bulk Modulus (GPa) = 38.15481 40.68727 39.42104
# Shear Modulus (GPa) = 38.01217 39.80909 38.91063
#
# Velocity S-wave (km/s) = 3.91281 4.00423 3.95878
# Velocity P-wave (km/s) = 5.98172 6.14540 6.06411
#
# Compressibility (1/GPa) = 0.02620901
#
# Stress axis : x y z
#
# Youngs Moduli (GPa) = 91.16744 80.66199 99.95169
#
# Poissons Ratio (x) = 0.27432 0.13169
# Poissons Ratio (y) = 0.31004 -0.11368
# Poissons Ratio (z) = 0.12012 -0.09174
#
# Static dielectric constant tensor:
#      x y z
#    x 4.206550 0.000000 0.130330 
#    y 0.000000 4.365640 0.000000 
#    z 0.130330 0.000000 4.754090 
# 
# 
# High freq. dielectric constant tensor:
#      x y z
#    x 1.975110 0.000000 0.005790 
#    y 0.000000 1.993370 0.000000 
#    z 0.005790 0.000000 2.004840 
# 
# From -- ./inp_files/19752.got.cif
#   From: 2010.06.25/outbox.cif.g09.slc.cpg/sg9_10_cif.got.tgz:19752.got - 2010.06.27 21:40:51.
