data_PCOD8056048
_publ_section_title
;
Structure prediction by ZEFSAII (Michael W. Deem and Ramdas Pophale) SiO2 
 PCOD8056048
Probable space group: C C
;
_chemical_formula_sum "Si O2"
_cell_formula_units_Z 32
_cell_length_a 22.459040
_cell_length_b 8.078126
_cell_length_c 8.932158
_cell_angle_alpha 90.000000
_cell_angle_beta 59.455040
_cell_angle_gamma 90.000000
_cell_volume 1395.653713
_symmetry_space_group_name_H-M "C C"
_symmetry_group_IT_number 9
_symmetry_cell_setting 'monoclinic'
loop_
_space_group_symop_operation_xyz
x,y,z
x,-y,1/2+z
1/2+x,1/2+y,z
1/2+x,1/2-y,1/2+z
loop_
_atom_site_type_symbol
_atom_site_label
_atom_site_fract_x
_atom_site_fract_y
_atom_site_fract_z
Si Si1 0.210170 0.506293 0.734070
Si Si2 0.656207 0.577294 0.998590
Si Si3 0.807389 0.008957 0.861162
Si Si4 0.810259 0.659917 0.751697
Si Si5 0.364019 0.151011 0.360464
Si Si6 0.022617 0.627235 0.185747
Si Si7 0.583063 0.175373 0.784661
Si Si8 0.128697 0.810304 0.233563
O O1 0.231563 0.532575 0.879485
O O2 0.286214 0.509724 0.561474
O O3 0.160908 0.650492 0.743633
O O4 0.169309 0.337645 0.759583
O O5 0.729810 0.671034 0.900527
O O6 0.621401 0.558878 0.879260
O O7 0.594574 0.653683 0.181592
O O8 0.671991 0.394285 0.043357
O O9 0.843917 0.837111 0.760138
O O10 0.854950 0.173477 0.783404
O O11 0.813850 0.643709 0.567826
O O12 0.848778 0.503631 0.772874
O O13 0.441657 0.131445 0.319773
O O14 0.055920 0.451342 0.191012
O O15 0.055054 0.760378 0.258176
O O16 0.034645 0.669764 0.994126
#
# Coordination Sequence:
#
# PCOD8056048 Si02
#       8
#     4   4   4   4   4   4   4   4
#     4  11  20  41  67 101 131 174 223 289 360 404
#     4  12  22  41  68 108 133 169 229 304 365 404
#     4  12  23  44  68 103 141 180 228 291 354 415
#     4  12  26  45  73 108 139 186 233 298 358 419
#     4  12  29  48  69 102 147 196 238 281 344 433
#     4  11  25  47  64  98 137 191 233 275 343 432
#     4  11  22  41  74  94 135 177 227 291 351 411
#     4  11  23  41  67 102 141 175 233 293 357 422
#
# _framework density 22.928324
#
# number of rings (size 3 to 8) (size 9 to 14) (size 15 to 20)
#    0.000    0.500    3.750    6.000    1.750    1.000 
#    6.750    0.000    0.000    0.000    0.000    0.000 
#    0.000    0.000    0.000    0.000    0.000    0.000 
#
# Total GULP energy -198271.315359 kJ/mol
# GULP energy per Si atom -12391.957210 kJ/mol
# Density = 2.287614 g / cm^3
# Si number density = 22.928324 Si / 1000 Ang^3
#
#
#
# Elastic Constant Matrix: (Units=GPa)
#
#
# Indices 1 2 3 4 5 6 
#
# 1 95.7258 52.2969 25.0150 0.0000 6.1675 0.0000
# 2 52.2969 110.9284 20.1911 0.0000 12.1524 0.0000
# 3 25.0150 20.1911 81.0297 0.0000 13.2449 0.0000
# 4 0.0000 0.0000 0.0000 30.1976 0.0000 11.2382
# 5 6.1675 12.1524 13.2449 0.0000 31.1446 0.0000
# 6 0.0000 0.0000 0.0000 11.2382 0.0000 22.3843
#
#
#
# Elastic Compliance Matrix: (Units=1/GPa)
#
#
# Indices 1 2 3 4 5 6 
#
# 1 0.014737 -0.006488 -0.003084 0.000000 0.000925 0.000000
# 2 -0.006488 0.012547 -0.000573 0.000000 -0.003367 0.000000
# 3 -0.003084 -0.000573 0.014293 0.000000 -0.005244 0.000000
# 4 0.000000 0.000000 0.000000 0.040724 0.000000 -0.020446
# 5 0.000925 -0.003367 -0.005244 0.000000 0.035469 0.000000
# 6 0.000000 0.000000 0.000000 -0.020446 0.000000 0.054939
#
#
# Mechanical properties :
#
#
# Convention : Reuss Voigt Hill
#
# Bulk Modulus (GPa) = 46.97674 53.63222 50.30448
# Shear Modulus (GPa) = 24.98802 29.42403 27.20602
#
# Velocity S-wave (km/s) = 3.30484 3.58621 3.44840
# Velocity P-wave (km/s) = 5.92416 6.37102 6.15165
#
# Compressibility (1/GPa) = 0.02128713
#
# Stress axis : x y z
#
# Youngs Moduli (GPa) = 67.85512 79.70238 69.96299
#
# Poissons Ratio (x) = 0.51709 0.21577
# Poissons Ratio (y) = 0.44023 0.04010
# Poissons Ratio (z) = 0.20927 0.04568
#
# Static dielectric constant tensor:
#      x y z
#    x 4.041820 0.000000 0.366450 
#    y 0.000000 4.237250 0.000000 
#    z 0.366450 0.000000 4.200420 
# 
# 
# High freq. dielectric constant tensor:
#      x y z
#    x 1.886810 0.000000 0.031170 
#    y 0.000000 1.913670 0.000000 
#    z 0.031170 0.000000 1.908110 
# 
# From -- ./inp_files/12052.got.cif
#   From: 2010.06.25/outbox.cif.g09.slc.cpg/sg9_7_cif.got.tgz:12052.got - 2010.06.27 21:40:51.
