data_PCOD8056612
_publ_section_title
;
Structure prediction by ZEFSAII (Michael W. Deem and Ramdas Pophale) SiO2 
 PCOD8056612
Probable space group: C C
;
_chemical_formula_sum "Si O2"
_cell_formula_units_Z 28
_cell_length_a 23.141849
_cell_length_b 9.017688
_cell_length_c 11.173476
_cell_angle_alpha 90.000000
_cell_angle_beta 28.984457
_cell_angle_gamma 90.000000
_cell_volume 1129.900447
_symmetry_space_group_name_H-M "C C"
_symmetry_group_IT_number 9
_symmetry_cell_setting 'monoclinic'
loop_
_space_group_symop_operation_xyz
x,y,z
x,-y,1/2+z
1/2+x,1/2+y,z
1/2+x,1/2-y,1/2+z
loop_
_atom_site_type_symbol
_atom_site_label
_atom_site_fract_x
_atom_site_fract_y
_atom_site_fract_z
Si Si1 0.939040 0.830092 0.855420
Si Si2 0.299479 0.270109 0.329016
Si Si3 0.513087 0.936034 0.072836
Si Si4 0.629656 0.552698 0.547839
Si Si5 0.746225 0.936034 0.022841
Si Si6 0.959833 0.729891 0.266662
Si Si7 0.320272 0.830092 0.240258
O O1 0.023301 0.722534 0.621576
O O2 0.864808 0.731892 0.085015
O O3 0.853168 0.925938 0.925179
O O4 0.020959 0.945084 0.782430
O O5 0.181796 0.164390 0.555640
O O6 0.269607 0.443943 0.376693
O O7 0.379656 0.250000 0.297839
O O8 0.406144 0.925938 0.170499
O O9 0.489706 0.056057 0.218984
O O10 0.629656 1.000000 0.797839
O O11 0.577516 0.664390 0.540038
O O12 0.738354 0.445084 0.313247
O O13 0.736012 0.777466 0.974102
O O14 0.894505 0.768108 0.510663
#
# Coordination Sequence:
#
# PCOD8056612 Si02
#       7
#     4   4   4   4   4   4   4
#     4  11  27  49  74 113 154 198 260 312 385 462
#     4  12  26  48  74 112 155 199 256 316 385 460
#     4  11  26  50  78 108 153 205 253 323 384 455
#     4  12  26  46  78 108 148 202 254 314 374 454
#     4  11  26  50  78 108 153 205 253 323 384 455
#     4  12  26  48  74 112 155 199 256 316 385 460
#     4  11  27  49  74 113 154 198 260 312 385 462
#
# _framework density 24.780942
#
# number of rings (size 3 to 8) (size 9 to 14) (size 15 to 20)
#    0.000    0.571    2.857    3.429    4.000    4.571 
#    0.000    0.000    0.000    0.000    0.000    0.000 
#    0.000    0.000    0.000    0.000    0.000    0.000 
#
# Total GULP energy -173453.202465 kJ/mol
# GULP energy per Si atom -12389.514462 kJ/mol
# Density = 2.472454 g / cm^3
# Si number density = 24.780942 Si / 1000 Ang^3
#
#
#
# Elastic Constant Matrix: (Units=GPa)
#
#
# Indices 1 2 3 4 5 6 
#
# 1 132.6934 70.1981 60.1722 0.0000 -19.4644 0.0000
# 2 70.1981 161.7162 79.7652 0.0000 -23.7672 0.0000
# 3 60.1722 79.7652 128.3461 0.0000 -4.8837 0.0000
# 4 0.0000 0.0000 0.0000 51.6387 0.0000 -11.0531
# 5 -19.4644 -23.7672 -4.8837 0.0000 44.6445 0.0000
# 6 0.0000 0.0000 0.0000 -11.0531 0.0000 54.7732
#
#
#
# Elastic Compliance Matrix: (Units=1/GPa)
#
#
# Indices 1 2 3 4 5 6 
#
# 1 0.010887 -0.002634 -0.003354 0.000000 0.002978 0.000000
# 2 -0.002634 0.010396 -0.005080 0.000000 0.003830 0.000000
# 3 -0.003354 -0.005080 0.012414 0.000000 -0.002809 0.000000
# 4 0.000000 0.000000 0.000000 0.020240 0.000000 0.004084
# 5 0.002978 0.003830 -0.002809 0.000000 0.025429 0.000000
# 6 0.000000 0.000000 0.000000 0.004084 0.000000 0.019081
#
#
# Mechanical properties :
#
#
# Convention : Reuss Voigt Hill
#
# Bulk Modulus (GPa) = 86.49794 93.66964 90.08379
# Shear Modulus (GPa) = 40.18092 44.38595 42.28344
#
# Velocity S-wave (km/s) = 4.03108 4.23677 4.13521
# Velocity P-wave (km/s) = 7.52642 7.86223 7.69616
#
# Compressibility (1/GPa) = 0.01156097
#
# Stress axis : x y z
#
# Youngs Moduli (GPa) = 91.84976 96.19348 80.55303
#
# Poissons Ratio (x) = 0.25338 0.27017
# Poissons Ratio (y) = 0.24194 0.40922
# Poissons Ratio (z) = 0.30806 0.48867
#
# Static dielectric constant tensor:
#      x y z
#    x 4.518060 0.000000 -0.082710 
#    y 0.000000 5.603790 0.000000 
#    z -0.082710 0.000000 4.577100 
# 
# 
# High freq. dielectric constant tensor:
#      x y z
#    x 1.982420 0.000000 -0.021760 
#    y 0.000000 2.016720 0.000000 
#    z -0.021760 0.000000 1.968510 
# 
# From -- ./inp_files/20797.got.cif
#   From: 2010.06.25/outbox.cif.g09.slc.cpg/sg9_11_cif.got.tgz:20797.got - 2010.06.27 21:40:51.
