data_PCOD8056343
_publ_section_title
;
Structure prediction by ZEFSAII (Michael W. Deem and Ramdas Pophale) SiO2 
 PCOD8056343
Probable space group: C C
;
_chemical_formula_sum "Si O2"
_cell_formula_units_Z 32
_cell_length_a 11.666346
_cell_length_b 9.027877
_cell_length_c 14.328766
_cell_angle_alpha 90.000000
_cell_angle_beta 114.532991
_cell_angle_gamma 90.000000
_cell_volume 1372.897568
_symmetry_space_group_name_H-M "C C"
_symmetry_group_IT_number 9
_symmetry_cell_setting 'monoclinic'
loop_
_space_group_symop_operation_xyz
x,y,z
x,-y,1/2+z
1/2+x,1/2+y,z
1/2+x,1/2-y,1/2+z
loop_
_atom_site_type_symbol
_atom_site_label
_atom_site_fract_x
_atom_site_fract_y
_atom_site_fract_z
Si Si1 0.211360 0.786527 0.018060
Si Si2 0.984870 0.728328 0.642688
Si Si3 0.106973 0.565643 0.839930
Si Si4 0.877684 0.037651 0.866144
Si Si5 0.034775 0.976404 0.241039
Si Si6 0.036173 0.689344 0.455665
Si Si7 0.739858 0.607769 0.951303
Si Si8 0.472784 0.690520 0.544655
O O1 0.342008 0.709549 0.090730
O O2 0.115878 0.763212 0.071006
O O3 0.151138 0.713976 0.906369
O O4 0.248577 0.954851 0.008774
O O5 0.000629 0.605796 0.728766
O O6 0.025258 0.647014 0.560552
O O7 0.067349 0.875178 0.693262
O O8 0.228885 0.504605 0.824608
O O9 0.044522 0.453012 0.891890
O O10 0.934131 0.979745 0.787576
O O11 0.914244 0.211960 0.886499
O O12 0.945872 0.954205 0.973690
O O13 0.164822 0.911909 0.328074
O O14 0.970275 0.851871 0.153160
O O15 0.165409 0.778215 0.490649
O O16 0.879092 0.675682 0.984697
#
# Coordination Sequence:
#
# PCOD8056343 Si02
#       8
#     4   4   4   4   4   4   4   4
#     4  12  26  48  69 113 156 193 263 327 382 471
#     4  12  26  48  76 107 157 209 250 319 408 467
#     4  12  26  46  77 111 151 207 257 325 394 467
#     4  11  23  47  74 108 154 193 263 325 383 470
#     4  11  24  49  76 108 153 211 248 322 406 467
#     4  11  24  49  74 107 152 194 262 322 380 473
#     4  11  25  47  75 110 150 195 261 322 382 473
#     4  12  24  46  77 110 155 204 254 324 397 466
#
# _framework density 23.308365999999999
#
# number of rings (size 3 to 8) (size 9 to 14) (size 15 to 20)
#    0.000    0.500    7.500    0.000    3.500    4.000 
#    2.250    0.000    0.000    0.000    0.000    0.000 
#    0.000    0.000    0.000    0.000    0.000    0.000 
#
# Total GULP energy -198405.807776 kJ/mol
# GULP energy per Si atom -12400.362986 kJ/mol
# Density = 2.325532 g / cm^3
# Si number density = 23.308366 Si / 1000 Ang^3
#
#
#
# Elastic Constant Matrix: (Units=GPa)
#
#
# Indices 1 2 3 4 5 6 
#
# 1 130.0598 44.0087 60.8492 0.0000 -3.2920 0.0000
# 2 44.0087 100.6348 40.7465 0.0000 -6.1656 0.0000
# 3 60.8492 40.7465 132.5438 0.0000 -10.7758 0.0000
# 4 0.0000 0.0000 0.0000 37.7165 0.0000 -2.3819
# 5 -3.2920 -6.1656 -10.7758 0.0000 31.3460 0.0000
# 6 0.0000 0.0000 0.0000 -2.3819 0.0000 43.0550
#
#
#
# Elastic Compliance Matrix: (Units=1/GPa)
#
#
# Indices 1 2 3 4 5 6 
#
# 1 0.010564 -0.003062 -0.003979 0.000000 -0.000861 0.000000
# 2 -0.003062 0.012271 -0.002260 0.000000 0.001315 0.000000
# 3 -0.003979 -0.002260 0.010283 0.000000 0.002673 0.000000
# 4 0.000000 0.000000 0.000000 0.026607 0.000000 0.001472
# 5 -0.000861 0.001315 0.002673 0.000000 0.032989 0.000000
# 6 0.000000 0.000000 0.000000 0.001472 0.000000 0.023308
#
#
# Mechanical properties :
#
#
# Convention : Reuss Voigt Hill
#
# Bulk Modulus (GPa) = 68.87797 72.71634 70.79716
# Shear Modulus (GPa) = 35.85185 36.93242 36.39214
#
# Velocity S-wave (km/s) = 3.92619 3.98491 3.95566
# Velocity P-wave (km/s) = 7.08295 7.24141 7.16262
#
# Compressibility (1/GPa) = 0.01451843
#
# Stress axis : x y z
#
# Youngs Moduli (GPa) = 94.65697 81.48984 97.24492
#
# Poissons Ratio (x) = 0.24950 0.38691
# Poissons Ratio (y) = 0.28981 0.21977
# Poissons Ratio (z) = 0.37662 0.18416
#
# Static dielectric constant tensor:
#      x y z
#    x 4.320060 0.000000 -0.058230 
#    y 0.000000 4.116310 0.000000 
#    z -0.058230 0.000000 4.181520 
# 
# 
# High freq. dielectric constant tensor:
#      x y z
#    x 1.921100 0.000000 -0.004120 
#    y 0.000000 1.920000 0.000000 
#    z -0.004120 0.000000 1.921060 
# 
# From -- ./inp_files/24339.got.cif
#   From: 2010.06.25/outbox.cif.g09.slc.cpg/sg9_13_cif.got.tgz:24339.got - 2010.06.27 21:40:51.
