data_PCOD8056702
_publ_section_title
;
Structure prediction by ZEFSAII (Michael W. Deem and Ramdas Pophale) SiO2 
 PCOD8056702
Probable space group: C C
;
_chemical_formula_sum "Si O2"
_cell_formula_units_Z 12
_cell_length_a 4.975803
_cell_length_b 21.223684
_cell_length_c 5.423697
_cell_angle_alpha 90.000000
_cell_angle_beta 52.765437
_cell_angle_gamma 90.000000
_cell_volume 456.018519
_symmetry_space_group_name_H-M "C C"
_symmetry_group_IT_number 9
_symmetry_cell_setting 'monoclinic'
loop_
_space_group_symop_operation_xyz
x,y,z
x,-y,1/2+z
1/2+x,1/2+y,z
1/2+x,1/2-y,1/2+z
loop_
_atom_site_type_symbol
_atom_site_label
_atom_site_fract_x
_atom_site_fract_y
_atom_site_fract_z
Si Si1 0.813360 0.293517 0.108340
Si Si2 0.388180 0.625072 0.511143
Si Si3 0.922730 0.460315 0.521198
O O1 0.511705 0.272401 0.456325
O O2 0.642401 0.319955 0.954854
O O3 0.045975 0.347929 0.085734
O O4 0.581198 0.581670 0.205070
O O5 0.259053 0.583253 0.815820
O O6 0.928254 0.504481 0.278674
#
# Coordination Sequence:
#
# PCOD8056702 Si02
#       3
#     4   4   4
#     4  12  25  46  73 108 147 194 247 308 372 444
#     4  12  26  47  75 110 149 197 248 308 374 446
#     4  12  27  49  76 112 152 199 251 310 374 448
#
# _framework density 26.314720000000001
#
# number of rings (size 3 to 8) (size 9 to 14) (size 15 to 20)
#    0.000    0.000    0.000   10.000    0.000    5.333 
#    0.000    0.000    0.000    0.000    0.000    0.000 
#    0.000    0.000    0.000    0.000    0.000    0.000 
#
# Total GULP energy -74408.795366 kJ/mol
# GULP energy per Si atom -12401.465894 kJ/mol
# Density = 2.625483 g / cm^3
# Si number density = 26.314720 Si / 1000 Ang^3
#
#
#
# Elastic Constant Matrix: (Units=GPa)
#
#
# Indices 1 2 3 4 5 6 
#
# 1 111.0142 29.0037 33.5092 0.0000 -13.1349 0.0000
# 2 29.0037 97.7247 47.3462 0.0000 -13.9557 0.0000
# 3 33.5092 47.3462 141.9795 0.0000 -13.8533 0.0000
# 4 0.0000 0.0000 0.0000 65.5255 0.0000 -23.3524
# 5 -13.1349 -13.9557 -13.8533 0.0000 43.8416 0.0000
# 6 0.0000 0.0000 0.0000 -23.3524 0.0000 22.4361
#
#
#
# Elastic Compliance Matrix: (Units=1/GPa)
#
#
# Indices 1 2 3 4 5 6 
#
# 1 0.010231 -0.002006 -0.001557 0.000000 0.001935 0.000000
# 2 -0.002006 0.012911 -0.003601 0.000000 0.002371 0.000000
# 3 -0.001557 -0.003601 0.008723 0.000000 0.001144 0.000000
# 4 0.000000 0.000000 0.000000 0.024260 0.000000 0.025251
# 5 0.001935 0.002371 0.001144 0.000000 0.024505 0.000000
# 6 0.000000 0.000000 0.000000 0.025251 0.000000 0.070853
#
#
# Mechanical properties :
#
#
# Convention : Reuss Voigt Hill
#
# Bulk Modulus (GPa) = 57.01885 63.38184 60.20034
# Shear Modulus (GPa) = 29.12779 42.41792 35.77286
#
# Velocity S-wave (km/s) = 3.33062 4.01926 3.69104
# Velocity P-wave (km/s) = 6.04200 6.75852 6.41028
#
# Compressibility (1/GPa) = 0.01753806
#
# Stress axis : x y z
#
# Youngs Moduli (GPa) = 97.74447 77.45162 114.63817
#
# Poissons Ratio (x) = 0.15535 0.17849
# Poissons Ratio (y) = 0.19605 0.41279
# Poissons Ratio (z) = 0.15219 0.27889
#
# Static dielectric constant tensor:
#      x y z
#    x 4.430410 0.000000 -0.477000 
#    y 0.000000 5.087020 0.000000 
#    z -0.477000 0.000000 5.137360 
# 
# 
# High freq. dielectric constant tensor:
#      x y z
#    x 2.046180 0.000000 -0.027050 
#    y 0.000000 2.072230 0.000000 
#    z -0.027050 0.000000 2.075400 
# 
# From -- ./inp_files/11.got.cif
#   From: 2010.06.25/outbox.cif.g09.slc.cpg/sg9_1_cif.got.tgz:11.got - 2010.06.27 21:40:51.
