data_PCOD8056226
_publ_section_title
;
Structure prediction by ZEFSAII (Michael W. Deem and Ramdas Pophale) SiO2 
 PCOD8056226
Probable space group: C C
;
_chemical_formula_sum "Si O2"
_cell_formula_units_Z 32
_cell_length_a 14.779141
_cell_length_b 20.929422
_cell_length_c 14.114647
_cell_angle_alpha 90.000000
_cell_angle_beta 160.235395
_cell_angle_gamma 90.000000
_cell_volume 1476.367035
_symmetry_space_group_name_H-M "C C"
_symmetry_group_IT_number 9
_symmetry_cell_setting 'monoclinic'
loop_
_space_group_symop_operation_xyz
x,y,z
x,-y,1/2+z
1/2+x,1/2+y,z
1/2+x,1/2-y,1/2+z
loop_
_atom_site_type_symbol
_atom_site_label
_atom_site_fract_x
_atom_site_fract_y
_atom_site_fract_z
Si Si1 0.191720 0.707025 0.429420
Si Si2 0.286821 0.003803 0.925077
Si Si3 0.455988 0.791772 0.083692
Si Si4 0.955428 0.919089 0.854832
Si Si5 0.586921 0.141234 0.519674
Si Si6 0.442039 0.099350 0.721466
Si Si7 0.102074 0.941469 0.557274
Si Si8 0.797687 0.086878 0.406991
O O1 0.446210 0.749478 0.658704
O O2 0.181049 0.686768 0.528101
O O3 0.192879 0.645531 0.364091
O O4 0.045802 0.053761 0.706215
O O5 0.195625 0.952390 0.757224
O O6 0.554428 0.037974 0.151768
O O7 0.348386 0.966857 0.081910
O O8 0.156604 0.766322 0.802034
O O9 0.490812 0.815186 0.011029
O O10 0.510615 0.847917 0.211517
O O11 0.703153 0.914362 0.538954
O O12 0.892522 0.890759 0.896413
O O13 0.050845 0.992328 0.954316
O O14 0.200825 0.878294 0.052778
O O15 0.831143 0.098258 0.794593
O O16 0.339264 0.097623 0.238826
#
# Coordination Sequence:
#
# PCOD8056226 Si02
#       8
#     4   4   4   4   4   4   4   4
#     4  12  27  48  68  98 133 182 240 281 326 402
#     4  11  23  42  68 104 135 177 217 279 340 420
#     4  12  26  45  67  96 139 185 228 277 331 405
#     4  11  25  42  67 102 145 172 218 288 338 409
#     4  12  24  42  70 101 137 180 220 278 343 413
#     4  12  25  42  69 102 139 178 228 275 340 400
#     4  11  23  41  66 105 140 176 212 269 353 421
#     4  11  25  46  69  98 138 178 231 281 343 388
#
# _framework density 21.674827000000001
#
# number of rings (size 3 to 8) (size 9 to 14) (size 15 to 20)
#    0.000    0.500    1.250    8.250    7.000    0.000 
#    0.000    3.750    0.000    0.000    0.000    0.000 
#    0.000    0.000    0.000    0.000    0.000    0.000 
#
# Total GULP energy -198514.960651 kJ/mol
# GULP energy per Si atom -12407.185041 kJ/mol
# Density = 2.162549 g / cm^3
# Si number density = 21.674827 Si / 1000 Ang^3
#
#
#
# Elastic Constant Matrix: (Units=GPa)
#
#
# Indices 1 2 3 4 5 6 
#
# 1 95.3712 38.5385 28.3444 -0.0024 4.3283 -0.0049
# 2 38.5385 70.1862 31.1009 0.0054 -2.6720 -0.0014
# 3 28.3444 31.1009 138.3992 0.0176 7.7650 -0.0051
# 4 -0.0024 0.0054 0.0176 35.8757 0.0072 14.1205
# 5 4.3283 -2.6720 7.7650 0.0072 39.7638 -0.0005
# 6 -0.0049 -0.0014 -0.0051 14.1205 -0.0005 22.3869
#
#
#
# Elastic Compliance Matrix: (Units=1/GPa)
#
#
# Indices 1 2 3 4 5 6 
#
# 1 0.013783 -0.007139 -0.001120 0.000003 -0.001761 0.000001
# 2 -0.007139 0.019646 -0.003105 -0.000003 0.002703 0.000001
# 3 -0.001120 -0.003105 0.008248 -0.000005 -0.001697 0.000005
# 4 0.000003 -0.000003 -0.000005 0.037079 -0.000006 -0.023388
# 5 -0.001761 0.002703 -0.001697 -0.000006 0.025853 0.000004
# 6 0.000001 0.000001 0.000005 -0.023388 0.000004 0.059421
#
#
# Mechanical properties :
#
#
# Convention : Reuss Voigt Hill
#
# Bulk Modulus (GPa) = 52.76882 55.54713 54.15797
# Shear Modulus (GPa) = 25.89691 33.33680 29.61685
#
# Velocity S-wave (km/s) = 3.46033 3.92604 3.70052
# Velocity P-wave (km/s) = 6.35324 6.79962 6.58022
#
# Compressibility (1/GPa) = 0.01895059
#
# Stress axis : x y z
#
# Youngs Moduli (GPa) = 72.55420 50.90018 121.24647
#
# Poissons Ratio (x) = 0.36337 0.13576
# Poissons Ratio (y) = 0.51796 0.37641
# Poissons Ratio (z) = 0.08124 0.15802
#
# Static dielectric constant tensor:
#      x y z
#    x 4.017970 0.000000 0.150260 
#    y 0.000000 3.876070 -0.000010 
#    z 0.150260 -0.000010 4.203560 
# 
# 
# High freq. dielectric constant tensor:
#      x y z
#    x 1.858100 0.000000 0.007380 
#    y 0.000000 1.841940 0.000000 
#    z 0.007380 0.000000 1.877040 
# 
# From -- ./inp_files/26136.got.cif
#   From: 2010.06.25/outbox.cif.g09.slc.cpg/sg9_14_cif.got.tgz:26136.got - 2010.06.27 21:40:51.
