data_PCOD8056760
_publ_section_title
;
Structure prediction by ZEFSAII (Michael W. Deem and Ramdas Pophale) SiO2 
 PCOD8056760
Probable space group: C C
;
_chemical_formula_sum "Si O2"
_cell_formula_units_Z 32
_cell_length_a 15.103792
_cell_length_b 10.300842
_cell_length_c 9.122407
_cell_angle_alpha 90.000000
_cell_angle_beta 62.688531
_cell_angle_gamma 90.000000
_cell_volume 1261.066581
_symmetry_space_group_name_H-M "C C"
_symmetry_group_IT_number 9
_symmetry_cell_setting 'monoclinic'
loop_
_space_group_symop_operation_xyz
x,y,z
x,-y,1/2+z
1/2+x,1/2+y,z
1/2+x,1/2-y,1/2+z
loop_
_atom_site_type_symbol
_atom_site_label
_atom_site_fract_x
_atom_site_fract_y
_atom_site_fract_z
Si Si1 0.829170 0.699443 0.675270
Si Si2 0.662475 0.994497 0.599637
Si Si3 0.525603 0.052285 0.475609
Si Si4 0.040343 0.935303 0.235070
Si Si5 0.864737 0.111722 0.407623
Si Si6 0.747859 0.255760 0.923114
Si Si7 0.452245 0.765365 0.601703
Si Si8 0.668348 0.523228 0.907456
O O1 0.934501 0.651591 0.530242
O O2 0.843669 0.826629 0.763812
O O3 0.756962 0.720902 0.592178
O O4 0.775381 0.593747 0.821154
O O5 0.592812 0.094995 0.563036
O O6 0.690909 0.882022 0.458380
O O7 0.762588 0.071866 0.569561
O O8 0.596982 0.938835 0.781374
O O9 0.482784 0.910656 0.543435
O O10 0.038943 0.807284 0.130816
O O11 0.926354 0.980461 0.334108
O O12 0.089885 0.913320 0.354273
O O13 0.112516 0.043829 0.105182
O O14 0.932324 0.201588 0.458676
O O15 0.855765 0.253040 0.773066
O O16 0.688495 0.368288 0.881094
#
# Coordination Sequence:
#
# PCOD8056760 Si02
#       8
#     4   4   4   4   4   4   4   4
#     4  12  29  48  75 113 155 197 256 325 385 466
#     4  12  27  49  77 111 151 199 255 312 388 466
#     4  12  27  49  77 111 151 199 255 312 388 466
#     4  12  27  49  77 110 149 204 262 315 388 460
#     4  12  29  48  75 113 155 197 256 325 385 466
#     4  12  26  49  80 107 156 203 254 323 393 451
#     4  12  26  49  80 107 156 203 254 323 393 451
#     4  12  27  49  77 110 149 204 262 315 388 460
#
# _framework density 25.375347000000001
#
# number of rings (size 3 to 8) (size 9 to 14) (size 15 to 20)
#    0.000    0.000    5.000    3.750    7.000    3.000 
#    0.000    0.000    0.000    0.000    0.000    0.000 
#    0.000    0.000    0.000    0.000    0.000    0.000 
#
# Total GULP energy -198352.899319 kJ/mol
# GULP energy per Si atom -12397.056207 kJ/mol
# Density = 2.531759 g / cm^3
# Si number density = 25.375347 Si / 1000 Ang^3
#
#
#
# Elastic Constant Matrix: (Units=GPa)
#
#
# Indices 1 2 3 4 5 6 
#
# 1 81.3792 16.2021 -2.1256 0.0000 -6.1041 0.0000
# 2 16.2021 63.5889 -2.6247 0.0000 -5.6328 0.0000
# 3 -2.1256 -2.6247 97.9856 0.0000 -34.4579 0.0000
# 4 0.0000 0.0000 0.0000 37.8428 0.0000 -0.2890
# 5 -6.1041 -5.6328 -34.4579 0.0000 51.7102 0.0000
# 6 0.0000 0.0000 0.0000 -0.2890 0.0000 34.0676
#
#
#
# Elastic Compliance Matrix: (Units=1/GPa)
#
#
# Indices 1 2 3 4 5 6 
#
# 1 0.013065 -0.003141 0.000811 0.000000 0.001741 0.000000
# 2 -0.003141 0.016772 0.001167 0.000000 0.002234 0.000000
# 3 0.000811 0.001167 0.013495 0.000000 0.009216 0.000000
# 4 0.000000 0.000000 0.000000 0.026427 0.000000 0.000224
# 5 0.001741 0.002234 0.009216 0.000000 0.025928 0.000000
# 6 0.000000 0.000000 0.000000 0.000224 0.000000 0.029355
#
#
# Mechanical properties :
#
#
# Convention : Reuss Voigt Hill
#
# Bulk Modulus (GPa) = 24.38635 29.53971 26.96303
# Shear Modulus (GPa) = 35.45127 40.15757 37.80442
#
# Velocity S-wave (km/s) = 3.74180 3.98243 3.86399
# Velocity P-wave (km/s) = 5.31970 5.72824 5.52775
#
# Compressibility (1/GPa) = 0.04100655
#
# Stress axis : x y z
#
# Youngs Moduli (GPa) = 76.53839 59.62178 74.10034
#
# Poissons Ratio (x) = 0.18729 -0.06013
# Poissons Ratio (y) = 0.24043 -0.08645
# Poissons Ratio (z) = -0.06211 -0.06956
#
# Static dielectric constant tensor:
#      x y z
#    x 4.900930 0.000000 -0.250340 
#    y 0.000000 4.400230 0.000000 
#    z -0.250340 0.000000 4.721680 
# 
# 
# High freq. dielectric constant tensor:
#      x y z
#    x 2.030700 0.000000 -0.020390 
#    y 0.000000 1.998280 0.000000 
#    z -0.020390 0.000000 2.028480 
# 
# From -- ./inp_files/9227.got.cif
#   From: 2010.06.25/outbox.cif.g09.slc.cpg/sg9_5_cif.got.tgz:9227.got - 2010.06.27 21:40:51.
