data_PCOD8056448
_publ_section_title
;
Structure prediction by ZEFSAII (Michael W. Deem and Ramdas Pophale) SiO2 
 PCOD8056448
Probable space group: C C
;
_chemical_formula_sum "Si O2"
_cell_formula_units_Z 28
_cell_length_a 5.040950
_cell_length_b 30.464155
_cell_length_c 8.010536
_cell_angle_alpha 90.000000
_cell_angle_beta 63.243769
_cell_angle_gamma 90.000000
_cell_volume 1098.450553
_symmetry_space_group_name_H-M "C C"
_symmetry_group_IT_number 9
_symmetry_cell_setting 'monoclinic'
loop_
_space_group_symop_operation_xyz
x,y,z
x,-y,1/2+z
1/2+x,1/2+y,z
1/2+x,1/2-y,1/2+z
loop_
_atom_site_type_symbol
_atom_site_label
_atom_site_fract_x
_atom_site_fract_y
_atom_site_fract_z
Si Si1 0.600830 0.138723 0.890690
Si Si2 0.257383 0.825114 0.779585
Si Si3 0.966858 0.544151 0.616997
Si Si4 0.430181 0.047913 0.005735
Si Si5 0.155056 0.722877 0.389037
Si Si6 0.097957 0.080668 0.417778
Si Si7 0.215865 0.815934 0.266736
O O1 0.662902 0.088567 0.929031
O O2 0.440235 0.145085 0.757619
O O3 0.904243 0.164355 0.803528
O O4 0.331623 0.158618 0.074740
O O5 0.557296 0.797508 0.738913
O O6 0.198189 0.868658 0.908879
O O7 0.965253 0.795445 0.866348
O O8 0.815225 0.541931 0.845401
O O9 0.089484 0.495594 0.530904
O O10 0.242981 0.577613 0.537982
O O11 0.732137 0.555727 0.539553
O O12 0.175359 0.060475 0.213227
O O13 0.169063 0.775398 0.408408
O O14 0.862086 0.707604 0.569179
#
# Coordination Sequence:
#
# PCOD8056448 Si02
#       7
#     4   4   4   4   4   4   4
#     4  11  26  46  71 103 143 186 239 303 361 433
#     4  11  24  46  71 102 144 183 238 295 367 426
#     4  12  27  46  77 105 150 193 251 304 379 446
#     4  11  28  49  76 109 151 196 251 309 378 445
#     4  12  25  44  73 103 143 189 237 293 356 436
#     4  11  28  48  72 111 149 195 243 314 370 447
#     4  12  26  45  70 105 142 188 239 292 361 433
#
# _framework density 25.490449999999999
#
# number of rings (size 3 to 8) (size 9 to 14) (size 15 to 20)
#    0.000    0.571    1.429    5.143    8.000    5.714 
#    0.000    0.000    0.000    0.000    0.000    0.000 
#    0.000    0.000    0.000    0.000    0.000    0.000 
#
# Total GULP energy -173484.052057 kJ/mol
# GULP energy per Si atom -12391.718004 kJ/mol
# Density = 2.543243 g / cm^3
# Si number density = 25.490450 Si / 1000 Ang^3
#
#
#
# Elastic Constant Matrix: (Units=GPa)
#
#
# Indices 1 2 3 4 5 6 
#
# 1 107.0399 22.0711 33.9039 0.0000 4.5490 0.0000
# 2 22.0711 67.9900 13.2046 0.0000 -0.0892 0.0000
# 3 33.9039 13.2046 125.9286 0.0000 12.1533 0.0000
# 4 0.0000 0.0000 0.0000 36.0236 0.0000 1.1921
# 5 4.5490 -0.0892 12.1533 0.0000 37.2839 0.0000
# 6 0.0000 0.0000 0.0000 1.1921 0.0000 -20.9966
#
#
#
# Elastic Compliance Matrix: (Units=1/GPa)
#
#
# Indices 1 2 3 4 5 6 
#
# 1 0.010789 -0.003009 -0.002541 0.000000 -0.000495 0.000000
# 2 -0.003009 0.015865 -0.000921 0.000000 0.000705 0.000000
# 3 -0.002541 -0.000921 0.008974 0.000000 -0.002618 0.000000
# 4 0.000000 0.000000 0.000000 0.027708 0.000000 0.001573
# 5 -0.000495 0.000705 -0.002618 0.000000 0.027737 0.000000
# 6 0.000000 0.000000 0.000000 0.001573 0.000000 -0.047537
#
#
# Mechanical properties :
#
#
# Convention : Reuss Voigt Hill
#
# Bulk Modulus (GPa) = 44.08429 48.81310 46.44869
# Shear Modulus (GPa) = 78.07580 25.91411 51.99495
#
# Velocity S-wave (km/s) = 5.54039 3.19191 4.52129
# Velocity P-wave (km/s) = 7.63282 5.72499 6.74668
#
# Compressibility (1/GPa) = 0.02268382
#
# Stress axis : x y z
#
# Youngs Moduli (GPa) = 92.68854 63.03245 111.42748
#
# Poissons Ratio (x) = 0.18969 0.28318
# Poissons Ratio (y) = 0.27894 0.10267
# Poissons Ratio (z) = 0.23555 0.05808
#
# Static dielectric constant tensor:
#      x y z
#    x 3.999520 0.000000 0.179620 
#    y 0.000000 7.409320 0.000000 
#    z 0.179620 0.000000 5.051950 
# 
# 
# High freq. dielectric constant tensor:
#      x y z
#    x 1.993470 0.000000 0.003990 
#    y 0.000000 2.040880 0.000000 
#    z 0.003990 0.000000 2.041490 
# 
# From -- ./inp_files/4272.got.cif
#   From: 2010.06.25/outbox.cif.g09.slc.cpg/sg9_3_cif.got.tgz:4272.got - 2010.06.27 21:40:51.
