data_PCOD8056878
_publ_section_title
;
Structure prediction by ZEFSAII (Michael W. Deem and Ramdas Pophale) SiO2 
 PCOD8056878
Probable space group: P 2/M
;
_chemical_formula_sum "Si O2"
_cell_formula_units_Z 30
_cell_length_a 5.085398
_cell_length_b 25.819369
_cell_length_c 14.567624
_cell_angle_alpha 90.000000
_cell_angle_beta 56.443652
_cell_angle_gamma 90.000000
_cell_volume 1593.980064
_symmetry_space_group_name_H-M "P 2/M"
_symmetry_group_IT_number 10
_symmetry_cell_setting 'monoclinic'
loop_
_space_group_symop_operation_xyz
x,y,z
-x,y,-z
-x,-y,-z
x,-y,z
loop_
_atom_site_type_symbol
_atom_site_label
_atom_site_fract_x
_atom_site_fract_y
_atom_site_fract_z
Si Si1 0.432789 0.266134 0.739773
Si Si2 0.865716 0.000000 0.421389
Si Si3 0.571573 0.440719 0.250703
Si Si4 0.269099 0.406049 0.123166
Si Si5 0.743944 0.160813 0.629734
Si Si6 0.240524 0.893040 0.628529
Si Si7 0.635640 0.357793 0.574790
Si Si8 0.737386 0.286083 0.876585
O O1 0.605876 0.218098 0.658941
O O2 0.454508 0.314644 0.667756
O O3 0.589170 0.278305 0.806082
O O4 0.062312 0.254259 0.824187
O O5 0.500000 0.000000 0.500000
O O6 0.938683 0.051335 0.347274
O O7 0.000000 0.000000 0.500000
O O8 0.460448 0.500000 0.271980
O O9 0.440813 0.411716 0.186935
O O10 0.421107 0.413702 0.368872
O O11 0.949351 0.438648 0.181112
O O12 0.187561 0.346312 0.120385
O O13 0.500000 0.427895 0.000000
O O14 0.450374 0.119417 0.678367
O O15 0.000000 0.154981 0.500000
O O16 0.948330 0.147550 0.680968
O O17 0.500000 0.884259 0.500000
O O18 0.500000 0.358930 0.500000
O O19 0.000000 0.343435 0.500000
O O20 0.500000 0.264920 0.000000
#
# Coordination Sequence:
#
# PCOD8056878 Si02
#       8
#     4   2   4   4   4   4   4   4
#     4  12  22  39  60  83 110 145 181 225 275 325
#     4  10  16  26  44  66  96 150 197 236 269 308
#     4  12  25  42  61  85 113 141 177 223 272 323
#     4  11  22  41  64  88 113 136 169 219 278 340
#     4  10  20  32  48  76 110 147 186 227 264 309
#     4   9  17  29  44  68 105 145 193 231 264 307
#     4  12  25  41  59  80 107 143 187 221 255 314
#     4  11  22  39  63  85 108 138 175 220 276 341
#
# _framework density 18.820810999999999
#
# number of rings (size 3 to 8) (size 9 to 14) (size 15 to 20)
#    0.000    1.067    2.667    6.000    0.000    5.867 
#    0.000    0.000    0.000    0.000    0.000    0.000 
#    0.000    0.000    0.000   42.000    0.000    4.667 
#
# Total GULP energy -371880.148539 kJ/mol
# GULP energy per Si atom -12396.004951 kJ/mol
# Density = 1.877797 g / cm^3
# Si number density = 18.820811 Si / 1000 Ang^3
#
#
#
# Elastic Constant Matrix: (Units=GPa)
#
#
# Indices 1 2 3 4 5 6 
#
# 1 101.8033 32.6117 1.5088 0.0000 -26.7803 0.0000
# 2 32.6117 72.7458 27.0989 0.0000 3.1816 0.0000
# 3 1.5088 27.0989 13.0405 0.0000 -35.6930 0.0000
# 4 0.0000 0.0000 0.0000 24.8062 0.0000 -7.6792
# 5 -26.7803 3.1816 -35.6930 0.0000 10.9573 0.0000
# 6 0.0000 0.0000 0.0000 -7.6792 0.0000 25.6623
#
#
#
# Elastic Compliance Matrix: (Units=1/GPa)
#
#
# Indices 1 2 3 4 5 6 
#
# 1 0.009386 -0.001019 -0.008165 0.000000 -0.003360 0.000000
# 2 -0.001019 0.011818 0.005135 0.000000 0.010806 0.000000
# 3 -0.008165 0.005135 -0.001043 0.000000 -0.024844 0.000000
# 4 0.000000 0.000000 0.000000 0.044428 0.000000 0.013295
# 5 -0.003360 0.010806 -0.024844 0.000000 -0.001015 0.000000
# 6 0.000000 0.000000 0.000000 0.013295 0.000000 0.042946
#
#
# Mechanical properties :
#
#
# Convention : Reuss Voigt Hill
#
# Bulk Modulus (GPa) = 82.89452 34.44761 58.67106
# Shear Modulus (GPa) = 42.14445 20.70985 31.42715
#
# Velocity S-wave (km/s) = 4.73720 3.32078 4.09076
# Velocity P-wave (km/s) = 8.60588 5.74858 7.31803
#
# Compressibility (1/GPa) = 0.01206352
#
# Stress axis : x y z
#
# Youngs Moduli (GPa) = 106.53619 84.61778 -958.92023
#
# Poissons Ratio (x) = 0.08626 -7.82963
# Poissons Ratio (y) = 0.10860 4.92446
# Poissons Ratio (z) = 0.86987 -0.43455
#
# Static dielectric constant tensor:
#      x y z
#    x 3.858300 0.000000 -0.053700 
#    y 0.000000 7.141060 0.000000 
#    z -0.053700 0.000000 3.309170 
# 
# 
# High freq. dielectric constant tensor:
#      x y z
#    x 1.762100 0.000000 -0.006510 
#    y 0.000000 1.721190 0.000000 
#    z -0.006510 0.000000 1.690850 
# 
# From -- ./inp_files/59728.got.cif
#   From: 2010.06.25/outbox.cif.g09.slc.cpg/sg10_30_cif.got.tgz:59728.got - 2010.06.27 22:07:45.
