data_PCOD8056031
_publ_section_title
;
Structure prediction by ZEFSAII (Michael W. Deem and Ramdas Pophale) SiO2 
 PCOD8056031
Probable space group: C C
;
_chemical_formula_sum "Si O2"
_cell_formula_units_Z 28
_cell_length_a 16.818048
_cell_length_b 7.950645
_cell_length_c 14.669019
_cell_angle_alpha 90.000000
_cell_angle_beta 143.430978
_cell_angle_gamma 90.000000
_cell_volume 1168.618515
_symmetry_space_group_name_H-M "C C"
_symmetry_group_IT_number 9
_symmetry_cell_setting 'monoclinic'
loop_
_space_group_symop_operation_xyz
x,y,z
x,-y,1/2+z
1/2+x,1/2+y,z
1/2+x,1/2-y,1/2+z
loop_
_atom_site_type_symbol
_atom_site_label
_atom_site_fract_x
_atom_site_fract_y
_atom_site_fract_z
Si Si1 0.012010 0.270025 0.417940
Si Si2 0.777788 0.737349 0.003583
Si Si3 0.437937 0.712357 0.095426
Si Si4 0.016642 0.381483 0.842500
Si Si5 0.345047 0.562061 0.389889
Si Si6 0.572402 0.059673 0.588240
Si Si7 0.183855 0.136366 0.439819
O O1 0.971512 0.418039 0.305030
O O2 0.046894 0.362805 0.544968
O O3 0.148787 0.172893 0.513817
O O4 0.896390 0.139749 0.340947
O O5 0.908314 0.734389 0.190476
O O6 0.663264 0.864853 0.932776
O O7 0.810723 0.791478 0.931071
O O8 0.723417 0.550246 0.952925
O O9 0.480710 0.887219 0.088205
O O10 0.535569 0.667213 0.266175
O O11 0.452246 0.560105 0.036542
O O12 0.289206 0.729348 0.998512
O O13 0.035990 0.324643 0.966150
O O14 0.226798 0.430870 0.257766
#
# Coordination Sequence:
#
# PCOD8056031 Si02
#       7
#     4   4   4   4   4   4   4
#     4  10  27  45  74 105 149 188 248 306 368 436
#     4  12  27  47  76 108 147 201 243 305 368 454
#     4  12  26  50  73 108 147 197 244 307 373 449
#     4  10  27  46  74 106 150 188 252 297 372 430
#     4  12  27  48  77 108 151 192 254 303 380 437
#     4  10  27  45  75 108 147 191 247 313 358 445
#     4  12  27  45  77 107 147 193 248 301 377 437
#
# _framework density 23.959914999999999
#
# number of rings (size 3 to 8) (size 9 to 14) (size 15 to 20)
#    0.857    0.000    1.429    3.429   14.000    0.000 
#    0.000    0.000    0.000    0.000    0.000    0.000 
#    0.000    0.000    0.000    0.000    0.000    0.000 
#
# Total GULP energy -173472.822874 kJ/mol
# GULP energy per Si atom -12390.915920 kJ/mol
# Density = 2.390538 g / cm^3
# Si number density = 23.959915 Si / 1000 Ang^3
#
#
#
# Elastic Constant Matrix: (Units=GPa)
#
#
# Indices 1 2 3 4 5 6 
#
# 1 149.0430 51.5209 42.5850 0.0000 28.4636 0.0000
# 2 51.5209 97.8357 28.0548 0.0000 12.3642 0.0000
# 3 42.5850 28.0548 113.1592 0.0000 11.0338 0.0000
# 4 0.0000 0.0000 0.0000 26.8983 0.0000 3.0422
# 5 28.4636 12.3642 11.0338 0.0000 35.8317 0.0000
# 6 0.0000 0.0000 0.0000 3.0422 0.0000 50.8969
#
#
#
# Elastic Compliance Matrix: (Units=1/GPa)
#
#
# Indices 1 2 3 4 5 6 
#
# 1 0.009734 -0.003777 -0.002165 0.000000 -0.005763 0.000000
# 2 -0.003777 0.012802 -0.001664 0.000000 -0.000905 0.000000
# 3 -0.002165 -0.001664 0.010145 0.000000 -0.000830 0.000000
# 4 0.000000 0.000000 0.000000 0.037430 0.000000 -0.002237
# 5 -0.005763 -0.000905 -0.000830 0.000000 0.033054 0.000000
# 6 0.000000 0.000000 0.000000 -0.002237 0.000000 0.019781
#
#
# Mechanical properties :
#
#
# Convention : Reuss Voigt Hill
#
# Bulk Modulus (GPa) = 57.24461 67.15102 62.19782
# Shear Modulus (GPa) = 34.72664 38.58388 36.65526
#
# Velocity S-wave (km/s) = 3.81118 4.01727 3.91558
# Velocity P-wave (km/s) = 6.58107 7.04310 6.81600
#
# Compressibility (1/GPa) = 0.01746889
#
# Stress axis : x y z
#
# Youngs Moduli (GPa) = 102.73071 78.11421 98.56697
#
# Poissons Ratio (x) = 0.29504 0.21339
# Poissons Ratio (y) = 0.38802 0.16404
# Poissons Ratio (z) = 0.22241 0.13000
#
# Static dielectric constant tensor:
#      x y z
#    x 4.280050 0.000000 0.033250 
#    y 0.000000 4.197630 0.000000 
#    z 0.033250 0.000000 4.347900 
# 
# 
# High freq. dielectric constant tensor:
#      x y z
#    x 1.959600 0.000000 -0.001720 
#    y 0.000000 1.944900 0.000000 
#    z -0.001720 0.000000 1.946990 
# 
# From -- ./inp_files/11384.got.cif
#   From: 2010.06.25/outbox.cif.g09.slc.cpg/sg9_6_cif.got.tgz:11384.got - 2010.06.27 21:40:51.
