data_PCOD8056309
_publ_section_title
;
Structure prediction by ZEFSAII (Michael W. Deem and Ramdas Pophale) SiO2 
 PCOD8056309
Probable space group: C C
;
_chemical_formula_sum "Si O2"
_cell_formula_units_Z 32
_cell_length_a 8.045950
_cell_length_b 13.049313
_cell_length_c 13.737340
_cell_angle_alpha 90.000000
_cell_angle_beta 67.670332
_cell_angle_gamma 90.000000
_cell_volume 1334.183339
_symmetry_space_group_name_H-M "C C"
_symmetry_group_IT_number 9
_symmetry_cell_setting 'monoclinic'
loop_
_space_group_symop_operation_xyz
x,y,z
x,-y,1/2+z
1/2+x,1/2+y,z
1/2+x,1/2-y,1/2+z
loop_
_atom_site_type_symbol
_atom_site_label
_atom_site_fract_x
_atom_site_fract_y
_atom_site_fract_z
Si Si1 0.143040 0.946746 0.221790
Si Si2 0.994284 0.844415 0.082638
Si Si3 0.845673 0.939806 0.567200
Si Si4 0.240571 0.459051 0.377777
Si Si5 0.042900 0.743938 0.882853
Si Si6 0.088218 0.366356 0.788087
Si Si7 0.173495 0.827808 0.394977
Si Si8 0.789736 0.346974 0.702356
O O1 0.243495 0.906644 0.296464
O O2 0.136727 0.858990 0.139127
O O3 0.943009 0.979514 0.298846
O O4 0.252750 0.045070 0.155471
O O5 0.885399 0.737931 0.115915
O O6 0.879269 0.948904 0.107892
O O7 0.086156 0.825922 0.958736
O O8 0.723780 0.960254 0.498963
O O9 0.740216 0.871842 0.669642
O O10 0.027324 0.879410 0.498607
O O11 0.183666 0.347832 0.354629
O O12 0.106866 0.541737 0.361298
O O13 0.091354 0.805165 0.774143
O O14 0.836700 0.708303 0.926421
O O15 0.089043 0.264096 0.851928
O O16 0.897153 0.370238 0.777783
#
# Coordination Sequence:
#
# PCOD8056309 Si02
#       8
#     4   4   4   4   4   4   4   4
#     4  11  23  47  70 103 149 191 244 314 372 452
#     4  12  25  46  73 105 148 199 251 314 382 458
#     4  11  25  47  73 107 149 199 252 318 386 464
#     4  11  23  46  70 104 151 190 248 311 367 464
#     4  12  25  44  72 108 148 197 247 312 381 455
#     4  12  23  47  74 107 152 200 248 320 384 460
#     4  11  25  45  74 111 150 197 255 311 392 462
#     4  12  25  46  74 105 149 195 249 310 386 447
#
# _framework density 23.984711000000001
#
# number of rings (size 3 to 8) (size 9 to 14) (size 15 to 20)
#    0.000    0.500    3.750    5.250    1.750    0.000 
#    2.250    0.000    0.000    0.000    0.000    0.000 
#    0.000    0.000    0.000    0.000    0.000    0.000 
#
# Total GULP energy -198352.633847 kJ/mol
# GULP energy per Si atom -12397.039615 kJ/mol
# Density = 2.393012 g / cm^3
# Si number density = 23.984711 Si / 1000 Ang^3
#
#
#
# Elastic Constant Matrix: (Units=GPa)
#
#
# Indices 1 2 3 4 5 6 
#
# 1 81.6937 24.1412 18.0881 0.0000 6.0035 0.0000
# 2 24.1412 126.5181 25.8839 0.0000 -4.4684 0.0000
# 3 18.0881 25.8839 70.4673 0.0000 13.4010 0.0000
# 4 0.0000 0.0000 0.0000 46.3974 0.0000 2.9011
# 5 6.0035 -4.4684 13.4010 0.0000 28.8411 0.0000
# 6 0.0000 0.0000 0.0000 2.9011 0.0000 52.1233
#
#
#
# Elastic Compliance Matrix: (Units=1/GPa)
#
#
# Indices 1 2 3 4 5 6 
#
# 1 0.013547 -0.002195 -0.002271 0.000000 -0.002105 0.000000
# 2 -0.002195 0.009154 -0.003462 0.000000 0.003483 0.000000
# 3 -0.002271 -0.003462 0.017614 0.000000 -0.008248 0.000000
# 4 0.000000 0.000000 0.000000 0.021628 0.000000 -0.001204
# 5 -0.002105 0.003483 -0.008248 0.000000 0.039483 0.000000
# 6 0.000000 0.000000 0.000000 -0.001204 0.000000 0.019252
#
#
# Mechanical properties :
#
#
# Convention : Reuss Voigt Hill
#
# Bulk Modulus (GPa) = 40.88218 46.10063 43.49141
# Shear Modulus (GPa) = 34.55759 39.51008 37.03383
#
# Velocity S-wave (km/s) = 3.79993 4.06310 3.93372
# Velocity P-wave (km/s) = 6.02783 6.42451 6.22933
#
# Compressibility (1/GPa) = 0.02446054
#
# Stress axis : x y z
#
# Youngs Moduli (GPa) = 73.81777 109.24189 56.77324
#
# Poissons Ratio (x) = 0.23975 0.12893
# Poissons Ratio (y) = 0.16200 0.19652
# Poissons Ratio (z) = 0.16763 0.37815
#
# Static dielectric constant tensor:
#      x y z
#    x 4.298480 0.000000 0.361510 
#    y 0.000000 4.516510 0.000000 
#    z 0.361510 0.000000 4.269930 
# 
# 
# High freq. dielectric constant tensor:
#      x y z
#    x 1.940930 0.000000 0.019810 
#    y 0.000000 1.968870 0.000000 
#    z 0.019810 0.000000 1.950740 
# 
# From -- ./inp_files/22848.got.cif
#   From: 2010.06.25/outbox.cif.g09.slc.cpg/sg9_12_cif.got.tgz:22848.got - 2010.06.27 21:40:51.
