data_PCOD8056347
_publ_section_title
;
Structure prediction by ZEFSAII (Michael W. Deem and Ramdas Pophale) SiO2 
 PCOD8056347
Probable space group: C C
;
_chemical_formula_sum "Si O2"
_cell_formula_units_Z 20
_cell_length_a 7.327611
_cell_length_b 6.901629
_cell_length_c 18.088389
_cell_angle_alpha 90.000000
_cell_angle_beta 50.591748
_cell_angle_gamma 90.000000
_cell_volume 706.793100
_symmetry_space_group_name_H-M "C C"
_symmetry_group_IT_number 9
_symmetry_cell_setting 'monoclinic'
loop_
_space_group_symop_operation_xyz
x,y,z
x,-y,1/2+z
1/2+x,1/2+y,z
1/2+x,1/2-y,1/2+z
loop_
_atom_site_type_symbol
_atom_site_label
_atom_site_fract_x
_atom_site_fract_y
_atom_site_fract_z
Si Si1 0.850050 0.663777 0.575780
Si Si2 0.465951 0.917577 0.302807
Si Si3 0.475466 0.731614 0.891402
Si Si4 0.897863 0.261626 0.619187
Si Si5 0.354474 0.316458 0.969076
O O1 0.782501 0.472704 0.639346
O O2 0.607188 0.783384 0.626625
O O3 0.942212 0.617919 0.468316
O O4 0.083339 0.767586 0.551794
O O5 0.246412 0.837538 0.313094
O O6 0.705180 0.892808 0.195328
O O7 0.498176 0.802042 0.371368
O O8 0.421348 0.147368 0.330596
O O9 0.320424 0.539584 0.949463
O O10 0.990274 0.188414 0.513767
#
# Coordination Sequence:
#
# PCOD8056347 Si02
#       5
#     4   4   4   4   4
#     4  11  24  45  75 108 151 204 256 316 386 466
#     4  11  26  46  75 114 154 203 263 321 387 471
#     4  11  23  48  73 109 153 204 256 318 387 461
#     4  12  25  48  75 113 158 202 260 323 392 457
#     4  11  26  47  76 106 156 209 257 322 392 461
#
# _framework density 28.296823
#
# number of rings (size 3 to 8) (size 9 to 14) (size 15 to 20)
#    0.000    0.800    4.000    2.400    2.800    1.600 
#    3.600    4.000    0.000    0.000    0.000    0.000 
#    0.000    0.000    0.000    0.000    0.000    0.000 
#
# Total GULP energy -123919.173587 kJ/mol
# GULP energy per Si atom -12391.917359 kJ/mol
# Density = 2.823242 g / cm^3
# Si number density = 28.296823 Si / 1000 Ang^3
#
#
#
# Elastic Constant Matrix: (Units=GPa)
#
#
# Indices 1 2 3 4 5 6 
#
# 1 100.0741 24.8014 10.5017 0.0000 -13.3852 0.0000
# 2 24.8014 86.6870 1.9368 0.0000 17.3869 0.0000
# 3 10.5017 1.9368 72.4794 0.0000 -9.5105 0.0000
# 4 0.0000 0.0000 0.0000 30.9981 0.0000 -8.8252
# 5 -13.3852 17.3869 -9.5105 0.0000 39.1637 0.0000
# 6 0.0000 0.0000 0.0000 -8.8252 0.0000 41.1877
#
#
#
# Elastic Compliance Matrix: (Units=1/GPa)
#
#
# Indices 1 2 3 4 5 6 
#
# 1 0.012020 -0.004614 -0.000837 0.000000 0.005954 0.000000
# 2 -0.004614 0.014522 -0.000798 0.000000 -0.008218 0.000000
# 3 -0.000837 -0.000798 0.014408 0.000000 0.003567 0.000000
# 4 0.000000 0.000000 0.000000 0.034356 0.000000 0.007361
# 5 0.005954 -0.008218 0.003567 0.000000 0.032083 0.000000
# 6 0.000000 0.000000 0.000000 0.007361 0.000000 0.025856
#
#
# Mechanical properties :
#
#
# Convention : Reuss Voigt Hill
#
# Bulk Modulus (GPa) = 35.14780 37.08005 36.11393
# Shear Modulus (GPa) = 32.21065 37.06994 34.64029
#
# Velocity S-wave (km/s) = 3.37755 3.62337 3.50262
# Velocity P-wave (km/s) = 5.25914 5.53512 5.39889
#
# Compressibility (1/GPa) = 0.02845128
#
# Stress axis : x y z
#
# Youngs Moduli (GPa) = 83.19221 68.86059 69.40747
#
# Poissons Ratio (x) = 0.31776 0.05810
# Poissons Ratio (y) = 0.38389 0.05537
# Poissons Ratio (z) = 0.06964 0.05494
#
# Static dielectric constant tensor:
#      x y z
#    x 5.277980 0.000000 -0.075450 
#    y 0.000000 4.885650 0.000000 
#    z -0.075450 0.000000 4.823070 
# 
# 
# High freq. dielectric constant tensor:
#      x y z
#    x 2.154420 0.000000 -0.013310 
#    y 0.000000 2.137160 0.000000 
#    z -0.013310 0.000000 2.129360 
# 
# From -- ./inp_files/32350.got.cif
#   From: 2010.06.25/outbox.cif.g09.slc.cpg/sg9_17_cif.got.tgz:32350.got - 2010.06.27 21:40:51.
