data_PCOD8056246
_publ_section_title
;
Structure prediction by ZEFSAII (Michael W. Deem and Ramdas Pophale) SiO2 
 PCOD8056246
Probable space group: C C
;
_chemical_formula_sum "Si O2"
_cell_formula_units_Z 24
_cell_length_a 4.937397
_cell_length_b 25.975124
_cell_length_c 9.167791
_cell_angle_alpha 90.000000
_cell_angle_beta 63.288411
_cell_angle_gamma 90.000000
_cell_volume 1050.287581
_symmetry_space_group_name_H-M "C C"
_symmetry_group_IT_number 9
_symmetry_cell_setting 'monoclinic'
loop_
_space_group_symop_operation_xyz
x,y,z
x,-y,1/2+z
1/2+x,1/2+y,z
1/2+x,1/2-y,1/2+z
loop_
_atom_site_type_symbol
_atom_site_label
_atom_site_fract_x
_atom_site_fract_y
_atom_site_fract_z
Si Si1 0.964810 0.131579 0.427940
Si Si2 0.584863 0.820765 0.786991
Si Si3 0.541388 0.529068 0.583519
Si Si4 0.042835 0.339639 0.276520
Si Si5 0.923699 0.788842 0.423139
Si Si6 0.891652 0.455469 0.297321
O O1 0.809613 0.165263 0.593112
O O2 0.220741 0.047780 0.683500
O O3 0.277242 0.156104 0.295696
O O4 0.022010 0.073572 0.466167
O O5 0.733558 0.865884 0.848628
O O6 0.828632 0.804367 0.608272
O O7 0.488621 0.771680 0.906316
O O8 0.201000 0.511688 0.707315
O O9 0.692548 0.479680 0.473315
O O10 0.723208 0.318445 0.296645
O O11 0.144942 0.305222 0.388040
O O12 0.990885 0.399266 0.328933
#
# Coordination Sequence:
#
# PCOD8056246 Si02
#       6
#     4   4   4   4   4   4
#     4  11  23  43  65  92 129 170 213 265 324 384
#     4  12  25  42  65  95 127 167 214 268 324 386
#     4  11  24  43  67  97 132 175 218 269 327 386
#     4  11  23  43  65  92 129 170 213 265 324 384
#     4  12  25  42  65  95 127 167 214 268 324 386
#     4  11  24  43  67  97 132 175 218 269 327 386
#
# _framework density 22.850885999999999
#
# number of rings (size 3 to 8) (size 9 to 14) (size 15 to 20)
#    0.000    0.667    0.000   10.000    0.000    4.000 
#    0.000    0.000    0.000    0.000    0.000    0.000 
#    0.000    0.000    0.000    0.000    0.000    0.000 
#
# Total GULP energy -148839.739601 kJ/mol
# GULP energy per Si atom -12403.311633 kJ/mol
# Density = 2.279888 g / cm^3
# Si number density = 22.850886 Si / 1000 Ang^3
#
#
#
# Elastic Constant Matrix: (Units=GPa)
#
#
# Indices 1 2 3 4 5 6 
#
# 1 117.2660 18.8796 23.0037 0.0000 -13.2743 0.0000
# 2 18.8796 47.4829 4.0561 0.0000 -7.3819 0.0000
# 3 23.0037 4.0561 47.3562 0.0000 -13.5135 0.0000
# 4 0.0000 0.0000 0.0000 30.8365 0.0000 -4.2183
# 5 -13.2743 -7.3819 -13.5135 0.0000 47.9506 0.0000
# 6 0.0000 0.0000 0.0000 -4.2183 0.0000 31.3944
#
#
#
# Elastic Compliance Matrix: (Units=1/GPa)
#
#
# Indices 1 2 3 4 5 6 
#
# 1 0.010044 -0.003466 -0.004286 0.000000 0.001039 0.000000
# 2 -0.003466 0.022814 0.000498 0.000000 0.002693 0.000000
# 3 -0.004286 0.000498 0.024836 0.000000 0.005890 0.000000
# 4 0.000000 0.000000 0.000000 0.033036 0.000000 0.004439
# 5 0.001039 0.002693 0.005890 0.000000 0.023217 0.000000
# 6 0.000000 0.000000 0.000000 0.004439 0.000000 0.032449
#
#
# Mechanical properties :
#
#
# Convention : Reuss Voigt Hill
#
# Bulk Modulus (GPa) = 23.15466 33.77599 28.46533
# Shear Modulus (GPa) = 28.52252 33.11400 30.81826
#
# Velocity S-wave (km/s) = 3.53682 3.81088 3.67641
# Velocity P-wave (km/s) = 5.18013 5.84610 5.52316
#
# Compressibility (1/GPa) = 0.04318785
#
# Stress axis : x y z
#
# Youngs Moduli (GPa) = 99.56247 43.83188 40.26358
#
# Poissons Ratio (x) = 0.15192 0.17255
# Poissons Ratio (y) = 0.34508 -0.02005
# Poissons Ratio (z) = 0.42668 -0.02183
#
# Static dielectric constant tensor:
#      x y z
#    x 4.212860 0.000000 -0.291070 
#    y 0.000000 3.929390 0.000000 
#    z -0.291070 0.000000 4.162340 
# 
# 
# High freq. dielectric constant tensor:
#      x y z
#    x 1.917530 0.000000 -0.017090 
#    y 0.000000 1.894050 0.000000 
#    z -0.017090 0.000000 1.906530 
# 
# From -- ./inp_files/13579.got.cif
#   From: 2010.06.25/outbox.cif.g09.slc.cpg/sg9_7_cif.got.tgz:13579.got - 2010.06.27 21:40:51.
