data_PCOD8056043
_publ_section_title
;
Structure prediction by ZEFSAII (Michael W. Deem and Ramdas Pophale) SiO2 
 PCOD8056043
Probable space group: C C
;
_chemical_formula_sum "Si O2"
_cell_formula_units_Z 32
_cell_length_a 7.966666
_cell_length_b 21.396173
_cell_length_c 12.711094
_cell_angle_alpha 90.000000
_cell_angle_beta 51.243382
_cell_angle_gamma 90.000000
_cell_volume 1689.606825
_symmetry_space_group_name_H-M "C C"
_symmetry_group_IT_number 9
_symmetry_cell_setting 'monoclinic'
loop_
_space_group_symop_operation_xyz
x,y,z
x,-y,1/2+z
1/2+x,1/2+y,z
1/2+x,1/2-y,1/2+z
loop_
_atom_site_type_symbol
_atom_site_label
_atom_site_fract_x
_atom_site_fract_y
_atom_site_fract_z
Si Si1 0.805710 0.887114 0.172710
Si Si2 0.285935 0.810467 0.554488
Si Si3 0.913004 0.386040 0.195979
Si Si4 0.359218 0.754384 0.300633
Si Si5 0.933889 0.302131 0.898236
Si Si6 0.891645 0.566340 0.919390
Si Si7 0.776949 0.572123 0.520502
Si Si8 0.997362 0.755722 0.148196
O O1 0.675854 0.889707 0.110868
O O2 0.646145 0.915531 0.323854
O O3 0.846342 0.814627 0.181383
O O4 0.024796 0.926622 0.089051
O O5 0.376258 0.776686 0.414387
O O6 0.265691 0.885130 0.544259
O O7 0.460426 0.797793 0.576363
O O8 0.057976 0.786809 0.685249
O O9 0.835344 0.314338 0.234337
O O10 0.803684 0.425617 0.334120
O O11 0.824988 0.413267 0.122980
O O12 0.152867 0.710232 0.373377
O O13 0.932013 0.271045 0.785801
O O14 0.900788 0.376999 0.900186
O O15 0.746405 0.274952 0.046344
O O16 0.865393 0.496120 0.965949
#
# Coordination Sequence:
#
# PCOD8056043 Si02
#       8
#     4   4   4   4   4   4   4   4
#     4   9  20  41  61  81 123 158 197 250 319 353
#     4  11  20  36  63  84 121 154 201 245 309 363
#     4   9  20  41  61  82 121 160 197 248 322 351
#     4  11  20  37  60  91 115 154 198 258 305 368
#     4  11  24  34  61  90 124 149 202 251 314 358
#     4   9  22  39  57  88 114 163 211 242 293 375
#     4  11  22  41  60  84 125 163 202 252 298 370
#     4  11  20  39  59  92 117 157 196 260 310 364
#
# _framework density 18.939318
#
# number of rings (size 3 to 8) (size 9 to 14) (size 15 to 20)
#    0.750    1.000    1.250    4.500    0.000    2.000 
#    2.250    0.000    0.000    0.000    0.000    0.000 
#    0.000    0.000    0.000    0.000    0.000    0.000 
#
# Total GULP energy -198301.908556 kJ/mol
# GULP energy per Si atom -12393.869285 kJ/mol
# Density = 1.889621 g / cm^3
# Si number density = 18.939318 Si / 1000 Ang^3
#
#
#
# Elastic Constant Matrix: (Units=GPa)
#
#
# Indices 1 2 3 4 5 6 
#
# 1 69.7085 23.2038 27.7283 0.0000 -12.2643 0.0000
# 2 23.2038 114.1791 46.2383 0.0000 -12.4561 0.0000
# 3 27.7283 46.2383 79.6424 0.0000 -8.6622 0.0000
# 4 0.0000 0.0000 0.0000 29.4026 0.0000 -0.3058
# 5 -12.2643 -12.4561 -8.6622 0.0000 31.1768 0.0000
# 6 0.0000 0.0000 0.0000 -0.3058 0.0000 17.9022
#
#
#
# Elastic Compliance Matrix: (Units=1/GPa)
#
#
# Indices 1 2 3 4 5 6 
#
# 1 0.017559 -0.000993 -0.004979 0.000000 0.005127 0.000000
# 2 -0.000993 0.011751 -0.006196 0.000000 0.002583 0.000000
# 3 -0.004979 -0.006196 0.017947 0.000000 0.000552 0.000000
# 4 0.000000 0.000000 0.000000 0.034017 0.000000 0.000581
# 5 0.005127 0.002583 0.000552 0.000000 0.035277 0.000000
# 6 0.000000 0.000000 0.000000 0.000581 0.000000 0.055869
#
#
# Mechanical properties :
#
#
# Convention : Reuss Voigt Hill
#
# Bulk Modulus (GPa) = 43.62795 50.87452 47.25123
# Shear Modulus (GPa) = 24.46250 26.78696 25.62473
#
# Velocity S-wave (km/s) = 3.59782 3.76487 3.68229
# Velocity P-wave (km/s) = 6.35175 6.76899 6.56368
#
# Compressibility (1/GPa) = 0.02292109
#
# Stress axis : x y z
#
# Youngs Moduli (GPa) = 56.95233 85.10169 55.72019
#
# Poissons Ratio (x) = 0.08447 0.27745
# Poissons Ratio (y) = 0.05653 0.34522
# Poissons Ratio (z) = 0.28358 0.52726
#
# Static dielectric constant tensor:
#      x y z
#    x 3.497810 0.000000 -0.073070 
#    y 0.000000 3.424600 0.000000 
#    z -0.073070 0.000000 3.486450 
# 
# 
# High freq. dielectric constant tensor:
#      x y z
#    x 1.739760 0.000000 -0.001250 
#    y 0.000000 1.725980 0.000000 
#    z -0.001250 0.000000 1.730160 
# 
# From -- ./inp_files/15411.got.cif
#   From: 2010.06.25/outbox.cif.g09.slc.cpg/sg9_8_cif.got.tgz:15411.got - 2010.06.27 21:40:51.
