data_PCOD8056013
_publ_section_title
;
Structure prediction by ZEFSAII (Michael W. Deem and Ramdas Pophale) SiO2 
 PCOD8056013
Probable space group: C C
;
_chemical_formula_sum "Si O2"
_cell_formula_units_Z 20
_cell_length_a 4.960054
_cell_length_b 17.622841
_cell_length_c 9.780939
_cell_angle_alpha 90.000000
_cell_angle_beta 101.741248
_cell_angle_gamma 90.000000
_cell_volume 837.065677
_symmetry_space_group_name_H-M "C C"
_symmetry_group_IT_number 9
_symmetry_cell_setting 'monoclinic'
loop_
_space_group_symop_operation_xyz
x,y,z
x,-y,1/2+z
1/2+x,1/2+y,z
1/2+x,1/2-y,1/2+z
loop_
_atom_site_type_symbol
_atom_site_label
_atom_site_fract_x
_atom_site_fract_y
_atom_site_fract_z
Si Si1 0.125000 0.355729 0.065940
Si Si2 0.407288 0.589938 0.157460
Si Si3 0.563775 0.695577 0.408303
Si Si4 0.421514 0.009670 0.688649
Si Si5 0.625585 0.141903 0.866241
O O1 0.247060 0.334567 0.229152
O O2 0.989606 0.440527 0.059219
O O3 0.383558 0.354093 0.993054
O O4 0.881523 0.300690 0.989439
O O5 0.545858 0.657168 0.258009
O O6 0.611687 0.519440 0.158862
O O7 0.133652 0.561139 0.208720
O O8 0.354639 0.623222 0.001886
O O9 0.455974 0.783017 0.396305
O O10 0.444471 0.065327 0.824519
#
# Coordination Sequence:
#
# PCOD8056013 Si02
#       5
#     4   4   4   4   4
#     4  10  26  44  74 101 154 183 240 303 362 420
#     4  12  26  46  78 104 143 195 249 289 374 429
#     4  12  25  47  75 110 144 195 242 302 365 440
#     4  10  27  45  72 104 146 187 245 298 355 427
#     4  10  28  48  73 107 149 192 242 302 362 436
#
# _framework density 23.892987999999999
#
# number of rings (size 3 to 8) (size 9 to 14) (size 15 to 20)
#    1.200    0.000    0.000    3.600    8.400    9.600 
#    0.000    0.000    0.000    0.000    0.000    0.000 
#    0.000    0.000    0.000    0.000    0.000    0.000 
#
# Total GULP energy -123930.024607 kJ/mol
# GULP energy per Si atom -12393.002461 kJ/mol
# Density = 2.383861 g / cm^3
# Si number density = 23.892988 Si / 1000 Ang^3
#
#
#
# Elastic Constant Matrix: (Units=GPa)
#
#
# Indices 1 2 3 4 5 6 
#
# 1 78.7485 17.8644 34.3464 0.0000 2.7426 0.0000
# 2 17.8644 129.6840 61.5753 0.0000 9.6445 0.0000
# 3 34.3464 61.5753 180.2052 0.0000 15.7820 0.0000
# 4 0.0000 0.0000 0.0000 28.4122 0.0000 -1.4200
# 5 2.7426 9.6445 15.7820 0.0000 21.4478 0.0000
# 6 0.0000 0.0000 0.0000 -1.4200 0.0000 22.6570
#
#
#
# Elastic Compliance Matrix: (Units=1/GPa)
#
#
# Indices 1 2 3 4 5 6 
#
# 1 0.013919 -0.000799 -0.002411 0.000000 0.000353 0.000000
# 2 -0.000799 0.009327 -0.002861 0.000000 -0.001987 0.000000
# 3 -0.002411 -0.002861 0.007318 0.000000 -0.003790 0.000000
# 4 0.000000 0.000000 0.000000 0.035307 0.000000 0.002213
# 5 0.000353 -0.001987 -0.003790 0.000000 0.050262 0.000000
# 6 0.000000 0.000000 0.000000 0.002213 0.000000 0.044275
#
#
# Mechanical properties :
#
#
# Convention : Reuss Voigt Hill
#
# Bulk Modulus (GPa) = 54.27916 68.46777 61.37347
# Shear Modulus (GPa) = 27.98129 32.82684 30.40407
#
# Velocity S-wave (km/s) = 3.42586 3.71065 3.57110
# Velocity P-wave (km/s) = 6.19803 6.86125 6.53806
#
# Compressibility (1/GPa) = 0.01842328
#
# Stress axis : x y z
#
# Youngs Moduli (GPa) = 71.84367 107.21323 136.64594
#
# Poissons Ratio (x) = 0.08566 0.32944
# Poissons Ratio (y) = 0.05740 0.39091
# Poissons Ratio (z) = 0.17321 0.30671
#
# Static dielectric constant tensor:
#      x y z
#    x 3.717930 0.000000 0.117140 
#    y 0.000000 4.352060 0.000000 
#    z 0.117140 0.000000 4.281720 
# 
# 
# High freq. dielectric constant tensor:
#      x y z
#    x 1.914150 0.000000 0.005600 
#    y 0.000000 1.959500 0.000000 
#    z 0.005600 0.000000 1.953820 
# 
# From -- ./inp_files/3643.got.cif
#   From: 2010.06.25/outbox.cif.g09.slc.cpg/sg9_2_cif.got.tgz:3643.got - 2010.06.27 21:40:51.
