data_PCOD8056999
_publ_section_title
;
Structure prediction by ZEFSAII (Michael W. Deem and Ramdas Pophale) SiO2 
 PCOD8056999
Probable space group: P 2/M
;
_chemical_formula_sum "Si O2"
_cell_formula_units_Z 32
_cell_length_a 13.799569
_cell_length_b 8.656726
_cell_length_c 27.096699
_cell_angle_alpha 90.000000
_cell_angle_beta 140.034277
_cell_angle_gamma 90.000000
_cell_volume 2079.185577
_symmetry_space_group_name_H-M "P 2/M"
_symmetry_group_IT_number 10
_symmetry_cell_setting 'monoclinic'
loop_
_space_group_symop_operation_xyz
x,y,z
-x,y,-z
-x,-y,-z
x,-y,z
loop_
_atom_site_type_symbol
_atom_site_label
_atom_site_fract_x
_atom_site_fract_y
_atom_site_fract_z
Si Si1 0.089338 0.816894 0.467612
Si Si2 0.212750 0.681115 0.074041
Si Si3 0.002536 0.182094 0.076511
Si Si4 0.229051 0.682155 0.232283
Si Si5 0.462096 0.319041 0.242048
Si Si6 0.356369 0.816930 0.379077
Si Si7 0.311112 0.817813 0.470509
Si Si8 0.795659 0.316593 0.386871
O O1 0.171945 0.762014 0.449793
O O2 0.170577 0.729910 0.543976
O O3 0.915180 0.764433 0.396762
O O4 0.100737 0.000000 0.480280
O O5 0.182569 0.500000 0.059651
O O6 0.109630 0.753642 0.075915
O O7 0.384990 0.716335 0.158507
O O8 0.167497 0.757193 0.003495
O O9 0.066472 0.246324 0.153279
O O10 0.001247 0.000000 0.077330
O O11 0.216290 0.500000 0.222519
O O12 0.360830 0.748464 0.247540
O O13 0.261639 0.730078 0.300697
O O14 0.475087 0.500000 0.256229
O O15 0.630575 0.249859 0.308376
O O16 0.287653 0.762866 0.405010
O O17 0.530169 0.759003 0.444933
O O18 0.342813 0.000000 0.365766
O O19 0.322791 0.000000 0.474156
O O20 0.807969 0.500000 0.385660
#
# Coordination Sequence:
#
# PCOD8056999 Si02
#       8
#     4   4   4   4   4   4   4   4
#     4  10  18  29  42  59  80 106 135 167 203 241
#     4   9  15  26  40  55  77 106 134 166 202 237
#     4  10  17  25  37  56  79 107 138 165 192 236
#     4  10  18  28  40  58  82 109 136 169 204 236
#     4   8  16  27  40  56  79 108 137 164 199 237
#     4   9  16  29  45  61  78 104 137 169 201 241
#     4   8  16  29  45  60  80 106 134 166 206 245
#     4  10  18  29  42  59  80 106 137 170 200 235
#
# _framework density 15.390641
#
# number of rings (size 3 to 8) (size 9 to 14) (size 15 to 20)
#    0.000    2.750    0.000    6.375    0.000    0.000 
#    0.000   10.000    0.000    0.000    0.000    0.000 
#    0.000    1.000    0.000   11.500    0.000    3.750 
#
# Total GULP energy -396522.850798 kJ/mol
# GULP energy per Si atom -12391.339087 kJ/mol
# Density = 1.535561 g / cm^3
# Si number density = 15.390641 Si / 1000 Ang^3
#
#
#
# Elastic Constant Matrix: (Units=GPa)
#
#
# Indices 1 2 3 4 5 6 
#
# 1 81.9648 16.1522 44.9264 0.0000 -1.0374 0.0000
# 2 16.1522 60.4806 30.2713 0.0000 -2.7025 0.0000
# 3 44.9264 30.2713 135.4005 0.0000 -1.6010 0.0000
# 4 0.0000 0.0000 0.0000 21.3468 0.0000 -1.4563
# 5 -1.0374 -2.7025 -1.6010 0.0000 18.3532 0.0000
# 6 0.0000 0.0000 0.0000 -1.4563 0.0000 10.1086
#
#
#
# Elastic Compliance Matrix: (Units=1/GPa)
#
#
# Indices 1 2 3 4 5 6 
#
# 1 0.015069 -0.001705 -0.004617 0.000000 0.000198 0.000000
# 2 -0.001705 0.018915 -0.003635 0.000000 0.002372 0.000000
# 3 -0.004617 -0.003635 0.009731 0.000000 0.000053 0.000000
# 4 0.000000 0.000000 0.000000 0.047310 0.000000 0.006816
# 5 0.000198 0.002372 0.000053 0.000000 0.054852 0.000000
# 6 0.000000 0.000000 0.000000 0.006816 0.000000 0.099908
#
#
# Mechanical properties :
#
#
# Convention : Reuss Voigt Hill
#
# Bulk Modulus (GPa) = 42.01381 51.17177 46.59279
# Shear Modulus (GPa) = 18.27276 22.39477 20.33376
#
# Velocity S-wave (km/s) = 3.44941 3.81870 3.63874
# Velocity P-wave (km/s) = 6.57435 7.26389 6.92771
#
# Compressibility (1/GPa) = 0.02380170
#
# Stress axis : x y z
#
# Youngs Moduli (GPa) = 66.36027 52.86831 102.76885
#
# Poissons Ratio (x) = 0.09014 0.47443
# Poissons Ratio (y) = 0.11314 0.37357
# Poissons Ratio (z) = 0.30635 0.19218
#
# Static dielectric constant tensor:
#      x y z
#    x 2.907450 0.000000 0.127520 
#    y 0.000000 2.829970 0.000000 
#    z 0.127520 0.000000 3.547640 
# 
# 
# High freq. dielectric constant tensor:
#      x y z
#    x 1.540490 0.000000 0.002820 
#    y 0.000000 1.586300 0.000000 
#    z 0.002820 0.000000 1.598720 
# 
# From -- ./inp_files/72040.got.cif
#   From: 2010.06.25/outbox.cif.g09.slc.cpg/sg10_37_cif.got.tgz:72040.got - 2010.06.27 22:07:45.
