data_PCOD8056445
_publ_section_title
;
Structure prediction by ZEFSAII (Michael W. Deem and Ramdas Pophale) SiO2 
 PCOD8056445
Probable space group: C C
;
_chemical_formula_sum "Si O2"
_cell_formula_units_Z 28
_cell_length_a 8.198811
_cell_length_b 15.613717
_cell_length_c 10.705591
_cell_angle_alpha 90.000000
_cell_angle_beta 64.215324
_cell_angle_gamma 90.000000
_cell_volume 1234.014501
_symmetry_space_group_name_H-M "C C"
_symmetry_group_IT_number 9
_symmetry_cell_setting 'monoclinic'
loop_
_space_group_symop_operation_xyz
x,y,z
x,-y,1/2+z
1/2+x,1/2+y,z
1/2+x,1/2-y,1/2+z
loop_
_atom_site_type_symbol
_atom_site_label
_atom_site_fract_x
_atom_site_fract_y
_atom_site_fract_z
Si Si1 0.340080 0.372281 0.280690
Si Si2 0.423948 0.005764 0.548805
Si Si3 0.381767 0.650974 0.038880
Si Si4 0.718360 0.333428 0.574973
Si Si5 0.552537 0.733575 0.371798
Si Si6 0.152290 0.513301 0.220421
Si Si7 0.703432 0.670847 0.562177
O O1 0.359207 0.401549 0.417647
O O2 0.150060 0.324407 0.335826
O O3 0.324411 0.450761 0.188475
O O4 0.509847 0.311451 0.192209
O O5 0.542627 0.017518 0.634538
O O6 0.278016 0.081959 0.590964
O O7 0.330143 0.913459 0.589756
O O8 0.534778 0.012056 0.384494
O O9 0.592124 0.638464 0.002600
O O10 0.236486 0.607868 0.180034
O O11 0.339560 0.751857 0.045502
O O12 0.569437 0.304983 0.728052
O O13 0.847909 0.254630 0.487231
O O14 0.659446 0.668900 0.428854
#
# Coordination Sequence:
#
# PCOD8056445 Si02
#       7
#     4   4   4   4   4   4   4
#     4  11  24  46  70 102 149 185 244 303 366 433
#     4  12  27  45  78 107 150 192 248 306 371 441
#     4  11  28  45  71 108 147 188 248 305 368 448
#     4  12  26  48  75 111 151 191 251 303 375 444
#     4  11  24  48  74 106 146 195 240 308 367 443
#     4  12  25  50  72 106 146 194 246 307 369 438
#     4  11  26  44  74 106 147 193 243 298 376 437
#
# _framework density 22.690170999999999
#
# number of rings (size 3 to 8) (size 9 to 14) (size 15 to 20)
#    0.000    0.571    4.286    2.571   10.000    1.143 
#    5.143    0.000    0.000    0.000    0.000    0.000 
#    0.000    0.000    0.000    0.000    0.000    0.000 
#
# Total GULP energy -173566.492072 kJ/mol
# GULP energy per Si atom -12397.606577 kJ/mol
# Density = 2.263853 g / cm^3
# Si number density = 22.690171 Si / 1000 Ang^3
#
#
#
# Elastic Constant Matrix: (Units=GPa)
#
#
# Indices 1 2 3 4 5 6 
#
# 1 131.3526 44.0002 45.8419 0.0000 14.2094 0.0000
# 2 44.0002 79.9200 37.5980 0.0000 8.9237 0.0000
# 3 45.8419 37.5980 125.8495 0.0000 8.5993 0.0000
# 4 0.0000 0.0000 0.0000 34.7278 0.0000 -7.6288
# 5 14.2094 8.9237 8.5993 0.0000 35.6542 0.0000
# 6 0.0000 0.0000 0.0000 -7.6288 0.0000 30.5851
#
#
#
# Elastic Compliance Matrix: (Units=1/GPa)
#
#
# Indices 1 2 3 4 5 6 
#
# 1 0.010071 -0.004220 -0.002243 0.000000 -0.002416 0.000000
# 2 -0.004220 0.016575 -0.003301 0.000000 -0.001671 0.000000
# 3 -0.002243 -0.003301 0.009793 0.000000 -0.000642 0.000000
# 4 0.000000 0.000000 0.000000 0.030465 0.000000 0.007599
# 5 -0.002416 -0.001671 -0.000642 0.000000 0.029583 0.000000
# 6 0.000000 0.000000 0.000000 0.007599 0.000000 0.034591
#
#
# Mechanical properties :
#
#
# Convention : Reuss Voigt Hill
#
# Bulk Modulus (GPa) = 59.12689 65.77806 62.45247
# Shear Modulus (GPa) = 32.00196 34.17222 33.08709
#
# Velocity S-wave (km/s) = 3.75959 3.88498 3.82280
# Velocity P-wave (km/s) = 6.70529 7.01261 6.86067
#
# Compressibility (1/GPa) = 0.01691278
#
# Stress axis : x y z
#
# Youngs Moduli (GPa) = 99.29862 60.33207 102.11547
#
# Poissons Ratio (x) = 0.25458 0.22900
# Poissons Ratio (y) = 0.41900 0.33705
# Poissons Ratio (z) = 0.22269 0.19913
#
# Static dielectric constant tensor:
#      x y z
#    x 4.181700 0.000000 0.128760 
#    y 0.000000 4.026150 0.000000 
#    z 0.128760 0.000000 4.202730 
# 
# 
# High freq. dielectric constant tensor:
#      x y z
#    x 1.906690 0.000000 0.003510 
#    y 0.000000 1.885670 0.000000 
#    z 0.003510 0.000000 1.904420 
# 
# From -- ./inp_files/14499.got.cif
#   From: 2010.06.25/outbox.cif.g09.slc.cpg/sg9_8_cif.got.tgz:14499.got - 2010.06.27 21:40:51.
