data_PCOD8056378
_publ_section_title
;
Structure prediction by ZEFSAII (Michael W. Deem and Ramdas Pophale) SiO2 
 PCOD8056378
Probable space group: C C
;
_chemical_formula_sum "Si O2"
_cell_formula_units_Z 32
_cell_length_a 27.583869
_cell_length_b 9.376730
_cell_length_c 8.578093
_cell_angle_alpha 90.000000
_cell_angle_beta 39.166324
_cell_angle_gamma 90.000000
_cell_volume 1401.268597
_symmetry_space_group_name_H-M "C C"
_symmetry_group_IT_number 9
_symmetry_cell_setting 'monoclinic'
loop_
_space_group_symop_operation_xyz
x,y,z
x,-y,1/2+z
1/2+x,1/2+y,z
1/2+x,1/2-y,1/2+z
loop_
_atom_site_type_symbol
_atom_site_label
_atom_site_fract_x
_atom_site_fract_y
_atom_site_fract_z
Si Si1 0.950500 0.123801 0.962890
Si Si2 0.944987 0.412671 0.806573
Si Si3 0.534482 0.123630 0.777458
Si Si4 0.795907 0.095681 0.489206
Si Si5 0.710966 0.411206 0.183532
Si Si6 0.800289 0.620125 0.153315
Si Si7 0.038022 0.895884 0.554760
Si Si8 0.207801 0.640285 0.403356
O O1 0.922153 0.274583 0.963945
O O2 0.874354 0.041800 0.211973
O O3 0.991008 0.033817 0.726691
O O4 0.010222 0.151174 0.953744
O O5 0.015231 0.492665 0.713349
O O6 0.972623 0.364347 0.568446
O O7 0.873222 0.517116 0.968935
O O8 0.526926 0.270864 0.705225
O O9 0.619554 0.091482 0.627213
O O10 0.821510 0.223107 0.540331
O O11 0.735158 0.148858 0.512751
O O12 0.759736 0.969202 0.678212
O O13 0.735398 0.559367 0.200084
O O14 0.627499 0.434099 0.317026
O O15 0.713958 0.294888 0.312193
O O16 0.769599 0.363032 0.904246
#
# Coordination Sequence:
#
# PCOD8056378 Si02
#       8
#     4   4   4   4   4   4   4   4
#     4  12  25  43  67  96 131 172 221 270 328 393
#     4  12  25  43  68  96 132 175 219 272 330 393
#     4  11  24  43  66  97 134 171 220 271 328 390
#     4  12  25  43  67  96 131 172 221 270 328 393
#     4  11  24  43  66  97 134 171 220 271 328 390
#     4  12  25  43  68  96 132 175 219 272 330 393
#     4  11  25  43  67  98 131 172 218 273 328 390
#     4  11  25  43  67  98 131 172 218 273 328 390
#
# _framework density 22.836451
#
# number of rings (size 3 to 8) (size 9 to 14) (size 15 to 20)
#    0.000    0.500    0.000    9.000    0.000   10.000 
#    0.000    0.000    0.000    0.000    0.000    0.000 
#    0.000    0.000    0.000    0.000    0.000    0.000 
#
# Total GULP energy -198539.833636 kJ/mol
# GULP energy per Si atom -12408.739602 kJ/mol
# Density = 2.278447 g / cm^3
# Si number density = 22.836451 Si / 1000 Ang^3
#
#
#
# Elastic Constant Matrix: (Units=GPa)
#
#
# Indices 1 2 3 4 5 6 
#
# 1 75.7258 4.8286 2.6168 0.0000 3.2218 0.0000
# 2 4.8286 65.2558 10.1791 0.0000 -16.3263 0.0000
# 3 2.6168 10.1791 97.8180 0.0000 -8.3135 0.0000
# 4 0.0000 0.0000 0.0000 35.2099 0.0000 2.1556
# 5 3.2218 -16.3263 -8.3135 0.0000 32.9392 0.0000
# 6 0.0000 0.0000 0.0000 2.1556 0.0000 39.4147
#
#
#
# Elastic Compliance Matrix: (Units=1/GPa)
#
#
# Indices 1 2 3 4 5 6 
#
# 1 0.013403 -0.001466 -0.000388 0.000000 -0.002135 0.000000
# 2 -0.001466 0.017772 -0.001072 0.000000 0.008681 0.000000
# 3 -0.000388 -0.001072 0.010529 0.000000 0.002164 0.000000
# 4 0.000000 0.000000 0.000000 0.028497 0.000000 -0.001558
# 5 -0.002135 0.008681 0.002164 0.000000 0.035417 0.000000
# 6 0.000000 0.000000 0.000000 -0.001558 0.000000 0.025456
#
#
# Mechanical properties :
#
#
# Convention : Reuss Voigt Hill
#
# Bulk Modulus (GPa) = 27.89140 30.44986 29.17063
# Shear Modulus (GPa) = 33.58500 36.25775 34.92137
#
# Velocity S-wave (km/s) = 3.83910 3.98894 3.91473
# Velocity P-wave (km/s) = 5.64727 5.88033 5.76498
#
# Compressibility (1/GPa) = 0.03585335
#
# Stress axis : x y z
#
# Youngs Moduli (GPa) = 74.60898 56.26824 94.97642
#
# Poissons Ratio (x) = 0.08246 0.03681
# Poissons Ratio (y) = 0.10934 0.10185
# Poissons Ratio (z) = 0.02891 0.06034
#
# Static dielectric constant tensor:
#      x y z
#    x 4.378070 0.000000 -0.071950 
#    y 0.000000 4.050710 0.000000 
#    z -0.071950 0.000000 4.195390 
# 
# 
# High freq. dielectric constant tensor:
#      x y z
#    x 1.920710 0.000000 -0.000680 
#    y 0.000000 1.902070 0.000000 
#    z -0.000680 0.000000 1.914700 
# 
# From -- ./inp_files/11420.got.cif
#   From: 2010.06.25/outbox.cif.g09.slc.cpg/sg9_6_cif.got.tgz:11420.got - 2010.06.27 21:40:51.
