data_PCOD8056636
_publ_section_title
;
Structure prediction by ZEFSAII (Michael W. Deem and Ramdas Pophale) SiO2 
 PCOD8056636
Probable space group: C C
;
_chemical_formula_sum "Si O2"
_cell_formula_units_Z 32
_cell_length_a 11.340877
_cell_length_b 20.990550
_cell_length_c 11.943507
_cell_angle_alpha 90.000000
_cell_angle_beta 152.759475
_cell_angle_gamma 90.000000
_cell_volume 1301.393866
_symmetry_space_group_name_H-M "C C"
_symmetry_group_IT_number 9
_symmetry_cell_setting 'monoclinic'
loop_
_space_group_symop_operation_xyz
x,y,z
x,-y,1/2+z
1/2+x,1/2+y,z
1/2+x,1/2-y,1/2+z
loop_
_atom_site_type_symbol
_atom_site_label
_atom_site_fract_x
_atom_site_fract_y
_atom_site_fract_z
Si Si1 0.370670 0.971721 0.176410
Si Si2 0.582601 0.100742 0.292298
Si Si3 0.384922 0.493038 0.897205
Si Si4 0.666094 0.586162 0.292995
Si Si5 0.203171 0.286677 0.297379
Si Si6 0.535897 0.210679 0.094039
Si Si7 0.202889 0.642273 0.010726
Si Si8 0.156147 0.609302 0.592701
O O1 0.590464 0.929702 0.422752
O O2 0.401350 0.048452 0.201693
O O3 0.361658 0.951326 0.039505
O O4 0.109613 0.957117 0.020955
O O5 0.448979 0.159558 0.115596
O O6 0.734213 0.127326 0.530213
O O7 0.743522 0.066398 0.332496
O O8 0.222179 0.534937 0.671800
O O9 0.471831 0.536679 0.073433
O O10 0.506224 0.637567 0.232050
O O11 0.848296 0.619977 0.355238
O O12 0.464286 0.247705 0.536501
O O13 0.078678 0.315414 0.306472
O O14 0.305786 0.343892 0.303745
O O15 0.657616 0.176888 0.088865
O O16 0.772065 0.252767 0.342113
#
# Coordination Sequence:
#
# PCOD8056636 Si02
#       8
#     4   4   4   4   4   4   4   4
#     4  12  26  41  81 117 153 200 251 341 410 469
#     4  12  27  50  77 114 159 211 263 328 401 487
#     4  12  25  45  75 117 156 200 253 327 419 476
#     4  12  21  43  74 114 163 187 255 323 417 475
#     4  12  26  46  79 110 149 204 263 326 386 456
#     4  12  33  57  81 113 163 228 277 320 388 485
#     4  12  26  49  79 118 156 199 270 334 400 472
#     4  12  26  47  72 117 155 203 260 323 407 480
#
# _framework density 24.589020000000001
#
# number of rings (size 3 to 8) (size 9 to 14) (size 15 to 20)
#    0.000    0.000    6.250    3.000    7.000    2.000 
#    0.000    0.000    0.000    0.000    0.000    0.000 
#    0.000    0.000    0.000    0.000    0.000    0.000 
#
# Total GULP energy -198324.601051 kJ/mol
# GULP energy per Si atom -12395.287566 kJ/mol
# Density = 2.453305 g / cm^3
# Si number density = 24.589020 Si / 1000 Ang^3
#
#
#
# Elastic Constant Matrix: (Units=GPa)
#
#
# Indices 1 2 3 4 5 6 
#
# 1 109.9280 43.7246 31.2048 0.0008 -17.9576 0.0011
# 2 43.7246 122.4936 55.8045 0.0002 -13.2486 0.0003
# 3 31.2048 55.8045 110.5235 0.0005 -2.1534 0.0012
# 4 0.0008 0.0002 0.0005 41.4881 0.0001 -12.0906
# 5 -17.9576 -13.2486 -2.1534 0.0001 49.4956 0.0003
# 6 0.0011 0.0003 0.0012 -12.0906 0.0003 42.9174
#
#
#
# Elastic Compliance Matrix: (Units=1/GPa)
#
#
# Indices 1 2 3 4 5 6 
#
# 1 0.011251 -0.002920 -0.001639 0.000000 0.003229 0.000000
# 2 -0.002920 0.011708 -0.005051 0.000000 0.001855 0.000000
# 3 -0.001639 -0.005051 0.012033 0.000000 -0.001423 0.000000
# 4 0.000000 0.000000 0.000000 0.026259 0.000000 0.007398
# 5 0.003229 0.001855 -0.001423 0.000000 0.021810 0.000000
# 6 0.000000 0.000000 0.000000 0.007398 0.000000 0.025385
#
#
# Mechanical properties :
#
#
# Convention : Reuss Voigt Hill
#
# Bulk Modulus (GPa) = 63.40481 67.15699 65.28090
# Shear Modulus (GPa) = 37.61574 40.92761 39.27167
#
# Velocity S-wave (km/s) = 3.91548 4.08421 4.00074
# Velocity P-wave (km/s) = 6.80317 7.04359 6.92442
#
# Compressibility (1/GPa) = 0.01577167
#
# Stress axis : x y z
#
# Youngs Moduli (GPa) = 88.87937 85.41482 83.10397
#
# Poissons Ratio (x) = 0.24942 0.13623
# Poissons Ratio (y) = 0.25953 0.41973
# Poissons Ratio (z) = 0.14570 0.43140
#
# Static dielectric constant tensor:
#      x y z
#    x 4.535300 0.000000 -0.197660 
#    y 0.000000 4.688280 0.000000 
#    z -0.197660 0.000000 4.368740 
# 
# 
# High freq. dielectric constant tensor:
#      x y z
#    x 1.987220 0.000000 -0.014590 
#    y 0.000000 1.979660 0.000000 
#    z -0.014590 0.000000 1.976040 
# 
# From -- ./inp_files/17162.got.cif
#   From: 2010.06.25/outbox.cif.g09.slc.cpg/sg9_9_cif.got.tgz:17162.got - 2010.06.27 21:40:51.
