data_PCOD8056906
_publ_section_title
;
Structure prediction by ZEFSAII (Michael W. Deem and Ramdas Pophale) SiO2 
 PCOD8056906
Probable space group: P 2/M
;
_chemical_formula_sum "Si O2"
_cell_formula_units_Z 22
_cell_length_a 10.103881
_cell_length_b 11.459399
_cell_length_c 13.893104
_cell_angle_alpha 90.000000
_cell_angle_beta 135.446968
_cell_angle_gamma 90.000000
_cell_volume 1128.547455
_symmetry_space_group_name_H-M "P 2/M"
_symmetry_group_IT_number 10
_symmetry_cell_setting 'monoclinic'
loop_
_space_group_symop_operation_xyz
x,y,z
-x,y,-z
-x,-y,-z
x,-y,z
loop_
_atom_site_type_symbol
_atom_site_label
_atom_site_fract_x
_atom_site_fract_y
_atom_site_fract_z
Si Si1 0.724743 0.254961 0.376844
Si Si2 0.036789 0.000000 0.247017
Si Si3 0.036138 0.747723 0.860891
Si Si4 0.352153 0.000000 0.267011
Si Si5 0.706470 0.244551 0.830373
Si Si6 0.233995 0.000000 0.541157
Si Si7 0.041537 0.636408 0.663109
O O1 0.508033 0.290437 0.286281
O O2 0.769843 0.116162 0.395062
O O3 0.784887 0.307393 0.305571
O O4 0.843900 0.310052 0.525497
O O5 0.933914 0.118077 0.158231
O O6 0.061542 0.000000 0.375646
O O7 0.245579 0.000000 0.312279
O O8 0.830334 0.720128 0.800773
O O9 0.066441 0.661172 0.788205
O O10 0.195663 0.713660 0.020829
O O11 0.296500 0.894693 0.168641
O O12 0.568337 0.000000 0.412795
O O13 0.041443 0.500000 0.642992
#
# Coordination Sequence:
#
# PCOD8056906 Si02
#       7
#     4   2   4   2   4   2   4
#     4  10  21  38  59  84 116 146 184 231 278 338
#     4  10  16  29  55  87 118 150 177 215 281 331
#     4  10  20  36  59  87 118 148 183 227 272 338
#     4   8  16  28  51  85 125 148 170 219 272 347
#     4   9  19  36  58  87 117 149 183 221 281 332
#     4  10  17  30  55  90 113 140 184 226 279 330
#     4  11  24  42  58  79 108 149 194 238 282 327
#
# _framework density 19.494084000000001
#
# number of rings (size 3 to 8) (size 9 to 14) (size 15 to 20)
#    0.000    2.182    1.818    1.909    0.000    5.818 
#    0.000    7.273    0.000    4.364    0.000    0.000 
#    0.000    0.000    0.000    0.000    0.000    0.000 
#
# Total GULP energy -272694.095180 kJ/mol
# GULP energy per Si atom -12395.186145 kJ/mol
# Density = 1.944971 g / cm^3
# Si number density = 19.494084 Si / 1000 Ang^3
#
#
#
# Elastic Constant Matrix: (Units=GPa)
#
#
# Indices 1 2 3 4 5 6 
#
# 1 86.8526 31.9180 42.9970 0.0000 1.7765 0.0000
# 2 31.9180 102.5511 19.6558 0.0000 -3.4316 0.0000
# 3 42.9970 19.6558 78.3102 0.0000 -6.5893 0.0000
# 4 0.0000 0.0000 0.0000 9.6603 0.0000 -9.0507
# 5 1.7765 -3.4316 -6.5893 0.0000 33.6368 0.0000
# 6 0.0000 0.0000 0.0000 -9.0507 0.0000 5.3780
#
#
#
# Elastic Compliance Matrix: (Units=1/GPa)
#
#
# Indices 1 2 3 4 5 6 
#
# 1 0.017342 -0.003808 -0.008821 0.000000 -0.003032 0.000000
# 2 -0.003808 0.011090 -0.000590 0.000000 0.001217 0.000000
# 3 -0.008821 -0.000590 0.018094 0.000000 0.003950 0.000000
# 4 0.000000 0.000000 0.000000 -0.179492 0.000000 -0.302069
# 5 -0.003032 0.001217 0.003950 0.000000 0.030787 0.000000
# 6 0.000000 0.000000 0.000000 -0.302069 0.000000 -0.322413
#
#
# Mechanical properties :
#
#
# Convention : Reuss Voigt Hill
#
# Bulk Modulus (GPa) = 49.78429 50.76171 50.27300
# Shear Modulus (GPa) = -12.77285 21.27790 4.25252
#
# Velocity S-wave (km/s) = -2.56250 3.30738 1.47857
# Velocity P-wave (km/s) = 4.10346 6.37817 5.36281
#
# Compressibility (1/GPa) = 0.02008666
#
# Stress axis : x y z
#
# Youngs Moduli (GPa) = 57.66216 90.16804 55.26790
#
# Poissons Ratio (x) = 0.34339 0.48753
# Poissons Ratio (y) = 0.21960 0.03262
# Poissons Ratio (z) = 0.50865 0.05322
#
# Static dielectric constant tensor:
#      x y z
#    x 3.561110 0.000000 0.100640 
#    y 0.000000 3.439320 0.000000 
#    z 0.100640 0.000000 3.384580 
# 
# 
# High freq. dielectric constant tensor:
#      x y z
#    x 1.757440 0.000000 -0.001900 
#    y 0.000000 1.743620 0.000000 
#    z -0.001900 0.000000 1.750740 
# 
# From -- ./inp_files/64189.got.cif
#   From: 2010.06.25/outbox.cif.g09.slc.cpg/sg10_33_cif.got.tgz:64189.got - 2010.06.27 22:07:45.
