data_PCOD8056855
_publ_section_title
;
Structure prediction by ZEFSAII (Michael W. Deem and Ramdas Pophale) SiO2 
 PCOD8056855
Probable space group: P 2/M
;
_chemical_formula_sum "Si O2"
_cell_formula_units_Z 28
_cell_length_a 27.966722
_cell_length_b 12.596204
_cell_length_c 14.448336
_cell_angle_alpha 90.000000
_cell_angle_beta 20.335579
_cell_angle_gamma 90.000000
_cell_volume 1768.790392
_symmetry_space_group_name_H-M "P 2/M"
_symmetry_group_IT_number 10
_symmetry_cell_setting 'monoclinic'
loop_
_space_group_symop_operation_xyz
x,y,z
-x,y,-z
-x,-y,-z
x,-y,z
loop_
_atom_site_type_symbol
_atom_site_label
_atom_site_fract_x
_atom_site_fract_y
_atom_site_fract_z
Si Si1 0.174354 0.618782 0.275554
Si Si2 0.144615 0.500000 0.839341
Si Si3 0.183207 0.500000 0.564227
Si Si4 0.655194 0.878820 0.733473
Si Si5 0.848475 0.379510 0.884612
Si Si6 0.801869 0.297214 0.577138
Si Si7 0.864816 0.878623 0.191302
Si Si8 0.872456 0.709989 0.027785
O O1 0.232910 0.500000 0.178464
O O2 0.211907 0.662665 0.104296
O O3 0.240373 0.687822 0.238288
O O4 0.011803 0.615286 0.582794
O O5 0.225543 0.500000 0.594874
O O6 0.189300 0.606692 0.809952
O O7 0.980592 0.500000 0.135129
O O8 0.244713 0.397212 0.400768
O O9 0.726015 0.808847 0.683544
O O10 0.733711 0.866530 0.494394
O O11 0.659986 0.000000 0.760090
O O12 0.500000 0.839977 0.000000
O O13 0.795860 0.500000 0.000689
O O14 0.808853 0.297234 0.039001
O O15 0.963965 0.285983 0.272621
O O16 0.893172 0.000000 0.110844
O O17 0.828198 0.814439 0.164512
O O18 0.000000 0.833250 0.000000
#
# Coordination Sequence:
#
# PCOD8056855 Si02
#       8
#     4   2   2   4   4   4   4   4
#     4   8  13  22  38  59  90 123 151 177 215 268
#     4   9  16  20  31  59  93 118 139 173 219 257
#     4   9  16  22  34  59  89 114 144 177 215 263
#     4  10  21  35  48  63  87 120 156 189 221 265
#     4   8  13  22  35  61  94 121 147 180 217 260
#     4  10  16  26  43  64  88 120 152 183 220 263
#     4  10  19  31  46  66  88 116 152 186 223 268
#     4  10  16  24  41  66  93 119 147 184 219 262
#
# _framework density 15.830028
#
# number of rings (size 3 to 8) (size 9 to 14) (size 15 to 20)
#    0.000    2.714    2.857    1.714    2.000    0.000 
#    0.000    0.357    0.000    0.857    0.000    5.000 
#    0.000    5.714    0.000    0.000    0.000    0.000 
#
# Total GULP energy -346932.763406 kJ/mol
# GULP energy per Si atom -12390.455836 kJ/mol
# Density = 1.579400 g / cm^3
# Si number density = 15.830028 Si / 1000 Ang^3
#
#
#
# Elastic Constant Matrix: (Units=GPa)
#
#
# Indices 1 2 3 4 5 6 
#
# 1 130.4627 61.2167 29.8834 0.0000 35.4167 0.0000
# 2 61.2167 79.6303 17.7033 0.0000 14.8812 0.0000
# 3 29.8834 17.7033 39.4857 0.0000 7.6469 0.0000
# 4 0.0000 0.0000 0.0000 11.6405 0.0000 4.9716
# 5 35.4167 14.8812 7.6469 0.0000 17.1586 0.0000
# 6 0.0000 0.0000 0.0000 4.9716 0.0000 20.6703
#
#
#
# Elastic Compliance Matrix: (Units=1/GPa)
#
#
# Indices 1 2 3 4 5 6 
#
# 1 0.024371 -0.010073 -0.006434 0.000000 -0.038701 0.000000
# 2 -0.010073 0.019955 -0.002187 0.000000 0.004460 0.000000
# 3 -0.006434 -0.002187 0.030903 0.000000 0.001404 0.000000
# 4 0.000000 0.000000 0.000000 0.095742 0.000000 -0.023028
# 5 -0.038701 0.004460 0.001404 0.000000 0.133668 0.000000
# 6 0.000000 0.000000 0.000000 -0.023028 0.000000 0.053917
#
#
# Mechanical properties :
#
#
# Convention : Reuss Voigt Hill
#
# Bulk Modulus (GPa) = 26.42548 51.90951 39.16749
# Shear Modulus (GPa) = 12.23817 19.27890 15.75854
#
# Velocity S-wave (km/s) = 2.78348 3.49358 3.15855
# Velocity P-wave (km/s) = 5.20191 7.00974 6.17237
#
# Compressibility (1/GPa) = 0.03784227
#
# Stress axis : x y z
#
# Youngs Moduli (GPa) = 41.03154 50.11397 32.35903
#
# Poissons Ratio (x) = 0.50481 0.20818
# Poissons Ratio (y) = 0.41332 0.07076
# Poissons Ratio (z) = 0.26398 0.10959
#
# Static dielectric constant tensor:
#      x y z
#    x 3.282200 0.000000 0.355140 
#    y 0.000000 2.977640 0.000000 
#    z 0.355140 0.000000 2.665410 
# 
# 
# High freq. dielectric constant tensor:
#      x y z
#    x 1.601790 0.000000 0.031030 
#    y 0.000000 1.593260 0.000000 
#    z 0.031030 0.000000 1.560620 
# 
# From -- ./inp_files/50353.got.cif
#   From: 2010.06.25/outbox.cif.g09.slc.cpg/sg10_26_cif.got.tgz:50353.got - 2010.06.27 22:07:45.
