data_PCOD8056205
_publ_section_title
;
Structure prediction by ZEFSAII (Michael W. Deem and Ramdas Pophale) SiO2 
 PCOD8056205
Probable space group: C C
;
_chemical_formula_sum "Si O2"
_cell_formula_units_Z 32
_cell_length_a 11.690371
_cell_length_b 9.294460
_cell_length_c 13.521568
_cell_angle_alpha 90.000000
_cell_angle_beta 110.675493
_cell_angle_gamma 90.000000
_cell_volume 1374.571923
_symmetry_space_group_name_H-M "C C"
_symmetry_group_IT_number 9
_symmetry_cell_setting 'monoclinic'
loop_
_space_group_symop_operation_xyz
x,y,z
x,-y,1/2+z
1/2+x,1/2+y,z
1/2+x,1/2-y,1/2+z
loop_
_atom_site_type_symbol
_atom_site_label
_atom_site_fract_x
_atom_site_fract_y
_atom_site_fract_z
Si Si1 0.456790 0.766599 0.103530
Si Si2 0.490864 0.619647 0.313658
Si Si3 0.272273 0.856354 0.893721
Si Si4 0.701187 0.239030 0.562477
Si Si5 0.621787 0.913554 0.853171
Si Si6 0.939319 0.407803 0.640641
Si Si7 0.294605 0.592981 0.767624
Si Si8 0.957598 0.387534 0.428099
O O1 0.457194 0.649186 0.189343
O O2 0.566975 0.726286 0.063200
O O3 0.468235 0.922364 0.158534
O O4 0.332265 0.766486 0.002167
O O5 0.633787 0.607343 0.379546
O O6 0.432594 0.464940 0.320833
O O7 0.426925 0.741353 0.361576
O O8 0.277504 0.755828 0.799591
O O9 0.342157 0.004234 0.892300
O O10 0.691296 0.202585 0.442607
O O11 0.794204 0.374044 0.601815
O O12 0.755430 0.102693 0.640380
O O13 0.511529 0.838070 0.756139
O O14 0.710796 0.981999 0.800461
O O15 0.572552 0.036154 0.912019
O O16 0.991430 0.349849 0.551962
#
# Coordination Sequence:
#
# PCOD8056205 Si02
#       8
#     4   4   4   4   4   4   4   4
#     4  11  24  44  73 102 140 196 232 289 363 416
#     4  12  26  47  70 109 144 184 242 290 351 432
#     4  11  24  46  71 100 145 185 234 295 351 414
#     4  12  24  43  73 104 142 187 239 291 362 423
#     4  12  21  44  74  98 142 189 229 293 355 422
#     4  11  23  43  73 105 134 190 237 289 357 424
#     4  12  26  45  72 106 146 189 236 295 358 422
#     4  11  22  46  76 100 141 190 231 290 357 417
#
# _framework density 23.279975
#
# number of rings (size 3 to 8) (size 9 to 14) (size 15 to 20)
#    0.000    0.500    7.500    1.500    1.750    3.000 
#    4.500    0.000    0.000    0.000    0.000    0.000 
#    0.000    0.000    0.000    0.000    0.000    0.000 
#
# Total GULP energy -198391.823468 kJ/mol
# GULP energy per Si atom -12399.488967 kJ/mol
# Density = 2.322699 g / cm^3
# Si number density = 23.279975 Si / 1000 Ang^3
#
#
#
# Elastic Constant Matrix: (Units=GPa)
#
#
# Indices 1 2 3 4 5 6 
#
# 1 118.7430 20.5849 36.3450 0.0000 15.6294 0.0000
# 2 20.5849 39.8358 5.3488 0.0000 -2.1785 0.0000
# 3 36.3450 5.3488 131.3223 0.0000 12.7647 0.0000
# 4 0.0000 0.0000 0.0000 21.7433 0.0000 4.8241
# 5 15.6294 -2.1785 12.7647 0.0000 36.9722 0.0000
# 6 0.0000 0.0000 0.0000 4.8241 0.0000 34.1311
#
#
#
# Elastic Compliance Matrix: (Units=1/GPa)
#
#
# Indices 1 2 3 4 5 6 
#
# 1 0.010591 -0.005379 -0.002324 0.000000 -0.003992 0.000000
# 2 -0.005379 0.028104 -0.000039 0.000000 0.003943 0.000000
# 3 -0.002324 -0.000039 0.008448 0.000000 -0.001936 0.000000
# 4 0.000000 0.000000 0.000000 0.047480 0.000000 -0.006711
# 5 -0.003992 0.003943 -0.001936 0.000000 0.029636 0.000000
# 6 0.000000 0.000000 0.000000 -0.006711 0.000000 0.030247
#
#
# Mechanical properties :
#
#
# Convention : Reuss Voigt Hill
#
# Bulk Modulus (GPa) = 31.58794 46.05095 38.81945
# Shear Modulus (GPa) = 27.69432 33.74413 30.71923
#
# Velocity S-wave (km/s) = 3.45283 3.81135 3.63651
# Velocity P-wave (km/s) = 5.43086 6.26042 5.86033
#
# Compressibility (1/GPa) = 0.03165765
#
# Stress axis : x y z
#
# Youngs Moduli (GPa) = 94.42176 35.58269 118.37274
#
# Poissons Ratio (x) = 0.19140 0.27510
# Poissons Ratio (y) = 0.50789 0.00465
# Poissons Ratio (z) = 0.21944 0.00140
#
# Static dielectric constant tensor:
#      x y z
#    x 4.219640 0.000000 -0.061090 
#    y 0.000000 3.931140 0.000000 
#    z -0.061090 0.000000 4.608690 
# 
# 
# High freq. dielectric constant tensor:
#      x y z
#    x 1.924880 0.000000 -0.003170 
#    y 0.000000 1.890510 0.000000 
#    z -0.003170 0.000000 1.940970 
# 
# From -- ./inp_files/24301.got.cif
#   From: 2010.06.25/outbox.cif.g09.slc.cpg/sg9_13_cif.got.tgz:24301.got - 2010.06.27 21:40:51.
