data_PCOD8056787
_publ_section_title
;
Structure prediction by ZEFSAII (Michael W. Deem and Ramdas Pophale) SiO2 
 PCOD8056787
Probable space group: C C
;
_chemical_formula_sum "Si O2"
_cell_formula_units_Z 16
_cell_length_a 8.009072
_cell_length_b 5.098642
_cell_length_c 14.825590
_cell_angle_alpha 90.000000
_cell_angle_beta 108.172558
_cell_angle_gamma 90.000000
_cell_volume 575.211904
_symmetry_space_group_name_H-M "C C"
_symmetry_group_IT_number 9
_symmetry_cell_setting 'monoclinic'
loop_
_space_group_symop_operation_xyz
x,y,z
x,-y,1/2+z
1/2+x,1/2+y,z
1/2+x,1/2-y,1/2+z
loop_
_atom_site_type_symbol
_atom_site_label
_atom_site_fract_x
_atom_site_fract_y
_atom_site_fract_z
Si Si1 0.481820 0.571558 0.105180
Si Si2 0.965773 0.568058 0.983984
Si Si3 0.180491 0.376180 0.859499
Si Si4 0.823277 0.209131 0.733562
O O1 0.666770 0.587732 0.189778
O O2 0.328880 0.498626 0.151340
O O3 0.502021 0.353122 0.031975
O O4 0.431052 0.851600 0.054241
O O5 0.787684 0.603693 0.893235
O O6 0.809730 0.073120 0.828913
O O7 0.131355 0.492352 0.949440
O O8 0.011376 0.353271 0.766410
#
# Coordination Sequence:
#
# PCOD8056787 Si02
#       4
#     4   4   4   4
#     4  12  29  52  80 115 155 204 257 317 382 456
#     4  12  29  52  80 115 155 204 257 317 382 456
#     4  12  28  50  78 113 154 202 254 315 382 454
#     4  12  28  50  78 113 154 202 254 315 382 454
#
# _framework density 27.815836000000001
#
# number of rings (size 3 to 8) (size 9 to 14) (size 15 to 20)
#    0.000    0.000    0.000    7.500    0.000   24.000 
#    0.000    0.000    0.000    0.000    0.000    0.000 
#    0.000    0.000    0.000    0.000    0.000    0.000 
#
# Total GULP energy -99291.785664 kJ/mol
# GULP energy per Si atom -12411.473208 kJ/mol
# Density = 2.775253 g / cm^3
# Si number density = 27.815836 Si / 1000 Ang^3
#
#
#
# Elastic Constant Matrix: (Units=GPa)
#
#
# Indices 1 2 3 4 5 6 
#
# 1 108.9874 10.3692 -7.8028 0.0000 -33.8209 0.0000
# 2 10.3692 104.3944 8.4856 0.0000 -1.4557 0.0000
# 3 -7.8028 8.4856 72.0904 0.0000 -19.3332 0.0000
# 4 0.0000 0.0000 0.0000 40.6066 0.0000 13.2571
# 5 -33.8209 -1.4557 -19.3332 0.0000 51.5277 0.0000
# 6 0.0000 0.0000 0.0000 13.2571 0.0000 39.2972
#
#
#
# Elastic Compliance Matrix: (Units=1/GPa)
#
#
# Indices 1 2 3 4 5 6 
#
# 1 0.012668 -0.001461 0.004183 0.000000 0.009843 0.000000
# 2 -0.001461 0.009841 -0.001667 0.000000 -0.001306 0.000000
# 3 0.004183 -0.001667 0.016950 0.000000 0.009058 0.000000
# 4 0.000000 0.000000 0.000000 0.027675 0.000000 -0.009336
# 5 0.009843 -0.001306 0.009058 0.000000 0.029229 0.000000
# 6 0.000000 0.000000 0.000000 -0.009336 0.000000 0.028597
#
#
# Mechanical properties :
#
#
# Convention : Reuss Voigt Hill
#
# Bulk Modulus (GPa) = 24.05617 34.17512 29.11564
# Shear Modulus (GPa) = 36.57466 44.58098 40.57782
#
# Velocity S-wave (km/s) = 3.63007 4.00774 3.82357
# Velocity P-wave (km/s) = 5.12221 5.80766 5.47567
#
# Compressibility (1/GPa) = 0.04156938
#
# Stress axis : x y z
#
# Youngs Moduli (GPa) = 78.93648 101.61093 58.99845
#
# Poissons Ratio (x) = 0.14846 -0.24679
# Poissons Ratio (y) = 0.11533 0.09835
# Poissons Ratio (z) = -0.33019 0.16938
#
# Static dielectric constant tensor:
#      x y z
#    x 5.042690 0.000000 0.062060 
#    y 0.000000 4.828050 0.000000 
#    z 0.062060 0.000000 5.197930 
# 
# 
# High freq. dielectric constant tensor:
#      x y z
#    x 2.134230 0.000000 0.003230 
#    y 0.000000 2.116130 0.000000 
#    z 0.003230 0.000000 2.150170 
# 
# From -- ./inp_files/13949.got.cif
#   From: 2010.06.25/outbox.cif.g09.slc.cpg/sg9_7_cif.got.tgz:13949.got - 2010.06.27 21:40:51.
