data_PCOD8056132
_publ_section_title
;
Structure prediction by ZEFSAII (Michael W. Deem and Ramdas Pophale) SiO2 
 PCOD8056132
Probable space group: C C
;
_chemical_formula_sum "Si O2"
_cell_formula_units_Z 32
_cell_length_a 20.993349
_cell_length_b 9.709125
_cell_length_c 8.158405
_cell_angle_alpha 90.000000
_cell_angle_beta 117.964033
_cell_angle_gamma 90.000000
_cell_volume 1468.746530
_symmetry_space_group_name_H-M "C C"
_symmetry_group_IT_number 9
_symmetry_cell_setting 'monoclinic'
loop_
_space_group_symop_operation_xyz
x,y,z
x,-y,1/2+z
1/2+x,1/2+y,z
1/2+x,1/2-y,1/2+z
loop_
_atom_site_type_symbol
_atom_site_label
_atom_site_fract_x
_atom_site_fract_y
_atom_site_fract_z
Si Si1 0.983280 0.906500 0.652350
Si Si2 0.685459 0.794974 0.762466
Si Si3 0.834422 0.788565 0.039325
Si Si4 0.329200 0.423059 0.393336
Si Si5 0.682026 0.084232 0.891805
Si Si6 0.031024 0.349753 0.054624
Si Si7 0.969824 0.401294 0.644646
Si Si8 0.539507 0.668952 0.558702
O O1 0.898904 0.875952 0.583588
O O2 0.008214 0.809666 0.533537
O O3 0.996977 0.065087 0.624931
O O4 0.033150 0.873542 0.864774
O O5 0.685934 0.862683 0.582018
O O6 0.623727 0.680053 0.704921
O O7 0.675887 0.918591 0.882531
O O8 0.758185 0.715279 0.905188
O O9 0.836602 0.864494 0.218206
O O10 0.892424 0.664755 0.096972
O O11 0.836463 0.909443 0.902761
O O12 0.255494 0.369528 0.386764
O O13 0.612478 0.142361 0.715499
O O14 0.971975 0.440087 0.087836
O O15 0.026522 0.393113 0.861221
O O16 0.003340 0.318105 0.533109
#
# Coordination Sequence:
#
# PCOD8056132 Si02
#       8
#     4   4   4   4   4   4   4   4
#     4  12  24  44  67 100 134 173 223 269 337 392
#     4  11  23  41  65 101 134 176 221 273 335 393
#     4  11  23  41  65 101 134 176 221 273 335 393
#     4  11  22  40  68  98 134 170 223 272 328 393
#     4  11  22  40  68  98 134 170 223 272 328 393
#     4  12  24  44  67 100 134 173 223 269 337 392
#     4  12  25  43  68  98 134 172 222 279 325 399
#     4  12  25  43  68  98 134 172 222 279 325 399
#
# _framework density 21.787286000000002
#
# number of rings (size 3 to 8) (size 9 to 14) (size 15 to 20)
#    0.000    0.500    5.000    6.000    3.500    0.000 
#    0.000    2.500    0.000    0.000    0.000    0.000 
#    0.000    0.000    0.000    0.000    0.000    0.000 
#
# Total GULP energy -198289.119176 kJ/mol
# GULP energy per Si atom -12393.069949 kJ/mol
# Density = 2.173770 g / cm^3
# Si number density = 21.787286 Si / 1000 Ang^3
#
#
#
# Elastic Constant Matrix: (Units=GPa)
#
#
# Indices 1 2 3 4 5 6 
#
# 1 122.0655 35.1643 35.1699 0.0000 31.0139 0.0000
# 2 35.1643 50.0536 19.7189 0.0000 10.4575 0.0000
# 3 35.1699 19.7189 88.7795 0.0000 17.7122 0.0000
# 4 0.0000 0.0000 0.0000 26.3269 0.0000 6.4034
# 5 31.0139 10.4575 17.7122 0.0000 47.9754 0.0000
# 6 0.0000 0.0000 0.0000 6.4034 0.0000 28.3686
#
#
#
# Elastic Compliance Matrix: (Units=1/GPa)
#
#
# Indices 1 2 3 4 5 6 
#
# 1 0.012125 -0.006462 -0.002251 0.000000 -0.005599 0.000000
# 2 -0.006462 0.025807 -0.003113 0.000000 -0.000299 0.000000
# 3 -0.002251 -0.003113 0.013409 0.000000 -0.002817 0.000000
# 4 0.000000 0.000000 0.000000 0.040191 0.000000 -0.009072
# 5 -0.005599 -0.000299 -0.002817 0.000000 0.025568 0.000000
# 6 0.000000 0.000000 0.000000 -0.009072 0.000000 0.037298
#
#
# Mechanical properties :
#
#
# Convention : Reuss Voigt Hill
#
# Bulk Modulus (GPa) = 36.11401 49.00051 42.55726
# Shear Modulus (GPa) = 26.69831 31.92388 29.31109
#
# Velocity S-wave (km/s) = 3.50438 3.83201 3.67185
# Velocity P-wave (km/s) = 5.74334 6.48987 6.12798
#
# Compressibility (1/GPa) = 0.02769008
#
# Stress axis : x y z
#
# Youngs Moduli (GPa) = 82.47552 38.74956 74.57716
#
# Poissons Ratio (x) = 0.25038 0.16788
# Poissons Ratio (y) = 0.53292 0.23213
# Poissons Ratio (z) = 0.18566 0.12061
#
# Static dielectric constant tensor:
#      x y z
#    x 4.178380 0.000000 0.302720 
#    y 0.000000 3.976070 0.000000 
#    z 0.302720 0.000000 4.139900 
# 
# 
# High freq. dielectric constant tensor:
#      x y z
#    x 1.862810 0.000000 0.011810 
#    y 0.000000 1.826150 0.000000 
#    z 0.011810 0.000000 1.875880 
# 
# From -- ./inp_files/12077.got.cif
#   From: 2010.06.25/outbox.cif.g09.slc.cpg/sg9_7_cif.got.tgz:12077.got - 2010.06.27 21:40:51.
