data_PCOD8056683
_publ_section_title
;
Structure prediction by ZEFSAII (Michael W. Deem and Ramdas Pophale) SiO2 
 PCOD8056683
Probable space group: C C
;
_chemical_formula_sum "Si O2"
_cell_formula_units_Z 20
_cell_length_a 6.950156
_cell_length_b 16.937915
_cell_length_c 7.690905
_cell_angle_alpha 90.000000
_cell_angle_beta 79.603988
_cell_angle_gamma 90.000000
_cell_volume 890.519469
_symmetry_space_group_name_H-M "C C"
_symmetry_group_IT_number 9
_symmetry_cell_setting 'monoclinic'
loop_
_space_group_symop_operation_xyz
x,y,z
x,-y,1/2+z
1/2+x,1/2+y,z
1/2+x,1/2-y,1/2+z
loop_
_atom_site_type_symbol
_atom_site_label
_atom_site_fract_x
_atom_site_fract_y
_atom_site_fract_z
Si Si1 0.725850 0.819124 0.706270
Si Si2 0.491837 0.969716 0.664809
Si Si3 0.193334 0.981885 0.451491
Si Si4 0.325910 0.594136 0.538420
Si Si5 0.988834 0.832750 0.340869
O O1 0.586874 0.884226 0.643351
O O2 0.809688 0.847186 0.877588
O O3 0.895002 0.804888 0.537317
O O4 0.615628 0.737496 0.743264
O O5 0.261601 0.962513 0.636464
O O6 0.421207 0.993588 0.868736
O O7 0.645710 0.033958 0.568512
O O8 0.129795 0.906128 0.353038
O O9 0.027441 0.047591 0.480485
O O10 0.331045 0.643006 0.718262
#
# Coordination Sequence:
#
# PCOD8056683 Si02
#       5
#     4   4   4   4   4
#     4  12  29  48  73 112 153 192 244 307 370 438
#     4  12  24  46  79 106 141 193 252 302 362 434
#     4  12  24  46  79 106 141 193 252 302 362 434
#     4  12  26  52  76 106 148 194 256 304 358 446
#     4  12  29  48  73 112 153 192 244 307 370 438
#
# _framework density 22.458801999999999
#
# number of rings (size 3 to 8) (size 9 to 14) (size 15 to 20)
#    0.000    0.000    6.000    3.600    8.400    1.600 
#    0.000    0.000    0.000    0.000    0.000    0.000 
#    0.000    0.000    0.000    0.000    0.000    0.000 
#
# Total GULP energy -123924.521759 kJ/mol
# GULP energy per Si atom -12392.452176 kJ/mol
# Density = 2.240768 g / cm^3
# Si number density = 22.458802 Si / 1000 Ang^3
#
#
#
# Elastic Constant Matrix: (Units=GPa)
#
#
# Indices 1 2 3 4 5 6 
#
# 1 104.9945 22.5413 40.1533 0.0000 18.1259 0.0000
# 2 22.5413 102.1141 32.7291 0.0000 14.6732 0.0000
# 3 40.1533 32.7291 107.6246 0.0000 -3.3073 0.0000
# 4 0.0000 0.0000 0.0000 32.4483 0.0000 -6.9515
# 5 18.1259 14.6732 -3.3073 0.0000 55.7809 0.0000
# 6 0.0000 0.0000 0.0000 -6.9515 0.0000 24.8216
#
#
#
# Elastic Compliance Matrix: (Units=1/GPa)
#
#
# Indices 1 2 3 4 5 6 
#
# 1 0.012047 -0.000670 -0.004414 0.000000 -0.004000 0.000000
# 2 -0.000670 0.011434 -0.003319 0.000000 -0.002987 0.000000
# 3 -0.004414 -0.003319 0.012040 0.000000 0.003021 0.000000
# 4 0.000000 0.000000 0.000000 0.032785 0.000000 0.009182
# 5 -0.004000 -0.002987 0.003021 0.000000 0.020192 0.000000
# 6 0.000000 0.000000 0.000000 0.009182 0.000000 0.042859
#
#
# Mechanical properties :
#
#
# Convention : Reuss Voigt Hill
#
# Bulk Modulus (GPa) = 53.43046 56.17563 54.80304
# Shear Modulus (GPa) = 32.38338 37.23081 34.80709
#
# Velocity S-wave (km/s) = 3.80136 4.07595 3.94105
# Velocity P-wave (km/s) = 6.56576 6.87155 6.72039
#
# Compressibility (1/GPa) = 0.01871592
#
# Stress axis : x y z
#
# Youngs Moduli (GPa) = 83.01109 87.46012 83.05396
#
# Poissons Ratio (x) = 0.05858 0.36657
# Poissons Ratio (y) = 0.05560 0.27565
# Poissons Ratio (z) = 0.36638 0.29028
#
# Static dielectric constant tensor:
#      x y z
#    x 3.978150 0.000000 0.174380 
#    y 0.000000 3.968940 0.000000 
#    z 0.174380 0.000000 4.622470 
# 
# 
# High freq. dielectric constant tensor:
#      x y z
#    x 1.899170 0.000000 0.007440 
#    y 0.000000 1.873560 0.000000 
#    z 0.007440 0.000000 1.924330 
# 
# From -- ./inp_files/3578.got.cif
#   From: 2010.06.25/outbox.cif.g09.slc.cpg/sg9_2_cif.got.tgz:3578.got - 2010.06.27 21:40:51.
