data_PCOD8056924
_publ_section_title
;
Structure prediction by ZEFSAII (Michael W. Deem and Ramdas Pophale) SiO2 
 PCOD8056924
Probable space group: P 2/M
;
_chemical_formula_sum "Si O2"
_cell_formula_units_Z 26
_cell_length_a 15.351833
_cell_length_b 11.747645
_cell_length_c 9.155135
_cell_angle_alpha 90.000000
_cell_angle_beta 55.257586
_cell_angle_gamma 90.000000
_cell_volume 1356.753434
_symmetry_space_group_name_H-M "P 2/M"
_symmetry_group_IT_number 10
_symmetry_cell_setting 'monoclinic'
loop_
_space_group_symop_operation_xyz
x,y,z
-x,y,-z
-x,-y,-z
x,-y,z
loop_
_atom_site_type_symbol
_atom_site_label
_atom_site_fract_x
_atom_site_fract_y
_atom_site_fract_z
Si Si1 0.736267 0.500000 0.705780
Si Si2 0.479666 0.867845 0.350916
Si Si3 0.072488 0.500000 0.669594
Si Si4 0.896851 0.259078 0.273108
Si Si5 0.135926 0.251338 0.019492
Si Si6 0.698097 0.252965 0.651581
Si Si7 0.314336 0.866832 0.029366
Si Si8 0.163538 0.500000 0.092648
O O1 0.858380 0.500000 0.542151
O O2 0.678839 0.387510 0.698072
O O3 0.742866 0.500000 0.875550
O O4 0.500000 0.841198 0.500000
O O5 0.383708 0.788458 0.392061
O O6 0.449994 0.000000 0.355103
O O7 0.582582 0.832814 0.160939
O O8 0.100540 0.395018 0.747263
O O9 0.952920 0.500000 0.724290
O O10 0.816644 0.223788 0.479447
O O11 0.017833 0.223846 0.194047
O O12 0.857893 0.210274 0.154789
O O13 0.211148 0.174091 0.043899
O O14 0.172681 0.383571 0.991239
O O15 0.677777 0.188121 0.820116
O O16 0.306455 0.000000 0.059640
#
# Coordination Sequence:
#
# PCOD8056924 Si02
#       8
#     2   4   2   4   4   4   4   2
#     4  10  19  32  51  86 117 147 177 223 282 335
#     4  10  22  42  66  85 104 141 191 235 275 327
#     4   8  16  28  51  79 114 150 191 224 259 325
#     4   9  19  33  55  84 116 152 185 229 275 327
#     4  10  19  35  56  84 116 149 190 227 276 328
#     4  11  21  38  58  85 117 145 184 231 280 331
#     4  11  23  39  59  82 110 146 189 234 276 329
#     4  10  16  30  54  82 112 150 186 227 270 323
#
# _framework density 19.163394
#
# number of rings (size 3 to 8) (size 9 to 14) (size 15 to 20)
#    0.000    2.000    1.538    2.538    0.000    3.692 
#    0.000    7.308    0.000    0.000    0.000    0.000 
#    0.000    0.000    0.000    0.000    0.000    0.000 
#
# Total GULP energy -322314.877714 kJ/mol
# GULP energy per Si atom -12396.726066 kJ/mol
# Density = 1.911978 g / cm^3
# Si number density = 19.163394 Si / 1000 Ang^3
#
#
#
# Elastic Constant Matrix: (Units=GPa)
#
#
# Indices 1 2 3 4 5 6 
#
# 1 108.8895 43.6237 40.7556 0.0000 3.5250 0.0000
# 2 43.6237 75.5316 41.7960 0.0000 -5.6894 0.0000
# 3 40.7556 41.7960 116.5814 0.0000 -2.5394 0.0000
# 4 0.0000 0.0000 0.0000 18.9357 0.0000 -33.9130
# 5 3.5250 -5.6894 -2.5394 0.0000 28.5898 0.0000
# 6 0.0000 0.0000 0.0000 -33.9130 0.0000 -165.3858
#
#
#
# Elastic Compliance Matrix: (Units=1/GPa)
#
#
# Indices 1 2 3 4 5 6 
#
# 1 0.012635 -0.006292 -0.002227 0.000000 -0.003008 0.000000
# 2 -0.006292 0.019870 -0.004831 0.000000 0.004301 0.000000
# 3 -0.002227 -0.004831 0.011095 0.000000 0.000299 0.000000
# 4 0.000000 0.000000 0.000000 0.038625 0.000000 -0.007920
# 5 -0.003008 0.004301 0.000299 0.000000 0.036231 0.000000
# 6 0.000000 0.000000 0.000000 -0.007920 0.000000 -0.004422
#
#
# Mechanical properties :
#
#
# Convention : Reuss Voigt Hill
#
# Bulk Modulus (GPa) = 59.16641 61.48365 60.32503
# Shear Modulus (GPa) = 34.16091 -11.91692 11.12200
#
# Velocity S-wave (km/s) = 4.22668 -2.49641 2.41172
# Velocity P-wave (km/s) = 7.40010 4.88304 6.26919
#
# Compressibility (1/GPa) = 0.01690148
#
# Stress axis : x y z
#
# Youngs Moduli (GPa) = 79.14450 50.32631 90.13439
#
# Poissons Ratio (x) = 0.31664 0.20072
# Poissons Ratio (y) = 0.49796 0.43540
# Poissons Ratio (z) = 0.17625 0.24310
#
# Static dielectric constant tensor:
#      x y z
#    x 3.411670 0.000000 -0.057110 
#    y 0.000000 3.457000 0.000000 
#    z -0.057110 0.000000 3.566120 
# 
# 
# High freq. dielectric constant tensor:
#      x y z
#    x 1.743700 0.000000 0.006150 
#    y 0.000000 1.732930 0.000000 
#    z 0.006150 0.000000 1.748420 
# 
# From -- ./inp_files/28145.got.cif
#   From: 2010.06.25/outbox.cif.g09.slc.cpg/sg10_15_cif.got.tgz:28145.got - 2010.06.27 22:07:45.
