data_PCOD8056150
_publ_section_title
;
Structure prediction by ZEFSAII (Michael W. Deem and Ramdas Pophale) SiO2 
 PCOD8056150
Probable space group: C C
;
_chemical_formula_sum "Si O2"
_cell_formula_units_Z 28
_cell_length_a 11.085719
_cell_length_b 13.400223
_cell_length_c 14.412036
_cell_angle_alpha 90.000000
_cell_angle_beta 31.354746
_cell_angle_gamma 90.000000
_cell_volume 1113.998296
_symmetry_space_group_name_H-M "C C"
_symmetry_group_IT_number 9
_symmetry_cell_setting 'monoclinic'
loop_
_space_group_symop_operation_xyz
x,y,z
x,-y,1/2+z
1/2+x,1/2+y,z
1/2+x,1/2-y,1/2+z
loop_
_atom_site_type_symbol
_atom_site_label
_atom_site_fract_x
_atom_site_fract_y
_atom_site_fract_z
Si Si1 0.980330 0.724325 0.843280
Si Si2 0.943383 0.882154 0.009892
Si Si3 0.324832 0.917469 0.190126
Si Si4 0.203409 0.047705 0.100544
Si Si5 0.356895 0.383431 0.562195
Si Si6 0.792427 0.840256 0.810649
Si Si7 0.385644 0.067248 0.309757
O O1 0.889747 0.738132 0.796336
O O2 0.982062 0.838329 0.880864
O O3 0.227722 0.674545 0.696022
O O4 0.801738 0.660295 0.022667
O O5 0.177582 0.860393 0.914531
O O6 0.892349 0.998307 0.049802
O O7 0.097857 0.845332 0.356519
O O8 0.239503 0.008680 0.180820
O O9 0.413120 0.968876 0.227149
O O10 0.522794 0.852609 0.012500
O O11 0.931928 0.059330 0.251350
O O12 0.338048 0.971665 0.944792
O O13 0.325709 0.326796 0.679391
O O14 0.125164 0.368867 0.652506
#
# Coordination Sequence:
#
# PCOD8056150 Si02
#       7
#     4   4   4   4   4   4   4
#     4  12  25  41  71 108 143 183 243 307 364 426
#     4  11  23  41  68 104 142 185 241 297 360 418
#     4  11  23  40  72 106 138 195 242 299 356 433
#     4  12  23  43  71 106 142 189 245 299 362 432
#     4  11  23  45  70 105 141 190 246 292 360 444
#     4  12  23  42  71 105 146 185 239 306 361 424
#     4  11  22  42  71 102 144 187 250 294 351 451
#
# _framework density 25.134689000000002
#
# number of rings (size 3 to 8) (size 9 to 14) (size 15 to 20)
#    0.000    0.571    7.143    3.429    0.000    0.000 
#    0.000    0.000    3.143    0.000    0.000    0.000 
#    0.000    0.000    0.000    0.000    0.000    0.000 
#
# Total GULP energy -173608.894292 kJ/mol
# GULP energy per Si atom -12400.635307 kJ/mol
# Density = 2.507748 g / cm^3
# Si number density = 25.134689 Si / 1000 Ang^3
#
#
#
# Elastic Constant Matrix: (Units=GPa)
#
#
# Indices 1 2 3 4 5 6 
#
# 1 124.2780 16.4565 59.5143 -0.0068 -23.2079 0.0033
# 2 16.4565 56.0497 33.0701 -0.0047 -0.9975 0.0112
# 3 59.5143 33.0701 178.2594 0.0370 -30.3188 0.0044
# 4 -0.0068 -0.0047 0.0370 39.0644 0.0108 -7.2679
# 5 -23.2079 -0.9975 -30.3188 0.0108 52.7934 -0.0130
# 6 0.0033 0.0112 0.0044 -7.2679 -0.0130 25.6258
#
#
#
# Elastic Compliance Matrix: (Units=1/GPa)
#
#
# Indices 1 2 3 4 5 6 
#
# 1 0.010009 -0.001353 -0.002601 0.000004 0.002881 0.000002
# 2 -0.001353 0.020399 -0.003733 0.000005 -0.002353 -0.000008
# 3 -0.002601 -0.003733 0.007718 -0.000009 0.003219 0.000000
# 4 0.000004 0.000005 -0.000009 0.027025 -0.000007 0.007665
# 5 0.002881 -0.002353 0.003219 -0.000007 0.022012 0.000009
# 6 0.000002 -0.000008 0.000000 0.007665 0.000009 0.041197
#
#
# Mechanical properties :
#
#
# Convention : Reuss Voigt Hill
#
# Bulk Modulus (GPa) = 43.95010 64.07431 54.01220
# Shear Modulus (GPa) = 33.04308 40.13313 36.58810
#
# Velocity S-wave (km/s) = 3.62973 4.00024 3.81948
# Velocity P-wave (km/s) = 5.92371 6.84716 6.40211
#
# Compressibility (1/GPa) = 0.02275308
#
# Stress axis : x y z
#
# Youngs Moduli (GPa) = 99.90983 49.02166 129.56698
#
# Poissons Ratio (x) = 0.06633 0.33696
# Poissons Ratio (y) = 0.13518 0.48366
# Poissons Ratio (z) = 0.25983 0.18299
#
# Static dielectric constant tensor:
#      x y z
#    x 4.718800 -0.000040 -0.471650 
#    y -0.000040 4.121670 0.000040 
#    z -0.471650 0.000040 5.283560 
# 
# 
# High freq. dielectric constant tensor:
#      x y z
#    x 1.996380 0.000000 -0.010890 
#    y 0.000000 1.980160 0.000000 
#    z -0.010890 0.000000 2.034340 
# 
# From -- ./inp_files/24896.got.cif
#   From: 2010.06.25/outbox.cif.g09.slc.cpg/sg9_13_cif.got.tgz:24896.got - 2010.06.27 21:40:51.
