data_PCOD8056481
_publ_section_title
;
Structure prediction by ZEFSAII (Michael W. Deem and Ramdas Pophale) SiO2 
 PCOD8056481
Probable space group: C C
;
_chemical_formula_sum "Si O2"
_cell_formula_units_Z 28
_cell_length_a 17.915139
_cell_length_b 8.587044
_cell_length_c 13.249568
_cell_angle_alpha 90.000000
_cell_angle_beta 143.807526
_cell_angle_gamma 90.000000
_cell_volume 1203.608496
_symmetry_space_group_name_H-M "C C"
_symmetry_group_IT_number 9
_symmetry_cell_setting 'monoclinic'
loop_
_space_group_symop_operation_xyz
x,y,z
x,-y,1/2+z
1/2+x,1/2+y,z
1/2+x,1/2-y,1/2+z
loop_
_atom_site_type_symbol
_atom_site_label
_atom_site_fract_x
_atom_site_fract_y
_atom_site_fract_z
Si Si1 0.551120 0.582490 0.305680
Si Si2 0.345320 0.318048 0.068068
Si Si3 0.952817 0.485951 0.616116
Si Si4 0.673635 0.984197 0.732341
Si Si5 0.719616 0.323727 0.813560
Si Si6 0.025626 0.607490 0.891622
Si Si7 0.778033 0.577865 0.158941
O O1 0.431030 0.470614 0.168779
O O2 0.590236 0.654756 0.237822
O O3 0.515250 0.711472 0.349889
O O4 0.672917 0.487566 0.470776
O O5 0.411614 0.192622 0.068306
O O6 0.318922 0.242088 0.149816
O O7 0.221331 0.360576 0.867003
O O8 0.836333 0.605057 0.503600
O O9 0.048492 0.509334 0.814759
O O10 0.027273 0.525315 0.596300
O O11 0.654233 0.914918 0.598595
O O12 0.752459 0.143343 0.825856
O O13 0.712589 0.404143 0.696483
O O14 0.894866 0.542390 0.797674
#
# Coordination Sequence:
#
# PCOD8056481 Si02
#       7
#     4   4   4   4   4   4   4
#     4  12  26  48  78 106 152 192 251 302 373 441
#     4  11  27  47  75 109 148 197 241 307 367 442
#     4  11  24  48  70 104 151 187 250 301 361 437
#     4  12  27  45  79 107 148 193 253 300 371 441
#     4  12  26  47  76 106 150 195 242 305 374 430
#     4  11  25  46  73 106 144 196 242 303 363 438
#     4  11  27  49  73 108 153 192 247 304 369 439
#
# _framework density 23.263379
#
# number of rings (size 3 to 8) (size 9 to 14) (size 15 to 20)
#    0.000    0.571    5.714    1.714    8.000    0.000 
#    2.571    0.000    0.000    0.000    0.000    0.000 
#    0.000    0.000    0.000    0.000    0.000    0.000 
#
# Total GULP energy -173485.511938 kJ/mol
# GULP energy per Si atom -12391.822281 kJ/mol
# Density = 2.321043 g / cm^3
# Si number density = 23.263379 Si / 1000 Ang^3
#
#
#
# Elastic Constant Matrix: (Units=GPa)
#
#
# Indices 1 2 3 4 5 6 
#
# 1 98.7898 39.8838 39.4734 0.0000 -18.1941 0.0000
# 2 39.8838 149.9310 52.7587 0.0000 -5.1022 0.0000
# 3 39.4734 52.7587 120.4774 0.0000 -14.6869 0.0000
# 4 0.0000 0.0000 0.0000 34.4023 0.0000 -3.3153
# 5 -18.1941 -5.1022 -14.6869 0.0000 27.7723 0.0000
# 6 0.0000 0.0000 0.0000 -3.3153 0.0000 33.0833
#
#
#
# Elastic Compliance Matrix: (Units=1/GPa)
#
#
# Indices 1 2 3 4 5 6 
#
# 1 0.013389 -0.002459 -0.002454 0.000000 0.007022 0.000000
# 2 -0.002459 0.008341 -0.003053 0.000000 -0.001693 0.000000
# 3 -0.002454 -0.003053 0.010878 0.000000 0.003584 0.000000
# 4 0.000000 0.000000 0.000000 0.029351 0.000000 0.002941
# 5 0.007022 -0.001693 0.003584 0.000000 0.042192 0.000000
# 6 0.000000 0.000000 0.000000 0.002941 0.000000 0.030522
#
#
# Mechanical properties :
#
#
# Convention : Reuss Voigt Hill
#
# Bulk Modulus (GPa) = 59.96841 70.38113 65.17477
# Shear Modulus (GPa) = 32.01771 34.85707 33.43739
#
# Velocity S-wave (km/s) = 3.71390 3.87507 3.79534
# Velocity P-wave (km/s) = 6.65016 7.09516 6.87626
#
# Compressibility (1/GPa) = 0.01667545
#
# Stress axis : x y z
#
# Youngs Moduli (GPa) = 74.68769 119.89438 91.92629
#
# Poissons Ratio (x) = 0.29485 0.22557
# Poissons Ratio (y) = 0.18368 0.28067
# Poissons Ratio (z) = 0.18327 0.36606
#
# Static dielectric constant tensor:
#      x y z
#    x 4.189900 0.000000 -0.104390 
#    y 0.000000 4.200350 0.000000 
#    z -0.104390 0.000000 4.124040 
# 
# 
# High freq. dielectric constant tensor:
#      x y z
#    x 1.917990 0.000000 -0.010530 
#    y 0.000000 1.924010 0.000000 
#    z -0.010530 0.000000 1.922780 
# 
# From -- ./inp_files/26741.got.cif
#   From: 2010.06.25/outbox.cif.g09.slc.cpg/sg9_14_cif.got.tgz:26741.got - 2010.06.27 21:40:51.
