data_PCOD8056476
_publ_section_title
;
Structure prediction by ZEFSAII (Michael W. Deem and Ramdas Pophale) SiO2 
 PCOD8056476
Probable space group: C C
;
_chemical_formula_sum "Si O2"
_cell_formula_units_Z 28
_cell_length_a 12.168624
_cell_length_b 13.060541
_cell_length_c 9.646061
_cell_angle_alpha 90.000000
_cell_angle_beta 127.361936
_cell_angle_gamma 90.000000
_cell_volume 1218.485344
_symmetry_space_group_name_H-M "C C"
_symmetry_group_IT_number 9
_symmetry_cell_setting 'monoclinic'
loop_
_space_group_symop_operation_xyz
x,y,z
x,-y,1/2+z
1/2+x,1/2+y,z
1/2+x,1/2-y,1/2+z
loop_
_atom_site_type_symbol
_atom_site_label
_atom_site_fract_x
_atom_site_fract_y
_atom_site_fract_z
Si Si1 0.943190 0.799007 0.978040
Si Si2 0.202915 0.265787 0.988836
Si Si3 0.945223 0.426205 0.543771
Si Si4 0.969884 0.417604 0.868301
Si Si5 0.641036 0.564148 0.798284
Si Si6 0.800094 0.746800 0.358871
Si Si7 0.517811 0.339196 0.731868
O O1 0.789712 0.809290 0.924758
O O2 0.000406 0.689042 0.073168
O O3 0.936444 0.806668 0.807680
O O4 0.045238 0.886315 0.108370
O O5 0.162882 0.144700 0.944205
O O6 0.063302 0.326057 0.888591
O O7 0.288946 0.289799 0.193773
O O8 0.923977 0.465471 0.685406
O O9 0.044494 0.497629 0.523796
O O10 0.795575 0.444186 0.353023
O O11 0.854064 0.369063 0.880713
O O12 0.569546 0.543288 0.284035
O O13 0.648300 0.737356 0.312050
O O14 0.905259 0.820605 0.523416
#
# Coordination Sequence:
#
# PCOD8056476 Si02
#       7
#     4   4   4   4   4   4   4
#     4  11  27  47  71 110 154 189 255 318 379 455
#     4  11  24  51  78 104 158 201 245 314 401 452
#     4  11  26  43  78 105 145 200 253 307 388 464
#     4  12  24  46  75 108 146 198 252 313 385 458
#     4  11  24  47  77 106 145 209 252 304 386 467
#     4  12  25  47  76 116 149 195 252 330 373 454
#     4  12  30  45  81 115 153 196 267 320 380 458
#
# _framework density 22.979348000000002
#
# number of rings (size 3 to 8) (size 9 to 14) (size 15 to 20)
#    0.000    0.571    7.143    0.000   10.000    0.000 
#    7.714    0.000    0.000    0.000    0.000    0.000 
#    0.000    0.000    0.000    0.000    0.000    0.000 
#
# Total GULP energy -173448.933875 kJ/mol
# GULP energy per Si atom -12389.209563 kJ/mol
# Density = 2.292705 g / cm^3
# Si number density = 22.979348 Si / 1000 Ang^3
#
#
#
# Elastic Constant Matrix: (Units=GPa)
#
#
# Indices 1 2 3 4 5 6 
#
# 1 106.9677 35.6996 48.7206 0.0000 -17.0796 0.0000
# 2 35.6996 88.8597 34.4114 0.0000 -12.5806 0.0000
# 3 48.7206 34.4114 124.6401 0.0000 -14.7523 0.0000
# 4 0.0000 0.0000 0.0000 40.1129 0.0000 -6.8366
# 5 -17.0796 -12.5806 -14.7523 0.0000 42.6003 0.0000
# 6 0.0000 0.0000 0.0000 -6.8366 0.0000 30.4517
#
#
#
# Elastic Compliance Matrix: (Units=1/GPa)
#
#
# Indices 1 2 3 4 5 6 
#
# 1 0.012549 -0.003217 -0.003685 0.000000 0.002805 0.000000
# 2 -0.003217 0.013714 -0.002296 0.000000 0.001965 0.000000
# 3 -0.003685 -0.002296 0.010263 0.000000 0.001399 0.000000
# 4 0.000000 0.000000 0.000000 0.025921 0.000000 0.005820
# 5 0.002805 0.001965 0.001399 0.000000 0.025663 0.000000
# 6 0.000000 0.000000 0.000000 0.005820 0.000000 0.034145
#
#
# Mechanical properties :
#
#
# Convention : Reuss Voigt Hill
#
# Bulk Modulus (GPa) = 55.16103 62.01453 58.58778
# Shear Modulus (GPa) = 34.08448 36.07536 35.07992
#
# Velocity S-wave (km/s) = 3.85550 3.96650 3.91139
# Velocity P-wave (km/s) = 6.62394 6.92987 6.77863
#
# Compressibility (1/GPa) = 0.01812874
#
# Stress axis : x y z
#
# Youngs Moduli (GPa) = 79.69022 72.92050 97.43836
#
# Poissons Ratio (x) = 0.23461 0.35905
# Poissons Ratio (y) = 0.25639 0.22371
# Poissons Ratio (z) = 0.29365 0.16742
#
# Static dielectric constant tensor:
#      x y z
#    x 4.146810 0.000000 -0.133510 
#    y 0.000000 4.136360 0.000000 
#    z -0.133510 0.000000 4.346140 
# 
# 
# High freq. dielectric constant tensor:
#      x y z
#    x 1.904510 0.000000 -0.006460 
#    y 0.000000 1.903380 0.000000 
#    z -0.006460 0.000000 1.911950 
# 
# From -- ./inp_files/7331.got.cif
#   From: 2010.06.25/outbox.cif.g09.slc.cpg/sg9_4_cif.got.tgz:7331.got - 2010.06.27 21:40:51.
