data_PCOD8056011
_publ_section_title
;
Structure prediction by ZEFSAII (Michael W. Deem and Ramdas Pophale) SiO2 
 PCOD8056011
Probable space group: C C
;
_chemical_formula_sum "Si O2"
_cell_formula_units_Z 32
_cell_length_a 12.795630
_cell_length_b 14.773266
_cell_length_c 8.069079
_cell_angle_alpha 90.000000
_cell_angle_beta 62.458453
_cell_angle_gamma 90.000000
_cell_volume 1352.468005
_symmetry_space_group_name_H-M "C C"
_symmetry_group_IT_number 9
_symmetry_cell_setting 'monoclinic'
loop_
_space_group_symop_operation_xyz
x,y,z
x,-y,1/2+z
1/2+x,1/2+y,z
1/2+x,1/2-y,1/2+z
loop_
_atom_site_type_symbol
_atom_site_label
_atom_site_fract_x
_atom_site_fract_y
_atom_site_fract_z
Si Si1 0.036840 0.095428 0.870710
Si Si2 0.725235 0.695337 0.218851
Si Si3 0.400251 0.057448 0.177972
Si Si4 0.317323 0.704177 0.976313
Si Si5 0.674639 0.947075 0.463101
Si Si6 0.005397 0.902328 0.780574
Si Si7 0.302409 0.887665 0.101743
Si Si8 0.753065 0.876554 0.061122
O O1 0.163373 0.094794 0.691225
O O2 0.953330 0.173997 0.857830
O O3 0.975393 0.002783 0.863230
O O4 0.048658 0.103620 0.059877
O O5 0.825925 0.620078 0.102358
O O6 0.766141 0.743958 0.355617
O O7 0.603211 0.641595 0.328743
O O8 0.700014 0.774503 0.102046
O O9 0.369490 0.086766 0.384683
O O10 0.363450 0.951511 0.193569
O O11 0.537260 0.074020 0.039253
O O12 0.231889 0.616347 0.067824
O O13 0.315944 0.779152 0.126007
O O14 0.749270 0.922453 0.245290
O O15 0.685735 0.054360 0.489190
O O16 0.882669 0.852737 0.899689
#
# Coordination Sequence:
#
# PCOD8056011 Si02
#       8
#     4   4   4   4   4   4   4   4
#     4  12  26  47  76 108 148 193 251 304 363 435
#     4  10  26  43  73 107 140 192 239 299 367 432
#     4  11  24  45  70 103 140 190 232 293 369 431
#     4  10  26  43  73 107 140 192 239 299 367 432
#     4  11  24  45  70 103 140 190 232 293 369 431
#     4  12  26  47  76 108 148 193 251 304 363 435
#     4  11  25  45  72 101 145 183 244 296 361 429
#     4  11  25  45  72 101 145 183 244 296 361 429
#
# _framework density 23.660449
#
# number of rings (size 3 to 8) (size 9 to 14) (size 15 to 20)
#    0.000    1.000    2.500    2.250   10.500    2.000 
#    0.000    0.000    0.000    0.000    0.000    0.000 
#    0.000    0.000    0.000    0.000    0.000    0.000 
#
# Total GULP energy -198277.270985 kJ/mol
# GULP energy per Si atom -12392.329437 kJ/mol
# Density = 2.360660 g / cm^3
# Si number density = 23.660449 Si / 1000 Ang^3
#
#
#
# Elastic Constant Matrix: (Units=GPa)
#
#
# Indices 1 2 3 4 5 6 
#
# 1 93.0417 47.8570 21.4160 0.0000 -23.0094 0.0000
# 2 47.8570 124.4874 15.9980 0.0000 -12.2874 0.0000
# 3 21.4160 15.9980 65.5113 0.0000 -9.3261 0.0000
# 4 0.0000 0.0000 0.0000 32.2033 0.0000 -1.3872
# 5 -23.0094 -12.2874 -9.3261 0.0000 35.0360 0.0000
# 6 0.0000 0.0000 0.0000 -1.3872 0.0000 46.2748
#
#
#
# Elastic Compliance Matrix: (Units=1/GPa)
#
#
# Indices 1 2 3 4 5 6 
#
# 1 0.015932 -0.004971 -0.002861 0.000000 0.007958 0.000000
# 2 -0.004971 0.010054 -0.000824 0.000000 0.000042 0.000000
# 3 -0.002861 -0.000824 0.016726 0.000000 0.002284 0.000000
# 4 0.000000 0.000000 0.000000 0.031093 0.000000 0.000932
# 5 0.007958 0.000042 0.002284 0.000000 0.034391 0.000000
# 6 0.000000 0.000000 0.000000 0.000932 0.000000 0.021638
#
#
# Mechanical properties :
#
#
# Convention : Reuss Voigt Hill
#
# Bulk Modulus (GPa) = 39.37250 50.39804 44.88527
# Shear Modulus (GPa) = 32.13094 35.88747 34.00921
#
# Velocity S-wave (km/s) = 3.68911 3.89880 3.79540
# Velocity P-wave (km/s) = 5.90108 6.45091 6.18211
#
# Compressibility (1/GPa) = 0.02539844
#
# Stress axis : x y z
#
# Youngs Moduli (GPa) = 62.76863 99.46138 59.78604
#
# Poissons Ratio (x) = 0.49447 0.17106
# Poissons Ratio (y) = 0.31205 0.04927
# Poissons Ratio (z) = 0.17960 0.08197
#
# Static dielectric constant tensor:
#      x y z
#    x 4.103390 0.000000 -0.022350 
#    y 0.000000 5.664520 0.000000 
#    z -0.022350 0.000000 4.048730 
# 
# 
# High freq. dielectric constant tensor:
#      x y z
#    x 1.930920 0.000000 -0.013990 
#    y 0.000000 1.963970 0.000000 
#    z -0.013990 0.000000 1.917770 
# 
# From -- ./inp_files/7567.got.cif
#   From: 2010.06.25/outbox.cif.g09.slc.cpg/sg9_4_cif.got.tgz:7567.got - 2010.06.27 21:40:51.
