data_PCOD8056859
_publ_section_title
;
Structure prediction by ZEFSAII (Michael W. Deem and Ramdas Pophale) SiO2 
 PCOD8056859
Probable space group: P 2/M
;
_chemical_formula_sum "Si O2"
_cell_formula_units_Z 26
_cell_length_a 11.216568
_cell_length_b 12.936505
_cell_length_c 14.843415
_cell_angle_alpha 90.000000
_cell_angle_beta 123.511003
_cell_angle_gamma 90.000000
_cell_volume 1795.817339
_symmetry_space_group_name_H-M "P 2/M"
_symmetry_group_IT_number 10
_symmetry_cell_setting 'monoclinic'
loop_
_space_group_symop_operation_xyz
x,y,z
-x,y,-z
-x,-y,-z
x,-y,z
loop_
_atom_site_type_symbol
_atom_site_label
_atom_site_fract_x
_atom_site_fract_y
_atom_site_fract_z
Si Si1 0.647762 0.500000 0.617632
Si Si2 0.429783 0.113870 0.611932
Si Si3 0.716019 0.885637 0.641916
Si Si4 0.540923 0.500000 0.300389
Si Si5 0.266515 0.302842 0.597151
Si Si6 0.604916 0.500000 0.126920
Si Si7 0.860044 0.614443 0.285454
Si Si8 0.149808 0.686580 0.353514
O O1 0.500000 0.500000 0.500000
O O2 0.608216 0.500000 0.707411
O O3 0.739425 0.601747 0.636051
O O4 0.362907 0.124169 0.485709
O O5 0.600409 0.130047 0.673314
O O6 0.363055 0.200061 0.649220
O O7 0.397924 0.000000 0.639162
O O8 0.831338 0.793236 0.694572
O O9 0.787665 0.000000 0.680991
O O10 0.630985 0.400869 0.367734
O O11 0.513035 0.500000 0.181354
O O12 0.161938 0.309152 0.639399
O O13 0.169958 0.296381 0.468205
O O14 0.709106 0.601555 0.168037
O O15 0.500000 0.500000 0.000000
O O16 0.902069 0.500000 0.340994
O O17 0.984664 0.653797 0.270970
#
# Coordination Sequence:
#
# PCOD8056859 Si02
#       8
#     2   4   4   2   4   2   4   4
#     4  12  19  23  36  63  94 116 139 170 210 246
#     4   8  14  24  37  53  76 113 153 180 197 226
#     4   8  15  25  36  51  76 115 156 177 197 231
#     4  10  18  25  39  67  84 105 142 176 202 252
#     4  10  16  25  38  56  86 116 143 169 202 241
#     4   8  17  34  50  57  76 109 143 180 217 254
#     4   9  19  29  40  60  81 108 141 169 212 257
#     4  11  18  25  39  57  91 122 138 168 208 250
#
# _framework density 14.478088
#
# number of rings (size 3 to 8) (size 9 to 14) (size 15 to 20)
#    0.462    2.154    3.077    2.308    2.154    0.615 
#    0.000    0.769    0.000    5.538    0.000    0.000 
#    0.000   15.385    0.000   16.462    0.000    1.231 
#
# Total GULP energy -322138.319489 kJ/mol
# GULP energy per Si atom -12389.935365 kJ/mol
# Density = 1.444513 g / cm^3
# Si number density = 14.478088 Si / 1000 Ang^3
#
#
#
# Elastic Constant Matrix: (Units=GPa)
#
#
# Indices 1 2 3 4 5 6 
#
# 1 110.8023 54.3788 24.3104 0.0000 2.4001 0.0000
# 2 54.3788 115.6010 10.5015 0.0000 2.1531 0.0000
# 3 24.3104 10.5015 41.6328 0.0000 2.7539 0.0000
# 4 0.0000 0.0000 0.0000 3.1304 0.0000 4.8198
# 5 2.4001 2.1531 2.7539 0.0000 8.2972 0.0000
# 6 0.0000 0.0000 0.0000 4.8198 0.0000 20.7028
#
#
#
# Elastic Compliance Matrix: (Units=1/GPa)
#
#
# Indices 1 2 3 4 5 6 
#
# 1 0.013159 -0.005617 -0.006249 0.000000 -0.000275 0.000000
# 2 -0.005617 0.011272 0.000535 0.000000 -0.001478 0.000000
# 3 -0.006249 0.000535 0.028039 0.000000 -0.007637 0.000000
# 4 0.000000 0.000000 0.000000 0.497927 0.000000 -0.115922
# 5 -0.000275 -0.001478 -0.007637 0.000000 0.123521 0.000000
# 6 0.000000 0.000000 0.000000 -0.115922 0.000000 0.075291
#
#
# Mechanical properties :
#
#
# Convention : Reuss Voigt Hill
#
# Bulk Modulus (GPa) = 33.54968 49.60195 41.57582
# Shear Modulus (GPa) = 6.39545 18.34910 12.37228
#
# Velocity S-wave (km/s) = 2.10403 3.56388 2.92644
# Velocity P-wave (km/s) = 5.39681 7.16026 6.34015
#
# Compressibility (1/GPa) = 0.02980654
#
# Stress axis : x y z
#
# Youngs Moduli (GPa) = 75.99513 88.71772 35.66510
#
# Poissons Ratio (x) = 0.49834 0.22286
# Poissons Ratio (y) = 0.42687 -0.01906
# Poissons Ratio (z) = 0.47487 -0.04742
#
# Static dielectric constant tensor:
#      x y z
#    x 2.996330 0.000000 -0.030020 
#    y 0.000000 3.045570 0.000000 
#    z -0.030020 0.000000 2.191850 
# 
# 
# High freq. dielectric constant tensor:
#      x y z
#    x 1.562690 0.000000 -0.003250 
#    y 0.000000 1.557330 0.000000 
#    z -0.003250 0.000000 1.471060 
# 
# From -- ./inp_files/64161.got.cif
#   From: 2010.06.25/outbox.cif.g09.slc.cpg/sg10_33_cif.got.tgz:64161.got - 2010.06.27 22:07:45.
