data_PCOD8056900
_publ_section_title
;
Structure prediction by ZEFSAII (Michael W. Deem and Ramdas Pophale) SiO2 
 PCOD8056900
Probable space group: P 2/M
;
_chemical_formula_sum "Si O2"
_cell_formula_units_Z 32
_cell_length_a 11.586532
_cell_length_b 17.502517
_cell_length_c 22.659307
_cell_angle_alpha 90.000000
_cell_angle_beta 23.207927
_cell_angle_gamma 90.000000
_cell_volume 1810.810259
_symmetry_space_group_name_H-M "P 2/M"
_symmetry_group_IT_number 10
_symmetry_cell_setting 'monoclinic'
loop_
_space_group_symop_operation_xyz
x,y,z
-x,y,-z
-x,-y,-z
x,-y,z
loop_
_atom_site_type_symbol
_atom_site_label
_atom_site_fract_x
_atom_site_fract_y
_atom_site_fract_z
Si Si1 0.495414 0.416215 0.935623
Si Si2 0.728161 0.271410 0.790983
Si Si3 0.272652 0.914497 0.914849
Si Si4 0.890236 0.796845 0.920549
Si Si5 0.826845 0.413401 0.238772
Si Si6 0.802889 0.731554 0.329502
Si Si7 0.710971 0.786177 0.672736
Si Si8 0.782972 0.684046 0.150560
O O1 0.639512 0.500000 0.867540
O O2 0.695858 0.363197 0.800428
O O3 0.500000 0.383051 0.000000
O O4 0.169366 0.417677 0.063779
O O5 0.829206 0.239095 0.681057
O O6 0.963127 0.253446 0.729941
O O7 0.412980 0.239511 0.959537
O O8 0.527222 0.863818 0.765920
O O9 0.393941 0.000000 0.868013
O O10 0.170697 0.882098 0.026899
O O11 0.000000 0.915892 0.000000
O O12 0.122750 0.790840 0.758198
O O13 0.016230 0.750849 0.916943
O O14 0.706834 0.500000 0.308094
O O15 0.777800 0.356228 0.317373
O O16 0.683290 0.377985 0.246804
O O17 0.500000 0.756967 0.500000
O O18 0.514150 0.719138 0.736882
O O19 0.000000 0.803920 0.500000
O O20 0.000000 0.645711 0.000000
#
# Coordination Sequence:
#
# PCOD8056900 Si02
#       8
#     4   4   4   4   4   4   4   4
#     4  10  16  28  51  77 100 130 180 238 282 316
#     4  11  19  35  55  80 103 144 189 231 273 324
#     4  10  19  35  62  90 115 147 181 218 271 324
#     4  10  18  35  58  81 114 137 183 233 266 318
#     4  10  21  33  52  77 109 143 182 239 292 332
#     4  11  23  33  55  82 110 144 187 234 280 329
#     4  11  23  35  57  82 117 147 179 226 272 329
#     4  11  17  35  56  80 106 144 189 231 272 322
#
# _framework density 17.671645999999999
#
# number of rings (size 3 to 8) (size 9 to 14) (size 15 to 20)
#    0.000    1.500    7.500    0.375    3.500    0.750 
#    0.000    0.625    0.000    7.125    0.000    0.000 
#    0.000    0.000    0.000    0.000    0.000    0.000 
#
# Total GULP energy -396630.136783 kJ/mol
# GULP energy per Si atom -12394.691774 kJ/mol
# Density = 1.763142 g / cm^3
# Si number density = 17.671646 Si / 1000 Ang^3
#
#
#
# Elastic Constant Matrix: (Units=GPa)
#
#
# Indices 1 2 3 4 5 6 
#
# 1 96.6800 38.0284 32.1202 0.0000 5.1097 0.0000
# 2 38.0284 98.3004 33.6247 0.0000 10.2063 0.0000
# 3 32.1202 33.6247 98.7011 0.0000 17.5228 0.0000
# 4 0.0000 0.0000 0.0000 12.4376 0.0000 0.7912
# 5 5.1097 10.2063 17.5228 0.0000 25.6076 0.0000
# 6 0.0000 0.0000 0.0000 0.7912 0.0000 20.1387
#
#
#
# Elastic Compliance Matrix: (Units=1/GPa)
#
#
# Indices 1 2 3 4 5 6 
#
# 1 0.012884 -0.004072 -0.003002 0.000000 0.001106 0.000000
# 2 -0.004072 0.012909 -0.002622 0.000000 -0.002538 0.000000
# 3 -0.003002 -0.002622 0.013329 0.000000 -0.007477 0.000000
# 4 0.000000 0.000000 0.000000 0.080603 0.000000 -0.003167
# 5 0.001106 -0.002538 -0.007477 0.000000 0.044958 0.000000
# 6 0.000000 0.000000 0.000000 -0.003167 0.000000 0.049780
#
#
# Mechanical properties :
#
#
# Convention : Reuss Voigt Hill
#
# Bulk Modulus (GPa) = 50.68471 55.69199 53.18835
# Shear Modulus (GPa) = 20.79596 24.29733 22.54665
#
# Velocity S-wave (km/s) = 3.43417 3.71203 3.57580
# Velocity P-wave (km/s) = 6.66846 7.06792 6.87109
#
# Compressibility (1/GPa) = 0.01972982
#
# Stress axis : x y z
#
# Youngs Moduli (GPa) = 77.61506 77.46735 75.02398
#
# Poissons Ratio (x) = 0.31547 0.22522
# Poissons Ratio (y) = 0.31608 0.19669
# Poissons Ratio (z) = 0.23300 0.20310
#
# Static dielectric constant tensor:
#      x y z
#    x 3.425840 0.000000 0.003280 
#    y 0.000000 3.365950 0.000000 
#    z 0.003280 0.000000 3.114330 
# 
# 
# High freq. dielectric constant tensor:
#      x y z
#    x 1.693020 0.000000 -0.004100 
#    y 0.000000 1.660390 0.000000 
#    z -0.004100 0.000000 1.662270 
# 
# From -- ./inp_files/47805.got.cif
#   From: 2010.06.25/outbox.cif.g09.slc.cpg/sg10_24_cif.got.tgz:47805.got - 2010.06.27 22:07:45.
