data_PCOD8056783
_publ_section_title
;
Structure prediction by ZEFSAII (Michael W. Deem and Ramdas Pophale) SiO2 
 PCOD8056783
Probable space group: C C
;
_chemical_formula_sum "Si O2"
_cell_formula_units_Z 28
_cell_length_a 15.304600
_cell_length_b 8.124006
_cell_length_c 16.504761
_cell_angle_alpha 90.000000
_cell_angle_beta 36.158835
_cell_angle_gamma 90.000000
_cell_volume 1210.800018
_symmetry_space_group_name_H-M "C C"
_symmetry_group_IT_number 9
_symmetry_cell_setting 'monoclinic'
loop_
_space_group_symop_operation_xyz
x,y,z
x,-y,1/2+z
1/2+x,1/2+y,z
1/2+x,1/2-y,1/2+z
loop_
_atom_site_type_symbol
_atom_site_label
_atom_site_fract_x
_atom_site_fract_y
_atom_site_fract_z
Si Si1 0.145360 0.324228 0.481940
Si Si2 0.936861 0.126328 0.031750
Si Si3 0.064014 0.686103 0.586227
Si Si4 0.335976 0.684161 0.681672
Si Si5 0.773249 0.634054 0.535221
Si Si6 0.380387 0.181871 0.881591
Si Si7 0.611134 0.425182 0.776814
O O1 0.080768 0.504651 0.539473
O O2 0.272660 0.323245 0.319444
O O3 0.213105 0.264388 0.515829
O O4 0.012815 0.207211 0.552715
O O5 0.854670 0.271460 0.046307
O O6 0.018490 0.193213 0.049249
O O7 0.815421 0.989419 0.150125
O O8 0.066367 0.051041 0.880090
O O9 0.215222 0.747987 0.513369
O O10 0.934067 0.688577 0.749368
O O11 0.262398 0.831378 0.686136
O O12 0.886146 0.506945 0.407626
O O13 0.637671 0.529795 0.675159
O O14 0.481170 0.292881 0.864018
#
# Coordination Sequence:
#
# PCOD8056783 Si02
#       7
#     4   4   4   4   4   4   4
#     4  12  28  48  78 109 151 202 250 308 376 449
#     4  12  29  48  78 113 152 197 252 311 376 448
#     4  12  28  48  78 109 151 202 250 308 376 449
#     4  12  27  52  74 110 154 197 253 307 379 449
#     4  12  29  48  78 113 152 197 252 311 376 448
#     4  12  27  52  74 110 154 197 253 307 379 449
#     4  12  28  48  78 114 150 198 250 312 378 440
#
# _framework density 23.125205000000001
#
# number of rings (size 3 to 8) (size 9 to 14) (size 15 to 20)
#    0.000    0.000    2.857    5.143   16.000    0.000 
#    0.000    0.000    0.000    0.000    0.000    0.000 
#    0.000    0.000    0.000    0.000    0.000    0.000 
#
# Total GULP energy -173738.672321 kJ/mol
# GULP energy per Si atom -12409.905166 kJ/mol
# Density = 2.307257 g / cm^3
# Si number density = 23.125205 Si / 1000 Ang^3
#
#
#
# Elastic Constant Matrix: (Units=GPa)
#
#
# Indices 1 2 3 4 5 6 
#
# 1 77.8166 16.7607 28.4479 0.0000 -0.9858 0.0000
# 2 16.7607 116.2895 45.9936 0.0000 6.1609 0.0000
# 3 28.4479 45.9936 129.2133 0.0000 13.5029 0.0000
# 4 0.0000 0.0000 0.0000 51.2723 0.0000 11.9888
# 5 -0.9858 6.1609 13.5029 0.0000 37.3803 0.0000
# 6 0.0000 0.0000 0.0000 11.9888 0.0000 46.7700
#
#
#
# Elastic Compliance Matrix: (Units=1/GPa)
#
#
# Indices 1 2 3 4 5 6 
#
# 1 0.014153 -0.000961 -0.002940 0.000000 0.001594 0.000000
# 2 -0.000961 0.010079 -0.003325 0.000000 -0.000485 0.000000
# 3 -0.002940 -0.003325 0.009894 0.000000 -0.003104 0.000000
# 4 0.000000 0.000000 0.000000 0.020747 0.000000 -0.005318
# 5 0.001594 -0.000485 -0.003104 0.000000 0.027995 0.000000
# 6 0.000000 0.000000 0.000000 -0.005318 0.000000 0.022744
#
#
# Mechanical properties :
#
#
# Convention : Reuss Voigt Hill
#
# Bulk Modulus (GPa) = 50.83276 56.19154 53.51215
# Shear Modulus (GPa) = 39.48701 42.55897 41.02299
#
# Velocity S-wave (km/s) = 4.13671 4.29461 4.21640
# Velocity P-wave (km/s) = 6.69670 6.99594 6.84795
#
# Compressibility (1/GPa) = 0.01967235
#
# Stress axis : x y z
#
# Youngs Moduli (GPa) = 70.65693 99.21989 101.06733
#
# Poissons Ratio (x) = 0.09539 0.29717
# Poissons Ratio (y) = 0.06793 0.33606
# Poissons Ratio (z) = 0.20775 0.32992
#
# Static dielectric constant tensor:
#      x y z
#    x 4.087940 0.000000 0.146800 
#    y 0.000000 4.422510 0.000000 
#    z 0.146800 0.000000 4.292020 
# 
# 
# High freq. dielectric constant tensor:
#      x y z
#    x 1.914280 0.000000 0.014000 
#    y 0.000000 1.935350 0.000000 
#    z 0.014000 0.000000 1.930460 
# 
# From -- ./inp_files/8748.got.cif
#   From: 2010.06.25/outbox.cif.g09.slc.cpg/sg9_5_cif.got.tgz:8748.got - 2010.06.27 21:40:51.
