data_PCOD8056019
_publ_section_title
;
Structure prediction by ZEFSAII (Michael W. Deem and Ramdas Pophale) SiO2 
 PCOD8056019
Probable space group: C C
;
_chemical_formula_sum "Si O2"
_cell_formula_units_Z 32
_cell_length_a 5.225118
_cell_length_b 14.185234
_cell_length_c 17.604428
_cell_angle_alpha 90.000000
_cell_angle_beta 107.736285
_cell_angle_gamma 90.000000
_cell_volume 1242.811492
_symmetry_space_group_name_H-M "C C"
_symmetry_group_IT_number 9
_symmetry_cell_setting 'monoclinic'
loop_
_space_group_symop_operation_xyz
x,y,z
x,-y,1/2+z
1/2+x,1/2+y,z
1/2+x,1/2-y,1/2+z
loop_
_atom_site_type_symbol
_atom_site_label
_atom_site_fract_x
_atom_site_fract_y
_atom_site_fract_z
Si Si1 0.744310 0.679508 0.239820
Si Si2 0.573781 0.330999 0.340325
Si Si3 0.416819 0.973572 0.300458
Si Si4 0.009448 0.248795 0.478351
Si Si5 0.001386 0.924877 0.069995
Si Si6 0.600380 0.951936 0.158350
Si Si7 0.326412 0.413955 0.453076
Si Si8 0.139575 0.335943 0.641918
O O1 0.768630 0.574943 0.278723
O O2 0.451524 0.696530 0.177246
O O3 0.803819 0.768890 0.300383
O O4 0.989306 0.691563 0.204572
O O5 0.685553 0.391781 0.278588
O O6 0.789750 0.257662 0.392948
O O7 0.537691 0.407264 0.404432
O O8 0.646151 0.953768 0.254741
O O9 0.560245 0.965962 0.395653
O O10 0.014322 0.137076 0.494098
O O11 0.273762 0.305164 0.474128
O O12 0.964943 0.289055 0.559346
O O13 0.797241 0.891842 0.120292
O O14 0.294977 0.917847 0.131278
O O15 0.937621 0.030378 0.035718
O O16 0.630770 0.054047 0.125324
#
# Coordination Sequence:
#
# PCOD8056019 Si02
#       8
#     4   4   4   4   4   4   4   4
#     4  11  27  47  76 107 151 198 251 318 384 454
#     4  11  27  47  75 107 156 198 262 313 390 462
#     4  10  26  46  73 108 146 206 247 317 384 463
#     4  11  27  46  71 111 147 203 247 320 381 463
#     4  12  27  46  78 108 149 199 259 312 387 460
#     4  11  25  48  75 109 148 197 256 316 384 455
#     4  11  26  46  74 103 156 192 258 312 388 453
#     4  11  25  48  74 107 151 191 250 318 384 446
#
# _framework density 25.748069999999998
#
# number of rings (size 3 to 8) (size 9 to 14) (size 15 to 20)
#    0.000    1.000    1.250    3.000   15.750    1.000 
#    0.000    0.000    0.000    0.000    0.000    0.000 
#    0.000    0.000    0.000    0.000    0.000    0.000 
#
# Total GULP energy -198217.300872 kJ/mol
# GULP energy per Si atom -12388.581304 kJ/mol
# Density = 2.568947 g / cm^3
# Si number density = 25.748070 Si / 1000 Ang^3
#
#
#
# Elastic Constant Matrix: (Units=GPa)
#
#
# Indices 1 2 3 4 5 6 
#
# 1 134.3232 24.7149 25.4920 0.0000 -10.4950 0.0000
# 2 24.7149 92.8878 10.2849 0.0000 -8.7177 0.0000
# 3 25.4920 10.2849 64.6700 0.0000 -15.7340 0.0000
# 4 0.0000 0.0000 0.0000 46.7125 0.0000 -3.2406
# 5 -10.4950 -8.7177 -15.7340 0.0000 29.3820 0.0000
# 6 0.0000 0.0000 0.0000 -3.2406 0.0000 22.7051
#
#
#
# Elastic Compliance Matrix: (Units=1/GPa)
#
#
# Indices 1 2 3 4 5 6 
#
# 1 0.008385 -0.001833 -0.002779 0.000000 0.000963 0.000000
# 2 -0.001833 0.011544 -0.000505 0.000000 0.002500 0.000000
# 3 -0.002779 -0.000505 0.018812 0.000000 0.008931 0.000000
# 4 0.000000 0.000000 0.000000 0.021622 0.000000 0.003086
# 5 0.000963 0.002500 0.008931 0.000000 0.039903 0.000000
# 6 0.000000 0.000000 0.000000 0.003086 0.000000 0.044483
#
#
# Mechanical properties :
#
#
# Convention : Reuss Voigt Hill
#
# Bulk Modulus (GPa) = 35.08073 45.87385 40.47729
# Shear Modulus (GPa) = 30.39792 35.18587 32.79190
#
# Velocity S-wave (km/s) = 3.43970 3.70069 3.57258
# Velocity P-wave (km/s) = 5.42490 6.00960 5.72472
#
# Compressibility (1/GPa) = 0.02850568
#
# Stress axis : x y z
#
# Youngs Moduli (GPa) = 119.26538 86.62585 53.15760
#
# Poissons Ratio (x) = 0.15877 0.14775
# Poissons Ratio (y) = 0.21859 0.02686
# Poissons Ratio (z) = 0.33148 0.04377
#
# Static dielectric constant tensor:
#      x y z
#    x 4.655490 0.000000 -0.101620 
#    y 0.000000 4.752540 0.000000 
#    z -0.101620 0.000000 4.795790 
# 
# 
# High freq. dielectric constant tensor:
#      x y z
#    x 2.026970 0.000000 -0.005300 
#    y 0.000000 2.027550 0.000000 
#    z -0.005300 0.000000 2.038800 
# 
# From -- ./inp_files/28713.got.cif
#   From: 2010.06.25/outbox.cif.g09.slc.cpg/sg9_15_cif.got.tgz:28713.got - 2010.06.27 21:40:51.
