data_PCOD8056928
_publ_section_title
;
Structure prediction by ZEFSAII (Michael W. Deem and Ramdas Pophale) SiO2 
 PCOD8056928
Probable space group: P 2/M
;
_chemical_formula_sum "Si O2"
_cell_formula_units_Z 28
_cell_length_a 11.356428
_cell_length_b 14.841866
_cell_length_c 14.197993
_cell_angle_alpha 90.000000
_cell_angle_beta 140.791679
_cell_angle_gamma 90.000000
_cell_volume 1512.765990
_symmetry_space_group_name_H-M "P 2/M"
_symmetry_group_IT_number 10
_symmetry_cell_setting 'monoclinic'
loop_
_space_group_symop_operation_xyz
x,y,z
-x,y,-z
-x,-y,-z
x,-y,z
loop_
_atom_site_type_symbol
_atom_site_label
_atom_site_fract_x
_atom_site_fract_y
_atom_site_fract_z
Si Si1 0.983293 0.767691 0.222952
Si Si2 0.596796 0.147826 0.975333
Si Si3 0.233010 0.600569 0.911804
Si Si4 0.610368 0.334160 0.186030
Si Si5 0.162418 0.762233 0.531046
Si Si6 0.489633 0.901152 0.712064
Si Si7 0.148941 0.894744 0.173844
O O1 0.910970 0.673073 0.131986
O O2 0.082050 0.736786 0.380130
O O3 0.119132 0.824668 0.240361
O O4 0.807508 0.831065 0.135193
O O5 0.467803 0.236092 0.886790
O O6 0.595186 0.093034 0.877797
O O7 0.500000 0.090952 0.000000
O O8 0.149367 0.500000 0.867001
O O9 0.266728 0.627689 0.823537
O O10 0.430216 0.602212 0.090559
O O11 0.738634 0.325213 0.359123
O O12 0.310993 0.839443 0.603643
O O13 0.000000 0.798039 0.500000
O O14 0.644382 0.869389 0.733277
O O15 0.418199 0.000000 0.640324
O O16 0.136918 0.000000 0.198281
O O17 0.000000 0.875258 0.000000
#
# Coordination Sequence:
#
# PCOD8056928 Si02
#       7
#     4   4   4   4   4   4   4
#     4  11  20  34  58  86 116 155 192 244 297 344
#     4  10  16  31  54  78 108 148 188 231 289 347
#     4  10  18  33  59  89 117 151 199 243 285 344
#     4   9  16  31  52  79 115 152 185 226 279 346
#     4  11  21  36  55  82 126 161 187 228 299 369
#     4  10  22  37  54  80 113 151 200 248 288 343
#     4  10  21  39  62  86 109 148 210 260 286 333
#
# _framework density 18.509142000000001
#
# number of rings (size 3 to 8) (size 9 to 14) (size 15 to 20)
#    0.000    1.857    5.714    1.714    0.000    1.714 
#    0.000    5.000    0.000    0.429    0.000    1.000 
#    0.000    0.000    0.000    0.000    0.000    0.000 
#
# Total GULP energy -346951.120718 kJ/mol
# GULP energy per Si atom -12391.111454 kJ/mol
# Density = 1.846701 g / cm^3
# Si number density = 18.509142 Si / 1000 Ang^3
#
#
#
# Elastic Constant Matrix: (Units=GPa)
#
#
# Indices 1 2 3 4 5 6 
#
# 1 109.7678 49.9016 30.1806 0.0000 7.6819 0.0000
# 2 49.9016 86.8834 19.1770 0.0000 10.9894 0.0000
# 3 30.1806 19.1770 96.5427 0.0000 3.0937 0.0000
# 4 0.0000 0.0000 0.0000 29.7604 0.0000 11.1477
# 5 7.6819 10.9894 3.0937 0.0000 24.5549 0.0000
# 6 0.0000 0.0000 0.0000 11.1477 0.0000 27.9432
#
#
#
# Elastic Compliance Matrix: (Units=1/GPa)
#
#
# Indices 1 2 3 4 5 6 
#
# 1 0.012977 -0.006772 -0.002689 0.000000 -0.000690 0.000000
# 2 -0.006772 0.016245 -0.000949 0.000000 -0.005032 0.000000
# 3 -0.002689 -0.000949 0.011393 0.000000 -0.000170 0.000000
# 4 0.000000 0.000000 0.000000 0.039505 0.000000 -0.015760
# 5 -0.000690 -0.005032 -0.000170 0.000000 0.043215 0.000000
# 6 0.000000 0.000000 0.000000 -0.015760 0.000000 0.042074
#
#
# Mechanical properties :
#
#
# Convention : Reuss Voigt Hill
#
# Bulk Modulus (GPa) = 50.51981 54.63467 52.57724
# Shear Modulus (GPa) = 25.93001 29.38069 27.65535
#
# Velocity S-wave (km/s) = 3.74696 3.98849 3.86961
# Velocity P-wave (km/s) = 6.78774 7.12689 6.95938
#
# Compressibility (1/GPa) = 0.01979422
#
# Stress axis : x y z
#
# Youngs Moduli (GPa) = 77.06184 61.55659 87.77569
#
# Poissons Ratio (x) = 0.41688 0.23606
# Poissons Ratio (y) = 0.52188 0.08326
# Poissons Ratio (z) = 0.20724 0.05839
#
# Static dielectric constant tensor:
#      x y z
#    x 3.382660 0.000000 0.031350 
#    y 0.000000 3.238770 0.000000 
#    z 0.031350 0.000000 3.676600 
# 
# 
# High freq. dielectric constant tensor:
#      x y z
#    x 1.701720 0.000000 0.010240 
#    y 0.000000 1.692190 0.000000 
#    z 0.010240 0.000000 1.717470 
# 
# From -- ./inp_files/64937.got.cif
#   From: 2010.06.25/outbox.cif.g09.slc.cpg/sg10_33_cif.got.tgz:64937.got - 2010.06.27 22:07:45.
