data_PCOD8056154
_publ_section_title
;
Structure prediction by ZEFSAII (Michael W. Deem and Ramdas Pophale) SiO2 
 PCOD8056154
Probable space group: C C
;
_chemical_formula_sum "Si O2"
_cell_formula_units_Z 32
_cell_length_a 7.784492
_cell_length_b 22.106841
_cell_length_c 13.202845
_cell_angle_alpha 90.000000
_cell_angle_beta 143.295838
_cell_angle_gamma 90.000000
_cell_volume 1357.987191
_symmetry_space_group_name_H-M "C C"
_symmetry_group_IT_number 9
_symmetry_cell_setting 'monoclinic'
loop_
_space_group_symop_operation_xyz
x,y,z
x,-y,1/2+z
1/2+x,1/2+y,z
1/2+x,1/2-y,1/2+z
loop_
_atom_site_type_symbol
_atom_site_label
_atom_site_fract_x
_atom_site_fract_y
_atom_site_fract_z
Si Si1 0.275360 0.371204 0.607130
Si Si2 0.855243 0.242520 0.029519
Si Si3 0.991043 0.187810 0.513693
Si Si4 0.993055 0.301984 0.644472
Si Si5 0.630008 0.046224 0.707490
Si Si6 0.803838 0.426589 0.244255
Si Si7 0.119765 0.984929 0.828940
Si Si8 0.818930 0.183363 0.811330
O O1 0.436260 0.311789 0.643669
O O2 0.508140 0.422751 0.730945
O O3 0.118359 0.356701 0.637370
O O4 0.040926 0.388525 0.413673
O O5 0.163808 0.276037 0.150109
O O6 0.646638 0.292299 0.982391
O O7 0.696783 0.214095 0.856925
O O8 0.081072 0.120122 0.586876
O O9 0.062013 0.234650 0.636670
O O10 0.646968 0.190726 0.326727
O O11 0.656687 0.314514 0.482552
O O12 0.463333 0.032248 0.733942
O O13 0.706826 0.116409 0.743344
O O14 0.921956 0.008355 0.828821
O O15 0.436582 0.026946 0.520698
O O16 0.629172 0.467927 0.240456
#
# Coordination Sequence:
#
# PCOD8056154 Si02
#       8
#     4   4   4   4   4   4   4   4
#     4  11  23  48  71 106 145 200 247 312 379 454
#     4  11  22  42  73 105 151 188 247 300 384 460
#     4  11  22  46  73 107 148 204 239 311 388 462
#     4  11  24  42  72 108 155 193 248 309 386 456
#     4  12  28  50  77 112 151 202 261 319 384 455
#     4  12  25  51  78 109 151 202 260 318 386 454
#     4  12  29  51  77 109 151 202 264 323 377 456
#     4  12  25  42  69 114 148 195 244 312 376 457
#
# _framework density 23.564287
#
# number of rings (size 3 to 8) (size 9 to 14) (size 15 to 20)
#    0.000    0.500    3.750    5.250    3.500    1.000 
#    2.250    0.000    0.000    0.000    0.000    0.000 
#    0.000    0.000    0.000    0.000    0.000    0.000 
#
# Total GULP energy -198386.620594 kJ/mol
# GULP energy per Si atom -12399.163787 kJ/mol
# Density = 2.351065 g / cm^3
# Si number density = 23.564287 Si / 1000 Ang^3
#
#
#
# Elastic Constant Matrix: (Units=GPa)
#
#
# Indices 1 2 3 4 5 6 
#
# 1 80.1392 36.5470 12.0003 0.0000 4.4162 0.0000
# 2 36.5470 98.4158 35.9873 0.0000 2.0255 0.0000
# 3 12.0003 35.9873 92.7560 0.0000 7.7472 0.0000
# 4 0.0000 0.0000 0.0000 41.0731 0.0000 -9.6357
# 5 4.4162 2.0255 7.7472 0.0000 37.0003 0.0000
# 6 0.0000 0.0000 0.0000 -9.6357 0.0000 32.3838
#
#
#
# Elastic Compliance Matrix: (Units=1/GPa)
#
#
# Indices 1 2 3 4 5 6 
#
# 1 0.015117 -0.005727 0.000398 0.000000 -0.001574 0.000000
# 2 -0.005727 0.014014 -0.004773 0.000000 0.000916 0.000000
# 3 0.000398 -0.004773 0.012787 0.000000 -0.002464 0.000000
# 4 0.000000 0.000000 0.000000 0.026174 0.000000 0.007788
# 5 -0.001574 0.000916 -0.002464 0.000000 0.027680 0.000000
# 6 0.000000 0.000000 0.000000 0.007788 0.000000 0.033197
#
#
# Mechanical properties :
#
#
# Convention : Reuss Voigt Hill
#
# Bulk Modulus (GPa) = 46.05257 48.93114 47.49185
# Shear Modulus (GPa) = 31.96700 34.54320 33.25510
#
# Velocity S-wave (km/s) = 3.68718 3.83288 3.76074
# Velocity P-wave (km/s) = 6.14108 6.35594 6.24943
#
# Compressibility (1/GPa) = 0.02171431
#
# Stress axis : x y z
#
# Youngs Moduli (GPa) = 66.14999 71.35727 78.20439
#
# Poissons Ratio (x) = 0.40865 -0.03109
# Poissons Ratio (y) = 0.37883 0.37325
# Poissons Ratio (z) = -0.02630 0.34057
#
# Static dielectric constant tensor:
#      x y z
#    x 4.397950 0.000000 -0.045960 
#    y 0.000000 4.224960 0.000000 
#    z -0.045960 0.000000 4.394690 
# 
# 
# High freq. dielectric constant tensor:
#      x y z
#    x 1.920980 0.000000 0.002290 
#    y 0.000000 1.937590 0.000000 
#    z 0.002290 0.000000 1.951550 
# 
# From -- ./inp_files/23788.got.cif
#   From: 2010.06.25/outbox.cif.g09.slc.cpg/sg9_12_cif.got.tgz:23788.got - 2010.06.27 21:40:51.
