data_PCOD8056096
_publ_section_title
;
Structure prediction by ZEFSAII (Michael W. Deem and Ramdas Pophale) SiO2 
 PCOD8056096
Probable space group: C C
;
_chemical_formula_sum "Si O2"
_cell_formula_units_Z 32
_cell_length_a 14.921111
_cell_length_b 17.836504
_cell_length_c 8.451370
_cell_angle_alpha 90.000000
_cell_angle_beta 139.927908
_cell_angle_gamma 90.000000
_cell_volume 1447.957814
_symmetry_space_group_name_H-M "C C"
_symmetry_group_IT_number 9
_symmetry_cell_setting 'monoclinic'
loop_
_space_group_symop_operation_xyz
x,y,z
x,-y,1/2+z
1/2+x,1/2+y,z
1/2+x,1/2-y,1/2+z
loop_
_atom_site_type_symbol
_atom_site_label
_atom_site_fract_x
_atom_site_fract_y
_atom_site_fract_z
Si Si1 0.410120 0.274642 0.757600
Si Si2 0.653397 0.683775 0.365867
Si Si3 0.324926 0.434848 0.547790
Si Si4 0.193059 0.904996 0.393337
Si Si5 0.494794 0.675724 0.838824
Si Si6 0.733004 0.083450 0.570489
Si Si7 0.460700 0.178204 0.143180
Si Si8 0.629883 0.536897 0.490589
O O1 0.549621 0.270362 0.841546
O O2 0.285693 0.233055 0.496833
O O3 0.357384 0.361236 0.701032
O O4 0.437892 0.231045 0.958788
O O5 0.708332 0.609865 0.529034
O O6 0.574902 0.655433 0.105712
O O7 0.231535 0.495810 0.516002
O O8 0.247304 0.411306 0.280128
O O9 0.474266 0.471601 0.708206
O O10 0.091086 0.839536 0.314791
O O11 0.331220 0.874792 0.500491
O O12 0.114643 0.955569 0.157761
O O13 0.220248 0.962609 0.574744
O O14 0.356113 0.626701 0.646771
O O15 0.466178 0.764609 0.798502
O O16 0.594351 0.124465 0.320074
#
# Coordination Sequence:
#
# PCOD8056096 Si02
#       8
#     4   4   4   4   4   4   4   4
#     4  11  25  48  72 106 141 192 246 297 368 437
#     4  11  24  45  73 101 138 181 242 302 356 430
#     4  11  24  45  75 104 140 192 243 299 359 441
#     4  12  25  44  72 102 144 186 242 294 360 429
#     4  12  24  44  73 100 140 190 245 296 353 441
#     4  12  26  46  70 109 147 187 246 299 369 433
#     4  12  29  44  67 109 150 190 233 302 373 426
#     4  11  21  44  70 103 130 188 243 287 350 431
#
# _framework density 22.100092
#
# number of rings (size 3 to 8) (size 9 to 14) (size 15 to 20)
#    0.000    0.500    5.000    4.500    5.250    1.000 
#    2.250    0.000    0.000    0.000    0.000    0.000 
#    0.000    0.000    0.000    0.000    0.000    0.000 
#
# Total GULP energy -198353.772373 kJ/mol
# GULP energy per Si atom -12397.110773 kJ/mol
# Density = 2.204979 g / cm^3
# Si number density = 22.100092 Si / 1000 Ang^3
#
#
#
# Elastic Constant Matrix: (Units=GPa)
#
#
# Indices 1 2 3 4 5 6 
#
# 1 84.3421 49.2176 53.8394 0.0000 -2.3351 0.0000
# 2 49.2176 129.4052 49.0951 0.0000 9.3573 0.0000
# 3 53.8394 49.0951 96.1901 0.0000 6.1436 0.0000
# 4 0.0000 0.0000 0.0000 24.8015 0.0000 2.3131
# 5 -2.3351 9.3573 6.1436 0.0000 34.6002 0.0000
# 6 0.0000 0.0000 0.0000 2.3131 0.0000 49.1256
#
#
#
# Elastic Compliance Matrix: (Units=1/GPa)
#
#
# Indices 1 2 3 4 5 6 
#
# 1 0.020746 -0.004580 -0.009551 0.000000 0.004335 0.000000
# 2 -0.004580 0.010700 -0.002724 0.000000 -0.002719 0.000000
# 3 -0.009551 -0.002724 0.017323 0.000000 -0.002984 0.000000
# 4 0.000000 0.000000 0.000000 0.040498 0.000000 -0.001907
# 5 0.004335 -0.002719 -0.002984 0.000000 0.030459 0.000000
# 6 0.000000 0.000000 0.000000 -0.001907 0.000000 0.020446
#
#
# Mechanical properties :
#
#
# Convention : Reuss Voigt Hill
#
# Bulk Modulus (GPa) = 66.40845 68.24907 67.32876
# Shear Modulus (GPa) = 27.94832 32.22448 30.08640
#
# Velocity S-wave (km/s) = 3.56001 3.82267 3.69368
# Velocity P-wave (km/s) = 6.85656 7.10159 6.98015
#
# Compressibility (1/GPa) = 0.01505832
#
# Stress axis : x y z
#
# Youngs Moduli (GPa) = 48.20146 93.46027 57.72759
#
# Poissons Ratio (x) = 0.42809 0.55136
# Poissons Ratio (y) = 0.22078 0.15723
# Poissons Ratio (z) = 0.46038 0.25456
#
# Static dielectric constant tensor:
#      x y z
#    x 3.828240 0.000000 -0.101450 
#    y 0.000000 4.287450 0.000000 
#    z -0.101450 0.000000 4.005920 
# 
# 
# High freq. dielectric constant tensor:
#      x y z
#    x 1.859860 0.000000 -0.012110 
#    y 0.000000 1.885750 0.000000 
#    z -0.012110 0.000000 1.865080 
# 
# From -- ./inp_files/9956.got.cif
#   From: 2010.06.25/outbox.cif.g09.slc.cpg/sg9_5_cif.got.tgz:9956.got - 2010.06.27 21:40:51.
