data_PCOD8056909
_publ_section_title
;
Structure prediction by ZEFSAII (Michael W. Deem and Ramdas Pophale) SiO2 
 PCOD8056909
Probable space group: P 2/M
;
_chemical_formula_sum "Si O2"
_cell_formula_units_Z 30
_cell_length_a 24.391849
_cell_length_b 9.439874
_cell_length_c 14.510708
_cell_angle_alpha 90.000000
_cell_angle_beta 28.657460
_cell_angle_gamma 90.000000
_cell_volume 1602.335473
_symmetry_space_group_name_H-M "P 2/M"
_symmetry_group_IT_number 10
_symmetry_cell_setting 'monoclinic'
loop_
_space_group_symop_operation_xyz
x,y,z
-x,y,-z
-x,-y,-z
x,-y,z
loop_
_atom_site_type_symbol
_atom_site_label
_atom_site_fract_x
_atom_site_fract_y
_atom_site_fract_z
Si Si1 0.070953 0.845243 0.585578
Si Si2 0.226876 0.659311 0.082447
Si Si3 0.880025 0.667486 0.942944
Si Si4 0.418325 0.663515 0.933300
Si Si5 0.670780 0.833248 0.769646
Si Si6 0.000000 0.244207 0.500000
Si Si7 0.669573 0.663074 0.586263
Si Si8 0.124766 0.332295 0.844326
O O1 0.201702 0.801472 0.385623
O O2 0.006528 0.730407 0.742570
O O3 0.022885 0.854861 0.553234
O O4 0.056272 0.000000 0.653053
O O5 0.264904 0.500000 0.008199
O O6 0.204346 0.727653 0.013462
O O7 0.111286 0.660499 0.313950
O O8 0.333534 0.730177 0.979979
O O9 0.893316 0.500000 0.913230
O O10 0.839620 0.713120 0.104257
O O11 0.383749 0.500000 0.005867
O O12 0.550287 0.671114 0.704813
O O13 0.411116 0.755904 0.036836
O O14 0.654417 0.764788 0.694718
O O15 0.641167 0.000000 0.809488
O O16 0.692568 0.500000 0.582529
O O17 0.774712 0.723437 0.370327
O O18 0.118568 0.500000 0.847339
O O19 0.000000 0.269382 0.000000
#
# Coordination Sequence:
#
# PCOD8056909 Si02
#       8
#     4   4   4   4   4   2   4   4
#     4  10  20  31  47  74 105 134 167 206 253 300
#     4   9  17  29  48  76 105 133 169 211 251 294
#     4   9  18  32  52  76 103 135 172 211 252 301
#     4  10  20  35  52  74 105 137 171 209 251 303
#     4  11  22  35  51  76 106 137 171 210 254 303
#     4  10  16  30  48  68 101 140 169 202 241 304
#     4  10  21  36  55  76  99 134 174 212 255 303
#     4   9  17  32  54  78 101 128 168 214 257 301
#
# _framework density 18.722670999999998
#
# number of rings (size 3 to 8) (size 9 to 14) (size 15 to 20)
#    0.000    2.267    1.333    2.000    0.000    4.800 
#    0.000    1.333    0.000    6.400    0.000    0.000 
#    0.000    4.533    0.000    0.000    0.000    0.000 
#
# Total GULP energy -371778.593426 kJ/mol
# GULP energy per Si atom -12392.619781 kJ/mol
# Density = 1.868006 g / cm^3
# Si number density = 18.722671 Si / 1000 Ang^3
#
#
#
# Elastic Constant Matrix: (Units=GPa)
#
#
# Indices 1 2 3 4 5 6 
#
# 1 111.8735 26.1127 68.3883 0.0000 2.2751 0.0000
# 2 26.1127 48.7290 23.3420 0.0000 -0.0433 0.0000
# 3 68.3883 23.3420 116.2965 0.0000 -10.5557 0.0000
# 4 0.0000 0.0000 0.0000 10.1160 0.0000 -3.8213
# 5 2.2751 -0.0433 -10.5557 0.0000 27.9871 0.0000
# 6 0.0000 0.0000 0.0000 -3.8213 0.0000 14.4702
#
#
#
# Elastic Compliance Matrix: (Units=1/GPa)
#
#
# Indices 1 2 3 4 5 6 
#
# 1 0.015184 -0.004060 -0.008518 0.000000 -0.004453 0.000000
# 2 -0.004060 0.023873 -0.002455 0.000000 -0.000559 0.000000
# 3 -0.008518 -0.002455 0.014665 0.000000 0.006220 0.000000
# 4 0.000000 0.000000 0.000000 0.109806 0.000000 0.028997
# 5 -0.004453 -0.000559 0.006220 0.000000 0.038438 0.000000
# 6 0.000000 0.000000 0.000000 0.028997 0.000000 0.076765
#
#
# Mechanical properties :
#
#
# Convention : Reuss Voigt Hill
#
# Bulk Modulus (GPa) = 42.27328 56.95389 49.61358
# Shear Modulus (GPa) = 15.78865 21.11841 18.45353
#
# Velocity S-wave (km/s) = 2.90710 3.36215 3.14287
# Velocity P-wave (km/s) = 5.82202 6.74966 6.30293
#
# Compressibility (1/GPa) = 0.02365560
#
# Stress axis : x y z
#
# Youngs Moduli (GPa) = 65.85768 41.88868 68.18894
#
# Poissons Ratio (x) = 0.17009 0.58086
# Poissons Ratio (y) = 0.26741 0.16737
# Poissons Ratio (z) = 0.56100 0.10282
#
# Static dielectric constant tensor:
#      x y z
#    x 3.735290 0.000000 -0.143110 
#    y 0.000000 3.110210 0.000000 
#    z -0.143110 0.000000 3.499070 
# 
# 
# High freq. dielectric constant tensor:
#      x y z
#    x 1.736140 0.000000 -0.013510 
#    y 0.000000 1.694090 0.000000 
#    z -0.013510 0.000000 1.714070 
# 
# From -- ./inp_files/71308.got.cif
#   From: 2010.06.25/outbox.cif.g09.slc.cpg/sg10_36_cif.got.tgz:71308.got - 2010.06.27 22:07:45.
