data_PCOD8056822
_publ_section_title
;
Structure prediction by ZEFSAII (Michael W. Deem and Ramdas Pophale) SiO2 
 PCOD8056822
Probable space group: P 2/M
;
_chemical_formula_sum "Si O2"
_cell_formula_units_Z 28
_cell_length_a 18.981279
_cell_length_b 9.192614
_cell_length_c 23.072419
_cell_angle_alpha 90.000000
_cell_angle_beta 156.426073
_cell_angle_gamma 90.000000
_cell_volume 1610.066347
_symmetry_space_group_name_H-M "P 2/M"
_symmetry_group_IT_number 10
_symmetry_cell_setting 'monoclinic'
loop_
_space_group_symop_operation_xyz
x,y,z
-x,y,-z
-x,-y,-z
x,-y,z
loop_
_atom_site_type_symbol
_atom_site_label
_atom_site_fract_x
_atom_site_fract_y
_atom_site_fract_z
Si Si1 0.350843 0.161416 0.838254
Si Si2 0.229807 0.165103 0.018702
Si Si3 0.116272 0.160811 0.320737
Si Si4 0.144594 0.830367 0.786632
Si Si5 0.426011 0.327953 0.074653
Si Si6 0.685789 0.670036 0.618765
Si Si7 0.015397 0.670155 0.945202
O O1 0.166874 0.196500 0.733983
O O2 0.389458 0.273442 0.814962
O O3 0.343759 0.000000 0.805645
O O4 0.500000 0.169299 0.000000
O O5 0.062553 0.171422 0.850696
O O6 0.178077 0.242567 0.039988
O O7 0.288687 0.000000 0.075770
O O8 0.391883 0.251897 0.111204
O O9 0.263645 0.267884 0.406477
O O10 0.055906 0.198710 0.341596
O O11 0.197827 0.000000 0.378804
O O12 0.195889 0.000000 0.840000
O O13 0.271763 0.718402 0.915023
O O14 0.430872 0.500000 0.086665
O O15 0.500000 0.736144 0.500000
O O16 0.668196 0.500000 0.596754
O O17 0.832228 0.712742 0.776306
O O18 0.055259 0.500000 0.968253
O O19 0.000000 0.717267 0.000000
#
# Coordination Sequence:
#
# PCOD8056822 Si02
#       7
#     4   4   4   4   4   4   4
#     4   8  13  21  30  40  60  91 123 154 190 230
#     4   9  16  26  38  51  70  97 128 159 193 235
#     4   8  14  24  37  52  69  93 127 162 193 227
#     4   8  14  23  32  43  63  92 124 157 193 233
#     4  10  16  20  29  46  67  91 123 160 193 227
#     4   9  17  28  41  58  80 105 131 159 195 238
#     4   9  17  29  44  61  80 102 130 165 201 233
#
# _framework density 17.390587
#
# number of rings (size 3 to 8) (size 9 to 14) (size 15 to 20)
#    0.000    3.286    0.000    3.429    0.000    6.571 
#    0.000    0.000    0.000    0.000    0.000    0.000 
#    0.000    0.000    0.000    1.286    0.000   28.286 
#
# Total GULP energy -346872.687480 kJ/mol
# GULP energy per Si atom -12388.310267 kJ/mol
# Density = 1.735101 g / cm^3
# Si number density = 17.390587 Si / 1000 Ang^3
#
#
#
# Elastic Constant Matrix: (Units=GPa)
#
#
# Indices 1 2 3 4 5 6 
#
# 1 182.9093 76.5231 34.2203 0.0000 41.1000 0.0000
# 2 76.5231 94.9751 17.2876 0.0000 14.7960 0.0000
# 3 34.2203 17.2876 20.1705 0.0000 14.6097 0.0000
# 4 0.0000 0.0000 0.0000 8.0864 0.0000 7.8881
# 5 41.1000 14.7960 14.6097 0.0000 23.5136 0.0000
# 6 0.0000 0.0000 0.0000 7.8881 0.0000 34.2985
#
#
#
# Elastic Compliance Matrix: (Units=1/GPa)
#
#
# Indices 1 2 3 4 5 6 
#
# 1 0.012557 -0.006978 -0.004737 0.000000 -0.014613 0.000000
# 2 -0.006978 0.016416 -0.006516 0.000000 0.005916 0.000000
# 3 -0.004737 -0.006516 0.098610 0.000000 -0.048888 0.000000
# 4 0.000000 0.000000 0.000000 0.159433 0.000000 -0.036667
# 5 -0.014613 0.005916 -0.048888 0.000000 0.094725 0.000000
# 6 0.000000 0.000000 0.000000 -0.036667 0.000000 0.037589
#
#
# Mechanical properties :
#
#
# Convention : Reuss Voigt Hill
#
# Bulk Modulus (GPa) = 10.97462 61.56854 36.27158
# Shear Modulus (GPa) = 10.28456 24.51461 17.39959
#
# Velocity S-wave (km/s) = 2.43448 3.75860 3.16653
# Velocity P-wave (km/s) = 3.77182 7.36996 5.85419
#
# Compressibility (1/GPa) = 0.09111936
#
# Stress axis : x y z
#
# Youngs Moduli (GPa) = 79.63936 60.91668 10.14096
#
# Poissons Ratio (x) = 0.42509 0.04804
# Poissons Ratio (y) = 0.55573 0.06608
# Poissons Ratio (z) = 0.37729 0.39693
#
# Static dielectric constant tensor:
#      x y z
#    x 3.924840 0.000000 0.492460 
#    y 0.000000 3.185810 0.000000 
#    z 0.492460 0.000000 2.593740 
# 
# 
# High freq. dielectric constant tensor:
#      x y z
#    x 1.695380 0.000000 0.039540 
#    y 0.000000 1.668070 0.000000 
#    z 0.039540 0.000000 1.577590 
# 
# From -- ./inp_files/54461.got.cif
#   From: 2010.06.25/outbox.cif.g09.slc.cpg/sg10_28_cif.got.tgz:54461.got - 2010.06.27 22:07:45.
