data_PCOD8056045
_publ_section_title
;
Structure prediction by ZEFSAII (Michael W. Deem and Ramdas Pophale) SiO2 
 PCOD8056045
Probable space group: C C
;
_chemical_formula_sum "Si O2"
_cell_formula_units_Z 32
_cell_length_a 19.186381
_cell_length_b 11.564070
_cell_length_c 15.266976
_cell_angle_alpha 90.000000
_cell_angle_beta 26.392985
_cell_angle_gamma 90.000000
_cell_volume 1505.752135
_symmetry_space_group_name_H-M "C C"
_symmetry_group_IT_number 9
_symmetry_cell_setting 'monoclinic'
loop_
_space_group_symop_operation_xyz
x,y,z
x,-y,1/2+z
1/2+x,1/2+y,z
1/2+x,1/2-y,1/2+z
loop_
_atom_site_type_symbol
_atom_site_label
_atom_site_fract_x
_atom_site_fract_y
_atom_site_fract_z
Si Si1 0.776500 0.678026 0.545030
Si Si2 0.460103 0.412144 0.123554
Si Si3 0.351416 0.553408 0.399478
Si Si4 0.598703 0.097993 0.248725
Si Si5 0.770664 0.733346 0.089280
Si Si6 0.511765 0.113339 0.946392
Si Si7 0.272264 0.808499 0.848088
Si Si8 0.061534 0.978085 0.821288
O O1 0.723235 0.804464 0.637726
O O2 0.746120 0.654506 0.477036
O O3 0.679035 0.583027 0.708347
O O4 0.960292 0.665977 0.355940
O O5 0.440207 0.523817 0.209063
O O6 0.309641 0.328610 0.303621
O O7 0.617034 0.339912 0.968503
O O8 0.467401 0.454549 0.016154
O O9 0.179597 0.493826 0.591518
O O10 0.335566 0.691562 0.433441
O O11 0.440533 0.492987 0.380709
O O12 0.534368 0.023618 0.403361
O O13 0.679252 0.820888 0.258466
O O14 0.657953 0.633774 0.180195
O O15 0.912727 0.676249 0.981542
O O16 0.420999 0.123108 0.140219
#
# Coordination Sequence:
#
# PCOD8056045 Si02
#       8
#     4   4   4   4   4   4   4   4
#     4  12  23  40  64  94 137 177 214 274 338 395
#     4  12  24  40  66 103 131 176 225 279 328 399
#     4  11  24  42  64  99 135 171 219 277 338 395
#     4  11  24  41  64  95 133 175 222 270 338 397
#     4  11  20  38  66  91 128 167 217 271 331 381
#     4  11  21  39  65  99 124 169 224 279 322 389
#     4  12  21  38  64  99 131 166 229 278 322 392
#     4  12  23  42  69  94 133 177 220 276 339 390
#
# _framework density 21.251839
#
# number of rings (size 3 to 8) (size 9 to 14) (size 15 to 20)
#    0.000    0.500    7.500    1.500    0.000    0.000 
#    0.000    1.250    2.750    0.000    0.000    0.000 
#    0.000    0.000    0.000    0.000    0.000    0.000 
#
# Total GULP energy -198406.404436 kJ/mol
# GULP energy per Si atom -12400.400277 kJ/mol
# Density = 2.120347 g / cm^3
# Si number density = 21.251839 Si / 1000 Ang^3
#
#
#
# Elastic Constant Matrix: (Units=GPa)
#
#
# Indices 1 2 3 4 5 6 
#
# 1 58.0530 26.9528 28.1524 0.0000 7.1831 0.0000
# 2 26.9528 126.0239 43.2414 0.0000 10.0323 0.0000
# 3 28.1524 43.2414 83.4019 -0.0001 6.6102 0.0000
# 4 0.0000 0.0000 -0.0001 56.1776 0.0000 1.4590
# 5 7.1831 10.0323 6.6102 0.0000 32.9737 0.0000
# 6 0.0000 0.0000 0.0000 1.4590 0.0000 24.6754
#
#
#
# Elastic Compliance Matrix: (Units=1/GPa)
#
#
# Indices 1 2 3 4 5 6 
#
# 1 0.021489 -0.002385 -0.005796 0.000000 -0.002794 0.000000
# 2 -0.002385 0.010044 -0.004269 0.000000 -0.001680 0.000000
# 3 -0.005796 -0.004269 0.016215 0.000000 -0.000689 0.000000
# 4 0.000000 0.000000 0.000000 0.017828 0.000000 -0.001054
# 5 -0.002794 -0.001680 -0.000689 0.000000 0.031585 0.000000
# 6 0.000000 0.000000 0.000000 -0.001054 0.000000 0.040589
#
#
# Mechanical properties :
#
#
# Convention : Reuss Voigt Hill
#
# Bulk Modulus (GPa) = 43.76787 51.57469 47.67128
# Shear Modulus (GPa) = 29.36603 34.04082 31.70343
#
# Velocity S-wave (km/s) = 3.72131 4.00657 3.86657
# Velocity P-wave (km/s) = 6.25330 6.76199 6.51261
#
# Compressibility (1/GPa) = 0.02284781
#
# Stress axis : x y z
#
# Youngs Moduli (GPa) = 46.53502 99.56537 61.67301
#
# Poissons Ratio (x) = 0.23745 0.35744
# Poissons Ratio (y) = 0.11098 0.26329
# Poissons Ratio (z) = 0.26971 0.42506
#
# Static dielectric constant tensor:
#      x y z
#    x 3.589180 0.000000 -0.156740 
#    y 0.000000 3.922620 0.000000 
#    z -0.156740 0.000000 4.092370 
# 
# 
# High freq. dielectric constant tensor:
#      x y z
#    x 1.808290 0.000000 -0.019930 
#    y 0.000000 1.831380 0.000000 
#    z -0.019930 0.000000 1.846650 
# 
# From -- ./inp_files/9176.got.cif
#   From: 2010.06.25/outbox.cif.g09.slc.cpg/sg9_5_cif.got.tgz:9176.got - 2010.06.27 21:40:51.
