data_PCOD8056590
_publ_section_title
;
Structure prediction by ZEFSAII (Michael W. Deem and Ramdas Pophale) SiO2 
 PCOD8056590
Probable space group: C C
;
_chemical_formula_sum "Si O2"
_cell_formula_units_Z 28
_cell_length_a 17.391272
_cell_length_b 13.086510
_cell_length_c 10.574675
_cell_angle_alpha 90.000000
_cell_angle_beta 32.361685
_cell_angle_gamma 90.000000
_cell_volume 1288.215955
_symmetry_space_group_name_H-M "C C"
_symmetry_group_IT_number 9
_symmetry_cell_setting 'monoclinic'
loop_
_space_group_symop_operation_xyz
x,y,z
x,-y,1/2+z
1/2+x,1/2+y,z
1/2+x,1/2-y,1/2+z
loop_
_atom_site_type_symbol
_atom_site_label
_atom_site_fract_x
_atom_site_fract_y
_atom_site_fract_z
Si Si1 0.936270 0.855262 0.021110
Si Si2 0.742980 0.954887 0.842761
Si Si3 0.484284 0.643742 0.165321
Si Si4 0.299613 0.184874 0.377386
Si Si5 0.113113 0.682617 0.324523
Si Si6 0.460589 0.046318 0.342988
Si Si7 0.681810 0.542716 0.337723
O O1 0.880901 0.752308 0.161609
O O2 0.814349 0.941488 0.194122
O O3 0.973375 0.827844 0.826477
O O4 0.079369 0.890691 0.892192
O O5 0.733499 0.875528 0.739967
O O6 0.836054 0.906404 0.825682
O O7 0.584971 0.975784 0.114326
O O8 0.513165 0.747043 0.049416
O O9 0.616260 0.567611 0.958480
O O10 0.193339 0.253494 0.606459
O O11 0.417884 0.131977 0.300810
O O12 0.204341 0.099713 0.439451
O O13 0.010061 0.599899 0.403288
O O14 0.329464 0.971720 0.557255
#
# Coordination Sequence:
#
# PCOD8056590 Si02
#       7
#     4   4   4   4   4   4   4
#     4  11  26  46  71 103 140 184 231 288 348 413
#     4  11  26  46  73 100 143 182 233 287 349 411
#     4  11  26  46  71 103 140 184 231 288 348 413
#     4  12  25  46  73 104 140 182 234 285 346 417
#     4  12  25  46  73 104 140 182 234 285 346 417
#     4  12  24  48  70 104 142 184 232 290 344 414
#     4  11  26  46  73 100 143 182 233 287 349 411
#
# _framework density 21.735486000000002
#
# number of rings (size 3 to 8) (size 9 to 14) (size 15 to 20)
#    0.000    0.571    2.857    4.286    6.000    1.143 
#    0.000    0.000    0.000    0.000    0.000    0.000 
#    0.000    0.000    0.000    0.000    0.000    0.000 
#
# Total GULP energy -173741.230650 kJ/mol
# GULP energy per Si atom -12410.087904 kJ/mol
# Density = 2.168602 g / cm^3
# Si number density = 21.735486 Si / 1000 Ang^3
#
#
#
# Elastic Constant Matrix: (Units=GPa)
#
#
# Indices 1 2 3 4 5 6 
#
# 1 97.6838 19.4890 33.8947 0.0000 6.1498 0.0000
# 2 19.4890 62.4463 8.4783 0.0000 -0.7715 0.0000
# 3 33.8947 8.4783 102.5291 0.0000 -3.4417 0.0000
# 4 0.0000 0.0000 0.0000 15.5510 0.0000 15.7875
# 5 6.1498 -0.7715 -3.4417 0.0000 43.0986 0.0000
# 6 0.0000 0.0000 0.0000 15.7875 0.0000 49.1947
#
#
#
# Elastic Compliance Matrix: (Units=1/GPa)
#
#
# Indices 1 2 3 4 5 6 
#
# 1 0.012393 -0.003366 -0.003891 0.000000 -0.002139 0.000000
# 2 -0.003366 0.017111 -0.000277 0.000000 0.000765 0.000000
# 3 -0.003891 -0.000277 0.011111 0.000000 0.001437 0.000000
# 4 0.000000 0.000000 0.000000 0.095379 0.000000 -0.030609
# 5 -0.002139 0.000765 0.001437 0.000000 0.023636 0.000000
# 6 0.000000 0.000000 0.000000 -0.030609 0.000000 0.030150
#
#
# Mechanical properties :
#
#
# Convention : Reuss Voigt Hill
#
# Bulk Modulus (GPa) = 39.14056 42.93147 41.03602
# Shear Modulus (GPa) = 23.43417 34.95533 29.19475
#
# Velocity S-wave (km/s) = 3.28709 4.01461 3.66892
# Velocity P-wave (km/s) = 5.69678 6.42527 6.07196
#
# Compressibility (1/GPa) = 0.02554895
#
# Stress axis : x y z
#
# Youngs Moduli (GPa) = 80.68858 58.44105 90.00410
#
# Poissons Ratio (x) = 0.19672 0.35016
# Poissons Ratio (y) = 0.27160 0.02489
# Poissons Ratio (z) = 0.31392 0.01616
#
# Static dielectric constant tensor:
#      x y z
#    x 4.144940 0.000000 0.024430 
#    y 0.000000 4.029230 0.000000 
#    z 0.024430 0.000000 3.870630 
# 
# 
# High freq. dielectric constant tensor:
#      x y z
#    x 1.873480 0.000000 0.001090 
#    y 0.000000 1.864600 0.000000 
#    z 0.001090 0.000000 1.859310 
# 
# From -- ./inp_files/7325.got.cif
#   From: 2010.06.25/outbox.cif.g09.slc.cpg/sg9_4_cif.got.tgz:7325.got - 2010.06.27 21:40:51.
