data_PCOD8056596
_publ_section_title
;
Structure prediction by ZEFSAII (Michael W. Deem and Ramdas Pophale) SiO2 
 PCOD8056596
Probable space group: C C
;
_chemical_formula_sum "Si O2"
_cell_formula_units_Z 20
_cell_length_a 5.443913
_cell_length_b 20.647574
_cell_length_c 8.894396
_cell_angle_alpha 90.000000
_cell_angle_beta 122.553841
_cell_angle_gamma 90.000000
_cell_volume 842.685648
_symmetry_space_group_name_H-M "C C"
_symmetry_group_IT_number 9
_symmetry_cell_setting 'monoclinic'
loop_
_space_group_symop_operation_xyz
x,y,z
x,-y,1/2+z
1/2+x,1/2+y,z
1/2+x,1/2-y,1/2+z
loop_
_atom_site_type_symbol
_atom_site_label
_atom_site_fract_x
_atom_site_fract_y
_atom_site_fract_z
Si Si1 0.327300 0.658286 0.354030
Si Si2 0.930868 0.134801 0.907589
Si Si3 0.711339 0.061557 0.567351
Si Si4 0.971734 0.703699 0.973111
Si Si5 0.621727 0.555997 0.235041
O O1 0.230280 0.626887 0.477050
O O2 0.524506 0.720075 0.461549
O O3 0.475609 0.601374 0.310087
O O4 0.064028 0.688435 0.173232
O O5 0.734656 0.084515 0.747169
O O6 0.683968 0.171491 0.921044
O O7 0.131885 0.179151 0.861829
O O8 0.156616 0.097245 0.092984
O O9 0.410427 0.029428 0.412456
O O10 0.950353 0.006871 0.623573
#
# Coordination Sequence:
#
# PCOD8056596 Si02
#       5
#     4   4   4   4   4
#     4  11  26  46  76 109 153 194 254 308 386 442
#     4  11  27  48  78 112 154 191 258 308 387 443
#     4  12  27  47  78 106 153 204 255 312 376 445
#     4  11  26  48  76 115 149 198 244 320 375 461
#     4  11  28  47  74 110 151 201 257 312 374 451
#
# _framework density 23.733644999999999
#
# number of rings (size 3 to 8) (size 9 to 14) (size 15 to 20)
#    0.000    0.800    2.000    2.400   14.000    4.800 
#    0.000    0.000    0.000    0.000    0.000    0.000 
#    0.000    0.000    0.000    0.000    0.000    0.000 
#
# Total GULP energy -123895.656162 kJ/mol
# GULP energy per Si atom -12389.565616 kJ/mol
# Density = 2.367963 g / cm^3
# Si number density = 23.733645 Si / 1000 Ang^3
#
#
#
# Elastic Constant Matrix: (Units=GPa)
#
#
# Indices 1 2 3 4 5 6 
#
# 1 91.4949 20.7826 23.7897 0.0000 8.9429 0.0000
# 2 20.7826 105.1505 24.6333 0.0000 8.4491 0.0000
# 3 23.7897 24.6333 114.9759 0.0000 17.6970 0.0000
# 4 0.0000 0.0000 0.0000 40.9870 0.0000 13.7366
# 5 8.9429 8.4491 17.6970 0.0000 38.5576 0.0000
# 6 0.0000 0.0000 0.0000 13.7366 0.0000 17.7366
#
#
#
# Elastic Compliance Matrix: (Units=1/GPa)
#
#
# Indices 1 2 3 4 5 6 
#
# 1 0.011972 -0.001809 -0.001854 0.000000 -0.001529 0.000000
# 2 -0.001809 0.010347 -0.001677 0.000000 -0.001078 0.000000
# 3 -0.001854 -0.001677 0.010026 0.000000 -0.003804 0.000000
# 4 0.000000 0.000000 0.000000 0.032951 0.000000 -0.025520
# 5 -0.001529 -0.001078 -0.003804 0.000000 0.028272 0.000000
# 6 0.000000 0.000000 0.000000 -0.025520 0.000000 0.076145
#
#
# Mechanical properties :
#
#
# Convention : Reuss Voigt Hill
#
# Bulk Modulus (GPa) = 46.15613 50.00358 48.07986
# Shear Modulus (GPa) = 26.65038 35.61730 31.13384
#
# Velocity S-wave (km/s) = 3.35460 3.87810 3.62581
# Velocity P-wave (km/s) = 5.87318 6.41617 6.15067
#
# Compressibility (1/GPa) = 0.02166559
#
# Stress axis : x y z
#
# Youngs Moduli (GPa) = 83.52785 96.64521 99.74201
#
# Poissons Ratio (x) = 0.17483 0.18494
# Poissons Ratio (y) = 0.15110 0.16723
# Poissons Ratio (z) = 0.15488 0.16203
#
# Static dielectric constant tensor:
#      x y z
#    x 4.059630 0.000000 0.099930 
#    y 0.000000 4.548650 0.000000 
#    z 0.099930 0.000000 4.760810 
# 
# 
# High freq. dielectric constant tensor:
#      x y z
#    x 1.918570 0.000000 -0.002950 
#    y 0.000000 1.953390 0.000000 
#    z -0.002950 0.000000 1.967770 
# 
# From -- ./inp_files/3591.got.cif
#   From: 2010.06.25/outbox.cif.g09.slc.cpg/sg9_2_cif.got.tgz:3591.got - 2010.06.27 21:40:51.
