data_PCOD8056021
_publ_section_title
;
Structure prediction by ZEFSAII (Michael W. Deem and Ramdas Pophale) SiO2 
 PCOD8056021
Probable space group: C C
;
_chemical_formula_sum "Si O2"
_cell_formula_units_Z 32
_cell_length_a 13.805182
_cell_length_b 16.081705
_cell_length_c 10.113073
_cell_angle_alpha 90.000000
_cell_angle_beta 38.965442
_cell_angle_gamma 90.000000
_cell_volume 1411.905074
_symmetry_space_group_name_H-M "C C"
_symmetry_group_IT_number 9
_symmetry_cell_setting 'monoclinic'
loop_
_space_group_symop_operation_xyz
x,y,z
x,-y,1/2+z
1/2+x,1/2+y,z
1/2+x,1/2-y,1/2+z
loop_
_atom_site_type_symbol
_atom_site_label
_atom_site_fract_x
_atom_site_fract_y
_atom_site_fract_z
Si Si1 0.049280 0.325697 0.928180
Si Si2 0.182742 0.019284 0.731629
Si Si3 0.537552 0.718234 0.313533
Si Si4 0.360748 0.556233 0.511189
Si Si5 0.177924 0.520896 0.439710
Si Si6 0.820299 0.344921 0.648857
Si Si7 0.705103 0.675833 0.865655
Si Si8 0.926625 0.599669 0.298544
O O1 0.154207 0.389458 0.899181
O O2 0.136051 0.237447 0.827941
O O3 0.031328 0.356041 0.797277
O O4 0.888375 0.314587 0.175448
O O5 0.159799 0.080012 0.882996
O O6 0.265563 0.071352 0.530478
O O7 0.293830 0.942331 0.648355
O O8 0.020013 0.993279 0.847477
O O9 0.395092 0.654271 0.472338
O O10 0.658785 0.703652 0.303987
O O11 0.457767 0.808928 0.408933
O O12 0.635491 0.705282 0.077619
O O13 0.275439 0.528993 0.469209
O O14 0.262433 0.538853 0.745992
O O15 0.014320 0.479597 0.645407
O O16 0.881590 0.334416 0.733003
#
# Coordination Sequence:
#
# PCOD8056021 Si02
#       8
#     4   4   4   4   4   4   4   4
#     4  11  27  45  72 108 140 199 244 310 363 447
#     4  10  26  48  74 106 145 201 239 302 372 453
#     4  11  27  45  74 110 141 189 239 313 366 445
#     4  11  27  45  76 107 144 188 250 301 371 436
#     4  12  26  47  73 107 148 194 244 311 365 445
#     4  11  27  44  72 105 149 187 241 301 378 434
#     4  11  25  47  76 104 146 190 252 299 371 442
#     4  11  25  47  71 103 149 196 243 299 380 442
#
# _framework density 22.664413
#
# number of rings (size 3 to 8) (size 9 to 14) (size 15 to 20)
#    0.000    1.000    1.250    3.000   19.250    2.000 
#    0.000    0.000    0.000    0.000    0.000    0.000 
#    0.000    0.000    0.000    0.000    0.000    0.000 
#
# Total GULP energy -198457.927686 kJ/mol
# GULP energy per Si atom -12403.620480 kJ/mol
# Density = 2.261283 g / cm^3
# Si number density = 22.664413 Si / 1000 Ang^3
#
#
#
# Elastic Constant Matrix: (Units=GPa)
#
#
# Indices 1 2 3 4 5 6 
#
# 1 134.8308 36.4922 37.3810 -0.0003 14.4705 0.0007
# 2 36.4922 115.8304 32.8723 0.0000 1.4990 0.0004
# 3 37.3810 32.8723 96.9746 -0.0001 14.3405 0.0003
# 4 -0.0003 0.0000 -0.0001 41.2394 0.0005 -9.9965
# 5 14.4705 1.4990 14.3405 0.0005 31.9975 -0.0007
# 6 0.0007 0.0004 0.0003 -9.9965 -0.0007 33.3524
#
#
#
# Elastic Compliance Matrix: (Units=1/GPa)
#
#
# Indices 1 2 3 4 5 6 
#
# 1 0.008942 -0.002128 -0.002294 0.000000 -0.002916 0.000000
# 2 -0.002128 0.010093 -0.002863 0.000000 0.001773 0.000000
# 3 -0.002294 -0.002863 0.012845 0.000000 -0.004585 0.000000
# 4 0.000000 0.000000 0.000000 0.026148 0.000000 0.007837
# 5 -0.002916 0.001773 -0.004585 0.000000 0.034543 0.000001
# 6 0.000000 0.000000 0.000000 0.007837 0.000001 0.032332
#
#
# Mechanical properties :
#
#
# Convention : Reuss Voigt Hill
#
# Bulk Modulus (GPa) = 57.77413 62.34742 60.06077
# Shear Modulus (GPa) = 34.42478 37.37723 35.90101
#
# Velocity S-wave (km/s) = 3.90152 4.06539 3.98430
# Velocity P-wave (km/s) = 6.77069 7.04310 6.90824
#
# Compressibility (1/GPa) = 0.01730879
#
# Stress axis : x y z
#
# Youngs Moduli (GPa) = 111.83554 99.07416 77.85182
#
# Poissons Ratio (x) = 0.21086 0.17860
# Poissons Ratio (y) = 0.23802 0.22291
# Poissons Ratio (z) = 0.25657 0.28367
#
# Static dielectric constant tensor:
#      x y z
#    x 4.278650 0.000000 -0.022360 
#    y 0.000000 4.258730 0.000000 
#    z -0.022360 0.000000 4.043120 
# 
# 
# High freq. dielectric constant tensor:
#      x y z
#    x 1.911260 0.000000 -0.004920 
#    y 0.000000 1.894950 0.000000 
#    z -0.004920 0.000000 1.894370 
# 
# From -- ./inp_files/9935.got.cif
#   From: 2010.06.25/outbox.cif.g09.slc.cpg/sg9_5_cif.got.tgz:9935.got - 2010.06.27 21:40:51.
