data_PCOD8056163
_publ_section_title
;
Structure prediction by ZEFSAII (Michael W. Deem and Ramdas Pophale) SiO2 
 PCOD8056163
Probable space group: C C
;
_chemical_formula_sum "Si O2"
_cell_formula_units_Z 32
_cell_length_a 20.616536
_cell_length_b 15.264337
_cell_length_c 8.058591
_cell_angle_alpha 90.000000
_cell_angle_beta 33.399756
_cell_angle_gamma 90.000000
_cell_volume 1396.021416
_symmetry_space_group_name_H-M "C C"
_symmetry_group_IT_number 9
_symmetry_cell_setting 'monoclinic'
loop_
_space_group_symop_operation_xyz
x,y,z
x,-y,1/2+z
1/2+x,1/2+y,z
1/2+x,1/2-y,1/2+z
loop_
_atom_site_type_symbol
_atom_site_label
_atom_site_fract_x
_atom_site_fract_y
_atom_site_fract_z
Si Si1 0.727960 0.044752 0.414430
Si Si2 0.241726 0.795888 0.287156
Si Si3 0.554989 0.158774 0.635366
Si Si4 0.983942 0.910290 0.329857
Si Si5 0.486821 0.781736 0.921848
Si Si6 0.047208 0.093810 0.339233
Si Si7 0.693544 0.869443 0.343277
Si Si8 0.854614 0.243483 0.699521
O O1 0.609970 0.063927 0.555499
O O2 0.727348 0.084538 0.599890
O O3 0.723685 0.939118 0.426348
O O4 0.845434 0.083266 0.073655
O O5 0.151962 0.718450 0.525374
O O6 0.164180 0.884012 0.481233
O O7 0.349468 0.800282 0.185691
O O8 0.284137 0.776480 0.010297
O O9 0.541928 0.178603 0.470254
O O10 0.427875 0.170839 0.989564
O O11 0.007784 0.822590 0.384765
O O12 0.010494 0.994710 0.382105
O O13 0.069777 0.905126 0.988110
O O14 0.559138 0.833219 0.623397
O O15 0.942111 0.161988 0.534909
O O16 0.769879 0.783358 0.228014
#
# Coordination Sequence:
#
# PCOD8056163 Si02
#       8
#     4   4   4   4   4   4   4   4
#     4  12  24  45  70 106 148 182 253 310 355 435
#     4  11  24  47  68 103 152 182 240 301 362 446
#     4  11  24  42  74 103 137 188 241 302 368 425
#     4  12  25  44  73 108 143 187 243 302 363 433
#     4  12  25  45  73 103 146 196 242 295 374 440
#     4  11  26  43  72 109 145 187 242 304 364 427
#     4  12  26  41  73 107 143 193 241 307 368 433
#     4  11  22  43  71 105 140 187 238 297 366 427
#
# _framework density 22.922284000000001
#
# number of rings (size 3 to 8) (size 9 to 14) (size 15 to 20)
#    0.000    0.500    5.000    3.000    5.250    0.000 
#    0.000    5.000    0.000    0.000    0.000    0.000 
#    0.000    0.000    0.000    0.000    0.000    0.000 
#
# Total GULP energy -198305.390651 kJ/mol
# GULP energy per Si atom -12394.086916 kJ/mol
# Density = 2.287011 g / cm^3
# Si number density = 22.922284 Si / 1000 Ang^3
#
#
#
# Elastic Constant Matrix: (Units=GPa)
#
#
# Indices 1 2 3 4 5 6 
#
# 1 105.0108 26.2451 40.6403 0.0000 -8.0316 0.0000
# 2 26.2451 80.1417 53.5316 0.0000 4.3237 0.0000
# 3 40.6403 53.5316 140.2623 0.0000 -1.8786 0.0000
# 4 0.0000 0.0000 0.0000 37.1468 0.0000 0.2419
# 5 -8.0316 4.3237 -1.8786 0.0000 29.6862 0.0000
# 6 0.0000 0.0000 0.0000 0.2419 0.0000 35.1943
#
#
#
# Elastic Compliance Matrix: (Units=1/GPa)
#
#
# Indices 1 2 3 4 5 6 
#
# 1 0.011249 -0.002295 -0.002340 0.000000 0.003230 0.000000
# 2 -0.002295 0.017459 -0.006046 0.000000 -0.003546 0.000000
# 3 -0.002340 -0.006046 0.010127 0.000000 0.000888 0.000000
# 4 0.000000 0.000000 0.000000 0.026921 0.000000 -0.000185
# 5 0.003230 -0.003546 0.000888 0.000000 0.035132 0.000000
# 6 0.000000 0.000000 0.000000 -0.000185 0.000000 0.028415
#
#
# Mechanical properties :
#
#
# Convention : Reuss Voigt Hill
#
# Bulk Modulus (GPa) = 57.23107 62.91654 60.07380
# Shear Modulus (GPa) = 31.95082 34.07197 33.01139
#
# Velocity S-wave (km/s) = 3.73752 3.85958 3.79904
# Velocity P-wave (km/s) = 6.60659 6.88253 6.74597
#
# Compressibility (1/GPa) = 0.01747303
#
# Stress axis : x y z
#
# Youngs Moduli (GPa) = 88.89584 57.27631 98.74678
#
# Poissons Ratio (x) = 0.13145 0.23109
# Poissons Ratio (y) = 0.20401 0.59701
# Poissons Ratio (z) = 0.20804 0.34629
#
# Static dielectric constant tensor:
#      x y z
#    x 3.876940 0.000000 -0.131970 
#    y 0.000000 4.247770 0.000000 
#    z -0.131970 0.000000 4.475110 
# 
# 
# High freq. dielectric constant tensor:
#      x y z
#    x 1.898800 0.000000 0.002700 
#    y 0.000000 1.897020 0.000000 
#    z 0.002700 0.000000 1.913870 
# 
# From -- ./inp_files/11771.got.cif
#   From: 2010.06.25/outbox.cif.g09.slc.cpg/sg9_6_cif.got.tgz:11771.got - 2010.06.27 21:40:51.
