data_PCOD8056937
_publ_section_title
;
Structure prediction by ZEFSAII (Michael W. Deem and Ramdas Pophale) SiO2 
 PCOD8056937
Probable space group: P 2/M
;
_chemical_formula_sum "Si O2"
_cell_formula_units_Z 30
_cell_length_a 12.362030
_cell_length_b 8.804723
_cell_length_c 14.629712
_cell_angle_alpha 90.000000
_cell_angle_beta 74.504736
_cell_angle_gamma 90.000000
_cell_volume 1534.481785
_symmetry_space_group_name_H-M "P 2/M"
_symmetry_group_IT_number 10
_symmetry_cell_setting 'monoclinic'
loop_
_space_group_symop_operation_xyz
x,y,z
-x,y,-z
-x,-y,-z
x,-y,z
loop_
_atom_site_type_symbol
_atom_site_label
_atom_site_fract_x
_atom_site_fract_y
_atom_site_fract_z
Si Si1 0.379455 0.822747 0.482824
Si Si2 0.025908 0.667368 0.792835
Si Si3 0.269305 0.680156 0.672902
Si Si4 0.000000 0.747344 0.000000
Si Si5 0.402983 0.818437 0.803226
Si Si6 0.371400 0.320360 0.287123
Si Si7 0.805129 0.179841 0.799447
Si Si8 0.759863 0.167822 0.007605
O O1 0.500000 0.793909 0.500000
O O2 0.283817 0.753725 0.569959
O O3 0.371552 0.732609 0.390859
O O4 0.356890 0.000000 0.470228
O O5 0.007282 0.500000 0.754999
O O6 0.013880 0.648986 0.905172
O O7 0.937452 0.782660 0.767787
O O8 0.148493 0.729047 0.739022
O O9 0.284723 0.500000 0.664971
O O10 0.364570 0.750461 0.715723
O O11 0.112827 0.846368 0.983955
O O12 0.529010 0.760922 0.792312
O O13 0.322859 0.749918 0.901607
O O14 0.398860 0.000000 0.798075
O O15 0.385322 0.500000 0.278567
O O16 0.254893 0.269138 0.268024
O O17 0.789467 0.000000 0.792030
O O18 0.756517 0.243039 0.907674
O O19 0.711303 0.000000 0.007572
#
# Coordination Sequence:
#
# PCOD8056937 Si02
#       8
#     4   4   4   2   4   4   4   4
#     4  11  23  40  64  92 117 151 195 246 298 354
#     4  10  21  36  57  88 125 160 198 242 294 349
#     4  11  22  37  58  91 126 157 192 243 301 351
#     4  10  16  32  54  86 119 164 199 242 291 344
#     4  11  21  36  58  88 122 158 199 246 293 348
#     4  12  25  42  63  87 118 156 195 246 303 360
#     4  10  22  41  62  85 117 162 207 246 289 349
#     4   9  19  33  55  86 120 159 203 247 291 341
#
# _framework density 19.550574999999998
#
# number of rings (size 3 to 8) (size 9 to 14) (size 15 to 20)
#    0.000    1.467    2.667    3.200    0.000    2.667 
#    0.000    5.333    0.000    4.000    0.000    0.000 
#    0.000    0.000    0.000    0.000    0.000    0.000 
#
# Total GULP energy -371960.020440 kJ/mol
# GULP energy per Si atom -12398.667348 kJ/mol
# Density = 1.950608 g / cm^3
# Si number density = 19.550575 Si / 1000 Ang^3
#
#
#
# Elastic Constant Matrix: (Units=GPa)
#
#
# Indices 1 2 3 4 5 6 
#
# 1 88.8610 22.9005 38.3528 0.0000 -0.7552 0.0000
# 2 22.9005 77.8665 28.0775 0.0000 -0.3956 0.0000
# 3 38.3528 28.0775 86.9005 0.0000 -8.7845 0.0000
# 4 0.0000 0.0000 0.0000 23.8535 0.0000 -1.6773
# 5 -0.7552 -0.3956 -8.7845 0.0000 33.3765 0.0000
# 6 0.0000 0.0000 0.0000 -1.6773 0.0000 30.5716
#
#
#
# Elastic Compliance Matrix: (Units=1/GPa)
#
#
# Indices 1 2 3 4 5 6 
#
# 1 0.014266 -0.002136 -0.005728 0.000000 -0.001210 0.000000
# 2 -0.002136 0.014895 -0.003962 0.000000 -0.000915 0.000000
# 3 -0.005728 -0.003962 0.015716 0.000000 0.003960 0.000000
# 4 0.000000 0.000000 0.000000 0.042085 0.000000 0.002309
# 5 -0.001210 -0.000915 0.003960 0.000000 0.030965 0.000000
# 6 0.000000 0.000000 0.000000 0.002309 0.000000 0.032837
#
#
# Mechanical properties :
#
#
# Convention : Reuss Voigt Hill
#
# Bulk Modulus (GPa) = 47.11762 48.03218 47.57490
# Shear Modulus (GPa) = 27.54943 28.51346 28.03144
#
# Velocity S-wave (km/s) = 3.75792 3.82310 3.79065
# Velocity P-wave (km/s) = 6.55606 6.64151 6.59893
#
# Compressibility (1/GPa) = 0.02122348
#
# Stress axis : x y z
#
# Youngs Moduli (GPa) = 70.09580 67.13750 63.62922
#
# Poissons Ratio (x) = 0.14342 0.36449
# Poissons Ratio (y) = 0.14974 0.25211
# Poissons Ratio (z) = 0.40154 0.26601
#
# Static dielectric constant tensor:
#      x y z
#    x 3.511990 0.000000 -0.129230 
#    y 0.000000 3.411600 0.000000 
#    z -0.129230 0.000000 3.737620 
# 
# 
# High freq. dielectric constant tensor:
#      x y z
#    x 1.754860 0.000000 -0.008790 
#    y 0.000000 1.757300 0.000000 
#    z -0.008790 0.000000 1.763840 
# 
# From -- ./inp_files/63716.got.cif
#   From: 2010.06.25/outbox.cif.g09.slc.cpg/sg10_32_cif.got.tgz:63716.got - 2010.06.27 22:07:45.
