data_PCOD8056884
_publ_section_title
;
Structure prediction by ZEFSAII (Michael W. Deem and Ramdas Pophale) SiO2 
 PCOD8056884
Probable space group: P 2/M
;
_chemical_formula_sum "Si O2"
_cell_formula_units_Z 32
_cell_length_a 8.613151
_cell_length_b 13.240068
_cell_length_c 19.609412
_cell_angle_alpha 90.000000
_cell_angle_beta 135.695368
_cell_angle_gamma 90.000000
_cell_volume 1561.947956
_symmetry_space_group_name_H-M "P 2/M"
_symmetry_group_IT_number 10
_symmetry_cell_setting 'monoclinic'
loop_
_space_group_symop_operation_xyz
x,y,z
-x,y,-z
-x,-y,-z
x,-y,z
loop_
_atom_site_type_symbol
_atom_site_label
_atom_site_fract_x
_atom_site_fract_y
_atom_site_fract_z
Si Si1 0.477957 0.385552 0.906578
Si Si2 0.606813 0.696783 0.668191
Si Si3 0.835893 0.253710 0.049042
Si Si4 0.147711 0.619198 0.481667
Si Si5 0.744425 0.614708 0.849769
Si Si6 0.262032 0.893298 0.088450
Si Si7 0.015394 0.617721 0.713913
Si Si8 0.815039 0.117440 0.784505
O O1 0.451692 0.500000 0.922647
O O2 0.606492 0.378148 0.875210
O O3 0.234838 0.333699 0.818442
O O4 0.646220 0.332010 0.016512
O O5 0.378909 0.679388 0.557078
O O6 0.588063 0.652156 0.738553
O O7 0.804476 0.636583 0.694322
O O8 0.665214 0.817268 0.685152
O O9 0.037831 0.314813 0.077847
O O10 0.939713 0.171858 0.134406
O O11 0.676747 0.196862 0.942973
O O12 0.199116 0.500000 0.494924
O O13 0.024176 0.659283 0.375068
O O14 0.000000 0.648001 0.500000
O O15 0.823175 0.500000 0.861259
O O16 0.313421 0.871284 0.183739
O O17 0.377079 0.000000 0.103309
O O18 0.000000 0.907486 0.000000
O O19 0.063585 0.500000 0.721663
O O20 0.839673 0.000000 0.769621
#
# Coordination Sequence:
#
# PCOD8056884 Si02
#       8
#     4   4   4   4   4   4   4   4
#     4  10  19  30  45  70 106 142 174 211 251 294
#     4  11  20  33  54  75 101 136 171 207 253 309
#     4  10  16  26  47  72  99 135 177 215 253 296
#     4  10  20  35  57  84 109 132 162 202 246 296
#     4  10  18  27  43  71 104 136 170 206 246 296
#     4   8  13  23  41  66  93 120 159 211 256 289
#     4  10  21  35  51  74 105 138 170 203 244 301
#     4   9  18  31  49  74 100 131 174 219 261 302
#
# _framework density 20.487238000000001
#
# number of rings (size 3 to 8) (size 9 to 14) (size 15 to 20)
#    0.000    2.250    0.000    7.125    0.000    4.000 
#    0.000    2.500    0.000   10.875    0.000    3.500 
#    0.000    0.000    0.000    0.000    0.000    0.000 
#
# Total GULP energy -396451.170923 kJ/mol
# GULP energy per Si atom -12389.099091 kJ/mol
# Density = 2.044061 g / cm^3
# Si number density = 20.487238 Si / 1000 Ang^3
#
#
#
# Elastic Constant Matrix: (Units=GPa)
#
#
# Indices 1 2 3 4 5 6 
#
# 1 49.8599 2.1539 32.7065 0.0000 16.4544 0.0000
# 2 2.1539 108.9804 41.5615 0.0000 13.2574 0.0000
# 3 32.7065 41.5615 133.8637 0.0000 14.4896 0.0000
# 4 0.0000 0.0000 0.0000 41.1795 0.0000 -2.4368
# 5 16.4544 13.2574 14.4896 0.0000 31.3607 0.0000
# 6 0.0000 0.0000 0.0000 -2.4368 0.0000 6.1594
#
#
#
# Elastic Compliance Matrix: (Units=1/GPa)
#
#
# Indices 1 2 3 4 5 6 
#
# 1 0.028750 0.003628 -0.006686 0.000000 -0.013529 0.000000
# 2 0.003628 0.011153 -0.003824 0.000000 -0.004851 0.000000
# 3 -0.006686 -0.003824 0.010249 0.000000 0.000389 0.000000
# 4 0.000000 0.000000 0.000000 0.024866 0.000000 0.009838
# 5 -0.013529 -0.004851 0.000389 0.000000 0.040856 0.000000
# 6 0.000000 0.000000 0.000000 0.009838 0.000000 0.166244
#
#
# Mechanical properties :
#
#
# Convention : Reuss Voigt Hill
#
# Bulk Modulus (GPa) = 27.48263 49.50530 38.49397
# Shear Modulus (GPa) = 16.23309 30.15875 23.19592
#
# Velocity S-wave (km/s) = 2.81793 3.84093 3.36849
# Velocity P-wave (km/s) = 4.90217 6.62470 5.82743
#
# Compressibility (1/GPa) = 0.03638661
#
# Stress axis : x y z
#
# Youngs Moduli (GPa) = 34.78239 89.66435 97.57058
#
# Poissons Ratio (x) = -0.32526 0.65239
# Poissons Ratio (y) = -0.12617 0.37309
# Poissons Ratio (z) = 0.23257 0.34286
#
# Static dielectric constant tensor:
#      x y z
#    x 3.571300 0.000000 -0.146480 
#    y 0.000000 4.192020 0.000000 
#    z -0.146480 0.000000 3.903440 
# 
# 
# High freq. dielectric constant tensor:
#      x y z
#    x 1.785720 0.000000 -0.011020 
#    y 0.000000 1.791780 0.000000 
#    z -0.011020 0.000000 1.787940 
# 
# From -- ./inp_files/82834.got.cif
#   From: 2010.06.25/outbox.cif.g09.slc.cpg/sg10_42_cif.got.tgz:82834.got - 2010.06.27 22:07:45.
