data_PCOD8056723
_publ_section_title
;
Structure prediction by ZEFSAII (Michael W. Deem and Ramdas Pophale) SiO2 
 PCOD8056723
Probable space group: C C
;
_chemical_formula_sum "Si O2"
_cell_formula_units_Z 32
_cell_length_a 12.166107
_cell_length_b 14.109187
_cell_length_c 8.217004
_cell_angle_alpha 90.000000
_cell_angle_beta 66.761578
_cell_angle_gamma 90.000000
_cell_volume 1296.049669
_symmetry_space_group_name_H-M "C C"
_symmetry_group_IT_number 9
_symmetry_cell_setting 'monoclinic'
loop_
_space_group_symop_operation_xyz
x,y,z
x,-y,1/2+z
1/2+x,1/2+y,z
1/2+x,1/2-y,1/2+z
loop_
_atom_site_type_symbol
_atom_site_label
_atom_site_fract_x
_atom_site_fract_y
_atom_site_fract_z
Si Si1 0.250000 0.814805 0.565880
Si Si2 0.232488 0.635603 0.747696
Si Si3 0.483198 0.904608 0.945805
Si Si4 0.712562 0.202245 0.255471
Si Si5 0.601289 0.535999 0.326073
Si Si6 0.829472 0.036135 0.012402
Si Si7 0.221819 0.885446 0.065221
Si Si8 0.984189 0.400774 0.325372
O O1 0.289027 0.739222 0.683145
O O2 0.241213 0.755185 0.405725
O O3 0.133202 0.880725 0.674571
O O4 0.362686 0.884417 0.493656
O O5 0.277652 0.588153 0.885141
O O6 0.259027 0.561604 0.584927
O O7 0.092492 0.667618 0.815483
O O8 0.356821 0.902138 0.925192
O O9 0.457019 0.895975 0.151385
O O10 0.573538 0.824287 0.837889
O O11 0.543333 0.001572 0.853737
O O12 0.717569 0.273764 0.101415
O O13 0.804947 0.113477 0.172219
O O14 0.466867 0.494591 0.403338
O O15 0.688726 0.446147 0.246100
O O16 0.626704 0.581112 0.486580
#
# Coordination Sequence:
#
# PCOD8056723 Si02
#       8
#     4   4   4   4   4   4   4   4
#     4  12  27  49  80 115 156 207 263 325 397 470
#     4  12  26  49  78 113 151 209 260 322 393 470
#     4  12  25  48  78 107 155 199 260 321 384 469
#     4  12  27  49  80 115 156 207 263 325 397 470
#     4  12  28  52  77 112 162 204 259 329 404 470
#     4  12  28  52  77 112 162 204 259 329 404 470
#     4  12  26  49  78 113 151 209 260 322 393 470
#     4  12  25  48  78 107 155 199 260 321 384 469
#
# _framework density 24.690411000000001
#
# number of rings (size 3 to 8) (size 9 to 14) (size 15 to 20)
#    0.000    0.000    5.000    4.500    3.500    0.000 
#    4.500    0.000    0.000    0.000    0.000    0.000 
#    0.000    0.000    0.000    0.000    0.000    0.000 
#
# Total GULP energy -198311.660689 kJ/mol
# GULP energy per Si atom -12394.478793 kJ/mol
# Density = 2.463421 g / cm^3
# Si number density = 24.690411 Si / 1000 Ang^3
#
#
#
# Elastic Constant Matrix: (Units=GPa)
#
#
# Indices 1 2 3 4 5 6 
#
# 1 112.0460 25.6215 41.2956 0.0000 -18.7669 0.0000
# 2 25.6215 125.1300 39.8902 0.0000 -19.1539 0.0000
# 3 41.2956 39.8902 107.1726 0.0000 -20.4394 0.0000
# 4 0.0000 0.0000 0.0000 30.9205 0.0000 17.3900
# 5 -18.7669 -19.1539 -20.4394 0.0000 40.6802 0.0000
# 6 0.0000 0.0000 0.0000 17.3900 0.0000 7.9972
#
#
#
# Elastic Compliance Matrix: (Units=1/GPa)
#
#
# Indices 1 2 3 4 5 6 
#
# 1 0.010814 -0.000693 -0.003340 0.000000 0.002985 0.000000
# 2 -0.000693 0.009420 -0.002714 0.000000 0.002752 0.000000
# 3 -0.003340 -0.002714 0.012266 0.000000 0.003344 0.000000
# 4 0.000000 0.000000 0.000000 -0.145049 0.000000 0.315411
# 5 0.002985 0.002752 0.003344 0.000000 0.028935 0.000000
# 6 0.000000 0.000000 0.000000 0.315411 0.000000 -0.560820
#
#
# Mechanical properties :
#
#
# Convention : Reuss Voigt Hill
#
# Bulk Modulus (GPa) = 52.61514 61.99590 57.30552
# Shear Modulus (GPa) = -8.00506 31.75567 11.87530
#
# Velocity S-wave (km/s) = -1.80256 3.59019 2.19548
# Velocity P-wave (km/s) = 4.12601 6.50767 5.44856
#
# Compressibility (1/GPa) = 0.01900594
#
# Stress axis : x y z
#
# Youngs Moduli (GPa) = 92.47143 106.15577 81.52803
#
# Poissons Ratio (x) = 0.07354 0.27229
# Poissons Ratio (y) = 0.06406 0.22130
# Poissons Ratio (z) = 0.30884 0.28816
#
# Static dielectric constant tensor:
#      x y z
#    x 4.086640 0.000000 -0.165590 
#    y 0.000000 4.968800 0.000000 
#    z -0.165590 0.000000 4.667650 
# 
# 
# High freq. dielectric constant tensor:
#      x y z
#    x 1.970870 0.000000 -0.008980 
#    y 0.000000 2.003070 0.000000 
#    z -0.008980 0.000000 1.996310 
# 
# From -- ./inp_files/7561.got.cif
#   From: 2010.06.25/outbox.cif.g09.slc.cpg/sg9_4_cif.got.tgz:7561.got - 2010.06.27 21:40:51.
