data_PCOD8056440
_publ_section_title
;
Structure prediction by ZEFSAII (Michael W. Deem and Ramdas Pophale) SiO2 
 PCOD8056440
Probable space group: C C
;
_chemical_formula_sum "Si O2"
_cell_formula_units_Z 32
_cell_length_a 6.059585
_cell_length_b 16.756433
_cell_length_c 14.483539
_cell_angle_alpha 90.000000
_cell_angle_beta 59.244680
_cell_angle_gamma 90.000000
_cell_volume 1263.786598
_symmetry_space_group_name_H-M "C C"
_symmetry_group_IT_number 9
_symmetry_cell_setting 'monoclinic'
loop_
_space_group_symop_operation_xyz
x,y,z
x,-y,1/2+z
1/2+x,1/2+y,z
1/2+x,1/2-y,1/2+z
loop_
_atom_site_type_symbol
_atom_site_label
_atom_site_fract_x
_atom_site_fract_y
_atom_site_fract_z
Si Si1 0.112650 0.433219 0.697460
Si Si2 0.435371 0.150840 0.048397
Si Si3 0.698753 0.805596 0.170312
Si Si4 0.117486 0.594919 0.509114
Si Si5 0.085030 0.998031 0.333679
Si Si6 0.715623 0.799904 0.815674
Si Si7 0.889779 0.161730 0.822489
Si Si8 0.114585 0.011995 0.118563
O O1 0.246849 0.369818 0.735474
O O2 0.333559 0.501796 0.630669
O O3 0.041494 0.395665 0.615201
O O4 0.868104 0.471671 0.803934
O O5 0.383202 0.242754 0.080505
O O6 0.197595 0.098950 0.062146
O O7 0.615396 0.145761 0.922653
O O8 0.467787 0.755199 0.265478
O O9 0.864307 0.848358 0.216442
O O10 0.603477 0.869731 0.115599
O O11 0.357953 0.534085 0.446074
O O12 0.151939 0.667855 0.431087
O O13 0.839490 0.552749 0.551958
O O14 0.084277 0.901779 0.327702
O O15 0.042367 0.027736 0.239896
O O16 0.474837 0.749770 0.831194
#
# Coordination Sequence:
#
# PCOD8056440 Si02
#       8
#     4   4   4   4   4   4   4   4
#     4  11  24  47  83 112 165 204 264 348 399 488
#     4  11  24  45  78 112 151 209 262 326 411 471
#     4  12  27  50  79 118 163 215 270 344 401 493
#     4  12  27  52  85 118 162 225 275 332 423 483
#     4  11  26  51  74 120 156 211 273 326 404 493
#     4  12  26  49  77 121 157 205 278 339 405 491
#     4  12  28  48  78 113 161 207 272 333 401 487
#     4  11  24  50  78 114 161 208 268 330 410 486
#
# _framework density 25.320729
#
# number of rings (size 3 to 8) (size 9 to 14) (size 15 to 20)
#    0.000    0.500    5.000    2.250    3.500    6.000 
#    0.000    0.000    2.750    0.000    0.000    0.000 
#    0.000    0.000    0.000    0.000    0.000    0.000 
#
# Total GULP energy -198290.588636 kJ/mol
# GULP energy per Si atom -12393.161790 kJ/mol
# Density = 2.526310 g / cm^3
# Si number density = 25.320729 Si / 1000 Ang^3
#
#
#
# Elastic Constant Matrix: (Units=GPa)
#
#
# Indices 1 2 3 4 5 6 
#
# 1 114.9463 49.0473 34.1954 0.0000 -25.1399 0.0000
# 2 49.0473 110.3518 44.2945 0.0000 -7.3072 0.0000
# 3 34.1954 44.2945 107.2191 0.0000 -7.2590 0.0000
# 4 0.0000 0.0000 0.0000 47.1151 0.0000 -2.4939
# 5 -25.1399 -7.3072 -7.2590 0.0000 48.9651 0.0000
# 6 0.0000 0.0000 0.0000 -2.4939 0.0000 36.6376
#
#
#
# Elastic Compliance Matrix: (Units=1/GPa)
#
#
# Indices 1 2 3 4 5 6 
#
# 1 0.012271 -0.004403 -0.001730 0.000000 0.005387 0.000000
# 2 -0.004403 0.012489 -0.003820 0.000000 -0.000963 0.000000
# 3 -0.001730 -0.003820 0.011473 0.000000 0.000243 0.000000
# 4 0.000000 0.000000 0.000000 0.021301 0.000000 0.001450
# 5 0.005387 -0.000963 0.000243 0.000000 0.023081 0.000000
# 6 0.000000 0.000000 0.000000 0.001450 0.000000 0.027393
#
#
# Mechanical properties :
#
#
# Convention : Reuss Voigt Hill
#
# Bulk Modulus (GPa) = 61.25050 65.28794 63.26922
# Shear Modulus (GPa) = 37.49344 40.20889 38.85116
#
# Velocity S-wave (km/s) = 3.85221 3.98927 3.92134
# Velocity P-wave (km/s) = 6.63539 6.85999 6.74863
#
# Compressibility (1/GPa) = 0.01632640
#
# Stress axis : x y z
#
# Youngs Moduli (GPa) = 81.49111 80.07346 87.16050
#
# Poissons Ratio (x) = 0.35256 0.15079
# Poissons Ratio (y) = 0.35881 0.33297
# Poissons Ratio (z) = 0.14098 0.30590
#
# Static dielectric constant tensor:
#      x y z
#    x 4.696870 0.000000 -0.265920 
#    y 0.000000 5.335580 0.000000 
#    z -0.265920 0.000000 4.597960 
# 
# 
# High freq. dielectric constant tensor:
#      x y z
#    x 2.010180 0.000000 -0.013380 
#    y 0.000000 2.023890 0.000000 
#    z -0.013380 0.000000 2.019380 
# 
# From -- ./inp_files/22036.got.cif
#   From: 2010.06.25/outbox.cif.g09.slc.cpg/sg9_12_cif.got.tgz:22036.got - 2010.06.27 21:40:51.
