data_PCOD8056223
_publ_section_title
;
Structure prediction by ZEFSAII (Michael W. Deem and Ramdas Pophale) SiO2 
 PCOD8056223
Probable space group: C C
;
_chemical_formula_sum "Si O2"
_cell_formula_units_Z 24
_cell_length_a 7.719684
_cell_length_b 21.300917
_cell_length_c 9.344983
_cell_angle_alpha 90.000000
_cell_angle_beta 50.022329
_cell_angle_gamma 90.000000
_cell_volume 1177.530779
_symmetry_space_group_name_H-M "C C"
_symmetry_group_IT_number 9
_symmetry_cell_setting 'monoclinic'
loop_
_space_group_symop_operation_xyz
x,y,z
x,-y,1/2+z
1/2+x,1/2+y,z
1/2+x,1/2-y,1/2+z
loop_
_atom_site_type_symbol
_atom_site_label
_atom_site_fract_x
_atom_site_fract_y
_atom_site_fract_z
Si Si1 0.995760 0.325421 0.133620
Si Si2 0.191383 0.599711 0.791596
Si Si3 0.892525 0.815774 0.716284
Si Si4 0.714085 0.424745 0.652005
Si Si5 0.514992 0.501364 0.508056
Si Si6 0.995161 0.871825 0.374815
O O1 0.959808 0.255544 0.211651
O O2 0.761820 0.359517 0.221238
O O3 0.127250 0.360930 0.187633
O O4 0.145537 0.328624 0.911333
O O5 0.287277 0.532773 0.688879
O O6 0.379151 0.638447 0.782464
O O7 0.979014 0.589314 0.008004
O O8 0.882327 0.825615 0.550871
O O9 0.077706 0.861600 0.687266
O O10 0.665283 0.478630 0.561235
O O11 0.654425 0.447635 0.842534
O O12 0.446234 0.443436 0.444954
#
# Coordination Sequence:
#
# PCOD8056223 Si02
#       6
#     4   4   4   4   4   4
#     4  12  23  48  71  95 140 177 223 283 334 400
#     4  12  25  43  70 100 137 177 226 277 327 412
#     4  11  23  47  71  95 139 180 219 285 341 388
#     4  11  24  42  68  99 134 181 223 277 338 396
#     4  11  23  41  63 100 136 173 222 267 340 392
#     4  11  26  43  65 107 128 180 229 267 340 398
#
# _framework density 20.381632
#
# number of rings (size 3 to 8) (size 9 to 14) (size 15 to 20)
#    0.000    0.667    8.333    0.000    2.333    4.000 
#    6.000    0.000    0.000    0.000    0.000    0.000 
#    0.000    0.000    0.000    0.000    0.000    0.000 
#
# Total GULP energy -148853.228489 kJ/mol
# GULP energy per Si atom -12404.435707 kJ/mol
# Density = 2.033524 g / cm^3
# Si number density = 20.381632 Si / 1000 Ang^3
#
#
#
# Elastic Constant Matrix: (Units=GPa)
#
#
# Indices 1 2 3 4 5 6 
#
# 1 142.5839 46.7364 50.5927 0.0000 -3.6128 0.0000
# 2 46.7364 100.5416 16.4347 0.0000 -13.1871 0.0000
# 3 50.5927 16.4347 109.4511 0.0000 -28.9694 0.0000
# 4 0.0000 0.0000 0.0000 34.4432 0.0000 -9.2672
# 5 -3.6128 -13.1871 -28.9694 0.0000 21.0985 0.0000
# 6 0.0000 0.0000 0.0000 -9.2672 0.0000 17.5140
#
#
#
# Elastic Compliance Matrix: (Units=1/GPa)
#
#
# Indices 1 2 3 4 5 6 
#
# 1 0.011165 -0.005515 -0.007445 0.000000 -0.011757 0.000000
# 2 -0.005515 0.013563 0.003937 0.000000 0.012939 0.000000
# 3 -0.007445 0.003937 0.019323 0.000000 0.027717 0.000000
# 4 0.000000 0.000000 0.000000 0.033853 0.000000 0.017913
# 5 -0.011757 0.012939 0.027717 0.000000 0.091528 0.000000
# 6 0.000000 0.000000 0.000000 0.017913 0.000000 0.066576
#
#
# Mechanical properties :
#
#
# Convention : Reuss Voigt Hill
#
# Bulk Modulus (GPa) = 38.45199 64.45601 51.45400
# Shear Modulus (GPa) = 19.03163 30.53199 24.78181
#
# Velocity S-wave (km/s) = 3.05907 3.87462 3.49074
# Velocity P-wave (km/s) = 5.60216 7.19097 6.44571
#
# Compressibility (1/GPa) = 0.02600646
#
# Stress axis : x y z
#
# Youngs Moduli (GPa) = 89.56756 73.72844 51.75280
#
# Poissons Ratio (x) = 0.40662 0.38527
# Poissons Ratio (y) = 0.49397 -0.20377
# Poissons Ratio (z) = 0.66679 -0.29030
#
# Static dielectric constant tensor:
#      x y z
#    x 3.548910 0.000000 -0.039930 
#    y 0.000000 3.796230 0.000000 
#    z -0.039930 0.000000 3.994920 
# 
# 
# High freq. dielectric constant tensor:
#      x y z
#    x 1.784710 0.000000 -0.004320 
#    y 0.000000 1.798480 0.000000 
#    z -0.004320 0.000000 1.816630 
# 
# From -- ./inp_files/5706.got.cif
#   From: 2010.06.25/outbox.cif.g09.slc.cpg/sg9_3_cif.got.tgz:5706.got - 2010.06.27 21:40:51.
