data_PCOD8056851
_publ_section_title
;
Structure prediction by ZEFSAII (Michael W. Deem and Ramdas Pophale) SiO2 
 PCOD8056851
Probable space group: P 2/M
;
_chemical_formula_sum "Si O2"
_cell_formula_units_Z 18
_cell_length_a 15.699222
_cell_length_b 7.850358
_cell_length_c 21.768708
_cell_angle_alpha 90.000000
_cell_angle_beta 22.310802
_cell_angle_gamma 90.000000
_cell_volume 1018.500951
_symmetry_space_group_name_H-M "P 2/M"
_symmetry_group_IT_number 10
_symmetry_cell_setting 'monoclinic'
loop_
_space_group_symop_operation_xyz
x,y,z
-x,y,-z
-x,-y,-z
x,-y,z
loop_
_atom_site_type_symbol
_atom_site_label
_atom_site_fract_x
_atom_site_fract_y
_atom_site_fract_z
Si Si1 0.559938 0.500000 0.386492
Si Si2 0.433890 0.807614 0.114006
Si Si3 0.734973 0.817074 0.308332
Si Si4 0.886863 0.500000 0.640883
Si Si5 0.103886 0.500000 0.619878
Si Si6 0.924203 0.192595 0.813451
O O1 0.500000 0.500000 0.500000
O O2 0.708143 0.669583 0.274862
O O3 0.356647 0.500000 0.475116
O O4 0.259793 0.670538 0.255079
O O5 0.333382 0.000000 0.185764
O O6 0.500000 0.765842 0.000000
O O7 0.659775 0.794638 0.004461
O O8 0.500000 0.834544 0.500000
O O9 0.933991 0.761117 0.220953
O O10 0.792302 0.000000 0.239287
O O11 0.000000 0.500000 0.500000
O O12 0.086858 0.500000 0.557631
O O13 0.981359 0.328105 0.722929
O O14 0.984784 0.000000 0.750508
#
# Coordination Sequence:
#
# PCOD8056851 Si02
#       6
#     2   4   4   2   2   4
#     4  10  16  24  40  69 102 135 157 199 265 311
#     4  10  20  36  58  81 103 133 179 231 277 316
#     4   9  15  24  39  68 109 132 151 195 259 322
#     4  12  26  39  53  75 108 150 186 219 264 319
#     4  12  19  30  48  71 107 137 172 214 257 313
#     4  10  18  28  49  79 105 131 164 210 267 316
#
# _framework density 17.673033
#
# number of rings (size 3 to 8) (size 9 to 14) (size 15 to 20)
#    0.000    1.778    6.667    1.000    0.000    0.444 
#    0.000    0.000    0.000    0.000    0.000    3.111 
#    0.000    5.333    0.000    0.000    0.000    0.000 
#
# Total GULP energy -223021.025753 kJ/mol
# GULP energy per Si atom -12390.056986 kJ/mol
# Density = 1.763281 g / cm^3
# Si number density = 17.673033 Si / 1000 Ang^3
#
#
#
# Elastic Constant Matrix: (Units=GPa)
#
#
# Indices 1 2 3 4 5 6 
#
# 1 105.2858 58.4643 58.1562 0.0000 -27.1811 0.0000
# 2 58.4643 157.2904 48.3505 0.0000 1.6308 0.0000
# 3 58.1562 48.3505 65.0251 0.0000 -12.1651 0.0000
# 4 0.0000 0.0000 0.0000 22.5374 0.0000 -8.3868
# 5 -27.1811 1.6308 -12.1651 0.0000 31.3741 0.0000
# 6 0.0000 0.0000 0.0000 -8.3868 0.0000 21.3105
#
#
#
# Elastic Compliance Matrix: (Units=1/GPa)
#
#
# Indices 1 2 3 4 5 6 
#
# 1 0.024806 -0.004479 -0.015948 0.000000 0.015540 0.000000
# 2 -0.004479 0.009325 -0.004037 0.000000 -0.005931 0.000000
# 3 -0.015948 -0.004037 0.032453 0.000000 -0.001024 0.000000
# 4 0.000000 0.000000 0.000000 0.051984 0.000000 0.020459
# 5 0.015540 -0.005931 -0.001024 0.000000 0.045248 0.000000
# 6 0.000000 0.000000 0.000000 0.020459 0.000000 0.054977
#
#
# Mechanical properties :
#
#
# Convention : Reuss Voigt Hill
#
# Bulk Modulus (GPa) = 56.64161 73.06037 64.85099
# Shear Modulus (GPa) = 18.27440 25.88640 22.08040
#
# Velocity S-wave (km/s) = 3.21912 3.83134 3.53850
# Velocity P-wave (km/s) = 6.77763 7.81038 7.31226
#
# Compressibility (1/GPa) = 0.01765486
#
# Stress axis : x y z
#
# Youngs Moduli (GPa) = 40.31251 107.23730 30.81416
#
# Poissons Ratio (x) = 0.48033 0.49142
# Poissons Ratio (y) = 0.18056 0.12441
# Poissons Ratio (z) = 0.64290 0.43296
#
# Static dielectric constant tensor:
#      x y z
#    x 3.184420 0.000000 -0.567590 
#    y 0.000000 4.649990 0.000000 
#    z -0.567590 0.000000 2.946050 
# 
# 
# High freq. dielectric constant tensor:
#      x y z
#    x 1.660550 0.000000 -0.066320 
#    y 0.000000 1.722780 0.000000 
#    z -0.066320 0.000000 1.626680 
# 
# From -- ./inp_files/84619.got.cif
#   From: 2010.06.25/outbox.cif.g09.slc.cpg/sg10_43_cif.got.tgz:84619.got - 2010.06.27 22:07:45.
