data_PCOD8056960
_publ_section_title
;
Structure prediction by ZEFSAII (Michael W. Deem and Ramdas Pophale) SiO2 
 PCOD8056960
Probable space group: P 2/M
;
_chemical_formula_sum "Si O2"
_cell_formula_units_Z 32
_cell_length_a 23.064592
_cell_length_b 9.111218
_cell_length_c 28.433575
_cell_angle_alpha 90.000000
_cell_angle_beta 162.005770
_cell_angle_gamma 90.000000
_cell_volume 1845.871303
_symmetry_space_group_name_H-M "P 2/M"
_symmetry_group_IT_number 10
_symmetry_cell_setting 'monoclinic'
loop_
_space_group_symop_operation_xyz
x,y,z
-x,y,-z
-x,-y,-z
x,-y,z
loop_
_atom_site_type_symbol
_atom_site_label
_atom_site_fract_x
_atom_site_fract_y
_atom_site_fract_z
Si Si1 0.404641 0.670051 0.137084
Si Si2 0.415757 0.827331 0.289813
Si Si3 0.438265 0.673280 0.058888
Si Si4 0.684722 0.326507 0.433693
Si Si5 0.897217 0.671364 0.268313
Si Si6 0.176027 0.336721 0.171088
Si Si7 0.865132 0.670263 0.994372
Si Si8 0.673884 0.834311 0.169209
O O1 0.441333 0.500000 0.157545
O O2 0.418415 0.741676 0.096072
O O3 0.563825 0.729909 0.295528
O O4 0.195735 0.697074 0.998271
O O5 0.610990 0.752431 0.424324
O O6 0.344855 0.772096 0.286655
O O7 0.257816 0.780651 0.131125
O O8 0.442702 0.000000 0.312289
O O9 0.473170 0.500000 0.085108
O O10 0.618193 0.749393 0.173800
O O11 0.247411 0.713509 0.884409
O O12 0.662429 0.500000 0.423393
O O13 0.898502 0.278802 0.591182
O O14 0.890370 0.500000 0.274832
O O15 0.849718 0.755839 0.279925
O O16 0.261522 0.500000 0.237149
O O17 0.000000 0.325959 0.000000
O O18 0.086008 0.298897 0.153458
O O19 0.817211 0.500000 0.943613
O O20 0.730468 0.000000 0.225641
O O21 0.500000 0.828208 0.000000
#
# Coordination Sequence:
#
# PCOD8056960 Si02
#       8
#     4   4   4   4   4   4   4   4
#     4   8  14  26  44  63  84 110 137 167 205 248
#     4  10  17  23  35  57  83 109 138 174 210 241
#     4   9  16  28  47  68  85 103 135 176 208 236
#     4   9  17  30  44  59  84 115 140 163 203 256
#     4   9  17  29  47  67  83 104 138 176 206 237
#     4   8  13  22  36  53  76 108 142 172 204 245
#     4   8  14  25  39  55  79 112 143 168 203 251
#     4   9  17  29  45  64  86 111 137 167 205 247
#
# _framework density 17.335985999999998
#
# number of rings (size 3 to 8) (size 9 to 14) (size 15 to 20)
#    0.000    3.250    0.000    3.000    0.000    4.250 
#    0.000    3.125    0.000    3.750    0.000    0.875 
#    0.000    7.000    0.000    0.000    0.000    0.000 
#
# Total GULP energy -396461.729989 kJ/mol
# GULP energy per Si atom -12389.429062 kJ/mol
# Density = 1.729653 g / cm^3
# Si number density = 17.335986 Si / 1000 Ang^3
#
#
#
# Elastic Constant Matrix: (Units=GPa)
#
#
# Indices 1 2 3 4 5 6 
#
# 1 59.3798 33.4041 49.9037 0.0000 34.2386 0.0000
# 2 33.4041 68.6300 39.0493 0.0000 22.7523 0.0000
# 3 49.9037 39.0493 82.8859 0.0000 38.5857 0.0000
# 4 0.0000 0.0000 0.0000 13.0508 0.0000 3.9366
# 5 34.2386 22.7523 38.5857 0.0000 34.5150 0.0000
# 6 0.0000 0.0000 0.0000 3.9366 0.0000 9.1727
#
#
#
# Elastic Compliance Matrix: (Units=1/GPa)
#
#
# Indices 1 2 3 4 5 6 
#
# 1 0.047493 -0.006645 -0.011616 0.000000 -0.029746 0.000000
# 2 -0.006645 0.021351 -0.005369 0.000000 -0.001481 0.000000
# 3 -0.011616 -0.005369 0.030394 0.000000 -0.018917 0.000000
# 4 0.000000 0.000000 0.000000 0.088018 0.000000 -0.037773
# 5 -0.029746 -0.001481 -0.018917 0.000000 0.080605 0.000000
# 6 0.000000 0.000000 0.000000 -0.037773 0.000000 0.125229
#
#
# Mechanical properties :
#
#
# Convention : Reuss Voigt Hill
#
# Bulk Modulus (GPa) = 19.23889 50.62333 34.93111
# Shear Modulus (GPa) = 10.92476 17.25027 14.08752
#
# Velocity S-wave (km/s) = 2.51306 3.15787 2.85374
# Velocity P-wave (km/s) = 4.42068 6.52387 5.57240
#
# Compressibility (1/GPa) = 0.05197804
#
# Stress axis : x y z
#
# Youngs Moduli (GPa) = 21.05564 46.83661 32.90108
#
# Poissons Ratio (x) = 0.31124 0.38219
# Poissons Ratio (y) = 0.13992 0.17663
# Poissons Ratio (z) = 0.24459 0.25144
#
# Static dielectric constant tensor:
#      x y z
#    x 3.566290 0.000000 0.524280 
#    y 0.000000 3.015710 0.000000 
#    z 0.524280 0.000000 3.068610 
# 
# 
# High freq. dielectric constant tensor:
#      x y z
#    x 1.663180 0.000000 0.049700 
#    y 0.000000 1.648100 0.000000 
#    z 0.049700 0.000000 1.632550 
# 
# From -- ./inp_files/88442.got.cif
#   From: 2010.06.25/outbox.cif.g09.slc.cpg/sg10_45_cif.got.tgz:88442.got - 2010.06.27 22:07:45.
