data_PCOD8056050
_publ_section_title
;
Structure prediction by ZEFSAII (Michael W. Deem and Ramdas Pophale) SiO2 
 PCOD8056050
Probable space group: C C
;
_chemical_formula_sum "Si O2"
_cell_formula_units_Z 28
_cell_length_a 8.906480
_cell_length_b 19.530466
_cell_length_c 9.022739
_cell_angle_alpha 90.000000
_cell_angle_beta 50.852315
_cell_angle_gamma 90.000000
_cell_volume 1217.168771
_symmetry_space_group_name_H-M "C C"
_symmetry_group_IT_number 9
_symmetry_cell_setting 'monoclinic'
loop_
_space_group_symop_operation_xyz
x,y,z
x,-y,1/2+z
1/2+x,1/2+y,z
1/2+x,1/2-y,1/2+z
loop_
_atom_site_type_symbol
_atom_site_label
_atom_site_fract_x
_atom_site_fract_y
_atom_site_fract_z
Si Si1 0.359080 0.590732 0.392380
Si Si2 0.432378 0.717486 0.170780
Si Si3 0.186874 0.834554 0.251138
Si Si4 0.401506 0.338097 0.164025
Si Si5 0.489357 0.205461 0.931749
Si Si6 0.443093 0.961501 0.171789
Si Si7 0.779205 0.429023 0.577377
O O1 0.306461 0.660877 0.337259
O O2 0.421737 0.605314 0.523200
O O3 0.549353 0.555988 0.200998
O O4 0.173696 0.541793 0.497669
O O5 0.299816 0.763658 0.143441
O O6 0.518474 0.769172 0.242900
O O7 0.592741 0.678858 0.972107
O O8 0.334627 0.897433 0.165324
O O9 0.033467 0.855568 0.222404
O O10 0.180344 0.336951 0.355577
O O11 0.463683 0.264646 0.065101
O O12 0.308826 0.153365 0.065915
O O13 0.405821 0.961516 0.368815
O O14 0.360877 0.034068 0.171599
#
# Coordination Sequence:
#
# PCOD8056050 Si02
#       7
#     4   4   4   4   4   4   4
#     4  11  24  48  76  99 138 193 229 296 358 413
#     4  11  20  41  76  99 144 181 231 296 358 412
#     4  12  23  41  67 114 142 177 235 295 349 422
#     4  11  23  38  72 109 144 177 228 300 361 410
#     4  11  21  44  69 103 140 190 229 286 365 420
#     4  12  28  49  72  99 143 189 241 283 350 426
#     4  12  27  49  72 101 139 191 243 286 341 431
#
# _framework density 23.004204000000001
#
# number of rings (size 3 to 8) (size 9 to 14) (size 15 to 20)
#    0.000    0.571    4.286    5.143    2.000    2.286 
#    5.143    0.000    0.000    0.000    0.000    0.000 
#    0.000    0.000    0.000    0.000    0.000    0.000 
#
# Total GULP energy -173616.713457 kJ/mol
# GULP energy per Si atom -12401.193818 kJ/mol
# Density = 2.295185 g / cm^3
# Si number density = 23.004204 Si / 1000 Ang^3
#
#
#
# Elastic Constant Matrix: (Units=GPa)
#
#
# Indices 1 2 3 4 5 6 
#
# 1 113.6069 22.5692 29.1726 0.0000 -10.3562 0.0000
# 2 22.5692 61.5158 20.0365 0.0000 6.2931 0.0000
# 3 29.1726 20.0365 85.1283 0.0000 -25.5300 0.0000
# 4 0.0000 0.0000 0.0000 14.7993 0.0000 -1.3186
# 5 -10.3562 6.2931 -25.5300 0.0000 41.3306 0.0000
# 6 0.0000 0.0000 0.0000 -1.3186 0.0000 36.6268
#
#
#
# Elastic Compliance Matrix: (Units=1/GPa)
#
#
# Indices 1 2 3 4 5 6 
#
# 1 0.010156 -0.003163 -0.002244 0.000000 0.001640 0.000000
# 2 -0.003163 0.020104 -0.005896 0.000000 -0.007495 0.000000
# 3 -0.002244 -0.005896 0.017188 0.000000 0.010953 0.000000
# 4 0.000000 0.000000 0.000000 0.067788 0.000000 0.002440
# 5 0.001640 -0.007495 0.010953 0.000000 0.032513 0.000000
# 6 0.000000 0.000000 0.000000 0.002440 0.000000 0.027390
#
#
# Mechanical properties :
#
#
# Convention : Reuss Voigt Hill
#
# Bulk Modulus (GPa) = 40.25326 44.86751 42.56039
# Shear Modulus (GPa) = 24.26879 31.11621 27.69250
#
# Velocity S-wave (km/s) = 3.25156 3.68180 3.47335
# Velocity P-wave (km/s) = 5.62433 6.13357 5.88446
#
# Compressibility (1/GPa) = 0.02484271
#
# Stress axis : x y z
#
# Youngs Moduli (GPa) = 98.45969 49.74255 58.17902
#
# Poissons Ratio (x) = 0.15734 0.13056
# Poissons Ratio (y) = 0.31144 0.34300
# Poissons Ratio (z) = 0.22095 0.29326
#
# Static dielectric constant tensor:
#      x y z
#    x 4.052600 0.000000 -0.127940 
#    y 0.000000 3.995090 0.000000 
#    z -0.127940 0.000000 4.156350 
# 
# 
# High freq. dielectric constant tensor:
#      x y z
#    x 1.906950 0.000000 -0.013600 
#    y 0.000000 1.892350 0.000000 
#    z -0.013600 0.000000 1.912530 
# 
# From -- ./inp_files/5669.got.cif
#   From: 2010.06.25/outbox.cif.g09.slc.cpg/sg9_3_cif.got.tgz:5669.got - 2010.06.27 21:40:51.
