data_PCOD8056962
_publ_section_title
;
Structure prediction by ZEFSAII (Michael W. Deem and Ramdas Pophale) SiO2 
 PCOD8056962
Probable space group: P 2/M
;
_chemical_formula_sum "Si O2"
_cell_formula_units_Z 28
_cell_length_a 19.094439
_cell_length_b 8.634346
_cell_length_c 24.857859
_cell_angle_alpha 90.000000
_cell_angle_beta 157.129896
_cell_angle_gamma 90.000000
_cell_volume 1592.763104
_symmetry_space_group_name_H-M "P 2/M"
_symmetry_group_IT_number 10
_symmetry_cell_setting 'monoclinic'
loop_
_space_group_symop_operation_xyz
x,y,z
-x,y,-z
-x,-y,-z
x,-y,z
loop_
_atom_site_type_symbol
_atom_site_label
_atom_site_fract_x
_atom_site_fract_y
_atom_site_fract_z
Si Si1 0.396517 0.682667 0.090678
Si Si2 0.026921 0.317537 0.581025
Si Si3 0.326246 0.180656 0.629579
Si Si4 0.854428 0.820166 0.010613
Si Si5 0.576586 0.315963 0.109944
Si Si6 0.135598 0.675597 0.145606
Si Si7 0.418321 0.318805 0.265342
O O1 0.364731 0.500000 0.070350
O O2 0.562575 0.724922 0.247119
O O3 0.447073 0.739134 0.066591
O O4 0.210079 0.770899 0.975132
O O5 0.004007 0.500000 0.573666
O O6 0.881543 0.228826 0.514575
O O7 0.000000 0.272484 0.500000
O O8 0.220996 0.255333 0.737319
O O9 0.401546 0.223974 0.622962
O O10 0.351460 0.000000 0.657963
O O11 0.063629 0.779811 0.144713
O O12 0.818175 0.000000 0.974985
O O13 0.730929 0.715145 0.885287
O O14 0.581675 0.500000 0.112079
O O15 0.500000 0.247215 0.000000
O O16 0.145808 0.500000 0.173386
O O17 0.333411 0.729389 0.263603
O O18 0.000000 0.692571 0.000000
O O19 0.462301 0.500000 0.296081
#
# Coordination Sequence:
#
# PCOD8056962 Si02
#       7
#     4   4   4   4   4   4   4
#     4  10  17  29  46  63  87 118 154 191 233 275
#     4  10  18  32  51  70  90 119 155 190 233 278
#     4  11  20  28  42  66  93 119 153 191 229 270
#     4  10  17  23  35  57  84 115 150 186 225 270
#     4   9  18  32  51  72  91 115 154 199 235 271
#     4   8  14  24  36  52  77 113 151 184 222 270
#     4   9  16  26  39  55  81 116 152 187 227 271
#
# _framework density 17.579512000000001
#
# number of rings (size 3 to 8) (size 9 to 14) (size 15 to 20)
#    0.000    2.429    1.429    6.000    0.000    3.429 
#    0.000    0.000    0.000    3.857    0.000    0.000 
#    0.000    1.143    0.000   13.143    0.000    5.714 
#
# Total GULP energy -346961.892185 kJ/mol
# GULP energy per Si atom -12391.496149 kJ/mol
# Density = 1.753950 g / cm^3
# Si number density = 17.579512 Si / 1000 Ang^3
#
#
#
# Elastic Constant Matrix: (Units=GPa)
#
#
# Indices 1 2 3 4 5 6 
#
# 1 151.5903 36.0232 60.8903 0.0000 41.6131 0.0000
# 2 36.0232 47.8367 17.1792 0.0000 14.1560 0.0000
# 3 60.8903 17.1792 62.4368 0.0000 12.6138 0.0000
# 4 0.0000 0.0000 0.0000 7.0503 0.0000 5.6370
# 5 41.6131 14.1560 12.6138 0.0000 30.2463 0.0000
# 6 0.0000 0.0000 0.0000 5.6370 0.0000 10.2466
#
#
#
# Elastic Compliance Matrix: (Units=1/GPa)
#
#
# Indices 1 2 3 4 5 6 
#
# 1 0.016789 -0.003428 -0.012108 0.000000 -0.016444 0.000000
# 2 -0.003428 0.026349 -0.002586 0.000000 -0.006537 0.000000
# 3 -0.012108 -0.002586 0.027219 0.000000 0.006517 0.000000
# 4 0.000000 0.000000 0.000000 0.253218 0.000000 -0.139304
# 5 -0.016444 -0.006537 0.006517 0.000000 0.056028 0.000000
# 6 0.000000 0.000000 0.000000 -0.139304 0.000000 0.174230
#
#
# Mechanical properties :
#
#
# Convention : Reuss Voigt Hill
#
# Bulk Modulus (GPa) = 29.31401 54.44992 41.88196
# Shear Modulus (GPa) = 8.31328 19.36004 13.83666
#
# Velocity S-wave (km/s) = 2.17698 3.32216 2.80856
# Velocity P-wave (km/s) = 4.79899 6.76435 5.86458
#
# Compressibility (1/GPa) = 0.03411339
#
# Stress axis : x y z
#
# Youngs Moduli (GPa) = 59.56288 37.95181 36.73923
#
# Poissons Ratio (x) = 0.13012 0.44483
# Poissons Ratio (y) = 0.20421 0.09500
# Poissons Ratio (z) = 0.72117 0.09813
#
# Static dielectric constant tensor:
#      x y z
#    x 4.022490 0.000000 0.613120 
#    y 0.000000 3.051300 0.000000 
#    z 0.613120 0.000000 2.963180 
# 
# 
# High freq. dielectric constant tensor:
#      x y z
#    x 1.690500 0.000000 0.052480 
#    y 0.000000 1.669490 0.000000 
#    z 0.052480 0.000000 1.612590 
# 
# From -- ./inp_files/93548.got.cif
#   From: 2010.06.25/outbox.cif.g09.slc.cpg/sg10_47_cif.got.tgz:93548.got - 2010.06.27 22:07:45.
