data_PCOD8056757
_publ_section_title
;
Structure prediction by ZEFSAII (Michael W. Deem and Ramdas Pophale) SiO2 
 PCOD8056757
Probable space group: C C
;
_chemical_formula_sum "Si O2"
_cell_formula_units_Z 32
_cell_length_a 13.461616
_cell_length_b 10.960733
_cell_length_c 17.597698
_cell_angle_alpha 90.000000
_cell_angle_beta 148.357933
_cell_angle_gamma 90.000000
_cell_volume 1362.166326
_symmetry_space_group_name_H-M "C C"
_symmetry_group_IT_number 9
_symmetry_cell_setting 'monoclinic'
loop_
_space_group_symop_operation_xyz
x,y,z
x,-y,1/2+z
1/2+x,1/2+y,z
1/2+x,1/2-y,1/2+z
loop_
_atom_site_type_symbol
_atom_site_label
_atom_site_fract_x
_atom_site_fract_y
_atom_site_fract_z
Si Si1 0.363390 0.491832 0.947500
Si Si2 0.800454 0.226330 0.996780
Si Si3 0.002482 0.611403 0.503111
Si Si4 0.305113 0.259843 0.001181
Si Si5 0.804037 0.539997 0.218758
Si Si6 0.892644 0.268551 0.227423
Si Si7 0.636859 0.895207 0.668157
Si Si8 0.384151 0.286096 0.210199
O O1 0.273345 0.487867 0.804265
O O2 0.271578 0.587740 0.946567
O O3 0.319136 0.352156 0.940671
O O4 0.582898 0.525562 0.090356
O O5 0.905226 0.239276 0.145385
O O6 0.889983 0.300852 0.986097
O O7 0.595967 0.278689 0.886811
O O8 0.992728 0.472904 0.523421
O O9 0.224400 0.650105 0.657455
O O10 0.908230 0.606005 0.358467
O O11 0.490825 0.175617 0.126195
O O12 0.329932 0.340583 0.092742
O O13 0.104232 0.186027 0.873071
O O14 0.880970 0.411646 0.239620
O O15 0.844277 0.639747 0.179946
O O16 0.741898 0.194428 0.178103
#
# Coordination Sequence:
#
# PCOD8056757 Si02
#       8
#     4   4   4   4   4   4   4   4
#     4  12  26  49  77 106 155 197 251 316 377 450
#     4  12  27  48  75 110 150 195 249 309 381 447
#     4  12  29  48  75 111 151 198 255 312 377 453
#     4  12  27  48  76 111 151 201 254 310 375 445
#     4  12  26  49  77 106 155 197 251 316 377 450
#     4  12  27  48  75 110 150 195 249 309 381 447
#     4  12  29  48  75 111 151 198 255 312 377 453
#     4  12  27  48  76 111 151 201 254 310 375 445
#
# _framework density 23.491992
#
# number of rings (size 3 to 8) (size 9 to 14) (size 15 to 20)
#    0.000    0.000    5.000    3.750   10.500    1.000 
#    0.000    0.000    0.000    0.000    0.000    0.000 
#    0.000    0.000    0.000    0.000    0.000    0.000 
#
# Total GULP energy -198232.357357 kJ/mol
# GULP energy per Si atom -12389.522335 kJ/mol
# Density = 2.343852 g / cm^3
# Si number density = 23.491992 Si / 1000 Ang^3
#
#
#
# Elastic Constant Matrix: (Units=GPa)
#
#
# Indices 1 2 3 4 5 6 
#
# 1 107.2372 26.5470 43.3845 0.0004 8.2423 0.0002
# 2 26.5470 81.7826 26.6409 0.0005 -4.3232 0.0006
# 3 43.3845 26.6409 112.4562 0.0016 17.3248 0.0013
# 4 0.0004 0.0005 0.0016 36.2877 0.0007 -3.7667
# 5 8.2423 -4.3232 17.3248 0.0007 44.1127 0.0005
# 6 0.0002 0.0006 0.0013 -3.7667 0.0005 22.8981
#
#
#
# Elastic Compliance Matrix: (Units=1/GPa)
#
#
# Indices 1 2 3 4 5 6 
#
# 1 0.011533 -0.002593 -0.003687 0.000000 -0.000961 0.000000
# 2 -0.002593 0.014141 -0.002808 0.000000 0.002973 0.000000
# 3 -0.003687 -0.002808 0.011619 0.000000 -0.004150 -0.000001
# 4 0.000000 0.000000 0.000000 0.028036 0.000000 0.004612
# 5 -0.000961 0.002973 -0.004150 0.000000 0.024770 0.000000
# 6 0.000000 0.000000 -0.000001 0.004612 0.000000 0.044430
#
#
# Mechanical properties :
#
#
# Convention : Reuss Voigt Hill
#
# Bulk Modulus (GPa) = 52.30842 54.95786 53.63314
# Shear Modulus (GPa) = 31.43134 34.31992 32.87563
#
# Velocity S-wave (km/s) = 3.66178 3.82635 3.74497
# Velocity P-wave (km/s) = 6.33980 6.55487 6.44823
#
# Compressibility (1/GPa) = 0.01911738
#
# Stress axis : x y z
#
# Youngs Moduli (GPa) = 86.71144 70.71587 86.06570
#
# Poissons Ratio (x) = 0.18339 0.31730
# Poissons Ratio (y) = 0.22487 0.24164
# Poissons Ratio (z) = 0.31968 0.19854
#
# Static dielectric constant tensor:
#      x y z
#    x 4.241840 0.000000 0.147440 
#    y 0.000000 4.157790 0.000000 
#    z 0.147440 0.000000 4.272530 
# 
# 
# High freq. dielectric constant tensor:
#      x y z
#    x 1.948800 0.000000 0.005260 
#    y 0.000000 1.923270 0.000000 
#    z 0.005260 0.000000 1.945980 
# 
# From -- ./inp_files/30721.got.cif
#   From: 2010.06.25/outbox.cif.g09.slc.cpg/sg9_16_cif.got.tgz:30721.got - 2010.06.27 21:40:51.
