data_PCOD8056282
_publ_section_title
;
Structure prediction by ZEFSAII (Michael W. Deem and Ramdas Pophale) SiO2 
 PCOD8056282
Probable space group: C C
;
_chemical_formula_sum "Si O2"
_cell_formula_units_Z 28
_cell_length_a 4.995575
_cell_length_b 21.330514
_cell_length_c 11.740204
_cell_angle_alpha 90.000000
_cell_angle_beta 114.008124
_cell_angle_gamma 90.000000
_cell_volume 1142.786729
_symmetry_space_group_name_H-M "C C"
_symmetry_group_IT_number 9
_symmetry_cell_setting 'monoclinic'
loop_
_space_group_symop_operation_xyz
x,y,z
x,-y,1/2+z
1/2+x,1/2+y,z
1/2+x,1/2-y,1/2+z
loop_
_atom_site_type_symbol
_atom_site_label
_atom_site_fract_x
_atom_site_fract_y
_atom_site_fract_z
Si Si1 0.814610 0.268031 0.627320
Si Si2 0.042186 0.603683 0.465092
Si Si3 0.926238 0.205254 0.875396
Si Si4 0.137507 0.159567 0.578186
Si Si5 0.395674 0.875000 0.345661
Si Si6 0.643596 0.033518 0.057794
Si Si7 0.782980 0.590203 0.180801
O O1 0.514210 0.254009 0.502709
O O2 0.858095 0.342623 0.637643
O O3 0.768517 0.245879 0.749921
O O4 0.091687 0.231244 0.617249
O O5 0.331595 0.638305 0.468907
O O6 0.153035 0.540415 0.543149
O O7 0.892540 0.650428 0.530367
O O8 0.825544 0.590349 0.323618
O O9 0.241649 0.179385 0.891415
O O10 0.718902 0.147757 0.869010
O O11 0.207177 0.114175 0.698300
O O12 0.423540 0.938304 0.423694
O O13 0.513601 0.043631 0.161445
O O14 0.956763 0.066667 0.098801
#
# Coordination Sequence:
#
# PCOD8056282 Si02
#       7
#     4   4   4   4   4   4   4
#     4  11  24  46  73 107 152 194 250 314 383 462
#     4  12  28  48  74 113 154 196 257 325 381 458
#     4  11  24  41  71 104 149 192 249 306 380 456
#     4  11  26  47  74 111 149 198 247 319 387 459
#     4  11  23  45  68 103 136 196 248 296 375 451
#     4  12  26  46  75 101 149 196 258 312 376 458
#     4  12  27  49  75 111 145 206 253 316 390 454
#
# _framework density 24.501508999999999
#
# number of rings (size 3 to 8) (size 9 to 14) (size 15 to 20)
#    0.000    0.571    2.857    4.286    4.000    8.000 
#    0.000    0.000    0.000    0.000    0.000    0.000 
#    0.000    0.000    0.000    0.000    0.000    0.000 
#
# Total GULP energy -173581.896687 kJ/mol
# GULP energy per Si atom -12398.706906 kJ/mol
# Density = 2.444574 g / cm^3
# Si number density = 24.501509 Si / 1000 Ang^3
#
#
#
# Elastic Constant Matrix: (Units=GPa)
#
#
# Indices 1 2 3 4 5 6 
#
# 1 98.3935 36.9871 21.6442 0.0000 1.3436 0.0000
# 2 36.9871 111.0576 25.2648 0.0000 -3.2326 0.0000
# 3 21.6442 25.2648 145.2623 0.0000 1.6354 0.0000
# 4 0.0000 0.0000 0.0000 34.4974 0.0000 -3.9886
# 5 1.3436 -3.2326 1.6354 0.0000 32.5734 0.0000
# 6 0.0000 0.0000 0.0000 -3.9886 0.0000 26.2491
#
#
#
# Elastic Compliance Matrix: (Units=1/GPa)
#
#
# Indices 1 2 3 4 5 6 
#
# 1 0.011810 -0.003705 -0.001106 0.000000 -0.000799 0.000000
# 2 -0.003705 0.010571 -0.001301 0.000000 0.001267 0.000000
# 3 -0.001106 -0.001301 0.007280 0.000000 -0.000449 0.000000
# 4 0.000000 0.000000 0.000000 0.029506 0.000000 0.004484
# 5 -0.000799 0.001267 -0.000449 0.000000 0.030881 0.000000
# 6 0.000000 0.000000 0.000000 0.004484 0.000000 0.038778
#
#
# Mechanical properties :
#
#
# Convention : Reuss Voigt Hill
#
# Bulk Modulus (GPa) = 57.34803 58.05620 57.70211
# Shear Modulus (GPa) = 34.04528 36.71847 35.38187
#
# Velocity S-wave (km/s) = 3.73167 3.87540 3.80421
# Velocity P-wave (km/s) = 6.48258 6.61599 6.54963
#
# Compressibility (1/GPa) = 0.01743739
#
# Stress axis : x y z
#
# Youngs Moduli (GPa) = 84.67204 94.59807 137.35801
#
# Poissons Ratio (x) = 0.35048 0.15197
# Poissons Ratio (y) = 0.31370 0.17868
# Poissons Ratio (z) = 0.09368 0.12305
#
# Static dielectric constant tensor:
#      x y z
#    x 4.188030 0.000000 -0.061310 
#    y 0.000000 4.239400 0.000000 
#    z -0.061310 0.000000 4.793900 
# 
# 
# High freq. dielectric constant tensor:
#      x y z
#    x 1.969050 0.000000 -0.001350 
#    y 0.000000 1.967770 0.000000 
#    z -0.001350 0.000000 1.993290 
# 
# From -- ./inp_files/13421.got.cif
#   From: 2010.06.25/outbox.cif.g09.slc.cpg/sg9_7_cif.got.tgz:13421.got - 2010.06.27 21:40:51.
