data_PCOD8056722
_publ_section_title
;
Structure prediction by ZEFSAII (Michael W. Deem and Ramdas Pophale) SiO2 
 PCOD8056722
Probable space group: C C
;
_chemical_formula_sum "Si O2"
_cell_formula_units_Z 28
_cell_length_a 14.420462
_cell_length_b 12.057520
_cell_length_c 7.866400
_cell_angle_alpha 90.000000
_cell_angle_beta 116.329777
_cell_angle_gamma 90.000000
_cell_volume 1225.872459
_symmetry_space_group_name_H-M "C C"
_symmetry_group_IT_number 9
_symmetry_cell_setting 'monoclinic'
loop_
_space_group_symop_operation_xyz
x,y,z
x,-y,1/2+z
1/2+x,1/2+y,z
1/2+x,1/2-y,1/2+z
loop_
_atom_site_type_symbol
_atom_site_label
_atom_site_fract_x
_atom_site_fract_y
_atom_site_fract_z
Si Si1 0.126200 0.336139 0.286520
Si Si2 0.958514 0.510373 0.173785
Si Si3 0.414496 0.386676 0.807469
Si Si4 0.858571 0.111857 0.893407
Si Si5 0.012620 0.726377 0.374874
Si Si6 0.839941 0.356460 0.292746
Si Si7 0.610440 0.693431 0.610824
O O1 0.247432 0.342544 0.353365
O O2 0.109215 0.284756 0.459576
O O3 0.071330 0.456524 0.233142
O O4 0.080165 0.258220 0.100463
O O5 0.876692 0.410803 0.144877
O O6 0.971152 0.599314 0.337918
O O7 0.913153 0.582042 0.984573
O O8 0.343330 0.489475 0.804819
O O9 0.429906 0.389446 0.618374
O O10 0.359669 0.273898 0.821148
O O11 0.525403 0.398398 0.990082
O O12 0.914934 0.189874 0.800408
O O13 0.082794 0.748527 0.266360
O O14 0.717713 0.373298 0.218110
#
# Coordination Sequence:
#
# PCOD8056722 Si02
#       7
#     4   4   4   4   4   4   4
#     4  12  27  50  79 112 154 208 261 324 385 467
#     4  12  25  48  77 112 154 197 265 321 380 466
#     4  12  26  49  73 112 158 198 263 323 375 471
#     4  12  29  48  78 110 159 204 261 323 393 457
#     4  12  27  49  76 114 152 205 262 319 386 473
#     4  12  27  47  78 113 154 200 256 325 388 458
#     4  12  27  51  77 111 157 202 258 321 393 458
#
# _framework density 22.840873999999999
#
# number of rings (size 3 to 8) (size 9 to 14) (size 15 to 20)
#    0.000    0.000    7.143    0.857    6.000    2.286 
#    0.000    0.000    0.000    0.000    0.000    0.000 
#    0.000    0.000    0.000    0.000    0.000    0.000 
#
# Total GULP energy -173625.509708 kJ/mol
# GULP energy per Si atom -12401.822122 kJ/mol
# Density = 2.278889 g / cm^3
# Si number density = 22.840874 Si / 1000 Ang^3
#
#
#
# Elastic Constant Matrix: (Units=GPa)
#
#
# Indices 1 2 3 4 5 6 
#
# 1 135.2719 46.4373 44.0089 0.0000 -4.8106 0.0000
# 2 46.4373 105.0420 33.1080 0.0000 -9.1719 0.0000
# 3 44.0089 33.1080 98.3650 0.0000 -11.0311 0.0000
# 4 0.0000 0.0000 0.0000 34.3891 0.0000 -3.2393
# 5 -4.8106 -9.1719 -11.0311 0.0000 35.1727 0.0000
# 6 0.0000 0.0000 0.0000 -3.2393 0.0000 38.1106
#
#
#
# Elastic Compliance Matrix: (Units=1/GPa)
#
#
# Indices 1 2 3 4 5 6 
#
# 1 0.009540 -0.003246 -0.003239 0.000000 -0.000557 0.000000
# 2 -0.003246 0.011854 -0.002323 0.000000 0.001919 0.000000
# 3 -0.003239 -0.002323 0.012727 0.000000 0.002943 0.000000
# 4 0.000000 0.000000 0.000000 0.029314 0.000000 0.002492
# 5 -0.000557 0.001919 0.002943 0.000000 0.029778 0.000000
# 6 0.000000 0.000000 0.000000 0.002492 0.000000 0.026451
#
#
# Mechanical properties :
#
#
# Convention : Reuss Voigt Hill
#
# Bulk Modulus (GPa) = 60.57585 65.08748 62.83167
# Shear Modulus (GPa) = 35.01853 35.87612 35.44732
#
# Velocity S-wave (km/s) = 3.91980 3.96750 3.94372
# Velocity P-wave (km/s) = 6.86038 7.03889 6.95021
#
# Compressibility (1/GPa) = 0.01650823
#
# Stress axis : x y z
#
# Youngs Moduli (GPa) = 104.81644 84.35638 78.57337
#
# Poissons Ratio (x) = 0.27379 0.25446
# Poissons Ratio (y) = 0.34019 0.18250
# Poissons Ratio (z) = 0.33945 0.19594
#
# Static dielectric constant tensor:
#      x y z
#    x 4.161850 0.000000 0.009840 
#    y 0.000000 4.293550 0.000000 
#    z 0.009840 0.000000 4.347410 
# 
# 
# High freq. dielectric constant tensor:
#      x y z
#    x 1.902180 0.000000 -0.006510 
#    y 0.000000 1.900680 0.000000 
#    z -0.006510 0.000000 1.916130 
# 
# From -- ./inp_files/9038.got.cif
#   From: 2010.06.25/outbox.cif.g09.slc.cpg/sg9_5_cif.got.tgz:9038.got - 2010.06.27 21:40:51.
