data_PCOD8056086
_publ_section_title
;
Structure prediction by ZEFSAII (Michael W. Deem and Ramdas Pophale) SiO2 
 PCOD8056086
Probable space group: C C
;
_chemical_formula_sum "Si O2"
_cell_formula_units_Z 32
_cell_length_a 18.385137
_cell_length_b 16.772589
_cell_length_c 8.879589
_cell_angle_alpha 90.000000
_cell_angle_beta 148.578316
_cell_angle_gamma 90.000000
_cell_volume 1427.495492
_symmetry_space_group_name_H-M "C C"
_symmetry_group_IT_number 9
_symmetry_cell_setting 'monoclinic'
loop_
_space_group_symop_operation_xyz
x,y,z
x,-y,1/2+z
1/2+x,1/2+y,z
1/2+x,1/2-y,1/2+z
loop_
_atom_site_type_symbol
_atom_site_label
_atom_site_fract_x
_atom_site_fract_y
_atom_site_fract_z
Si Si1 0.523480 0.861361 0.838120
Si Si2 0.334160 0.971925 0.661347
Si Si3 0.722847 0.391730 0.753731
Si Si4 0.188519 0.667215 0.163433
Si Si5 0.928070 0.242949 0.106236
Si Si6 0.119686 0.461478 0.744056
Si Si7 0.451144 0.701232 0.804305
Si Si8 0.759845 0.881858 0.475570
O O1 0.379444 0.910195 0.609065
O O2 0.624256 0.898282 0.888999
O O3 0.487715 0.769217 0.743538
O O4 0.609145 0.859854 0.144560
O O5 0.235715 0.929702 0.610327
O O6 0.258140 0.046807 0.450237
O O7 0.472584 0.994292 0.999080
O O8 0.559679 0.370912 0.482788
O O9 0.813911 0.311531 0.936868
O O10 0.113146 0.583234 0.070381
O O11 0.293492 0.676210 0.489083
O O12 0.276260 0.659352 0.166245
O O13 0.072986 0.736286 0.946400
O O14 0.880842 0.155950 0.085297
O O15 0.953206 0.237648 0.974047
O O16 0.254520 0.521185 0.984221
#
# Coordination Sequence:
#
# PCOD8056086 Si02
#       8
#     4   4   4   4   4   4   4   4
#     4  11  21  42  72 105 140 185 242 300 351 438
#     4  11  22  42  75 101 136 189 245 292 362 434
#     4  12  24  48  72 104 143 188 246 308 356 438
#     4  12  26  44  71 109 144 196 245 298 374 434
#     4  12  23  48  74 103 147 191 244 306 362 435
#     4  11  23  41  74 108 138 192 249 293 359 442
#     4  12  28  45  71 109 149 188 244 304 372 431
#     4  11  23  44  71 103 141 183 245 303 350 428
#
# _framework density 22.416884
#
# number of rings (size 3 to 8) (size 9 to 14) (size 15 to 20)
#    0.000    0.500    6.250    3.000    1.750    1.000 
#    4.500    0.000    0.000    0.000    0.000    0.000 
#    0.000    0.000    0.000    0.000    0.000    0.000 
#
# Total GULP energy -198333.457201 kJ/mol
# GULP energy per Si atom -12395.841075 kJ/mol
# Density = 2.236586 g / cm^3
# Si number density = 22.416884 Si / 1000 Ang^3
#
#
#
# Elastic Constant Matrix: (Units=GPa)
#
#
# Indices 1 2 3 4 5 6 
#
# 1 99.4910 54.2111 40.0531 0.0000 -5.0031 0.0000
# 2 54.2111 114.2248 39.4712 0.0000 0.1137 0.0000
# 3 40.0531 39.4712 110.5417 0.0000 14.0567 0.0000
# 4 0.0000 0.0000 0.0000 29.8575 0.0000 -2.6133
# 5 -5.0031 0.1137 14.0567 0.0000 25.9726 0.0000
# 6 0.0000 0.0000 0.0000 -2.6133 0.0000 50.4509
#
#
#
# Elastic Compliance Matrix: (Units=1/GPa)
#
#
# Indices 1 2 3 4 5 6 
#
# 1 0.015082 -0.005760 -0.004060 0.000000 0.005128 0.000000
# 2 -0.005760 0.012287 -0.002311 0.000000 0.000088 0.000000
# 3 -0.004060 -0.002311 0.012287 0.000000 -0.007422 0.000000
# 4 0.000000 0.000000 0.000000 0.033645 0.000000 0.001743
# 5 0.005128 0.000088 -0.007422 0.000000 0.043506 0.000000
# 6 0.000000 0.000000 0.000000 0.001743 0.000000 0.019912
#
#
# Mechanical properties :
#
#
# Convention : Reuss Voigt Hill
#
# Bulk Modulus (GPa) = 64.96646 65.74760 65.35703
# Shear Modulus (GPa) = 30.10009 33.95767 32.02888
#
# Velocity S-wave (km/s) = 3.66832 3.89630 3.78403
# Velocity P-wave (km/s) = 6.85464 7.04519 6.95057
#
# Compressibility (1/GPa) = 0.01539256
#
# Stress axis : x y z
#
# Youngs Moduli (GPa) = 66.30375 81.38662 81.38973
#
# Poissons Ratio (x) = 0.46879 0.33045
# Poissons Ratio (y) = 0.38191 0.18813
# Poissons Ratio (z) = 0.26920 0.18812
#
# Static dielectric constant tensor:
#      x y z
#    x 3.896380 0.000000 -0.052490 
#    y 0.000000 4.373550 0.000000 
#    z -0.052490 0.000000 3.704120 
# 
# 
# High freq. dielectric constant tensor:
#      x y z
#    x 1.886210 0.000000 -0.011200 
#    y 0.000000 1.891410 0.000000 
#    z -0.011200 0.000000 1.860620 
# 
# From -- ./inp_files/11839.got.cif
#   From: 2010.06.25/outbox.cif.g09.slc.cpg/sg9_6_cif.got.tgz:11839.got - 2010.06.27 21:40:51.
