data_PCOD8056699
_publ_section_title
;
Structure prediction by ZEFSAII (Michael W. Deem and Ramdas Pophale) SiO2 
 PCOD8056699
Probable space group: C C
;
_chemical_formula_sum "Si O2"
_cell_formula_units_Z 32
_cell_length_a 16.531077
_cell_length_b 17.449937
_cell_length_c 9.602000
_cell_angle_alpha 90.000000
_cell_angle_beta 149.187050
_cell_angle_gamma 90.000000
_cell_volume 1418.821151
_symmetry_space_group_name_H-M "C C"
_symmetry_group_IT_number 9
_symmetry_cell_setting 'monoclinic'
loop_
_space_group_symop_operation_xyz
x,y,z
x,-y,1/2+z
1/2+x,1/2+y,z
1/2+x,1/2-y,1/2+z
loop_
_atom_site_type_symbol
_atom_site_label
_atom_site_fract_x
_atom_site_fract_y
_atom_site_fract_z
Si Si1 0.133650 0.029659 0.442900
Si Si2 0.538513 0.258668 0.179395
Si Si3 0.621689 0.303892 0.800204
Si Si4 0.477399 0.428570 0.995703
Si Si5 0.463143 0.053281 0.393367
Si Si6 0.615558 0.958561 0.399688
Si Si7 0.477874 0.194700 0.805138
Si Si8 0.391036 0.770942 0.746268
O O1 0.112957 0.107667 0.327213
O O2 0.090604 0.039506 0.541267
O O3 0.310301 0.998464 0.693623
O O4 0.016525 0.968815 0.199405
O O5 0.506953 0.339013 0.057521
O O6 0.413516 0.242085 0.115393
O O7 0.708537 0.252454 0.504132
O O8 0.515521 0.195435 0.025342
O O9 0.588630 0.253960 0.887969
O O10 0.497530 0.286653 0.494023
O O11 0.796418 0.283111 0.004583
O O12 0.298036 0.444120 0.693583
O O13 0.591045 0.032910 0.699618
O O14 0.422741 0.142501 0.339083
O O15 0.550708 0.035209 0.377859
O O16 0.508615 0.890468 0.299979
#
# Coordination Sequence:
#
# PCOD8056699 Si02
#       8
#     4   4   4   4   4   4   4   4
#     4  12  27  48  76 105 152 195 244 304 381 444
#     4  12  27  46  72 107 147 189 247 308 367 437
#     4  12  26  47  74 105 143 198 243 302 368 445
#     4  12  27  47  72 107 147 193 246 306 371 443
#     4  12  27  49  74 107 148 197 245 306 372 446
#     4  12  27  46  72 106 146 192 246 304 372 443
#     4  12  25  46  72 102 144 192 244 298 371 440
#     4  12  28  47  74 109 149 190 251 308 368 438
#
# _framework density 22.553936
#
# number of rings (size 3 to 8) (size 9 to 14) (size 15 to 20)
#    0.000    0.000    5.000    4.500    3.500    3.000 
#    0.000    0.000    0.000    0.000    0.000    0.000 
#    0.000    0.000    0.000    0.000    0.000    0.000 
#
# Total GULP energy -198538.051201 kJ/mol
# GULP energy per Si atom -12408.628200 kJ/mol
# Density = 2.250260 g / cm^3
# Si number density = 22.553936 Si / 1000 Ang^3
#
#
#
# Elastic Constant Matrix: (Units=GPa)
#
#
# Indices 1 2 3 4 5 6 
#
# 1 77.4317 0.4964 -4.4462 0.0000 -2.9397 0.0000
# 2 0.4964 59.0017 0.6192 0.0000 3.0358 0.0000
# 3 -4.4462 0.6192 113.4086 0.0000 12.7398 0.0000
# 4 0.0000 0.0000 0.0000 29.5427 0.0000 -12.2973
# 5 -2.9397 3.0358 12.7398 0.0000 47.1737 0.0000
# 6 0.0000 0.0000 0.0000 -12.2973 0.0000 33.4862
#
#
#
# Elastic Compliance Matrix: (Units=1/GPa)
#
#
# Indices 1 2 3 4 5 6 
#
# 1 0.012967 -0.000150 0.000430 0.000000 0.000701 0.000000
# 2 -0.000150 0.017007 0.000026 0.000000 -0.001111 0.000000
# 3 0.000430 0.000026 0.009108 0.000000 -0.002435 0.000000
# 4 0.000000 0.000000 0.000000 0.039957 0.000000 0.014674
# 5 0.000701 -0.001111 -0.002435 0.000000 0.021971 0.000000
# 6 0.000000 0.000000 0.000000 0.014674 0.000000 0.035252
#
#
# Mechanical properties :
#
#
# Convention : Reuss Voigt Hill
#
# Bulk Modulus (GPa) = 25.19203 27.02008 26.10605
# Shear Modulus (GPa) = 33.58416 38.91869 36.25142
#
# Velocity S-wave (km/s) = 3.86302 4.15852 4.01349
# Velocity P-wave (km/s) = 5.57594 5.92148 5.75131
#
# Compressibility (1/GPa) = 0.03969510
#
# Stress axis : x y z
#
# Youngs Moduli (GPa) = 77.11936 58.80000 109.79489
#
# Poissons Ratio (x) = 0.00880 -0.04725
# Poissons Ratio (y) = 0.01155 -0.00286
# Poissons Ratio (z) = -0.03319 -0.00153
#
# Static dielectric constant tensor:
#      x y z
#    x 4.226230 0.000000 -0.050390 
#    y 0.000000 4.139510 0.000000 
#    z -0.050390 0.000000 4.171390 
# 
# 
# High freq. dielectric constant tensor:
#      x y z
#    x 1.901500 0.000000 -0.001410 
#    y 0.000000 1.893630 0.000000 
#    z -0.001410 0.000000 1.905430 
# 
# From -- ./inp_files/10108.got.cif
#   From: 2010.06.25/outbox.cif.g09.slc.cpg/sg9_6_cif.got.tgz:10108.got - 2010.06.27 21:40:51.
