data_PCOD8056057
_publ_section_title
;
Structure prediction by ZEFSAII (Michael W. Deem and Ramdas Pophale) SiO2 
 PCOD8056057
Probable space group: C C
;
_chemical_formula_sum "Si O2"
_cell_formula_units_Z 28
_cell_length_a 13.939433
_cell_length_b 15.422743
_cell_length_c 8.985726
_cell_angle_alpha 90.000000
_cell_angle_beta 138.738095
_cell_angle_gamma 90.000000
_cell_volume 1274.019372
_symmetry_space_group_name_H-M "C C"
_symmetry_group_IT_number 9
_symmetry_cell_setting 'monoclinic'
loop_
_space_group_symop_operation_xyz
x,y,z
x,-y,1/2+z
1/2+x,1/2+y,z
1/2+x,1/2-y,1/2+z
loop_
_atom_site_type_symbol
_atom_site_label
_atom_site_fract_x
_atom_site_fract_y
_atom_site_fract_z
Si Si1 0.149840 0.429436 0.829100
Si Si2 0.215461 0.949990 0.629516
Si Si3 0.956017 0.322891 0.795787
Si Si4 0.405215 0.361210 0.297192
Si Si5 0.599215 0.096391 0.936301
Si Si6 0.783526 0.602381 0.509408
Si Si7 0.706775 0.207553 0.820618
O O1 0.074474 0.515908 0.798101
O O2 0.168215 0.430917 0.673425
O O3 0.051707 0.348917 0.765482
O O4 0.305467 0.427980 0.091188
O O5 0.318067 0.886070 0.652693
O O6 0.295842 0.962119 0.881713
O O7 0.060623 0.906628 0.485130
O O8 0.196326 0.044951 0.531027
O O9 0.903337 0.226360 0.696996
O O10 0.056495 0.317358 0.061638
O O11 0.342782 0.332614 0.387391
O O12 0.435013 0.131939 0.761517
O O13 0.705866 0.164936 0.983067
O O14 0.709569 0.689485 0.355509
#
# Coordination Sequence:
#
# PCOD8056057 Si02
#       7
#     4   4   4   4   4   4   4
#     4  11  25  42  72  99 140 191 240 296 354 437
#     4  12  24  43  72 105 144 180 239 299 363 423
#     4  11  20  45  74  99 136 191 236 283 362 440
#     4  11  23  44  71 105 138 188 240 295 359 427
#     4  12  24  46  70 102 138 192 247 291 359 439
#     4  12  25  43  72 109 138 191 236 306 352 437
#     4  11  23  45  77  97 140 189 248 286 365 433
#
# _framework density 21.977685999999999
#
# number of rings (size 3 to 8) (size 9 to 14) (size 15 to 20)
#    0.000    0.571    5.714    3.429    0.000    3.429 
#    2.571    0.000    0.000    0.000    0.000    0.000 
#    0.000    0.000    0.000    0.000    0.000    0.000 
#
# Total GULP energy -173506.801607 kJ/mol
# GULP energy per Si atom -12393.342972 kJ/mol
# Density = 2.192766 g / cm^3
# Si number density = 21.977686 Si / 1000 Ang^3
#
#
#
# Elastic Constant Matrix: (Units=GPa)
#
#
# Indices 1 2 3 4 5 6 
#
# 1 122.2600 58.3916 52.9594 0.0000 -2.1824 0.0000
# 2 58.3916 99.3175 35.9870 0.0000 -8.5038 0.0000
# 3 52.9594 35.9870 87.2684 0.0000 -3.0676 0.0000
# 4 0.0000 0.0000 0.0000 32.9024 0.0000 -5.6307
# 5 -2.1824 -8.5038 -3.0676 0.0000 49.4200 0.0000
# 6 0.0000 0.0000 0.0000 -5.6307 0.0000 42.4600
#
#
#
# Elastic Compliance Matrix: (Units=1/GPa)
#
#
# Indices 1 2 3 4 5 6 
#
# 1 0.013487 -0.005903 -0.005778 0.000000 -0.000779 0.000000
# 2 -0.005903 0.014571 -0.002353 0.000000 0.002101 0.000000
# 3 -0.005778 -0.002353 0.015947 0.000000 0.000330 0.000000
# 4 0.000000 0.000000 0.000000 0.031099 0.000000 0.004124
# 5 -0.000779 0.002101 0.000330 0.000000 0.020582 0.000000
# 6 0.000000 0.000000 0.000000 0.004124 0.000000 0.024098
#
#
# Mechanical properties :
#
#
# Convention : Reuss Voigt Hill
#
# Bulk Modulus (GPa) = 62.74077 67.05800 64.89938
# Shear Modulus (GPa) = 32.64423 35.72367 34.18395
#
# Velocity S-wave (km/s) = 3.85819 4.03606 3.94813
# Velocity P-wave (km/s) = 6.96110 7.23172 7.09770
#
# Compressibility (1/GPa) = 0.01593860
#
# Stress axis : x y z
#
# Youngs Moduli (GPa) = 74.14284 68.62718 62.70621
#
# Poissons Ratio (x) = 0.40508 0.36233
# Poissons Ratio (y) = 0.43764 0.14755
# Poissons Ratio (z) = 0.42842 0.16148
#
# Static dielectric constant tensor:
#      x y z
#    x 4.026980 0.000000 0.002810 
#    y 0.000000 4.048290 0.000000 
#    z 0.002810 0.000000 3.799360 
# 
# 
# High freq. dielectric constant tensor:
#      x y z
#    x 1.861880 0.000000 0.007670 
#    y 0.000000 1.866160 0.000000 
#    z 0.007670 0.000000 1.855990 
# 
# From -- ./inp_files/7533.got.cif
#   From: 2010.06.25/outbox.cif.g09.slc.cpg/sg9_4_cif.got.tgz:7533.got - 2010.06.27 21:40:51.
