data_PCOD8056338
_publ_section_title
;
Structure prediction by ZEFSAII (Michael W. Deem and Ramdas Pophale) SiO2 
 PCOD8056338
Probable space group: C C
;
_chemical_formula_sum "Si O2"
_cell_formula_units_Z 32
_cell_length_a 5.341051
_cell_length_b 23.239689
_cell_length_c 10.978568
_cell_angle_alpha 90.000000
_cell_angle_beta 75.069442
_cell_angle_gamma 90.000000
_cell_volume 1316.701127
_symmetry_space_group_name_H-M "C C"
_symmetry_group_IT_number 9
_symmetry_cell_setting 'monoclinic'
loop_
_space_group_symop_operation_xyz
x,y,z
x,-y,1/2+z
1/2+x,1/2+y,z
1/2+x,1/2-y,1/2+z
loop_
_atom_site_type_symbol
_atom_site_label
_atom_site_fract_x
_atom_site_fract_y
_atom_site_fract_z
Si Si1 0.488050 0.333717 0.974910
Si Si2 0.871799 0.514198 0.049803
Si Si3 0.045063 0.089656 0.245772
Si Si4 0.100473 0.708244 0.925569
Si Si5 0.004789 0.821120 0.557844
Si Si6 0.431016 0.480097 0.394232
Si Si7 0.681814 0.401745 0.170001
Si Si8 0.514513 0.202926 0.664866
O O1 0.586110 0.358452 0.834724
O O2 0.636373 0.273284 0.973170
O O3 0.529933 0.382213 0.069925
O O4 0.183914 0.317881 0.026797
O O5 0.802697 0.556191 0.171146
O O6 0.891199 0.449361 0.100140
O O7 0.656589 0.516630 0.968296
O O8 0.152520 0.536793 0.980032
O O9 0.932937 0.120523 0.139405
O O10 0.872546 0.040645 0.331943
O O11 0.166639 0.707097 0.773854
O O12 0.329842 0.672184 0.959351
O O13 0.812931 0.683365 0.990835
O O14 0.905701 0.766293 0.648813
O O15 0.490453 0.430318 0.290517
O O16 0.798072 0.344812 0.215965
#
# Coordination Sequence:
#
# PCOD8056338 Si02
#       8
#     4   4   4   4   4   4   4   4
#     4  11  23  47  71 108 149 201 239 299 376 444
#     4  11  27  49  74 110 143 191 253 308 371 433
#     4  11  25  49  76 108 154 193 244 309 372 443
#     4  11  26  46  71 108 151 192 252 295 363 442
#     4  11  26  46  72 110 146 198 245 304 368 435
#     4  11  27  48  76 108 143 193 252 307 373 437
#     4  11  25  44  77 104 149 194 247 309 370 438
#     4  11  25  45  75 106 149 198 250 301 367 444
#
# _framework density 24.303160999999999
#
# number of rings (size 3 to 8) (size 9 to 14) (size 15 to 20)
#    0.000    1.000    3.750    0.750    5.250    5.000 
#    4.500    0.000    0.000    0.000    0.000    0.000 
#    0.000    0.000    0.000    0.000    0.000    0.000 
#
# Total GULP energy -198281.630085 kJ/mol
# GULP energy per Si atom -12392.601880 kJ/mol
# Density = 2.424785 g / cm^3
# Si number density = 24.303161 Si / 1000 Ang^3
#
#
#
# Elastic Constant Matrix: (Units=GPa)
#
#
# Indices 1 2 3 4 5 6 
#
# 1 110.8136 19.0831 29.9402 0.0000 -2.9416 0.0000
# 2 19.0831 100.1820 25.7189 0.0000 -10.3709 0.0000
# 3 29.9402 25.7189 103.1636 0.0000 -9.7194 0.0000
# 4 0.0000 0.0000 0.0000 50.0648 0.0000 10.6490
# 5 -2.9416 -10.3709 -9.7194 0.0000 29.6146 0.0000
# 6 0.0000 0.0000 0.0000 10.6490 0.0000 20.2579
#
#
#
# Elastic Compliance Matrix: (Units=1/GPa)
#
#
# Indices 1 2 3 4 5 6 
#
# 1 0.009935 -0.001257 -0.002599 0.000000 -0.000306 0.000000
# 2 -0.001257 0.011080 -0.002109 0.000000 0.003063 0.000000
# 3 -0.002599 -0.002109 0.011227 0.000000 0.002688 0.000000
# 4 0.000000 0.000000 0.000000 0.022489 0.000000 -0.011822
# 5 -0.000306 0.003063 0.002688 0.000000 0.035692 0.000000
# 6 0.000000 0.000000 0.000000 -0.011822 0.000000 0.055578
#
#
# Mechanical properties :
#
#
# Convention : Reuss Voigt Hill
#
# Bulk Modulus (GPa) = 49.23228 51.51598 50.37413
# Shear Modulus (GPa) = 30.35849 35.94859 33.15354
#
# Velocity S-wave (km/s) = 3.53818 3.85017 3.69747
# Velocity P-wave (km/s) = 6.08220 6.40378 6.24506
#
# Compressibility (1/GPa) = 0.02031187
#
# Stress axis : x y z
#
# Youngs Moduli (GPa) = 100.65798 90.25481 89.07481
#
# Poissons Ratio (x) = 0.11345 0.23148
# Poissons Ratio (y) = 0.12652 0.18784
# Poissons Ratio (z) = 0.26158 0.19033
#
# Static dielectric constant tensor:
#      x y z
#    x 3.850060 0.000000 0.079940 
#    y 0.000000 4.800580 0.000000 
#    z 0.079940 0.000000 4.643020 
# 
# 
# High freq. dielectric constant tensor:
#      x y z
#    x 1.928550 0.000000 0.002200 
#    y 0.000000 1.993580 0.000000 
#    z 0.002200 0.000000 1.981580 
# 
# From -- ./inp_files/13802.got.cif
#   From: 2010.06.25/outbox.cif.g09.slc.cpg/sg9_7_cif.got.tgz:13802.got - 2010.06.27 21:40:51.
