data_PCOD8056263
_publ_section_title
;
Structure prediction by ZEFSAII (Michael W. Deem and Ramdas Pophale) SiO2 
 PCOD8056263
Probable space group: C C
;
_chemical_formula_sum "Si O2"
_cell_formula_units_Z 32
_cell_length_a 8.228946
_cell_length_b 22.756564
_cell_length_c 12.049336
_cell_angle_alpha 90.000000
_cell_angle_beta 37.505331
_cell_angle_gamma 90.000000
_cell_volume 1373.769279
_symmetry_space_group_name_H-M "C C"
_symmetry_group_IT_number 9
_symmetry_cell_setting 'monoclinic'
loop_
_space_group_symop_operation_xyz
x,y,z
x,-y,1/2+z
1/2+x,1/2+y,z
1/2+x,1/2-y,1/2+z
loop_
_atom_site_type_symbol
_atom_site_label
_atom_site_fract_x
_atom_site_fract_y
_atom_site_fract_z
Si Si1 0.007780 0.895459 0.491100
Si Si2 0.008882 0.322627 0.682598
Si Si3 0.680636 0.372454 0.036969
Si Si4 0.218525 0.706351 0.841039
Si Si5 0.390751 0.203823 0.809499
Si Si6 0.250503 0.030834 0.655985
Si Si7 0.125201 0.679735 0.454311
Si Si8 0.349237 0.558800 0.298613
O O1 0.226883 0.854422 0.431725
O O2 0.136036 0.929941 0.318266
O O3 0.792337 0.846532 0.570542
O O4 0.893163 0.943402 0.640565
O O5 0.021203 0.317526 0.543369
O O6 0.913395 0.258414 0.780176
O O7 0.790747 0.368122 0.851051
O O8 0.384260 0.347826 0.203052
O O9 0.673887 0.439774 0.079226
O O10 0.865055 0.337496 0.025048
O O11 0.040325 0.729194 0.836251
O O12 0.223109 0.258584 0.851429
O O13 0.584876 0.185171 0.606687
O O14 0.573802 0.025562 0.485463
O O15 0.098057 0.968495 0.732537
O O16 0.342871 0.628042 0.327225
#
# Coordination Sequence:
#
# PCOD8056263 Si02
#       8
#     4   4   4   4   4   4   4   4
#     4  12  24  48  78 101 145 201 252 295 374 445
#     4  12  23  42  68 101 146 194 240 293 366 443
#     4  11  23  44  69 100 136 193 245 290 357 445
#     4  12  25  40  64 108 155 185 236 301 367 439
#     4  12  25  43  70 112 152 189 235 308 373 441
#     4  11  25  51  74 107 140 193 253 311 363 434
#     4  11  23  44  71 105 148 192 238 299 370 455
#     4  11  26  50  74 110 142 189 255 307 376 428
#
# _framework density 23.293575000000001
#
# number of rings (size 3 to 8) (size 9 to 14) (size 15 to 20)
#    0.000    0.500    7.500    2.250    1.750    2.000 
#    4.500    0.000    0.000    0.000    0.000    0.000 
#    0.000    0.000    0.000    0.000    0.000    0.000 
#
# Total GULP energy -198290.141142 kJ/mol
# GULP energy per Si atom -12393.133821 kJ/mol
# Density = 2.324056 g / cm^3
# Si number density = 23.293575 Si / 1000 Ang^3
#
#
#
# Elastic Constant Matrix: (Units=GPa)
#
#
# Indices 1 2 3 4 5 6 
#
# 1 69.5061 29.3986 32.9631 0.0000 9.8688 0.0000
# 2 29.3986 80.8459 35.9118 0.0000 -4.8026 0.0000
# 3 32.9631 35.9118 171.9510 0.0000 18.9938 0.0000
# 4 0.0000 0.0000 0.0000 30.2843 0.0000 -6.3649
# 5 9.8688 -4.8026 18.9938 0.0000 29.1269 0.0000
# 6 0.0000 0.0000 0.0000 -6.3649 0.0000 28.1239
#
#
#
# Elastic Compliance Matrix: (Units=1/GPa)
#
#
# Indices 1 2 3 4 5 6 
#
# 1 0.018792 -0.006540 -0.001524 0.000000 -0.006452 0.000000
# 2 -0.006540 0.016460 -0.002940 0.000000 0.006847 0.000000
# 3 -0.001524 -0.002940 0.007240 0.000000 -0.004690 0.000000
# 4 0.000000 0.000000 0.000000 0.034669 0.000000 0.007846
# 5 -0.006452 0.006847 -0.004690 0.000000 0.040706 0.000000
# 6 0.000000 0.000000 0.000000 0.007846 0.000000 0.037333
#
#
# Mechanical properties :
#
#
# Convention : Reuss Voigt Hill
#
# Bulk Modulus (GPa) = 48.81891 57.65000 53.23445
# Shear Modulus (GPa) = 27.16855 32.44232 29.80544
#
# Velocity S-wave (km/s) = 3.41890 3.73602 3.58097
# Velocity P-wave (km/s) = 6.04886 6.58889 6.32464
#
# Compressibility (1/GPa) = 0.02048387
#
# Stress axis : x y z
#
# Youngs Moduli (GPa) = 53.21375 60.75247 138.12402
#
# Poissons Ratio (x) = 0.39731 0.21050
# Poissons Ratio (y) = 0.34801 0.40614
# Poissons Ratio (z) = 0.08110 0.17863
#
# Static dielectric constant tensor:
#      x y z
#    x 3.789810 0.000000 0.033910 
#    y 0.000000 4.184550 0.000000 
#    z 0.033910 0.000000 4.650800 
# 
# 
# High freq. dielectric constant tensor:
#      x y z
#    x 1.894690 0.000000 0.002420 
#    y 0.000000 1.906170 0.000000 
#    z 0.002420 0.000000 1.950170 
# 
# From -- ./inp_files/15629.got.cif
#   From: 2010.06.25/outbox.cif.g09.slc.cpg/sg9_8_cif.got.tgz:15629.got - 2010.06.27 21:40:51.
