data_PCOD8056947
_publ_section_title
;
Structure prediction by ZEFSAII (Michael W. Deem and Ramdas Pophale) SiO2 
 PCOD8056947
Probable space group: P 2/M
;
_chemical_formula_sum "Si O2"
_cell_formula_units_Z 32
_cell_length_a 18.954674
_cell_length_b 9.132785
_cell_length_c 22.920779
_cell_angle_alpha 90.000000
_cell_angle_beta 29.371360
_cell_angle_gamma 90.000000
_cell_volume 1946.075954
_symmetry_space_group_name_H-M "P 2/M"
_symmetry_group_IT_number 10
_symmetry_cell_setting 'monoclinic'
loop_
_space_group_symop_operation_xyz
x,y,z
-x,y,-z
-x,-y,-z
x,-y,z
loop_
_atom_site_type_symbol
_atom_site_label
_atom_site_fract_x
_atom_site_fract_y
_atom_site_fract_z
Si Si1 0.893988 0.668601 0.954463
Si Si2 0.527227 0.669363 0.733701
Si Si3 0.307581 0.664801 0.997424
Si Si4 0.317169 0.171960 0.809313
Si Si5 0.817061 0.326974 0.578992
Si Si6 0.653950 0.827541 0.912950
Si Si7 0.135147 0.326883 0.325893
Si Si8 0.133886 0.662491 0.859360
O O1 0.855557 0.500000 0.001195
O O2 0.063659 0.699013 0.845937
O O3 0.851421 0.688034 0.917079
O O4 0.800991 0.782529 0.058379
O O5 0.536461 0.500000 0.709304
O O6 0.425488 0.691891 0.862734
O O7 0.468937 0.757147 0.719387
O O8 0.683956 0.734913 0.637318
O O9 0.321348 0.500000 0.012818
O O10 0.331325 0.781356 0.030691
O O11 0.262681 0.228509 0.784950
O O12 0.335960 0.000000 0.792820
O O13 0.804593 0.500000 0.592339
O O14 0.809616 0.269253 0.651028
O O15 0.967091 0.283425 0.440485
O O16 0.779908 0.753486 0.785846
O O17 0.670898 0.000000 0.895857
O O18 0.500000 0.774464 0.000000
O O19 0.157120 0.500000 0.303335
O O20 0.200282 0.500000 0.811568
O O21 0.000000 0.673684 0.000000
#
# Coordination Sequence:
#
# PCOD8056947 Si02
#       8
#     4   4   4   4   4   4   4   4
#     4   8  15  27  40  54  75 106 143 179 216 255
#     4   9  16  28  44  62  86 114 143 175 216 259
#     4   9  17  29  46  65  83 110 148 183 213 251
#     4  10  17  22  32  55  84 112 143 174 204 245
#     4   8  15  29  51  72  85 103 138 183 221 255
#     4  11  23  34  43  61  91 121 146 174 210 252
#     4   9  17  32  52  70  85 105 140 182 220 256
#     4   8  13  23  37  51  73 107 141 173 211 252
#
# _framework density 16.443345000000001
#
# number of rings (size 3 to 8) (size 9 to 14) (size 15 to 20)
#    0.000    3.000    0.000    4.500    0.000    6.250 
#    0.000    2.500    0.000    0.000    0.000    0.000 
#    0.000    1.000    0.000   11.500    0.000    6.625 
#
# Total GULP energy -396507.820360 kJ/mol
# GULP energy per Si atom -12390.869386 kJ/mol
# Density = 1.640592 g / cm^3
# Si number density = 16.443345 Si / 1000 Ang^3
#
#
#
# Elastic Constant Matrix: (Units=GPa)
#
#
# Indices 1 2 3 4 5 6 
#
# 1 127.8670 45.8188 45.7050 0.0000 -39.6538 0.0000
# 2 45.8188 68.9911 27.8010 0.0000 -15.5109 0.0000
# 3 45.7050 27.8010 55.2081 0.0000 -19.1028 0.0000
# 4 0.0000 0.0000 0.0000 11.1403 0.0000 -4.3055
# 5 -39.6538 -15.5109 -19.1028 0.0000 28.5846 0.0000
# 6 0.0000 0.0000 0.0000 -4.3055 0.0000 17.1976
#
#
#
# Elastic Compliance Matrix: (Units=1/GPa)
#
#
# Indices 1 2 3 4 5 6 
#
# 1 0.016914 -0.005197 -0.005518 0.000000 0.016955 0.000000
# 2 -0.005197 0.020319 -0.005996 0.000000 -0.000190 0.000000
# 3 -0.005518 -0.005996 0.028522 0.000000 0.008152 0.000000
# 4 0.000000 0.000000 0.000000 0.099380 0.000000 0.024880
# 5 0.016955 -0.000190 0.008152 0.000000 0.063850 0.000000
# 6 0.000000 0.000000 0.000000 0.024880 0.000000 0.064376
#
#
# Mechanical properties :
#
#
# Convention : Reuss Voigt Hill
#
# Bulk Modulus (GPa) = 30.92859 54.52397 42.72628
# Shear Modulus (GPa) = 14.81218 20.23392 17.52305
#
# Velocity S-wave (km/s) = 3.00459 3.51169 3.26799
# Velocity P-wave (km/s) = 5.55759 7.04793 6.34665
#
# Compressibility (1/GPa) = 0.03233255
#
# Stress axis : x y z
#
# Youngs Moduli (GPa) = 59.12436 49.21425 35.06114
#
# Poissons Ratio (x) = 0.25577 0.19348
# Poissons Ratio (y) = 0.30727 0.21021
# Poissons Ratio (z) = 0.32627 0.29507
#
# Static dielectric constant tensor:
#      x y z
#    x 3.640620 0.000000 -0.522360 
#    y 0.000000 2.878450 0.000000 
#    z -0.522360 0.000000 2.839050 
# 
# 
# High freq. dielectric constant tensor:
#      x y z
#    x 1.643630 0.000000 -0.036580 
#    y 0.000000 1.615490 0.000000 
#    z -0.036580 0.000000 1.579530 
# 
# From -- ./inp_files/89930.got.cif
#   From: 2010.06.25/outbox.cif.g09.slc.cpg/sg10_45_cif.got.tgz:89930.got - 2010.06.27 22:07:45.
