data_PCOD8056052
_publ_section_title
;
Structure prediction by ZEFSAII (Michael W. Deem and Ramdas Pophale) SiO2 
 PCOD8056052
Probable space group: C C
;
_chemical_formula_sum "Si O2"
_cell_formula_units_Z 28
_cell_length_a 14.799636
_cell_length_b 13.599462
_cell_length_c 9.490395
_cell_angle_alpha 90.000000
_cell_angle_beta 140.873738
_cell_angle_gamma 90.000000
_cell_volume 1205.335795
_symmetry_space_group_name_H-M "C C"
_symmetry_group_IT_number 9
_symmetry_cell_setting 'monoclinic'
loop_
_space_group_symop_operation_xyz
x,y,z
x,-y,1/2+z
1/2+x,1/2+y,z
1/2+x,1/2-y,1/2+z
loop_
_atom_site_type_symbol
_atom_site_label
_atom_site_fract_x
_atom_site_fract_y
_atom_site_fract_z
Si Si1 0.435830 0.122656 0.781980
Si Si2 0.574629 0.563336 0.908084
Si Si3 0.241361 0.704583 0.125647
Si Si4 0.827032 0.150951 0.937480
Si Si5 0.421957 0.546368 0.448498
Si Si6 0.393269 0.939681 0.905808
Si Si7 0.046410 0.250119 0.031919
O O1 0.295195 0.184537 0.660891
O O2 0.409048 0.074480 0.594466
O O3 0.464573 0.040810 0.936337
O O4 0.571575 0.197396 0.948492
O O5 0.556616 0.548627 0.719661
O O6 0.487721 0.473857 0.874428
O O7 0.509526 0.670771 0.866966
O O8 0.733098 0.557210 0.157014
O O9 0.333448 0.648184 0.357341
O O10 0.280543 0.635694 0.040903
O O11 0.983134 0.202084 0.101734
O O12 0.716312 0.232075 0.740788
O O13 0.815149 0.044050 0.853546
O O14 0.471471 0.853774 0.913776
#
# Coordination Sequence:
#
# PCOD8056052 Si02
#       7
#     4   4   4   4   4   4   4
#     4  12  29  46  82 104 156 187 254 299 375 428
#     4  11  24  43  70 106 142 191 236 305 361 436
#     4  12  24  47  73 108 142 198 240 305 359 442
#     4  11  20  42  70 102 135 188 236 289 360 431
#     4  11  25  42  71 103 147 184 244 297 365 431
#     4  12  25  47  74 110 143 197 243 308 359 444
#     4  11  21  41  72  99 137 187 241 289 357 434
#
# _framework density 23.230041
#
# number of rings (size 3 to 8) (size 9 to 14) (size 15 to 20)
#    0.000    0.571    5.714    1.714    2.000    2.286 
#    2.571    0.000    0.000    0.000    0.000    0.000 
#    0.000    0.000    0.000    0.000    0.000    0.000 
#
# Total GULP energy -173478.514291 kJ/mol
# GULP energy per Si atom -12391.322449 kJ/mol
# Density = 2.317717 g / cm^3
# Si number density = 23.230041 Si / 1000 Ang^3
#
#
#
# Elastic Constant Matrix: (Units=GPa)
#
#
# Indices 1 2 3 4 5 6 
#
# 1 62.8657 40.3389 12.5644 0.0000 7.2072 0.0000
# 2 40.3389 121.1614 26.4555 0.0000 2.6823 0.0000
# 3 12.5644 26.4555 87.1047 0.0000 -0.9554 0.0000
# 4 0.0000 0.0000 0.0000 36.3030 0.0000 7.3981
# 5 7.2072 2.6823 -0.9554 0.0000 31.9378 0.0000
# 6 0.0000 0.0000 0.0000 7.3981 0.0000 41.1346
#
#
#
# Elastic Compliance Matrix: (Units=1/GPa)
#
#
# Indices 1 2 3 4 5 6 
#
# 1 0.020841 -0.006619 -0.001042 0.000000 -0.004178 0.000000
# 2 -0.006619 0.010963 -0.002370 0.000000 0.000502 0.000000
# 3 -0.001042 -0.002370 0.012359 0.000000 0.000804 0.000000
# 4 0.000000 0.000000 0.000000 0.028594 0.000000 -0.005143
# 5 -0.004178 0.000502 0.000804 0.000000 0.032236 0.000000
# 6 0.000000 0.000000 0.000000 -0.005143 0.000000 0.025235
#
#
# Mechanical properties :
#
#
# Convention : Reuss Voigt Hill
#
# Bulk Modulus (GPa) = 41.48779 47.76104 44.62442
# Shear Modulus (GPa) = 31.58087 34.65994 33.12040
#
# Velocity S-wave (km/s) = 3.69112 3.86687 3.78002
# Velocity P-wave (km/s) = 6.00534 6.36723 6.18893
#
# Compressibility (1/GPa) = 0.02410347
#
# Stress axis : x y z
#
# Youngs Moduli (GPa) = 47.98178 91.21282 80.91124
#
# Poissons Ratio (x) = 0.60372 0.08429
# Poissons Ratio (y) = 0.31758 0.19172
# Poissons Ratio (z) = 0.04999 0.21614
#
# Static dielectric constant tensor:
#      x y z
#    x 4.284000 0.000000 0.103960 
#    y 0.000000 4.486480 0.000000 
#    z 0.103960 0.000000 4.055010 
# 
# 
# High freq. dielectric constant tensor:
#      x y z
#    x 1.911800 0.000000 0.015900 
#    y 0.000000 1.933600 0.000000 
#    z 0.015900 0.000000 1.904530 
# 
# From -- ./inp_files/7343.got.cif
#   From: 2010.06.25/outbox.cif.g09.slc.cpg/sg9_4_cif.got.tgz:7343.got - 2010.06.27 21:40:51.
