data_PCOD8056362
_publ_section_title
;
Structure prediction by ZEFSAII (Michael W. Deem and Ramdas Pophale) SiO2 
 PCOD8056362
Probable space group: C C
;
_chemical_formula_sum "Si O2"
_cell_formula_units_Z 32
_cell_length_a 8.704659
_cell_length_b 11.433955
_cell_length_c 14.740155
_cell_angle_alpha 90.000000
_cell_angle_beta 58.289052
_cell_angle_gamma 90.000000
_cell_volume 1248.050563
_symmetry_space_group_name_H-M "C C"
_symmetry_group_IT_number 9
_symmetry_cell_setting 'monoclinic'
loop_
_space_group_symop_operation_xyz
x,y,z
x,-y,1/2+z
1/2+x,1/2+y,z
1/2+x,1/2-y,1/2+z
loop_
_atom_site_type_symbol
_atom_site_label
_atom_site_fract_x
_atom_site_fract_y
_atom_site_fract_z
Si Si1 0.498310 0.149253 0.213350
Si Si2 0.318715 0.532090 0.178595
Si Si3 0.535961 0.608258 0.748464
Si Si4 0.355735 0.923809 0.430833
Si Si5 0.029063 0.001862 0.427394
Si Si6 0.075201 0.233991 0.117330
Si Si7 0.916732 0.526002 0.595714
Si Si8 0.618974 0.726618 0.307652
O O1 0.598516 0.050139 0.245113
O O2 0.615121 0.268468 0.186285
O O3 0.304872 0.201915 0.305516
O O4 0.497713 0.093761 0.113097
O O5 0.372392 0.432941 0.233661
O O6 0.394062 0.658004 0.184200
O O7 0.397885 0.498974 0.054634
O O8 0.475973 0.603132 0.873406
O O9 0.706983 0.521264 0.691070
O O10 0.245917 0.991477 0.384825
O O11 0.209898 0.827983 0.507145
O O12 0.533586 0.853594 0.348806
O O13 0.418417 0.017758 0.486569
O O14 0.989718 0.122107 0.383777
O O15 0.168587 0.232815 0.186307
O O16 0.027915 0.363090 0.096288
#
# Coordination Sequence:
#
# PCOD8056362 Si02
#       8
#     4   4   4   4   4   4   4   4
#     4  12  28  44  76 109 149 204 250 307 386 450
#     4  11  25  46  78 110 151 203 248 315 389 443
#     4  12  24  50  74 108 156 192 253 320 379 461
#     4  11  26  46  75 113 149 203 256 321 386 449
#     4  11  24  48  76 112 149 196 261 325 375 462
#     4  11  23  51  77 104 154 201 247 318 385 454
#     4  12  24  48  77 108 154 197 249 315 386 458
#     4  12  26  47  77 110 154 198 258 311 382 463
#
# _framework density 25.639987000000001
#
# number of rings (size 3 to 8) (size 9 to 14) (size 15 to 20)
#    0.000    0.500    7.500    0.750    5.250    1.000 
#    4.500    0.000    0.000    0.000    0.000    0.000 
#    0.000    0.000    0.000    0.000    0.000    0.000 
#
# Total GULP energy -198278.243046 kJ/mol
# GULP energy per Si atom -12392.390190 kJ/mol
# Density = 2.558163 g / cm^3
# Si number density = 25.639987 Si / 1000 Ang^3
#
#
#
# Elastic Constant Matrix: (Units=GPa)
#
#
# Indices 1 2 3 4 5 6 
#
# 1 126.9515 35.0353 22.8863 0.0000 21.3292 0.0000
# 2 35.0353 134.4681 22.1429 0.0000 30.7978 0.0000
# 3 22.8863 22.1429 53.1296 0.0000 36.8333 0.0000
# 4 0.0000 0.0000 0.0000 30.5171 0.0000 17.9984
# 5 21.3292 30.7978 36.8333 0.0000 44.6658 0.0000
# 6 0.0000 0.0000 0.0000 17.9984 0.0000 42.8284
#
#
#
# Elastic Compliance Matrix: (Units=1/GPa)
#
#
# Indices 1 2 3 4 5 6 
#
# 1 0.008961 -0.001676 -0.002326 0.000000 -0.001206 0.000000
# 2 -0.001676 0.009181 0.001703 0.000000 -0.006935 0.000000
# 3 -0.002326 0.001703 0.044731 0.000000 -0.036951 0.000000
# 4 0.000000 0.000000 0.000000 0.043567 0.000000 -0.018309
# 5 -0.001206 -0.006935 -0.036951 0.000000 0.058217 0.000000
# 6 0.000000 0.000000 0.000000 -0.018309 0.000000 0.031043
#
#
# Mechanical properties :
#
#
# Convention : Reuss Voigt Hill
#
# Bulk Modulus (GPa) = 17.15952 52.74203 34.95077
# Shear Modulus (GPa) = 22.75595 39.23457 30.99526
#
# Velocity S-wave (km/s) = 2.98236 3.91603 3.48064
# Velocity P-wave (km/s) = 4.30886 6.40796 5.46023
#
# Compressibility (1/GPa) = 0.05827670
#
# Stress axis : x y z
#
# Youngs Moduli (GPa) = 111.59018 108.91866 22.35590
#
# Poissons Ratio (x) = 0.18251 0.05200
# Poissons Ratio (y) = 0.18699 -0.03807
# Poissons Ratio (z) = 0.25954 -0.18550
#
# Static dielectric constant tensor:
#      x y z
#    x 4.922400 0.000000 0.171670 
#    y 0.000000 4.868550 0.000000 
#    z 0.171670 0.000000 4.254910 
# 
# 
# High freq. dielectric constant tensor:
#      x y z
#    x 2.042770 0.000000 0.009390 
#    y 0.000000 2.041920 0.000000 
#    z 0.009390 0.000000 1.997380 
# 
# From -- ./inp_files/22852.got.cif
#   From: 2010.06.25/outbox.cif.g09.slc.cpg/sg9_12_cif.got.tgz:22852.got - 2010.06.27 21:40:51.
