data_PCOD8056728
_publ_section_title
;
Structure prediction by ZEFSAII (Michael W. Deem and Ramdas Pophale) SiO2 
 PCOD8056728
Probable space group: C C
;
_chemical_formula_sum "Si O2"
_cell_formula_units_Z 20
_cell_length_a 4.967589
_cell_length_b 23.843052
_cell_length_c 7.985745
_cell_angle_alpha 90.000000
_cell_angle_beta 122.341921
_cell_angle_gamma 90.000000
_cell_volume 799.122136
_symmetry_space_group_name_H-M "C C"
_symmetry_group_IT_number 9
_symmetry_cell_setting 'monoclinic'
loop_
_space_group_symop_operation_xyz
x,y,z
x,-y,1/2+z
1/2+x,1/2+y,z
1/2+x,1/2-y,1/2+z
loop_
_atom_site_type_symbol
_atom_site_label
_atom_site_fract_x
_atom_site_fract_y
_atom_site_fract_z
Si Si1 0.994850 0.445704 0.056090
Si Si2 0.851122 0.208586 0.509455
Si Si3 0.710716 0.328197 0.449711
Si Si4 0.200331 0.838710 0.811280
Si Si5 0.736359 0.558645 0.825170
O O1 0.768195 0.436586 0.138086
O O2 0.359750 0.443760 0.238249
O O3 0.930477 0.505528 0.952950
O O4 0.891624 0.397335 0.892169
O O5 0.962113 0.179059 0.716026
O O6 0.960770 0.173815 0.382753
O O7 0.952935 0.274479 0.531818
O O8 0.468504 0.209865 0.392647
O O9 0.891309 0.386662 0.468155
O O10 0.534739 0.336179 0.572107
#
# Coordination Sequence:
#
# PCOD8056728 Si02
#       5
#     4   4   4   4   4
#     4  12  25  50  74 112 152 198 255 318 378 460
#     4  12  28  46  74 110 151 197 252 306 376 452
#     4  12  27  49  77 110 153 203 246 315 374 452
#     4  12  27  48  75 107 152 196 249 314 376 442
#     4  12  27  47  78 109 156 196 258 313 384 450
#
# _framework density 25.027460000000001
#
# number of rings (size 3 to 8) (size 9 to 14) (size 15 to 20)
#    0.000    0.000    6.000    2.400    2.800    6.400 
#    0.000    0.000    0.000    0.000    0.000    0.000 
#    0.000    0.000    0.000    0.000    0.000    0.000 
#
# Total GULP energy -123979.720610 kJ/mol
# GULP energy per Si atom -12397.972061 kJ/mol
# Density = 2.497050 g / cm^3
# Si number density = 25.027460 Si / 1000 Ang^3
#
#
#
# Elastic Constant Matrix: (Units=GPa)
#
#
# Indices 1 2 3 4 5 6 
#
# 1 79.3778 12.8328 32.2840 0.0000 -18.7668 0.0000
# 2 12.8328 177.3941 40.1286 0.0000 -11.6597 0.0000
# 3 32.2840 40.1286 145.8165 0.0000 -52.1271 0.0000
# 4 0.0000 0.0000 0.0000 37.5082 0.0000 -3.7977
# 5 -18.7668 -11.6597 -52.1271 0.0000 41.3132 0.0000
# 6 0.0000 0.0000 0.0000 -3.7977 0.0000 27.8785
#
#
#
# Elastic Compliance Matrix: (Units=1/GPa)
#
#
# Indices 1 2 3 4 5 6 
#
# 1 0.014329 -0.000415 -0.001409 0.000000 0.004615 0.000000
# 2 -0.000415 0.006035 -0.001872 0.000000 -0.000847 0.000000
# 3 -0.001409 -0.001872 0.013239 0.000000 0.015536 0.000000
# 4 0.000000 0.000000 0.000000 0.027034 0.000000 0.003683
# 5 0.004615 -0.000847 0.015536 0.000000 0.045665 0.000000
# 6 0.000000 0.000000 0.000000 0.003683 0.000000 0.036372
#
#
# Mechanical properties :
#
#
# Convention : Reuss Voigt Hill
#
# Bulk Modulus (GPa) = 38.14964 63.67546 50.91255
# Shear Modulus (GPa) = 31.48604 42.49618 36.99111
#
# Velocity S-wave (km/s) = 3.55076 4.12513 3.84867
# Velocity P-wave (km/s) = 5.66452 6.94164 6.33534
#
# Compressibility (1/GPa) = 0.02621257
#
# Stress axis : x y z
#
# Youngs Moduli (GPa) = 69.78880 165.70267 75.53571
#
# Poissons Ratio (x) = 0.06870 0.10641
# Poissons Ratio (y) = 0.02893 0.14138
# Poissons Ratio (z) = 0.09831 0.31015
#
# Static dielectric constant tensor:
#      x y z
#    x 4.063110 0.000000 -0.285200 
#    y 0.000000 4.918850 0.000000 
#    z -0.285200 0.000000 4.556590 
# 
# 
# High freq. dielectric constant tensor:
#      x y z
#    x 1.974240 0.000000 -0.020640 
#    y 0.000000 2.023880 0.000000 
#    z -0.020640 0.000000 2.010010 
# 
# From -- ./inp_files/3740.got.cif
#   From: 2010.06.25/outbox.cif.g09.slc.cpg/sg9_2_cif.got.tgz:3740.got - 2010.06.27 21:40:51.
