data_PCOD8056904
_publ_section_title
;
Structure prediction by ZEFSAII (Michael W. Deem and Ramdas Pophale) SiO2 
 PCOD8056904
Probable space group: P 2/M
;
_chemical_formula_sum "Si O2"
_cell_formula_units_Z 24
_cell_length_a 12.672301
_cell_length_b 7.696225
_cell_length_c 16.073274
_cell_angle_alpha 90.000000
_cell_angle_beta 123.122287
_cell_angle_gamma 90.000000
_cell_volume 1312.881807
_symmetry_space_group_name_H-M "P 2/M"
_symmetry_group_IT_number 10
_symmetry_cell_setting 'monoclinic'
loop_
_space_group_symop_operation_xyz
x,y,z
-x,y,-z
-x,-y,-z
x,-y,z
loop_
_atom_site_type_symbol
_atom_site_label
_atom_site_fract_x
_atom_site_fract_y
_atom_site_fract_z
Si Si1 0.663315 0.298143 0.392785
Si Si2 0.800310 0.500000 0.880275
Si Si3 0.039108 0.197587 0.756863
Si Si4 0.607914 0.307930 0.703697
Si Si5 0.940726 0.500000 0.107799
Si Si6 0.760337 0.295435 0.617413
Si Si7 0.102870 0.197098 0.605873
O O1 0.674202 0.500000 0.375521
O O2 0.521283 0.220041 0.318488
O O3 0.700936 0.256706 0.503055
O O4 0.756726 0.202949 0.369885
O O5 0.715482 0.328515 0.821897
O O6 0.921578 0.500000 0.873367
O O7 0.834002 0.500000 0.991102
O O8 0.889607 0.193044 0.680967
O O9 0.080625 0.325319 0.848690
O O10 0.099136 0.276070 0.697293
O O11 0.084776 0.000000 0.796576
O O12 0.563172 0.500000 0.653963
O O13 0.666958 0.216462 0.647790
O O14 0.786261 0.500000 0.644408
O O15 0.000000 0.289850 0.500000
O O16 0.058110 0.000000 0.598071
#
# Coordination Sequence:
#
# PCOD8056904 Si02
#       7
#     4   2   4   4   2   4   4
#     4  10  19  27  51  78 106 141 183 206 253 325
#     4   9  18  34  61  78 108 134 172 227 275 319
#     4  11  21  34  54  79 111 141 177 221 265 315
#     4   8  15  31  49  77 107 138 172 215 266 314
#     4  11  20  38  59  81 104 143 176 221 284 323
#     4  10  16  29  49  77 110 146 168 210 259 319
#     4  10  21  34  47  69 107 146 177 218 259 301
#
# _framework density 18.280397000000001
#
# number of rings (size 3 to 8) (size 9 to 14) (size 15 to 20)
#    0.500    1.667    4.167    0.500    1.167    2.333 
#    0.000    2.500    0.000    4.000    0.000    2.333 
#    0.000    0.000    0.000    0.000    0.000    0.000 
#
# Total GULP energy -297395.919123 kJ/mol
# GULP energy per Si atom -12391.496630 kJ/mol
# Density = 1.823879 g / cm^3
# Si number density = 18.280397 Si / 1000 Ang^3
#
#
#
# Elastic Constant Matrix: (Units=GPa)
#
#
# Indices 1 2 3 4 5 6 
#
# 1 148.2843 10.1428 61.0133 0.0000 -11.5381 0.0000
# 2 10.1428 48.8732 29.2523 0.0000 -10.0479 0.0000
# 3 61.0133 29.2523 123.1104 0.0000 -16.4967 0.0000
# 4 0.0000 0.0000 0.0000 22.2358 0.0000 -27.5884
# 5 -11.5381 -10.0479 -16.4967 0.0000 20.9110 0.0000
# 6 0.0000 0.0000 0.0000 -27.5884 0.0000 73.0198
#
#
#
# Elastic Compliance Matrix: (Units=1/GPa)
#
#
# Indices 1 2 3 4 5 6 
#
# 1 0.008569 0.001171 -0.004267 0.000000 0.001925 0.000000
# 2 0.001171 0.025214 -0.005436 0.000000 0.008473 0.000000
# 3 -0.004267 -0.005436 0.012148 0.000000 0.004617 0.000000
# 4 0.000000 0.000000 0.000000 0.084657 0.000000 0.031985
# 5 0.001925 0.008473 0.004617 0.000000 0.056597 0.000000
# 6 0.000000 0.000000 0.000000 0.031985 0.000000 0.025780
#
#
# Mechanical properties :
#
#
# Convention : Reuss Voigt Hill
#
# Bulk Modulus (GPa) = 34.64186 57.89830 46.27008
# Shear Modulus (GPa) = 20.86360 37.89061 29.37711
#
# Velocity S-wave (km/s) = 3.38199 4.55768 4.01312
# Velocity P-wave (km/s) = 5.85166 7.70959 6.84396
#
# Compressibility (1/GPa) = 0.02886681
#
# Stress axis : x y z
#
# Youngs Moduli (GPa) = 116.69580 39.66088 82.31779
#
# Poissons Ratio (x) = -0.04646 0.35128
# Poissons Ratio (y) = -0.13670 0.44750
# Poissons Ratio (z) = 0.49798 0.21561
#
# Static dielectric constant tensor:
#      x y z
#    x 3.496480 0.000000 -0.077300 
#    y 0.000000 3.053420 0.000000 
#    z -0.077300 0.000000 3.207570 
# 
# 
# High freq. dielectric constant tensor:
#      x y z
#    x 1.717210 0.000000 -0.009850 
#    y 0.000000 1.677700 0.000000 
#    z -0.009850 0.000000 1.678680 
# 
# From -- ./inp_files/63251.got.cif
#   From: 2010.06.25/outbox.cif.g09.slc.cpg/sg10_32_cif.got.tgz:63251.got - 2010.06.27 22:07:45.
