data_PCOD8056240
_publ_section_title
;
Structure prediction by ZEFSAII (Michael W. Deem and Ramdas Pophale) SiO2 
 PCOD8056240
Probable space group: C C
;
_chemical_formula_sum "Si O2"
_cell_formula_units_Z 24
_cell_length_a 17.637395
_cell_length_b 6.378122
_cell_length_c 9.906928
_cell_angle_alpha 90.000000
_cell_angle_beta 101.469802
_cell_angle_gamma 90.000000
_cell_volume 1092.208328
_symmetry_space_group_name_H-M "C C"
_symmetry_group_IT_number 9
_symmetry_cell_setting 'monoclinic'
loop_
_space_group_symop_operation_xyz
x,y,z
x,-y,1/2+z
1/2+x,1/2+y,z
1/2+x,1/2-y,1/2+z
loop_
_atom_site_type_symbol
_atom_site_label
_atom_site_fract_x
_atom_site_fract_y
_atom_site_fract_z
Si Si1 0.026680 0.852507 0.596880
Si Si2 0.956954 0.143402 0.791331
Si Si3 0.804061 0.901440 0.745319
Si Si4 0.398510 0.951900 0.137436
Si Si5 0.703269 0.710502 0.172378
Si Si6 0.766461 0.426620 0.426420
O O1 0.112397 0.781949 0.667019
O O2 0.019463 0.881060 0.433152
O O3 0.975986 0.656728 0.620544
O O4 0.997952 0.057162 0.669569
O O5 0.924912 0.377704 0.757335
O O6 0.882855 0.014900 0.816275
O O7 0.830757 0.707368 0.661306
O O8 0.757796 0.801675 0.854523
O O9 0.743157 0.063455 0.656422
O O10 0.357998 0.060450 0.994595
O O11 0.742482 0.614656 0.319422
O O12 0.715673 0.567020 0.044713
#
# Coordination Sequence:
#
# PCOD8056240 Si02
#       6
#     4   4   4   4   4   4
#     4  11  26  43  70 105 139 184 225 292 357 412
#     4  11  23  47  72  99 141 181 239 283 349 425
#     4  11  23  42  72 101 132 183 235 288 338 419
#     4  11  23  45  71 100 132 184 238 284 341 419
#     4  12  27  43  69 107 145 181 233 291 358 414
#     4  12  24  46  70 100 141 183 236 290 347 423
#
# _framework density 21.973831000000001
#
# number of rings (size 3 to 8) (size 9 to 14) (size 15 to 20)
#    0.000    0.667    3.333    4.000    4.667    4.000 
#    0.000    0.000    0.000    0.000    0.000    0.000 
#    0.000    0.000    0.000    0.000    0.000    0.000 
#
# Total GULP energy -148756.400961 kJ/mol
# GULP energy per Si atom -12396.366747 kJ/mol
# Density = 2.192382 g / cm^3
# Si number density = 21.973831 Si / 1000 Ang^3
#
#
#
# Elastic Constant Matrix: (Units=GPa)
#
#
# Indices 1 2 3 4 5 6 
#
# 1 133.4975 39.9016 37.2540 0.0000 11.3407 0.0000
# 2 39.9016 108.0203 40.4342 0.0000 -1.6621 0.0000
# 3 37.2540 40.4342 129.1142 0.0000 -3.4285 0.0000
# 4 0.0000 0.0000 0.0000 33.1879 0.0000 -4.5533
# 5 11.3407 -1.6621 -3.4285 0.0000 33.3545 0.0000
# 6 0.0000 0.0000 0.0000 -4.5533 0.0000 24.6921
#
#
#
# Elastic Compliance Matrix: (Units=1/GPa)
#
#
# Indices 1 2 3 4 5 6 
#
# 1 0.009117 -0.002721 -0.001870 0.000000 -0.003428 0.000000
# 2 -0.002721 0.011300 -0.002722 0.000000 0.001208 0.000000
# 3 -0.001870 -0.002722 0.009175 0.000000 0.001443 0.000000
# 4 0.000000 0.000000 0.000000 0.030914 0.000000 0.005701
# 5 -0.003428 0.001208 0.001443 0.000000 0.031355 0.000000
# 6 0.000000 0.000000 0.000000 0.005701 0.000000 0.041550
#
#
# Mechanical properties :
#
#
# Convention : Reuss Voigt Hill
#
# Bulk Modulus (GPa) = 66.80808 67.31240 67.06024
# Shear Modulus (GPa) = 32.67476 35.11638 33.89557
#
# Velocity S-wave (km/s) = 3.86033 4.00196 3.93178
# Velocity P-wave (km/s) = 7.09500 7.21483 7.15516
#
# Compressibility (1/GPa) = 0.01496825
#
# Stress axis : x y z
#
# Youngs Moduli (GPa) = 109.68720 88.49677 108.98987
#
# Poissons Ratio (x) = 0.24076 0.20376
# Poissons Ratio (y) = 0.29841 0.29663
# Poissons Ratio (z) = 0.20507 0.24086
#
# Static dielectric constant tensor:
#      x y z
#    x 3.870920 0.000000 -0.055150 
#    y 0.000000 4.159050 0.000000 
#    z -0.055150 0.000000 4.095120 
# 
# 
# High freq. dielectric constant tensor:
#      x y z
#    x 1.859490 0.000000 -0.002910 
#    y 0.000000 1.868960 0.000000 
#    z -0.002910 0.000000 1.868440 
# 
# From -- ./inp_files/10240.got.cif
#   From: 2010.06.25/outbox.cif.g09.slc.cpg/sg9_6_cif.got.tgz:10240.got - 2010.06.27 21:40:51.
