data_PCOD8056341
_publ_section_title
;
Structure prediction by ZEFSAII (Michael W. Deem and Ramdas Pophale) SiO2 
 PCOD8056341
Probable space group: C C
;
_chemical_formula_sum "Si O2"
_cell_formula_units_Z 32
_cell_length_a 11.034112
_cell_length_b 9.062423
_cell_length_c 17.082841
_cell_angle_alpha 90.000000
_cell_angle_beta 58.990988
_cell_angle_gamma 90.000000
_cell_volume 1464.085230
_symmetry_space_group_name_H-M "C C"
_symmetry_group_IT_number 9
_symmetry_cell_setting 'monoclinic'
loop_
_space_group_symop_operation_xyz
x,y,z
x,-y,1/2+z
1/2+x,1/2+y,z
1/2+x,1/2-y,1/2+z
loop_
_atom_site_type_symbol
_atom_site_label
_atom_site_fract_x
_atom_site_fract_y
_atom_site_fract_z
Si Si1 0.269880 0.386957 0.532650
Si Si2 0.707261 0.572518 0.720972
Si Si3 0.441052 0.392252 0.869575
Si Si4 0.725909 0.573353 0.528619
Si Si5 0.253520 0.621012 0.288255
Si Si6 0.476084 0.368729 0.600244
Si Si7 0.496639 0.078416 0.867741
Si Si8 0.505730 0.066520 0.678752
O O1 0.347017 0.504962 0.454364
O O2 0.218172 0.243142 0.501324
O O3 0.386070 0.322121 0.554505
O O4 0.133680 0.457150 0.618808
O O5 0.576397 0.475825 0.791753
O O6 0.706427 0.574164 0.628110
O O7 0.690831 0.735575 0.764361
O O8 0.856001 0.500467 0.698858
O O9 0.335831 0.329095 0.838317
O O10 0.494973 0.247758 0.898491
O O11 0.601366 0.476286 0.531803
O O12 0.870313 0.506529 0.450426
O O13 0.368710 0.543007 0.193182
O O14 0.136674 0.502874 0.351299
O O15 0.533506 0.223335 0.626298
O O16 0.495021 0.081185 0.774850
#
# Coordination Sequence:
#
# PCOD8056341 Si02
#       8
#     4   4   4   4   4   4   4   4
#     4  12  27  45  70 104 137 179 229 282 343 405
#     4  11  23  47  72  96 136 186 226 277 341 405
#     4  12  27  45  70 104 137 179 229 282 343 405
#     4  12  25  43  71 103 137 178 229 282 339 402
#     4  11  23  48  72  94 138 184 225 279 339 405
#     4  11  23  48  72  94 138 184 225 279 339 405
#     4  12  25  43  71 103 137 178 229 282 339 402
#     4  11  23  47  72  96 136 186 226 277 341 405
#
# _framework density 21.856649999999998
#
# number of rings (size 3 to 8) (size 9 to 14) (size 15 to 20)
#    0.000    0.500    7.500    1.500    3.500    4.000 
#    4.500    0.000    0.000    0.000    0.000    0.000 
#    0.000    0.000    0.000    0.000    0.000    0.000 
#
# Total GULP energy -198345.218464 kJ/mol
# GULP energy per Si atom -12396.576154 kJ/mol
# Density = 2.180690 g / cm^3
# Si number density = 21.856650 Si / 1000 Ang^3
#
#
#
# Elastic Constant Matrix: (Units=GPa)
#
#
# Indices 1 2 3 4 5 6 
#
# 1 87.9860 26.8530 2.1695 0.0000 -11.2755 0.0000
# 2 26.8530 108.3102 30.9513 0.0000 -5.8740 0.0000
# 3 2.1695 30.9513 74.8620 0.0000 -10.6442 0.0000
# 4 0.0000 0.0000 0.0000 38.6242 0.0000 -6.9251
# 5 -11.2755 -5.8740 -10.6442 0.0000 25.8855 0.0000
# 6 0.0000 0.0000 0.0000 -6.9251 0.0000 28.6937
#
#
#
# Elastic Compliance Matrix: (Units=1/GPa)
#
#
# Indices 1 2 3 4 5 6 
#
# 1 0.013109 -0.003475 0.001866 0.000000 0.005689 0.000000
# 2 -0.003475 0.011400 -0.004737 0.000000 -0.000874 0.000000
# 3 0.001866 -0.004737 0.016171 0.000000 0.006387 0.000000
# 4 0.000000 0.000000 0.000000 0.027062 0.000000 0.006531
# 5 0.005689 -0.000874 0.006387 0.000000 0.043538 0.000000
# 6 0.000000 0.000000 0.000000 0.006531 0.000000 0.036427
#
#
# Mechanical properties :
#
#
# Convention : Reuss Voigt Hill
#
# Bulk Modulus (GPa) = 35.73025 43.45621 39.59323
# Shear Modulus (GPa) = 29.45893 32.71963 31.08928
#
# Velocity S-wave (km/s) = 3.67526 3.87332 3.77559
# Velocity P-wave (km/s) = 5.86456 6.31894 6.09598
#
# Compressibility (1/GPa) = 0.02798749
#
# Stress axis : x y z
#
# Youngs Moduli (GPa) = 76.28396 87.71560 61.84096
#
# Poissons Ratio (x) = 0.30478 -0.11537
# Poissons Ratio (y) = 0.26506 0.29295
# Poissons Ratio (z) = -0.14231 0.41552
#
# Static dielectric constant tensor:
#      x y z
#    x 4.163140 0.000000 -0.064840 
#    y 0.000000 4.386400 0.000000 
#    z -0.064840 0.000000 4.351690 
# 
# 
# High freq. dielectric constant tensor:
#      x y z
#    x 1.863520 0.000000 -0.012380 
#    y 0.000000 1.859500 0.000000 
#    z -0.012380 0.000000 1.870860 
# 
# From -- ./inp_files/29905.got.cif
#   From: 2010.06.25/outbox.cif.g09.slc.cpg/sg9_15_cif.got.tgz:29905.got - 2010.06.27 21:40:51.
