data_PCOD8056170
_publ_section_title
;
Structure prediction by ZEFSAII (Michael W. Deem and Ramdas Pophale) SiO2 
 PCOD8056170
Probable space group: C C
;
_chemical_formula_sum "Si O2"
_cell_formula_units_Z 32
_cell_length_a 16.420245
_cell_length_b 22.120373
_cell_length_c 9.205988
_cell_angle_alpha 90.000000
_cell_angle_beta 25.900447
_cell_angle_gamma 90.000000
_cell_volume 1460.608651
_symmetry_space_group_name_H-M "C C"
_symmetry_group_IT_number 9
_symmetry_cell_setting 'monoclinic'
loop_
_space_group_symop_operation_xyz
x,y,z
x,-y,1/2+z
1/2+x,1/2+y,z
1/2+x,1/2-y,1/2+z
loop_
_atom_site_type_symbol
_atom_site_label
_atom_site_fract_x
_atom_site_fract_y
_atom_site_fract_z
Si Si1 0.752660 0.482348 0.907560
Si Si2 0.274305 0.306800 0.716678
Si Si3 0.254373 0.621914 0.534171
Si Si4 0.455274 0.404402 0.240717
Si Si5 0.419933 0.181506 0.581079
Si Si6 0.578499 0.389668 0.732743
Si Si7 0.493473 0.094025 0.198646
Si Si8 0.655761 0.008342 0.134124
O O1 0.796322 0.437898 0.974752
O O2 0.947408 0.504781 0.530500
O O3 0.644191 0.441345 0.966092
O O4 0.630237 0.539435 0.150955
O O5 0.429383 0.350247 0.396724
O O6 0.358209 0.240301 0.592195
O O7 0.229791 0.327380 0.951969
O O8 0.090548 0.304511 0.913367
O O9 0.449634 0.628872 0.303866
O O10 0.249013 0.556753 0.464427
O O11 0.079526 0.630039 0.924348
O O12 0.280269 0.449522 0.538432
O O13 0.468968 0.376146 0.057463
O O14 0.476766 0.133803 0.367878
O O15 0.257449 0.153523 0.940329
O O16 0.641411 0.039934 0.998239
#
# Coordination Sequence:
#
# PCOD8056170 Si02
#       8
#     4   4   4   4   4   4   4   4
#     4  11  25  38  72 110 150 187 236 288 367 430
#     4  12  29  50  72 102 142 198 243 302 358 429
#     4  11  26  41  72 103 144 188 235 290 363 424
#     4  12  26  44  72 109 149 190 241 294 362 434
#     4  12  28  51  74  98 145 191 251 298 360 430
#     4  12  24  44  69 110 143 188 238 296 356 433
#     4  11  24  46  70 103 144 190 233 299 358 427
#     4  11  22  44  67 107 151 188 223 297 362 433
#
# _framework density 21.908674999999999
#
# number of rings (size 3 to 8) (size 9 to 14) (size 15 to 20)
#    0.000    0.500    5.000    1.500   14.000    1.000 
#    0.000    2.500    0.000    0.000    0.000    0.000 
#    0.000    0.000    0.000    0.000    0.000    0.000 
#
# Total GULP energy -198454.496774 kJ/mol
# GULP energy per Si atom -12403.406048 kJ/mol
# Density = 2.185881 g / cm^3
# Si number density = 21.908675 Si / 1000 Ang^3
#
#
#
# Elastic Constant Matrix: (Units=GPa)
#
#
# Indices 1 2 3 4 5 6 
#
# 1 143.9069 44.9779 42.2002 0.0517 -16.6234 0.0378
# 2 44.9779 88.4049 35.0636 0.0944 -12.0968 0.0167
# 3 42.2002 35.0636 95.1958 0.1371 -4.3513 0.0635
# 4 0.0517 0.0944 0.1371 19.8096 0.0296 -9.6284
# 5 -16.6234 -12.0968 -4.3513 0.0296 35.8663 -0.0377
# 6 0.0378 0.0167 0.0635 -9.6284 -0.0377 45.0595
#
#
#
# Elastic Compliance Matrix: (Units=1/GPa)
#
#
# Indices 1 2 3 4 5 6 
#
# 1 0.009055 -0.003140 -0.002729 0.000007 0.002807 0.000001
# 2 -0.003140 0.014901 -0.003955 -0.000042 0.003090 -0.000004
# 3 -0.002729 -0.003955 0.013125 -0.000079 -0.001006 -0.000032
# 4 0.000007 -0.000042 -0.000079 0.056332 -0.000055 0.012037
# 5 0.002807 0.003090 -0.001006 -0.000055 0.030102 0.000011
# 6 0.000001 -0.000004 -0.000032 0.012037 0.000011 0.024765
#
#
# Mechanical properties :
#
#
# Convention : Reuss Voigt Hill
#
# Bulk Modulus (GPa) = 57.36512 63.55457 60.45985
# Shear Modulus (GPa) = 28.77854 33.83146 31.30500
#
# Velocity S-wave (km/s) = 3.62825 3.93390 3.78416
# Velocity P-wave (km/s) = 6.61762 7.05024 6.83735
#
# Compressibility (1/GPa) = 0.01743220
#
# Stress axis : x y z
#
# Youngs Moduli (GPa) = 110.43661 67.10980 76.18848
#
# Poissons Ratio (x) = 0.21076 0.20792
# Poissons Ratio (y) = 0.34682 0.30133
# Poissons Ratio (z) = 0.30139 0.26542
#
# Static dielectric constant tensor:
#      x y z
#    x 4.223060 -0.000070 -0.199070 
#    y -0.000070 3.962010 0.000060 
#    z -0.199070 0.000060 3.818800 
# 
# 
# High freq. dielectric constant tensor:
#      x y z
#    x 1.881340 -0.000010 -0.009020 
#    y -0.000010 1.850380 0.000010 
#    z -0.009020 0.000010 1.860470 
# 
# From -- ./inp_files/6090.got.cif
#   From: 2010.06.25/outbox.cif.g09.slc.cpg/sg9_4_cif.got.tgz:6090.got - 2010.06.27 21:40:51.
