data_PCOD8056840
_publ_section_title
;
Structure prediction by ZEFSAII (Michael W. Deem and Ramdas Pophale) SiO2 
 PCOD8056840
Probable space group: P 2/M
;
_chemical_formula_sum "Si O2"
_cell_formula_units_Z 18
_cell_length_a 9.954501
_cell_length_b 19.856255
_cell_length_c 8.542032
_cell_angle_alpha 90.000000
_cell_angle_beta 149.160602
_cell_angle_gamma 90.000000
_cell_volume 865.535563
_symmetry_space_group_name_H-M "P 2/M"
_symmetry_group_IT_number 10
_symmetry_cell_setting 'monoclinic'
loop_
_space_group_symop_operation_xyz
x,y,z
-x,y,-z
-x,-y,-z
x,-y,z
loop_
_atom_site_type_symbol
_atom_site_label
_atom_site_fract_x
_atom_site_fract_y
_atom_site_fract_z
Si Si1 0.942423 0.205702 0.762658
Si Si2 0.436387 0.139633 0.254115
Si Si3 0.418967 0.421407 0.093622
Si Si4 0.917985 0.639050 0.742141
Si Si5 0.257792 0.000000 0.147034
O O1 0.719921 0.156770 0.461303
O O2 0.854955 0.282415 0.655780
O O3 0.226233 0.191912 0.968699
O O4 0.000000 0.185225 0.000000
O O5 0.500000 0.152513 0.500000
O O6 0.300288 0.066810 0.084379
O O7 0.361394 0.500000 0.054387
O O8 0.651461 0.400939 0.442935
O O9 0.500000 0.401822 0.000000
O O10 0.150609 0.382551 0.860100
O O11 0.000000 0.621976 0.000000
O O12 0.500000 0.000000 0.500000
O O13 0.000000 0.000000 0.000000
#
# Coordination Sequence:
#
# PCOD8056840 Si02
#       5
#     4   4   4   4   2
#     4   9  17  28  43  65  95 130 168 215 265 308
#     4   9  15  24  37  57  90 131 172 211 252 306
#     4  11  24  41  59  81 112 147 179 221 283 339
#     4  11  22  37  59  85 110 143 188 230 270 327
#     4  10  16  22  34  56  86 132 183 212 243 308
#
# _framework density 20.796372999999999
#
# number of rings (size 3 to 8) (size 9 to 14) (size 15 to 20)
#    0.000    2.000    0.000    6.667    0.000    8.000 
#    0.000    0.000    0.000    0.000    0.000    0.000 
#    0.000    0.000    0.000   70.000    0.000   78.000 
#
# Total GULP energy -222993.359096 kJ/mol
# GULP energy per Si atom -12388.519950 kJ/mol
# Density = 2.074904 g / cm^3
# Si number density = 20.796373 Si / 1000 Ang^3
#
#
#
# Elastic Constant Matrix: (Units=GPa)
#
#
# Indices 1 2 3 4 5 6 
#
# 1 31.2817 33.5374 20.9968 0.0000 15.4901 0.0000
# 2 33.5374 66.9213 38.5278 0.0000 10.6631 0.0000
# 3 20.9968 38.5278 115.0268 0.0000 39.6967 0.0000
# 4 0.0000 0.0000 0.0000 30.6891 0.0000 19.8522
# 5 15.4901 10.6631 39.6967 0.0000 35.5370 0.0000
# 6 0.0000 0.0000 0.0000 19.8522 0.0000 12.7248
#
#
#
# Elastic Compliance Matrix: (Units=1/GPa)
#
#
# Indices 1 2 3 4 5 6 
#
# 1 0.097513 -0.049935 0.013708 0.000000 -0.042834 0.000000
# 2 -0.049935 0.044193 -0.014032 0.000000 0.024180 0.000000
# 3 0.013708 -0.014032 0.018715 0.000000 -0.022671 0.000000
# 4 0.000000 0.000000 0.000000 -3.538522 0.000000 5.520510
# 5 -0.042834 0.024180 -0.022671 0.000000 0.064879 0.000000
# 6 0.000000 0.000000 0.000000 5.520510 0.000000 -8.534056
#
#
# Mechanical properties :
#
#
# Convention : Reuss Voigt Hill
#
# Bulk Modulus (GPa) = 16.69366 44.37263 30.53314
# Shear Modulus (GPa) = -0.42637 23.80139 11.68751
#
# Velocity S-wave (km/s) = -0.45329 3.38671 2.37322
# Velocity P-wave (km/s) = 2.78759 6.05608 4.71417
#
# Compressibility (1/GPa) = 0.05990298
#
# Stress axis : x y z
#
# Youngs Moduli (GPa) = 10.25507 22.62780 53.43256
#
# Poissons Ratio (x) = 1.12992 -0.73245
# Poissons Ratio (y) = 0.51209 0.74977
# Poissons Ratio (z) = -0.14058 0.31752
#
# Static dielectric constant tensor:
#      x y z
#    x 3.335570 0.000000 0.440570 
#    y 0.000000 61.924150 0.000000 
#    z 0.440570 0.000000 4.138220 
# 
# 
# High freq. dielectric constant tensor:
#      x y z
#    x 1.749570 0.000000 0.038400 
#    y 0.000000 1.824120 0.000000 
#    z 0.038400 0.000000 1.834020 
# 
# From -- ./inp_files/20032.got.cif
#   From: 2010.06.25/outbox.cif.g09.slc.cpg/sg10_11_cif.got.tgz:20032.got - 2010.06.27 22:07:45.
