data_PCOD8056861
_publ_section_title
;
Structure prediction by ZEFSAII (Michael W. Deem and Ramdas Pophale) SiO2 
 PCOD8056861
Probable space group: P 2/M
;
_chemical_formula_sum "Si O2"
_cell_formula_units_Z 20
_cell_length_a 15.126559
_cell_length_b 18.093181
_cell_length_c 13.145676
_cell_angle_alpha 90.000000
_cell_angle_beta 20.044048
_cell_angle_gamma 90.000000
_cell_volume 1233.121611
_symmetry_space_group_name_H-M "P 2/M"
_symmetry_group_IT_number 10
_symmetry_cell_setting 'monoclinic'
loop_
_space_group_symop_operation_xyz
x,y,z
-x,y,-z
-x,-y,-z
x,-y,z
loop_
_atom_site_type_symbol
_atom_site_label
_atom_site_fract_x
_atom_site_fract_y
_atom_site_fract_z
Si Si1 0.715829 0.314709 0.852616
Si Si2 0.309335 0.850273 0.071692
Si Si3 0.941606 0.587870 0.175299
Si Si4 0.806079 0.912843 0.581463
Si Si5 0.382723 0.412175 0.852001
O O1 0.684977 0.237666 0.945811
O O2 0.000000 0.321503 0.500000
O O3 0.500000 0.321315 0.000000
O O4 0.675056 0.381139 0.974441
O O5 0.249259 0.873034 0.252201
O O6 0.087207 0.885367 0.239407
O O7 0.585953 0.885288 0.740650
O O8 0.943238 0.500000 0.170674
O O9 0.661646 0.616673 0.513204
O O10 0.000000 0.619616 0.000000
O O11 0.163598 0.616692 0.011276
O O12 0.798274 0.000000 0.604468
O O13 0.378473 0.500000 0.864748
#
# Coordination Sequence:
#
# PCOD8056861 Si02
#       5
#     4   4   4   4   4
#     4  12  21  33  45  58  92 133 162 191 209 252
#     4  10  16  27  37  56  78 111 151 184 210 260
#     4   9  17  33  54  72  89 105 133 193 255 292
#     4  10  16  25  41  58  76 101 153 201 217 247
#     4  10  21  33  48  71  89 114 160 193 225 272
#
# _framework density 16.219000999999999
#
# number of rings (size 3 to 8) (size 9 to 14) (size 15 to 20)
#    0.000    1.800    4.000    4.800    0.000    3.200 
#    0.000    0.000    0.000    0.000    0.000    0.000 
#    0.000    0.000    0.000    0.000    0.000  116.000 
#
# Total GULP energy -247918.141797 kJ/mol
# GULP energy per Si atom -12395.907090 kJ/mol
# Density = 1.618209 g / cm^3
# Si number density = 16.219001 Si / 1000 Ang^3
#
#
#
# Elastic Constant Matrix: (Units=GPa)
#
#
# Indices 1 2 3 4 5 6 
#
# 1 69.2084 24.2905 65.4332 0.0000 -27.8672 0.0000
# 2 24.2905 46.5516 26.0823 0.0000 -3.4204 0.0000
# 3 65.4332 26.0823 104.3403 0.0000 -42.6223 0.0000
# 4 0.0000 0.0000 0.0000 14.3053 0.0000 -10.3538
# 5 -27.8672 -3.4204 -42.6223 0.0000 38.6791 0.0000
# 6 0.0000 0.0000 0.0000 -10.3538 0.0000 9.2107
#
#
#
# Elastic Compliance Matrix: (Units=1/GPa)
#
#
# Indices 1 2 3 4 5 6 
#
# 1 0.038065 -0.008431 -0.019760 0.000000 0.004905 0.000000
# 2 -0.008431 0.028483 -0.005975 0.000000 -0.010139 0.000000
# 3 -0.019760 -0.005975 0.031714 0.000000 0.020181 0.000000
# 4 0.000000 0.000000 0.000000 0.375009 0.000000 0.421548
# 5 0.004905 -0.010139 0.020181 0.000000 0.050730 0.000000
# 6 0.000000 0.000000 0.000000 0.421548 0.000000 0.582433
#
#
# Mechanical properties :
#
#
# Convention : Reuss Voigt Hill
#
# Bulk Modulus (GPa) = 33.41077 50.19025 41.80051
# Shear Modulus (GPa) = 4.22033 19.39198 11.80615
#
# Velocity S-wave (km/s) = 1.61485 3.46154 2.70093
# Velocity P-wave (km/s) = 4.91136 6.85485 5.96282
#
# Compressibility (1/GPa) = 0.02993047
#
# Stress axis : x y z
#
# Youngs Moduli (GPa) = 26.27056 35.10832 31.53221
#
# Poissons Ratio (x) = 0.29598 0.62309
# Poissons Ratio (y) = 0.22148 0.18841
# Poissons Ratio (z) = 0.51912 0.20977
#
# Static dielectric constant tensor:
#      x y z
#    x 5.472860 0.000000 -3.666250 
#    y 0.000000 2.906640 0.000000 
#    z -3.666250 0.000000 7.268100 
# 
# 
# High freq. dielectric constant tensor:
#      x y z
#    x 1.595570 0.000000 -0.055510 
#    y 0.000000 1.606320 0.000000 
#    z -0.055510 0.000000 1.622840 
# 
# From -- ./inp_files/6703.got.cif
#   From: 2010.06.25/outbox.cif.g09.slc.cpg/sg10_4_cif.got.tgz:6703.got - 2010.06.27 22:07:45.
