data_PCOD8056434
_publ_section_title
;
Structure prediction by ZEFSAII (Michael W. Deem and Ramdas Pophale) SiO2 
 PCOD8056434
Probable space group: C C
;
_chemical_formula_sum "Si O2"
_cell_formula_units_Z 24
_cell_length_a 10.887049
_cell_length_b 11.259287
_cell_length_c 9.546403
_cell_angle_alpha 90.000000
_cell_angle_beta 110.992873
_cell_angle_gamma 90.000000
_cell_volume 1092.529826
_symmetry_space_group_name_H-M "C C"
_symmetry_group_IT_number 9
_symmetry_cell_setting 'monoclinic'
loop_
_space_group_symop_operation_xyz
x,y,z
x,-y,1/2+z
1/2+x,1/2+y,z
1/2+x,1/2-y,1/2+z
loop_
_atom_site_type_symbol
_atom_site_label
_atom_site_fract_x
_atom_site_fract_y
_atom_site_fract_z
Si Si1 0.866370 0.677735 0.152710
Si Si2 0.644945 0.476700 0.452346
Si Si3 0.975463 0.918193 0.125061
Si Si4 0.835817 0.677735 0.453792
Si Si5 0.726724 0.918193 0.481441
Si Si6 0.057242 0.476700 0.154155
O O1 0.724344 0.640567 0.032987
O O2 0.929022 0.782225 0.083979
O O3 0.851093 0.726982 0.303251
O O4 0.959826 0.563382 0.197301
O O5 0.529336 0.434410 0.303849
O O6 0.587541 0.548727 0.560230
O O7 0.742360 0.563382 0.409201
O O8 0.851093 1.000000 0.053251
O O9 0.773165 0.782225 0.522522
O O10 0.977843 0.640567 0.573515
O O11 0.672851 0.934410 0.302652
O O12 0.614646 0.951272 0.546272
#
# Coordination Sequence:
#
# PCOD8056434 Si02
#       6
#     4   4   4   4   4   4
#     4  11  24  45  74  98 138 187 224 290 345 398
#     4  11  25  47  69 103 140 176 238 281 342 414
#     4  12  26  44  71 102 138 182 231 282 344 414
#     4  11  24  45  74  98 138 187 224 290 345 398
#     4  12  26  44  71 102 138 182 231 282 344 414
#     4  11  25  47  69 103 140 176 238 281 342 414
#
# _framework density 21.967362000000001
#
# number of rings (size 3 to 8) (size 9 to 14) (size 15 to 20)
#    0.000    0.667    3.333    4.000    4.667    2.667 
#    6.000    0.000    0.000    0.000    0.000    0.000 
#    0.000    0.000    0.000    0.000    0.000    0.000 
#
# Total GULP energy -148891.755958 kJ/mol
# GULP energy per Si atom -12407.646330 kJ/mol
# Density = 2.191736 g / cm^3
# Si number density = 21.967362 Si / 1000 Ang^3
#
#
#
# Elastic Constant Matrix: (Units=GPa)
#
#
# Indices 1 2 3 4 5 6 
#
# 1 102.2032 49.1332 48.0231 0.0000 12.0448 0.0000
# 2 49.1332 123.4173 54.5640 0.0000 17.8524 0.0000
# 3 48.0231 54.5640 131.7624 0.0000 23.8687 0.0000
# 4 0.0000 0.0000 0.0000 16.3659 0.0000 6.4344
# 5 12.0448 17.8524 23.8687 0.0000 48.7131 0.0000
# 6 0.0000 0.0000 0.0000 6.4344 0.0000 54.9890
#
#
#
# Elastic Compliance Matrix: (Units=1/GPa)
#
#
# Indices 1 2 3 4 5 6 
#
# 1 0.013125 -0.003783 -0.003161 0.000000 -0.000310 0.000000
# 2 -0.003783 0.011151 -0.002928 0.000000 -0.001717 0.000000
# 3 -0.003161 -0.002928 0.010555 0.000000 -0.003317 0.000000
# 4 0.000000 0.000000 0.000000 0.064049 0.000000 -0.007495
# 5 -0.000310 -0.001717 -0.003317 0.000000 0.022859 0.000000
# 6 0.000000 0.000000 0.000000 -0.007495 0.000000 0.019062
#
#
# Mechanical properties :
#
#
# Convention : Reuss Voigt Hill
#
# Bulk Modulus (GPa) = 66.28050 73.42483 69.85266
# Shear Modulus (GPa) = 30.19780 37.72444 33.96112
#
# Velocity S-wave (km/s) = 3.71167 4.14852 3.93616
# Velocity P-wave (km/s) = 6.97183 7.51293 7.24743
#
# Compressibility (1/GPa) = 0.01508739
#
# Stress axis : x y z
#
# Youngs Moduli (GPa) = 76.19211 89.67450 94.74217
#
# Poissons Ratio (x) = 0.33921 0.29947
# Poissons Ratio (y) = 0.28821 0.27743
# Poissons Ratio (z) = 0.24084 0.26259
#
# Static dielectric constant tensor:
#      x y z
#    x 4.166310 0.000000 -0.019790 
#    y 0.000000 3.993450 0.000000 
#    z -0.019790 0.000000 3.937050 
# 
# 
# High freq. dielectric constant tensor:
#      x y z
#    x 1.879990 0.000000 0.004490 
#    y 0.000000 1.869180 0.000000 
#    z 0.004490 0.000000 1.863800 
# 
# From -- ./inp_files/4804.got.cif
#   From: 2010.06.25/outbox.cif.g09.slc.cpg/sg9_3_cif.got.tgz:4804.got - 2010.06.27 21:40:51.
