data_PCOD8056652
_publ_section_title
;
Structure prediction by ZEFSAII (Michael W. Deem and Ramdas Pophale) SiO2 
 PCOD8056652
Probable space group: C C
;
_chemical_formula_sum "Si O2"
_cell_formula_units_Z 32
_cell_length_a 10.745497
_cell_length_b 15.734341
_cell_length_c 16.849113
_cell_angle_alpha 90.000000
_cell_angle_beta 149.804775
_cell_angle_gamma 90.000000
_cell_volume 1432.765521
_symmetry_space_group_name_H-M "C C"
_symmetry_group_IT_number 9
_symmetry_cell_setting 'monoclinic'
loop_
_space_group_symop_operation_xyz
x,y,z
x,-y,1/2+z
1/2+x,1/2+y,z
1/2+x,1/2-y,1/2+z
loop_
_atom_site_type_symbol
_atom_site_label
_atom_site_fract_x
_atom_site_fract_y
_atom_site_fract_z
Si Si1 0.706580 0.026935 0.070580
Si Si2 0.203220 0.956831 0.075119
Si Si3 0.509297 0.332389 0.654653
Si Si4 0.262538 0.669586 0.350729
Si Si5 0.980863 0.917975 0.344278
Si Si6 0.926571 0.338935 0.512193
Si Si7 0.167932 0.339175 0.313622
Si Si8 0.433554 0.089390 0.302695
O O1 0.485868 0.080993 0.988700
O O2 0.922790 0.091976 0.165010
O O3 0.785355 0.954039 0.174723
O O4 0.624002 0.974887 0.948187
O O5 0.464194 0.910208 0.218752
O O6 0.214933 0.032897 0.144901
O O7 0.968531 0.901963 0.968073
O O8 0.153327 0.002266 0.963757
O O9 0.326452 0.320993 0.479504
O O10 0.515634 0.244952 0.706723
O O11 0.793949 0.349144 0.787075
O O12 0.407495 0.756762 0.446022
O O13 0.134718 0.673420 0.194282
O O14 0.063625 0.647930 0.308565
O O15 0.155969 0.848560 0.400523
O O16 0.842150 0.872151 0.339667
#
# Coordination Sequence:
#
# PCOD8056652 Si02
#       8
#     4   4   4   4   4   4   4   4
#     4  12  27  44  71 104 134 178 230 278 337 396
#     4  12  23  46  73  94 136 180 228 276 333 398
#     4  12  27  46  68 103 139 179 224 278 339 405
#     4  12  27  45  71 100 139 181 222 279 342 398
#     4  12  25  47  72 100 135 179 229 281 334 400
#     4  12  27  46  68 103 139 179 224 278 339 405
#     4  12  27  45  71 100 139 181 222 279 342 398
#     4  12  25  47  72 100 135 179 229 281 334 400
#
# _framework density 22.334427999999999
#
# number of rings (size 3 to 8) (size 9 to 14) (size 15 to 20)
#    0.000    0.000    5.000    4.500    7.000    2.000 
#    0.000    0.000    0.000    0.000    0.000    0.000 
#    0.000    0.000    0.000    0.000    0.000    0.000 
#
# Total GULP energy -198481.209435 kJ/mol
# GULP energy per Si atom -12405.075590 kJ/mol
# Density = 2.228359 g / cm^3
# Si number density = 22.334428 Si / 1000 Ang^3
#
#
#
# Elastic Constant Matrix: (Units=GPa)
#
#
# Indices 1 2 3 4 5 6 
#
# 1 71.9864 -14.5731 7.5261 0.0030 9.2393 -0.0032
# 2 -14.5731 81.8731 25.5620 -0.0007 -15.8293 -0.0008
# 3 7.5261 25.5620 80.4615 0.0041 -1.8114 0.0149
# 4 0.0030 -0.0007 0.0041 44.9031 0.0022 8.7346
# 5 9.2393 -15.8293 -1.8114 0.0022 40.1289 0.0024
# 6 -0.0032 -0.0008 0.0149 8.7346 0.0024 49.6454
#
#
#
# Elastic Compliance Matrix: (Units=1/GPa)
#
#
# Indices 1 2 3 4 5 6 
#
# 1 0.015052 0.002965 -0.002404 -0.000001 -0.002405 0.000002
# 2 0.002965 0.015301 -0.005023 0.000000 0.005126 0.000002
# 3 -0.002404 -0.005023 0.014231 0.000000 -0.000785 -0.000004
# 4 -0.000001 0.000000 0.000000 0.023059 -0.000001 -0.004057
# 5 -0.002405 0.005126 -0.000785 -0.000001 0.027460 -0.000001
# 6 0.000002 0.000002 -0.000004 -0.004057 -0.000001 0.020857
#
#
# Mechanical properties :
#
#
# Convention : Reuss Voigt Hill
#
# Bulk Modulus (GPa) = 28.04274 30.15011 29.09642
# Shear Modulus (GPa) = 36.55752 41.32255 38.94003
#
# Velocity S-wave (km/s) = 4.05016 4.30603 4.18005
# Velocity P-wave (km/s) = 5.86982 6.18476 6.02935
#
# Compressibility (1/GPa) = 0.03565986
#
# Stress axis : x y z
#
# Youngs Moduli (GPa) = 66.43784 65.35474 70.26805
#
# Poissons Ratio (x) = -0.19376 0.16892
# Poissons Ratio (y) = -0.19697 0.35295
# Poissons Ratio (z) = 0.15971 0.32827
#
# Static dielectric constant tensor:
#      x y z
#    x 4.024490 -0.000010 -0.124570 
#    y -0.000010 3.991710 0.000000 
#    z -0.124570 0.000000 4.040710 
# 
# 
# High freq. dielectric constant tensor:
#      x y z
#    x 1.887250 0.000000 -0.000120 
#    y 0.000000 1.893100 0.000000 
#    z -0.000120 0.000000 1.889560 
# 
# From -- ./inp_files/7354.got.cif
#   From: 2010.06.25/outbox.cif.g09.slc.cpg/sg9_4_cif.got.tgz:7354.got - 2010.06.27 21:40:51.
