data_PCOD8056736
_publ_section_title
;
Structure prediction by ZEFSAII (Michael W. Deem and Ramdas Pophale) SiO2 
 PCOD8056736
Probable space group: C C
;
_chemical_formula_sum "Si O2"
_cell_formula_units_Z 24
_cell_length_a 8.616057
_cell_length_b 12.417795
_cell_length_c 15.610439
_cell_angle_alpha 90.000000
_cell_angle_beta 32.122772
_cell_angle_gamma 90.000000
_cell_volume 888.103529
_symmetry_space_group_name_H-M "C C"
_symmetry_group_IT_number 9
_symmetry_cell_setting 'monoclinic'
loop_
_space_group_symop_operation_xyz
x,y,z
x,-y,1/2+z
1/2+x,1/2+y,z
1/2+x,1/2-y,1/2+z
loop_
_atom_site_type_symbol
_atom_site_label
_atom_site_fract_x
_atom_site_fract_y
_atom_site_fract_z
Si Si1 0.878940 0.132529 0.278810
Si Si2 0.085750 0.071295 0.487103
Si Si3 0.060700 0.561302 0.844453
Si Si4 0.855794 0.453159 0.679983
Si Si5 0.425944 0.807866 0.117343
Si Si6 0.760598 0.195713 0.901086
O O1 0.688539 0.211134 0.428034
O O2 0.980677 0.210067 0.155769
O O3 0.165715 0.077405 0.185165
O O4 0.668133 0.035735 0.353305
O O5 0.743297 0.064994 0.669893
O O6 0.153655 0.074064 0.355081
O O7 0.195727 0.186481 0.468611
O O8 0.232311 0.970399 0.469682
O O9 0.101674 0.668550 0.883704
O O10 0.965929 0.574487 0.639639
O O11 0.152826 0.383077 0.528980
O O12 0.106266 0.809865 0.224199
#
# Coordination Sequence:
#
# PCOD8056736 Si02
#       6
#     4   4   4   4   4   4
#     4  12  28  49  79 115 153 206 264 323 389 472
#     4  12  30  46  80 114 152 208 257 320 399 463
#     4  12  25  52  78 114 157 202 265 324 387 473
#     4  12  28  49  75 114 157 196 261 328 382 466
#     4  12  27  49  81 110 155 206 256 325 397 457
#     4  12  26  51  79 109 158 204 261 322 392 463
#
# _framework density 27.023878
#
# number of rings (size 3 to 8) (size 9 to 14) (size 15 to 20)
#    0.000    0.000    5.000    3.000   11.667    1.333 
#    0.000    0.000    0.000    0.000    0.000    0.000 
#    0.000    0.000    0.000    0.000    0.000    0.000 
#
# Total GULP energy -148790.750148 kJ/mol
# GULP energy per Si atom -12399.229179 kJ/mol
# Density = 2.696237 g / cm^3
# Si number density = 27.023878 Si / 1000 Ang^3
#
#
#
# Elastic Constant Matrix: (Units=GPa)
#
#
# Indices 1 2 3 4 5 6 
#
# 1 71.0851 7.6097 -6.8949 0.0047 2.2616 0.0042
# 2 7.6097 99.6417 -14.6209 -0.0111 -9.9885 0.0153
# 3 -6.8949 -14.6209 92.2382 -0.0332 0.6807 0.0225
# 4 0.0047 -0.0111 -0.0332 40.9681 0.0023 6.7394
# 5 2.2616 -9.9885 0.6807 0.0023 42.0833 0.0019
# 6 0.0042 0.0153 0.0225 6.7394 0.0019 35.4565
#
#
#
# Elastic Compliance Matrix: (Units=1/GPa)
#
#
# Indices 1 2 3 4 5 6 
#
# 1 0.014302 -0.001063 0.000908 -0.000001 -0.001036 -0.000002
# 2 -0.001063 0.010605 0.001583 0.000005 0.002549 -0.000007
# 3 0.000908 0.001583 0.011159 0.000011 0.000146 -0.000010
# 4 -0.000001 0.000005 0.000011 0.025197 0.000000 -0.004789
# 5 -0.001036 0.002549 0.000146 0.000000 0.024421 -0.000002
# 6 -0.000002 -0.000007 -0.000010 -0.004789 -0.000002 0.029114
#
#
# Mechanical properties :
#
#
# Convention : Reuss Voigt Hill
#
# Bulk Modulus (GPa) = 25.69176 26.12808 25.90992
# Shear Modulus (GPa) = 40.02689 42.15965 41.09327
#
# Velocity S-wave (km/s) = 3.85277 3.95408 3.90375
# Velocity P-wave (km/s) = 5.41475 5.52592 5.47062
#
# Compressibility (1/GPa) = 0.03892299
#
# Stress axis : x y z
#
# Youngs Moduli (GPa) = 69.91803 94.29645 89.61213
#
# Poissons Ratio (x) = 0.10022 -0.08139
# Poissons Ratio (y) = 0.07431 -0.14183
# Poissons Ratio (z) = -0.06351 -0.14925
#
# Static dielectric constant tensor:
#      x y z
#    x 4.483080 -0.000010 0.136030 
#    y -0.000010 5.018390 0.000080 
#    z 0.136030 0.000080 5.261980 
# 
# 
# High freq. dielectric constant tensor:
#      x y z
#    x 2.063830 0.000000 0.010150 
#    y 0.000000 2.096200 0.000010 
#    z 0.010150 0.000010 2.116790 
# 
# From -- ./inp_files/10719.got.cif
#   From: 2010.06.25/outbox.cif.g09.slc.cpg/sg9_6_cif.got.tgz:10719.got - 2010.06.27 21:40:51.
