data_PCOD8056266
_publ_section_title
;
Structure prediction by ZEFSAII (Michael W. Deem and Ramdas Pophale) SiO2 
 PCOD8056266
Probable space group: C C
;
_chemical_formula_sum "Si O2"
_cell_formula_units_Z 32
_cell_length_a 15.855797
_cell_length_b 9.177942
_cell_length_c 18.215786
_cell_angle_alpha 90.000000
_cell_angle_beta 147.905405
_cell_angle_gamma 90.000000
_cell_volume 1408.433587
_symmetry_space_group_name_H-M "C C"
_symmetry_group_IT_number 9
_symmetry_cell_setting 'monoclinic'
loop_
_space_group_symop_operation_xyz
x,y,z
x,-y,1/2+z
1/2+x,1/2+y,z
1/2+x,1/2-y,1/2+z
loop_
_atom_site_type_symbol
_atom_site_label
_atom_site_fract_x
_atom_site_fract_y
_atom_site_fract_z
Si Si1 0.084260 0.306087 0.485210
Si Si2 0.710786 0.605703 0.355243
Si Si3 0.368442 0.698603 0.083428
Si Si4 0.778868 0.865203 0.764976
Si Si5 0.425634 0.885949 0.879455
Si Si6 0.139743 0.226563 0.805014
Si Si7 0.812542 0.882809 0.048360
Si Si8 0.750004 0.842377 0.167643
O O1 0.239137 0.275424 0.551151
O O2 0.142855 0.297489 0.612527
O O3 0.956927 0.181107 0.374533
O O4 0.995306 0.459640 0.403559
O O5 0.550916 0.703659 0.246423
O O6 0.845358 0.677581 0.505370
O O7 0.771140 0.600839 0.316321
O O8 0.687029 0.438497 0.359513
O O9 0.346974 0.536576 0.034095
O O10 0.746861 0.808342 0.823538
O O11 0.774572 0.040229 0.751324
O O12 0.363122 0.795862 0.763144
O O13 0.564087 0.798363 0.025331
O O14 0.958192 0.229582 0.644498
O O15 0.159841 0.312030 0.896939
O O16 0.789785 0.914975 0.118067
#
# Coordination Sequence:
#
# PCOD8056266 Si02
#       8
#     4   4   4   4   4   4   4   4
#     4  11  23  44  69  98 135 175 229 278 333 400
#     4  11  25  45  65 101 136 178 228 275 337 403
#     4  11  24  44  66  97 137 173 226 280 331 399
#     4  11  23  44  70  97 134 179 228 277 333 405
#     4  11  23  45  67  97 139 175 225 282 333 400
#     4  11  25  42  69  96 136 176 224 276 338 400
#     4  11  24  44  65 100 134 175 226 275 337 400
#     4  11  25  44  69 100 137 177 228 279 336 405
#
# _framework density 22.720274
#
# number of rings (size 3 to 8) (size 9 to 14) (size 15 to 20)
#    0.000    1.000    3.750    3.000    5.250    2.000 
#    2.250    0.000    0.000    0.000    0.000    0.000 
#    0.000    0.000    0.000    0.000    0.000    0.000 
#
# Total GULP energy -198359.827844 kJ/mol
# GULP energy per Si atom -12397.489240 kJ/mol
# Density = 2.266856 g / cm^3
# Si number density = 22.720274 Si / 1000 Ang^3
#
#
#
# Elastic Constant Matrix: (Units=GPa)
#
#
# Indices 1 2 3 4 5 6 
#
# 1 72.8858 11.1946 2.1161 -0.0002 12.0628 -0.0001
# 2 11.1946 42.6483 24.7389 -0.0008 -13.1280 -0.0003
# 3 2.1161 24.7389 84.1513 -0.0008 5.7325 -0.0004
# 4 -0.0002 -0.0008 -0.0008 47.8098 -0.0003 -0.9565
# 5 12.0628 -13.1280 5.7325 -0.0003 42.1222 -0.0001
# 6 -0.0001 -0.0003 -0.0004 -0.9565 -0.0001 26.1118
#
#
#
# Elastic Compliance Matrix: (Units=1/GPa)
#
#
# Indices 1 2 3 4 5 6 
#
# 1 0.016089 -0.007908 0.002425 0.000000 -0.007402 0.000000
# 2 -0.007908 0.037091 -0.011756 0.000000 0.015424 0.000000
# 3 0.002425 -0.011756 0.015721 0.000000 -0.006498 0.000000
# 4 0.000000 0.000000 0.000000 0.020932 0.000000 0.000767
# 5 -0.007402 0.015424 -0.006498 0.000000 0.031552 0.000000
# 6 0.000000 0.000000 0.000000 0.000767 0.000000 0.038325
#
#
# Mechanical properties :
#
#
# Convention : Reuss Voigt Hill
#
# Bulk Modulus (GPa) = 29.05122 30.64275 29.84699
# Shear Modulus (GPa) = 24.31171 33.98449 29.14810
#
# Velocity S-wave (km/s) = 3.27470 3.87172 3.58566
# Velocity P-wave (km/s) = 5.20696 5.78820 5.50526
#
# Compressibility (1/GPa) = 0.03442196
#
# Stress axis : x y z
#
# Youngs Moduli (GPa) = 62.15256 26.96106 63.60919
#
# Poissons Ratio (x) = 0.21322 -0.15422
# Poissons Ratio (y) = 0.49152 0.74778
# Poissons Ratio (z) = -0.15069 0.31695
#
# Static dielectric constant tensor:
#      x y z
#    x 3.965400 0.000000 0.274770 
#    y 0.000000 3.909060 0.000000 
#    z 0.274770 0.000000 4.262480 
# 
# 
# High freq. dielectric constant tensor:
#      x y z
#    x 1.893220 0.000000 0.015730 
#    y 0.000000 1.885590 0.000000 
#    z 0.015730 0.000000 1.905110 
# 
# From -- ./inp_files/34065.got.cif
#   From: 2010.06.25/outbox.cif.g09.slc.cpg/sg9_18_cif.got.tgz:34065.got - 2010.06.27 21:40:51.
