data_PCOD8056618
_publ_section_title
;
Structure prediction by ZEFSAII (Michael W. Deem and Ramdas Pophale) SiO2 
 PCOD8056618
Probable space group: C C
;
_chemical_formula_sum "Si O2"
_cell_formula_units_Z 32
_cell_length_a 13.315463
_cell_length_b 5.205622
_cell_length_c 21.348466
_cell_angle_alpha 90.000000
_cell_angle_beta 55.338094
_cell_angle_gamma 90.000000
_cell_volume 1217.147706
_symmetry_space_group_name_H-M "C C"
_symmetry_group_IT_number 9
_symmetry_cell_setting 'monoclinic'
loop_
_space_group_symop_operation_xyz
x,y,z
x,-y,1/2+z
1/2+x,1/2+y,z
1/2+x,1/2-y,1/2+z
loop_
_atom_site_type_symbol
_atom_site_label
_atom_site_fract_x
_atom_site_fract_y
_atom_site_fract_z
Si Si1 0.346530 0.807296 0.532100
Si Si2 0.764419 0.194231 0.127923
Si Si3 0.107598 0.828567 0.985037
Si Si4 0.197462 0.187877 0.848344
Si Si5 0.329340 0.449663 0.908772
Si Si6 0.543118 0.784621 0.796217
Si Si7 0.979837 0.940183 0.639813
Si Si8 0.426384 0.971272 0.728179
O O1 0.269077 0.575972 0.589800
O O2 0.483653 0.828293 0.513250
O O3 0.340650 0.767966 0.458723
O O4 0.287882 0.080211 0.569533
O O5 0.633485 0.261603 0.204781
O O6 0.860945 0.176199 0.148902
O O7 0.087699 0.012481 0.052207
O O8 0.225209 0.661056 0.961838
O O9 0.118641 0.010178 0.921114
O O10 0.288700 0.360465 0.854980
O O11 0.114063 0.375042 0.833851
O O12 0.281459 0.021097 0.771034
O O13 0.467307 0.543429 0.849363
O O14 0.445597 0.973502 0.798041
O O15 0.952836 0.200933 0.686309
O O16 0.014459 0.700080 0.671993
#
# Coordination Sequence:
#
# PCOD8056618 Si02
#       8
#     4   4   4   4   4   4   4   4
#     4  11  28  53  79 121 158 210 271 332 398 474
#     4  11  27  51  82 117 162 207 266 338 396 470
#     4  11  27  49  82 115 162 211 266 337 394 479
#     4  12  28  51  79 113 169 209 267 329 402 477
#     4  12  29  52  80 118 160 218 268 324 407 485
#     4  12  28  52  78 121 159 211 269 330 400 482
#     4  11  26  52  84 117 156 212 268 332 403 469
#     4  12  27  52  80 120 158 210 271 326 402 484
#
# _framework density 26.290973000000001
#
# number of rings (size 3 to 8) (size 9 to 14) (size 15 to 20)
#    0.000    0.500    3.750    2.250    8.750    3.000 
#    2.250    0.000    0.000    0.000    0.000    0.000 
#    0.000    0.000    0.000    0.000    0.000    0.000 
#
# Total GULP energy -198244.892290 kJ/mol
# GULP energy per Si atom -12390.305768 kJ/mol
# Density = 2.623113 g / cm^3
# Si number density = 26.290973 Si / 1000 Ang^3
#
#
#
# Elastic Constant Matrix: (Units=GPa)
#
#
# Indices 1 2 3 4 5 6 
#
# 1 102.4346 21.5468 34.6971 -0.0011 14.9074 -0.0061
# 2 21.5468 128.9935 42.9694 0.0719 9.9671 0.0394
# 3 34.6971 42.9694 101.8392 -0.0372 -1.6483 -0.0082
# 4 -0.0011 0.0719 -0.0372 41.2270 -0.0114 8.0511
# 5 14.9074 9.9671 -1.6483 -0.0114 57.0686 -0.0057
# 6 -0.0061 0.0394 -0.0082 8.0511 -0.0057 24.0170
#
#
#
# Elastic Compliance Matrix: (Units=1/GPa)
#
#
# Indices 1 2 3 4 5 6 
#
# 1 0.011592 -0.000428 -0.003818 -0.000004 -0.003064 0.000003
# 2 -0.000428 0.009201 -0.003763 -0.000018 -0.001604 -0.000011
# 3 -0.003818 -0.003763 0.012741 0.000018 0.002023 0.000004
# 4 -0.000004 -0.000018 0.000018 0.025955 0.000009 -0.008701
# 5 -0.003064 -0.001604 0.002023 0.000009 0.018662 0.000004
# 6 0.000003 -0.000011 0.000004 -0.008701 0.000004 0.044554
#
#
# Mechanical properties :
#
#
# Convention : Reuss Voigt Hill
#
# Bulk Modulus (GPa) = 57.09023 59.07709 58.08366
# Shear Modulus (GPa) = 34.58779 40.06612 37.32695
#
# Velocity S-wave (km/s) = 3.63102 3.90801 3.77206
# Velocity P-wave (km/s) = 6.27224 6.54849 6.41185
#
# Compressibility (1/GPa) = 0.01751613
#
# Stress axis : x y z
#
# Youngs Moduli (GPa) = 86.27005 108.68337 78.48886
#
# Poissons Ratio (x) = 0.04646 0.29971
# Poissons Ratio (y) = 0.03688 0.29532
# Poissons Ratio (z) = 0.32942 0.40893
#
# Static dielectric constant tensor:
#      x y z
#    x 5.235450 0.000060 0.058760 
#    y 0.000060 4.591420 -0.000320 
#    z 0.058760 -0.000320 5.077850 
# 
# 
# High freq. dielectric constant tensor:
#      x y z
#    x 2.077700 0.000000 0.002520 
#    y 0.000000 2.034360 -0.000010 
#    z 0.002520 -0.000010 2.075680 
# 
# From -- ./inp_files/33536.got.cif
#   From: 2010.06.25/outbox.cif.g09.slc.cpg/sg9_17_cif.got.tgz:33536.got - 2010.06.27 21:40:51.
