data_PCOD8056694
_publ_section_title
;
Structure prediction by ZEFSAII (Michael W. Deem and Ramdas Pophale) SiO2 
 PCOD8056694
Probable space group: C C
;
_chemical_formula_sum "Si O2"
_cell_formula_units_Z 32
_cell_length_a 11.753063
_cell_length_b 8.712303
_cell_length_c 14.063166
_cell_angle_alpha 90.000000
_cell_angle_beta 119.254064
_cell_angle_gamma 90.000000
_cell_volume 1256.357780
_symmetry_space_group_name_H-M "C C"
_symmetry_group_IT_number 9
_symmetry_cell_setting 'monoclinic'
loop_
_space_group_symop_operation_xyz
x,y,z
x,-y,1/2+z
1/2+x,1/2+y,z
1/2+x,1/2-y,1/2+z
loop_
_atom_site_type_symbol
_atom_site_label
_atom_site_fract_x
_atom_site_fract_y
_atom_site_fract_z
Si Si1 0.858120 0.884520 0.525530
Si Si2 0.036741 0.154083 0.822093
Si Si3 0.987738 0.578826 0.617446
Si Si4 0.765763 0.022742 0.683514
Si Si5 0.569862 0.459224 0.006745
Si Si6 0.603047 0.999711 0.360310
Si Si7 0.708314 0.683252 0.723584
Si Si8 0.942340 0.351638 0.444415
O O1 0.873967 0.704376 0.556093
O O2 0.821045 0.980882 0.603226
O O3 0.749132 0.931768 0.401278
O O4 0.002358 0.913288 0.544170
O O5 0.090812 0.319774 0.875591
O O6 0.076311 0.138830 0.727495
O O7 0.109463 0.028878 0.920208
O O8 0.882065 0.126870 0.776026
O O9 0.933692 0.422405 0.546569
O O10 0.131101 0.620080 0.630614
O O11 0.004983 0.553119 0.737217
O O12 0.730707 0.867148 0.728987
O O13 0.457906 0.329918 0.953637
O O14 0.696317 0.388993 0.112969
O O15 0.570060 0.919571 0.446705
O O16 0.820773 0.601637 0.829640
#
# Coordination Sequence:
#
# PCOD8056694 Si02
#       8
#     4   4   4   4   4   4   4   4
#     4  12  27  49  79 113 160 207 266 337 404 482
#     4  12  26  49  81 115 160 220 263 338 407 480
#     4  12  27  50  81 114 161 210 265 335 408 475
#     4  12  24  52  79 112 162 205 269 333 393 482
#     4  12  25  46  79 114 156 213 276 325 414 473
#     4  12  26  51  77 114 162 204 271 330 404 489
#     4  12  25  48  75 117 158 209 271 341 393 478
#     4  12  26  47  75 115 159 210 269 337 397 477
#
# _framework density 25.47045
#
# number of rings (size 3 to 8) (size 9 to 14) (size 15 to 20)
#    0.000    0.000    6.250    3.000    0.000    5.000 
#    0.000    0.000    0.000    0.000    0.000    0.000 
#    0.000    0.000    0.000    0.000    0.000    0.000 
#
# Total GULP energy -198308.556416 kJ/mol
# GULP energy per Si atom -12394.284776 kJ/mol
# Density = 2.541248 g / cm^3
# Si number density = 25.470450 Si / 1000 Ang^3
#
#
#
# Elastic Constant Matrix: (Units=GPa)
#
#
# Indices 1 2 3 4 5 6 
#
# 1 57.7515 14.8359 18.5150 0.0000 9.0813 0.0000
# 2 14.8359 126.6507 57.1072 0.0000 10.8828 0.0000
# 3 18.5150 57.1072 149.3693 0.0000 18.6212 0.0000
# 4 0.0000 0.0000 0.0000 41.0834 0.0000 3.8527
# 5 9.0813 10.8828 18.6212 0.0000 50.2427 0.0000
# 6 0.0000 0.0000 0.0000 3.8527 0.0000 44.5190
#
#
#
# Elastic Compliance Matrix: (Units=1/GPa)
#
#
# Indices 1 2 3 4 5 6 
#
# 1 0.018519 -0.001280 -0.001492 0.000000 -0.002517 0.000000
# 2 -0.001280 0.009656 -0.003461 0.000000 -0.000577 0.000000
# 3 -0.001492 -0.003461 0.008467 0.000000 -0.002119 0.000000
# 4 0.000000 0.000000 0.000000 0.024540 0.000000 -0.002124
# 5 -0.002517 -0.000577 -0.002119 0.000000 0.021269 0.000000
# 6 0.000000 0.000000 0.000000 -0.002124 0.000000 0.022646
#
#
# Mechanical properties :
#
#
# Convention : Reuss Voigt Hill
#
# Bulk Modulus (GPa) = 41.36536 57.18752 49.27644
# Shear Modulus (GPa) = 39.80215 43.38991 41.59603
#
# Velocity S-wave (km/s) = 3.95736 4.13187 4.04556
# Velocity P-wave (km/s) = 6.09563 6.72788 6.41955
#
# Compressibility (1/GPa) = 0.02417482
#
# Stress axis : x y z
#
# Youngs Moduli (GPa) = 53.99973 103.56385 118.10363
#
# Poissons Ratio (x) = 0.13258 0.17624
# Poissons Ratio (y) = 0.06913 0.40876
# Poissons Ratio (z) = 0.08058 0.35843
#
# Static dielectric constant tensor:
#      x y z
#    x 4.631760 0.000000 -0.028100 
#    y 0.000000 4.345680 0.000000 
#    z -0.028100 0.000000 4.656300 
# 
# 
# High freq. dielectric constant tensor:
#      x y z
#    x 2.019320 0.000000 -0.003420 
#    y 0.000000 1.999420 0.000000 
#    z -0.003420 0.000000 2.032890 
# 
# From -- ./inp_files/24431.got.cif
#   From: 2010.06.25/outbox.cif.g09.slc.cpg/sg9_13_cif.got.tgz:24431.got - 2010.06.27 21:40:51.
