data_PCOD8056532
_publ_section_title
;
Structure prediction by ZEFSAII (Michael W. Deem and Ramdas Pophale) SiO2 
 PCOD8056532
Probable space group: C C
;
_chemical_formula_sum "Si O2"
_cell_formula_units_Z 32
_cell_length_a 10.930517
_cell_length_b 15.821341
_cell_length_c 9.448877
_cell_angle_alpha 90.000000
_cell_angle_beta 120.265196
_cell_angle_gamma 90.000000
_cell_volume 1411.328291
_symmetry_space_group_name_H-M "C C"
_symmetry_group_IT_number 9
_symmetry_cell_setting 'monoclinic'
loop_
_space_group_symop_operation_xyz
x,y,z
x,-y,1/2+z
1/2+x,1/2+y,z
1/2+x,1/2-y,1/2+z
loop_
_atom_site_type_symbol
_atom_site_label
_atom_site_fract_x
_atom_site_fract_y
_atom_site_fract_z
Si Si1 0.713280 0.474286 0.375000
Si Si2 0.900839 0.834835 0.561354
Si Si3 0.018071 0.549095 0.560818
Si Si4 0.523306 0.502474 0.515081
Si Si5 0.667528 0.778752 0.207448
Si Si6 0.320976 0.198825 0.038446
Si Si7 0.351185 0.336745 0.859499
Si Si8 0.071978 0.596595 0.287347
O O1 0.849675 0.533220 0.486247
O O2 0.574951 0.498932 0.384140
O O3 0.668482 0.493452 0.188662
O O4 0.731293 0.374270 0.409363
O O5 0.791503 0.781531 0.399169
O O6 0.839450 0.839588 0.683778
O O7 0.057146 0.796082 0.672401
O O8 0.920015 0.925878 0.498898
O O9 0.072049 0.636839 0.657819
O O10 0.067432 0.543628 0.428477
O O11 0.097110 0.471259 0.678739
O O12 0.437107 0.588046 0.480848
O O13 0.732057 0.761130 0.089841
O O14 0.430014 0.151087 0.203098
O O15 0.404678 0.248687 0.960957
O O16 0.196448 0.337222 0.839701
#
# Coordination Sequence:
#
# PCOD8056532 Si02
#       8
#     4   4   4   4   4   4   4   4
#     4  11  25  47  77 106 148 193 251 303 376 442
#     4  12  30  47  75 111 151 198 251 311 376 441
#     4  11  25  46  75 106 145 193 242 306 367 442
#     4  12  26  48  74 108 150 198 249 305 378 445
#     4  12  27  48  79 107 154 195 251 306 376 441
#     4  11  26  48  74 108 142 199 244 305 368 448
#     4  12  29  44  73 106 150 193 248 305 368 442
#     4  11  26  46  71 106 148 187 250 295 373 435
#
# _framework density 22.673677000000001
#
# number of rings (size 3 to 8) (size 9 to 14) (size 15 to 20)
#    0.000    0.500    3.750    3.000   10.500    2.000 
#    0.000    0.000    0.000    0.000    0.000    0.000 
#    0.000    0.000    0.000    0.000    0.000    0.000 
#
# Total GULP energy -198372.595960 kJ/mol
# GULP energy per Si atom -12398.287248 kJ/mol
# Density = 2.262207 g / cm^3
# Si number density = 22.673677 Si / 1000 Ang^3
#
#
#
# Elastic Constant Matrix: (Units=GPa)
#
#
# Indices 1 2 3 4 5 6 
#
# 1 95.2020 27.9975 31.9958 0.0000 -22.9381 0.0000
# 2 27.9975 93.6601 21.0172 0.0000 -4.3185 0.0000
# 3 31.9958 21.0172 98.4525 0.0000 -7.3816 0.0000
# 4 0.0000 0.0000 0.0000 28.1978 0.0000 -10.0984
# 5 -22.9381 -4.3185 -7.3816 0.0000 34.9875 0.0000
# 6 0.0000 0.0000 0.0000 -10.0984 0.0000 30.6395
#
#
#
# Elastic Compliance Matrix: (Units=1/GPa)
#
#
# Indices 1 2 3 4 5 6 
#
# 1 0.014649 -0.003216 -0.003438 0.000000 0.008482 0.000000
# 2 -0.003216 0.011948 -0.001578 0.000000 -0.000967 0.000000
# 3 -0.003438 -0.001578 0.011611 0.000000 0.000001 0.000000
# 4 0.000000 0.000000 0.000000 0.040210 0.000000 0.013253
# 5 0.008482 -0.000967 0.000001 0.000000 0.034023 0.000000
# 6 0.000000 0.000000 0.000000 0.013253 0.000000 0.037006
#
#
# Mechanical properties :
#
#
# Convention : Reuss Voigt Hill
#
# Bulk Modulus (GPa) = 45.99064 49.92618 47.95841
# Shear Modulus (GPa) = 28.87515 32.51856 30.69685
#
# Velocity S-wave (km/s) = 3.57250 3.79119 3.68347
# Velocity P-wave (km/s) = 6.11103 6.42117 6.26802
#
# Compressibility (1/GPa) = 0.02174355
#
# Stress axis : x y z
#
# Youngs Moduli (GPa) = 68.26418 83.69714 86.12199
#
# Poissons Ratio (x) = 0.26920 0.29610
# Poissons Ratio (y) = 0.21956 0.13588
# Poissons Ratio (z) = 0.23471 0.13206
#
# Static dielectric constant tensor:
#      x y z
#    x 3.925040 0.000000 0.022780 
#    y 0.000000 4.225280 0.000000 
#    z 0.022780 0.000000 4.161430 
# 
# 
# High freq. dielectric constant tensor:
#      x y z
#    x 1.895130 0.000000 -0.001900 
#    y 0.000000 1.905630 0.000000 
#    z -0.001900 0.000000 1.904780 
# 
# From -- ./inp_files/7661.got.cif
#   From: 2010.06.25/outbox.cif.g09.slc.cpg/sg9_4_cif.got.tgz:7661.got - 2010.06.27 21:40:51.
