data_PCOD8056691
_publ_section_title
;
Structure prediction by ZEFSAII (Michael W. Deem and Ramdas Pophale) SiO2 
 PCOD8056691
Probable space group: C C
;
_chemical_formula_sum "Si O2"
_cell_formula_units_Z 32
_cell_length_a 11.366248
_cell_length_b 14.258973
_cell_length_c 9.086512
_cell_angle_alpha 90.000000
_cell_angle_beta 117.410058
_cell_angle_gamma 90.000000
_cell_volume 1307.331480
_symmetry_space_group_name_H-M "C C"
_symmetry_group_IT_number 9
_symmetry_cell_setting 'monoclinic'
loop_
_space_group_symop_operation_xyz
x,y,z
x,-y,1/2+z
1/2+x,1/2+y,z
1/2+x,1/2-y,1/2+z
loop_
_atom_site_type_symbol
_atom_site_label
_atom_site_fract_x
_atom_site_fract_y
_atom_site_fract_z
Si Si1 0.875000 0.513236 0.039830
Si Si2 0.977111 0.064977 0.744608
Si Si3 0.090765 0.624987 0.737666
Si Si4 0.198575 0.957922 0.701800
Si Si5 0.495565 0.801447 0.475709
Si Si6 0.812090 0.022011 0.376426
Si Si7 0.722369 0.783894 0.805368
Si Si8 0.593483 0.281845 0.506745
O O1 0.739121 0.519921 0.056842
O O2 0.982944 0.456186 0.191736
O O3 0.835174 0.455102 0.871348
O O4 0.935420 0.612694 0.032374
O O5 0.851427 0.056651 0.563128
O O6 0.989197 0.166995 0.834056
O O7 0.946891 0.989963 0.858234
O O8 0.107083 0.036731 0.725969
O O9 0.087234 0.678387 0.889110
O O10 0.235995 0.577303 0.815488
O O11 0.050426 0.690203 0.574710
O O12 0.134182 0.855088 0.658011
O O13 0.596945 0.742317 0.639968
O O14 0.370349 0.743850 0.341141
O O15 0.714376 0.104531 0.266611
O O16 0.711909 0.753688 0.969907
#
# Coordination Sequence:
#
# PCOD8056691 Si02
#       8
#     4   4   4   4   4   4   4   4
#     4  12  25  48  81 107 156 207 267 321 404 483
#     4  12  25  49  79 113 161 207 268 331 415 481
#     4  12  30  49  79 114 157 213 270 328 406 487
#     4  12  24  49  78 114 154 210 261 332 406 479
#     4  12  27  50  76 119 157 211 268 333 401 486
#     4  12  26  47  80 111 163 209 262 332 411 484
#     4  12  27  47  78 112 163 207 266 331 406 481
#     4  12  28  49  75 120 155 208 270 332 397 491
#
# _framework density 24.477342
#
# number of rings (size 3 to 8) (size 9 to 14) (size 15 to 20)
#    0.000    0.000    6.250    2.250    5.250    4.000 
#    0.000    0.000    0.000    0.000    0.000    0.000 
#    0.000    0.000    0.000    0.000    0.000    0.000 
#
# Total GULP energy -198262.991279 kJ/mol
# GULP energy per Si atom -12391.436955 kJ/mol
# Density = 2.442163 g / cm^3
# Si number density = 24.477342 Si / 1000 Ang^3
#
#
#
# Elastic Constant Matrix: (Units=GPa)
#
#
# Indices 1 2 3 4 5 6 
#
# 1 110.9547 44.7437 46.5993 0.0000 -1.5701 0.0000
# 2 44.7437 98.7778 43.6615 0.0000 1.2583 0.0000
# 3 46.5993 43.6615 126.4681 0.0000 8.3490 0.0000
# 4 0.0000 0.0000 0.0000 49.1039 0.0000 4.3970
# 5 -1.5701 1.2583 8.3490 0.0000 43.9564 0.0000
# 6 0.0000 0.0000 0.0000 4.3970 0.0000 33.9212
#
#
#
# Elastic Compliance Matrix: (Units=1/GPa)
#
#
# Indices 1 2 3 4 5 6 
#
# 1 0.011963 -0.004074 -0.003076 0.000000 0.001128 0.000000
# 2 -0.004074 0.013343 -0.003110 0.000000 0.000063 0.000000
# 3 -0.003076 -0.003110 0.010244 0.000000 -0.001967 0.000000
# 4 0.000000 0.000000 0.000000 0.020604 0.000000 -0.002671
# 5 0.001128 0.000063 -0.001967 0.000000 0.023162 0.000000
# 6 0.000000 0.000000 0.000000 -0.002671 0.000000 0.029826
#
#
# Mechanical properties :
#
#
# Convention : Reuss Voigt Hill
#
# Bulk Modulus (GPa) = 66.52859 67.35661 66.94260
# Shear Modulus (GPa) = 37.12737 38.80937 37.96837
#
# Velocity S-wave (km/s) = 3.89884 3.98618 3.94275
# Velocity P-wave (km/s) = 6.89251 6.98311 6.93796
#
# Compressibility (1/GPa) = 0.01503113
#
# Stress axis : x y z
#
# Youngs Moduli (GPa) = 83.58843 74.94745 97.61855
#
# Poissons Ratio (x) = 0.30532 0.30029
# Poissons Ratio (y) = 0.34052 0.30355
# Poissons Ratio (z) = 0.25713 0.23305
#
# Static dielectric constant tensor:
#      x y z
#    x 4.258600 0.000000 -0.014420 
#    y 0.000000 4.298140 0.000000 
#    z -0.014420 0.000000 4.534860 
# 
# 
# High freq. dielectric constant tensor:
#      x y z
#    x 1.974370 0.000000 -0.001120 
#    y 0.000000 1.962880 0.000000 
#    z -0.001120 0.000000 1.986810 
# 
# From -- ./inp_files/7500.got.cif
#   From: 2010.06.25/outbox.cif.g09.slc.cpg/sg9_4_cif.got.tgz:7500.got - 2010.06.27 21:40:51.
