data_PCOD8056538
_publ_section_title
;
Structure prediction by ZEFSAII (Michael W. Deem and Ramdas Pophale) SiO2 
 PCOD8056538
Probable space group: C C
;
_chemical_formula_sum "Si O2"
_cell_formula_units_Z 32
_cell_length_a 29.371987
_cell_length_b 8.393764
_cell_length_c 9.866162
_cell_angle_alpha 90.000000
_cell_angle_beta 31.459687
_cell_angle_gamma 90.000000
_cell_volume 1269.475697
_symmetry_space_group_name_H-M "C C"
_symmetry_group_IT_number 9
_symmetry_cell_setting 'monoclinic'
loop_
_space_group_symop_operation_xyz
x,y,z
x,-y,1/2+z
1/2+x,1/2+y,z
1/2+x,1/2-y,1/2+z
loop_
_atom_site_type_symbol
_atom_site_label
_atom_site_fract_x
_atom_site_fract_y
_atom_site_fract_z
Si Si1 0.734830 0.176336 0.818400
Si Si2 0.249950 0.113715 0.531670
Si Si3 0.209162 0.686916 0.372753
Si Si4 0.923026 0.176336 0.254467
Si Si5 0.448700 0.686912 0.700101
Si Si6 0.407917 0.886288 0.041171
Si Si7 0.015002 0.675837 0.761667
Si Si8 0.142860 0.175832 0.311188
O O1 0.711246 0.273115 0.012874
O O2 0.828926 0.242422 0.536430
O O3 0.663743 0.206630 0.882412
O O4 0.740909 0.988692 0.831474
O O5 0.274602 0.227048 0.597991
O O6 0.328934 0.000005 0.286415
O O7 0.169903 0.002862 0.784759
O O8 0.203089 0.782087 0.528377
O O9 0.116056 0.683415 0.535639
O O10 0.946619 0.273124 0.059980
O O11 0.994105 0.206623 0.190485
O O12 0.916948 0.988693 0.241382
O O13 0.454774 0.782095 0.544480
O O14 0.541807 0.683394 0.537205
O O15 0.383264 0.772949 0.974856
O O16 0.487967 0.997137 0.788080
#
# Coordination Sequence:
#
# PCOD8056538 Si02
#       8
#     4   4   4   4   4   4   4   4
#     4  12  26  45  72 108 143 190 241 304 362 430
#     4  12  26  46  73 106 145 188 243 302 368 431
#     4  11  27  45  73 106 149 188 246 299 366 437
#     4  12  26  45  72 108 143 190 241 304 362 430
#     4  11  27  45  73 106 149 188 246 299 366 437
#     4  12  26  46  73 106 145 188 243 302 368 431
#     4  11  25  47  72 107 144 195 238 301 366 439
#     4  11  25  47  72 107 144 195 238 301 366 439
#
# _framework density 25.207255
#
# number of rings (size 3 to 8) (size 9 to 14) (size 15 to 20)
#    0.000    0.500    2.500    4.500    3.500   10.000 
#    0.000    0.000    0.000    0.000    0.000    0.000 
#    0.000    0.000    0.000    0.000    0.000    0.000 
#
# Total GULP energy -198484.821486 kJ/mol
# GULP energy per Si atom -12405.301343 kJ/mol
# Density = 2.514988 g / cm^3
# Si number density = 25.207255 Si / 1000 Ang^3
#
#
#
# Elastic Constant Matrix: (Units=GPa)
#
#
# Indices 1 2 3 4 5 6 
#
# 1 121.5424 28.3811 10.6490 0.0000 17.8375 0.0000
# 2 28.3811 141.8333 18.3270 0.0000 9.3216 0.0000
# 3 10.6490 18.3270 72.7614 0.0000 20.2956 0.0000
# 4 0.0000 0.0000 0.0000 31.6173 0.0000 2.8467
# 5 17.8375 9.3216 20.2956 0.0000 30.9227 0.0000
# 6 0.0000 0.0000 0.0000 2.8467 0.0000 49.2360
#
#
#
# Elastic Compliance Matrix: (Units=1/GPa)
#
#
# Indices 1 2 3 4 5 6 
#
# 1 0.009321 -0.001586 0.000492 0.000000 -0.005221 0.000000
# 2 -0.001586 0.007595 -0.001588 0.000000 -0.000333 0.000000
# 3 0.000492 -0.001588 0.017158 0.000000 -0.011066 0.000000
# 4 0.000000 0.000000 0.000000 0.031794 0.000000 -0.001838
# 5 -0.005221 -0.000333 -0.011066 0.000000 0.042714 0.000000
# 6 0.000000 0.000000 0.000000 -0.001838 0.000000 0.020417
#
#
# Mechanical properties :
#
#
# Convention : Reuss Voigt Hill
#
# Bulk Modulus (GPa) = 34.83083 50.09457 42.46270
# Shear Modulus (GPa) = 34.73834 40.94052 37.83943
#
# Velocity S-wave (km/s) = 3.71632 4.03445 3.87865
# Velocity P-wave (km/s) = 5.68000 6.45125 6.07787
#
# Compressibility (1/GPa) = 0.02871020
#
# Stress axis : x y z
#
# Youngs Moduli (GPa) = 107.28415 131.66790 58.28037
#
# Poissons Ratio (x) = 0.20876 -0.02865
# Poissons Ratio (y) = 0.17010 0.09256
# Poissons Ratio (z) = -0.05274 0.20911
#
# Static dielectric constant tensor:
#      x y z
#    x 4.493150 0.000000 0.035220 
#    y 0.000000 4.674590 0.000000 
#    z 0.035220 0.000000 4.418420 
# 
# 
# High freq. dielectric constant tensor:
#      x y z
#    x 2.023440 0.000000 -0.005380 
#    y 0.000000 2.019500 0.000000 
#    z -0.005380 0.000000 2.002360 
# 
# From -- ./inp_files/12416.got.cif
#   From: 2010.06.25/outbox.cif.g09.slc.cpg/sg9_7_cif.got.tgz:12416.got - 2010.06.27 21:40:51.
