data_PCOD8056191
_publ_section_title
;
Structure prediction by ZEFSAII (Michael W. Deem and Ramdas Pophale) SiO2 
 PCOD8056191
Probable space group: C C
;
_chemical_formula_sum "Si O2"
_cell_formula_units_Z 32
_cell_length_a 11.664865
_cell_length_b 14.294547
_cell_length_c 9.524684
_cell_angle_alpha 90.000000
_cell_angle_beta 64.017418
_cell_angle_gamma 90.000000
_cell_volume 1427.661492
_symmetry_space_group_name_H-M "C C"
_symmetry_group_IT_number 9
_symmetry_cell_setting 'monoclinic'
loop_
_space_group_symop_operation_xyz
x,y,z
x,-y,1/2+z
1/2+x,1/2+y,z
1/2+x,1/2-y,1/2+z
loop_
_atom_site_type_symbol
_atom_site_label
_atom_site_fract_x
_atom_site_fract_y
_atom_site_fract_z
Si Si1 0.864500 0.847772 0.941150
Si Si2 0.116462 0.730699 0.509119
Si Si3 0.963804 0.996122 0.209692
Si Si4 0.120769 0.782766 0.828832
Si Si5 0.096732 0.077652 0.886813
Si Si6 0.985247 0.544549 0.467073
Si Si7 0.213063 0.587438 0.779475
Si Si8 0.319026 0.050059 0.286860
O O1 0.769779 0.780922 0.903688
O O2 0.978496 0.799184 0.972326
O O3 0.951558 0.902808 0.784567
O O4 0.766415 0.904434 0.092175
O O5 0.093502 0.761223 0.680470
O O6 0.073737 0.813826 0.429274
O O7 0.035349 0.638000 0.516358
O O8 0.829636 0.946797 0.311265
O O9 0.072871 0.938592 0.233986
O O10 0.000556 0.009751 0.027045
O O11 0.173477 0.686976 0.867604
O O12 0.222563 0.865933 0.795995
O O13 0.238994 0.045672 0.850766
O O14 0.889491 0.574840 0.394038
O O15 0.919566 0.472110 0.609972
O O16 0.101991 0.488674 0.334826
#
# Coordination Sequence:
#
# PCOD8056191 Si02
#       8
#     4   4   4   4   4   4   4   4
#     4  11  22  45  71  99 137 185 244 284 353 424
#     4  11  25  43  70 106 140 194 233 294 360 427
#     4  12  22  45  69  98 136 183 237 294 346 421
#     4  11  24  45  74 104 138 190 239 294 364 424
#     4  12  25  43  73 100 138 186 238 291 355 420
#     4  12  28  47  70 109 151 189 240 302 367 432
#     4  11  26  43  72 101 141 189 234 294 357 424
#     4  12  26  47  71 107 149 188 239 305 364 432
#
# _framework density 22.414276999999998
#
# number of rings (size 3 to 8) (size 9 to 14) (size 15 to 20)
#    0.000    0.500    5.000    3.000    8.750    0.000 
#    0.000    1.250    0.000    0.000    0.000    0.000 
#    0.000    0.000    0.000    0.000    0.000    0.000 
#
# Total GULP energy -198318.709411 kJ/mol
# GULP energy per Si atom -12394.919338 kJ/mol
# Density = 2.236326 g / cm^3
# Si number density = 22.414277 Si / 1000 Ang^3
#
#
#
# Elastic Constant Matrix: (Units=GPa)
#
#
# Indices 1 2 3 4 5 6 
#
# 1 152.3462 59.1235 29.1019 0.0000 -4.8422 0.0000
# 2 59.1235 123.9820 20.6046 0.0000 -3.3946 0.0000
# 3 29.1019 20.6046 64.2202 0.0000 -2.5410 0.0000
# 4 0.0000 0.0000 0.0000 11.3044 0.0000 -7.1961
# 5 -4.8422 -3.3946 -2.5410 0.0000 37.0423 0.0000
# 6 0.0000 0.0000 0.0000 -7.1961 0.0000 41.9994
#
#
#
# Elastic Compliance Matrix: (Units=1/GPa)
#
#
# Indices 1 2 3 4 5 6 
#
# 1 0.008485 -0.003586 -0.002671 0.000000 0.000597 0.000000
# 2 -0.003586 0.010049 -0.001585 0.000000 0.000343 0.000000
# 3 -0.002671 -0.001585 0.017318 0.000000 0.000694 0.000000
# 4 0.000000 0.000000 0.000000 0.099291 0.000000 0.017012
# 5 0.000597 0.000343 0.000694 0.000000 0.027153 0.000000
# 6 0.000000 0.000000 0.000000 0.017012 0.000000 0.026725
#
#
# Mechanical properties :
#
#
# Convention : Reuss Voigt Hill
#
# Bulk Modulus (GPa) = 49.58623 62.02315 55.80469
# Shear Modulus (GPa) = 23.64885 33.51711 28.58298
#
# Velocity S-wave (km/s) = 3.25172 3.87117 3.57489
# Velocity P-wave (km/s) = 6.02237 6.90743 6.48003
#
# Compressibility (1/GPa) = 0.02016689
#
# Stress axis : x y z
#
# Youngs Moduli (GPa) = 117.85728 99.51618 57.74390
#
# Poissons Ratio (x) = 0.35686 0.15422
# Poissons Ratio (y) = 0.42263 0.09155
# Poissons Ratio (z) = 0.31477 0.15778
#
# Static dielectric constant tensor:
#      x y z
#    x 4.517540 0.000000 -0.243500 
#    y 0.000000 4.234240 0.000000 
#    z -0.243500 0.000000 3.839160 
# 
# 
# High freq. dielectric constant tensor:
#      x y z
#    x 1.900970 0.000000 -0.014900 
#    y 0.000000 1.888150 0.000000 
#    z -0.014900 0.000000 1.869170 
# 
# From -- ./inp_files/7559.got.cif
#   From: 2010.06.25/outbox.cif.g09.slc.cpg/sg9_4_cif.got.tgz:7559.got - 2010.06.27 21:40:51.
