data_PCOD8056557
_publ_section_title
;
Structure prediction by ZEFSAII (Michael W. Deem and Ramdas Pophale) SiO2 
 PCOD8056557
Probable space group: C C
;
_chemical_formula_sum "Si O2"
_cell_formula_units_Z 28
_cell_length_a 7.933681
_cell_length_b 17.261557
_cell_length_c 8.969813
_cell_angle_alpha 90.000000
_cell_angle_beta 74.274782
_cell_angle_gamma 90.000000
_cell_volume 1182.419446
_symmetry_space_group_name_H-M "C C"
_symmetry_group_IT_number 9
_symmetry_cell_setting 'monoclinic'
loop_
_space_group_symop_operation_xyz
x,y,z
x,-y,1/2+z
1/2+x,1/2+y,z
1/2+x,1/2-y,1/2+z
loop_
_atom_site_type_symbol
_atom_site_label
_atom_site_fract_x
_atom_site_fract_y
_atom_site_fract_z
Si Si1 0.407160 0.904032 0.863950
Si Si2 0.041184 0.151038 0.542895
Si Si3 0.193119 0.124599 0.950065
Si Si4 0.895859 0.949643 0.332527
Si Si5 0.510052 0.955346 0.512039
Si Si6 0.641269 0.768161 0.752860
Si Si7 0.938116 0.127349 0.256608
O O1 0.440388 0.942928 0.695381
O O2 0.474722 0.815377 0.855374
O O3 0.203198 0.902957 0.954542
O O4 0.502271 0.953803 0.970432
O O5 0.096941 0.232244 0.602572
O O6 0.916877 0.103775 0.683089
O O7 0.933951 0.168953 0.418719
O O8 0.386434 0.088694 0.920565
O O9 0.124877 0.141817 0.133344
O O10 0.202732 0.201655 0.850345
O O11 0.056052 0.064230 0.908273
O O12 0.710532 0.926891 0.451988
O O13 0.892911 0.037459 0.279678
O O14 0.793412 0.830685 0.689932
#
# Coordination Sequence:
#
# PCOD8056557 Si02
#       7
#     4   4   4   4   4   4   4
#     4  12  26  50  75 114 148 192 257 314 366 450
#     4  11  27  46  77 109 152 197 247 309 380 446
#     4  11  26  49  73 108 151 198 243 310 379 445
#     4  11  25  48  77 112 148 193 252 313 369 448
#     4  12  27  46  80 110 148 196 254 308 372 446
#     4  11  27  48  71 109 155 193 248 310 374 448
#     4  12  22  47  75 104 150 195 247 308 376 439
#
# _framework density 23.680257999999998
#
# number of rings (size 3 to 8) (size 9 to 14) (size 15 to 20)
#    0.000    0.571    2.857    4.286    8.000    1.143 
#    2.571    0.000    0.000    0.000    0.000    0.000 
#    0.000    0.000    0.000    0.000    0.000    0.000 
#
# Total GULP energy -173653.695446 kJ/mol
# GULP energy per Si atom -12403.835389 kJ/mol
# Density = 2.362636 g / cm^3
# Si number density = 23.680258 Si / 1000 Ang^3
#
#
#
# Elastic Constant Matrix: (Units=GPa)
#
#
# Indices 1 2 3 4 5 6 
#
# 1 93.0097 34.1970 3.0428 0.0000 -10.0432 0.0000
# 2 34.1970 129.9020 33.5994 0.0000 11.9996 0.0000
# 3 3.0428 33.5994 76.1437 0.0000 -6.4557 0.0000
# 4 0.0000 0.0000 0.0000 34.8746 0.0000 -1.1403
# 5 -10.0432 11.9996 -6.4557 0.0000 40.5934 0.0000
# 6 0.0000 0.0000 0.0000 -1.1403 0.0000 35.3850
#
#
#
# Elastic Compliance Matrix: (Units=1/GPa)
#
#
# Indices 1 2 3 4 5 6 
#
# 1 0.012763 -0.004250 0.001763 0.000000 0.004694 0.000000
# 2 -0.004250 0.010542 -0.004901 0.000000 -0.004947 0.000000
# 3 0.001763 -0.004901 0.015595 0.000000 0.004365 0.000000
# 4 0.000000 0.000000 0.000000 0.028704 0.000000 0.000925
# 5 0.004694 -0.004947 0.004365 0.000000 0.027953 0.000000
# 6 0.000000 0.000000 0.000000 0.000925 0.000000 0.028290
#
#
# Mechanical properties :
#
#
# Convention : Reuss Voigt Hill
#
# Bulk Modulus (GPa) = 41.45097 48.97040 45.21069
# Shear Modulus (GPa) = 34.09146 37.38504 35.73825
#
# Velocity S-wave (km/s) = 3.79840 3.97765 3.88906
# Velocity P-wave (km/s) = 6.06461 6.46686 6.26897
#
# Compressibility (1/GPa) = 0.02412489
#
# Stress axis : x y z
#
# Youngs Moduli (GPa) = 78.34996 94.86308 64.12149
#
# Poissons Ratio (x) = 0.40313 -0.11306
# Poissons Ratio (y) = 0.33296 0.31427
# Poissons Ratio (z) = -0.13814 0.46494
#
# Static dielectric constant tensor:
#      x y z
#    x 4.298660 0.000000 0.033230 
#    y 0.000000 4.205280 0.000000 
#    z 0.033230 0.000000 4.368230 
# 
# 
# High freq. dielectric constant tensor:
#      x y z
#    x 1.942340 0.000000 0.001210 
#    y 0.000000 1.938660 0.000000 
#    z 0.001210 0.000000 1.946670 
# 
# From -- ./inp_files/5339.got.cif
#   From: 2010.06.25/outbox.cif.g09.slc.cpg/sg9_3_cif.got.tgz:5339.got - 2010.06.27 21:40:51.
