data_PCOD8056550
_publ_section_title
;
Structure prediction by ZEFSAII (Michael W. Deem and Ramdas Pophale) SiO2 
 PCOD8056550
Probable space group: C C
;
_chemical_formula_sum "Si O2"
_cell_formula_units_Z 24
_cell_length_a 11.517362
_cell_length_b 9.447426
_cell_length_c 12.146357
_cell_angle_alpha 90.000000
_cell_angle_beta 46.915625
_cell_angle_gamma 90.000000
_cell_volume 965.256531
_symmetry_space_group_name_H-M "C C"
_symmetry_group_IT_number 9
_symmetry_cell_setting 'monoclinic'
loop_
_space_group_symop_operation_xyz
x,y,z
x,-y,1/2+z
1/2+x,1/2+y,z
1/2+x,1/2-y,1/2+z
loop_
_atom_site_type_symbol
_atom_site_label
_atom_site_fract_x
_atom_site_fract_y
_atom_site_fract_z
Si Si1 0.244480 0.806667 0.297100
Si Si2 0.997891 0.882163 0.274547
Si Si3 0.368074 0.905000 0.424992
Si Si4 0.027027 0.424132 0.985695
Si Si5 0.615054 0.680073 0.251427
Si Si6 0.147580 0.723609 0.973397
O O1 0.094250 0.838838 0.319951
O O2 0.248072 0.915832 0.399122
O O3 0.412876 0.818902 0.127218
O O4 0.202995 0.645408 0.362486
O O5 0.820738 0.826325 0.398480
O O6 0.008491 0.051737 0.273731
O O7 0.078209 0.824400 0.111906
O O8 0.518260 0.818798 0.280460
O O9 0.284596 0.821056 0.580048
O O10 0.436478 0.054552 0.425335
O O11 0.042784 0.580547 0.027680
O O12 0.650266 0.684564 0.359339
#
# Coordination Sequence:
#
# PCOD8056550 Si02
#       6
#     4   4   4   4   4   4
#     4  12  26  46  75 110 149 197 249 311 372 448
#     4  12  27  45  78 110 149 200 246 314 374 453
#     4  11  25  48  72 107 149 193 251 310 367 452
#     4  11  26  50  76 111 151 202 248 316 376 443
#     4  11  25  48  76 104 147 202 244 308 377 437
#     4  11  27  51  75 112 153 196 256 309 378 451
#
# _framework density 24.863855999999998
#
# number of rings (size 3 to 8) (size 9 to 14) (size 15 to 20)
#    0.000    0.667    1.667    5.000    4.667    0.000 
#   12.000    0.000    0.000    0.000    0.000    0.000 
#    0.000    0.000    0.000    0.000    0.000    0.000 
#
# Total GULP energy -148707.785412 kJ/mol
# GULP energy per Si atom -12392.315451 kJ/mol
# Density = 2.480727 g / cm^3
# Si number density = 24.863856 Si / 1000 Ang^3
#
#
#
# Elastic Constant Matrix: (Units=GPa)
#
#
# Indices 1 2 3 4 5 6 
#
# 1 144.5959 39.0298 49.4326 0.0000 17.7458 0.0000
# 2 39.0298 96.6813 62.7176 0.0000 0.7094 0.0000
# 3 49.4326 62.7176 110.1249 0.0000 -6.0864 0.0000
# 4 0.0000 0.0000 0.0000 38.3094 0.0000 -1.4882
# 5 17.7458 0.7094 -6.0864 0.0000 50.6029 0.0000
# 6 0.0000 0.0000 0.0000 -1.4882 0.0000 41.7734
#
#
#
# Elastic Compliance Matrix: (Units=1/GPa)
#
#
# Indices 1 2 3 4 5 6 
#
# 1 0.008875 -0.001344 -0.003412 0.000000 -0.003504 0.000000
# 2 -0.001344 0.016701 -0.008955 0.000000 -0.000840 0.000000
# 3 -0.003412 -0.008955 0.015891 0.000000 0.003234 0.000000
# 4 0.000000 0.000000 0.000000 0.026139 0.000000 0.000931
# 5 -0.003504 -0.000840 0.003234 0.000000 0.021391 0.000000
# 6 0.000000 0.000000 0.000000 0.000931 0.000000 0.023972
#
#
# Mechanical properties :
#
#
# Convention : Reuss Voigt Hill
#
# Bulk Modulus (GPa) = 71.19649 72.64023 71.91836
# Shear Modulus (GPa) = 34.46566 39.48527 36.97546
#
# Velocity S-wave (km/s) = 3.72718 3.98937 3.86050
# Velocity P-wave (km/s) = 6.87162 7.10624 6.98992
#
# Compressibility (1/GPa) = 0.01404564
#
# Stress axis : x y z
#
# Youngs Moduli (GPa) = 112.67517 59.87764 62.92947
#
# Poissons Ratio (x) = 0.08045 0.21474
# Poissons Ratio (y) = 0.15138 0.56351
# Poissons Ratio (z) = 0.38448 0.53618
#
# Static dielectric constant tensor:
#      x y z
#    x 5.140070 0.000000 0.146060 
#    y 0.000000 4.968440 0.000000 
#    z 0.146060 0.000000 4.429090 
# 
# 
# High freq. dielectric constant tensor:
#      x y z
#    x 2.019100 0.000000 0.005130 
#    y 0.000000 1.984250 0.000000 
#    z 0.005130 0.000000 1.986150 
# 
# From -- ./inp_files/15888.got.cif
#   From: 2010.06.25/outbox.cif.g09.slc.cpg/sg9_8_cif.got.tgz:15888.got - 2010.06.27 21:40:51.
