data_PCOD8056920
_publ_section_title
;
Structure prediction by ZEFSAII (Michael W. Deem and Ramdas Pophale) SiO2 
 PCOD8056920
Probable space group: P 2/M
;
_chemical_formula_sum "Si O2"
_cell_formula_units_Z 22
_cell_length_a 25.166816
_cell_length_b 9.155505
_cell_length_c 14.310369
_cell_angle_alpha 90.000000
_cell_angle_beta 20.245246
_cell_angle_gamma 90.000000
_cell_volume 1141.002836
_symmetry_space_group_name_H-M "P 2/M"
_symmetry_group_IT_number 10
_symmetry_cell_setting 'monoclinic'
loop_
_space_group_symop_operation_xyz
x,y,z
-x,y,-z
-x,-y,-z
x,-y,z
loop_
_atom_site_type_symbol
_atom_site_label
_atom_site_fract_x
_atom_site_fract_y
_atom_site_fract_z
Si Si1 0.940973 0.328907 0.993944
Si Si2 0.804395 0.161513 0.910299
Si Si3 0.074436 0.827415 0.603124
Si Si4 0.500000 0.248007 0.500000
Si Si5 0.286602 0.325381 0.115844
Si Si6 0.394568 0.338039 0.480574
O O1 0.944047 0.500000 0.961256
O O2 0.768591 0.259910 0.269358
O O3 0.000000 0.301628 0.000000
O O4 0.052508 0.240134 0.741591
O O5 0.811610 0.273183 0.811988
O O6 0.927226 0.214648 0.783695
O O7 0.846415 0.000000 0.803372
O O8 0.637649 0.149581 0.233475
O O9 0.224171 0.750897 0.311917
O O10 0.100582 0.000000 0.567534
O O11 0.433368 0.346889 0.526636
O O12 0.276021 0.500000 0.139935
O O13 0.462303 0.267904 0.812156
O O14 0.375049 0.500000 0.473487
#
# Coordination Sequence:
#
# PCOD8056920 Si02
#       6
#     4   4   4   2   4   4
#     4  10  21  39  62  84 107 141 187 235 276 322
#     4  10  20  32  50  79 115 150 183 220 270 330
#     4  11  22  37  55  80 113 148 184 227 274 327
#     4  10  16  30  52  80 113 148 175 224 269 336
#     4  10  21  35  54  81 113 149 184 223 272 329
#     4   9  18  33  54  83 113 141 181 227 276 325
#
# _framework density 19.281286000000001
#
# number of rings (size 3 to 8) (size 9 to 14) (size 15 to 20)
#    0.000    2.000    1.818    2.182    0.000    4.727 
#    0.000    1.818    0.000    5.455    0.000    0.000 
#    0.000    0.000    0.000    0.000    0.000    0.000 
#
# Total GULP energy -272733.682456 kJ/mol
# GULP energy per Si atom -12396.985566 kJ/mol
# Density = 1.923740 g / cm^3
# Si number density = 19.281286 Si / 1000 Ang^3
#
#
#
# Elastic Constant Matrix: (Units=GPa)
#
#
# Indices 1 2 3 4 5 6 
#
# 1 96.2835 36.2267 66.0758 0.0000 9.7944 0.0000
# 2 36.2267 84.1171 42.8598 0.0000 16.0937 0.0000
# 3 66.0758 42.8598 129.9628 0.0000 20.6785 0.0000
# 4 0.0000 0.0000 0.0000 19.4430 0.0000 3.4319
# 5 9.7944 16.0937 20.6785 0.0000 30.1637 0.0000
# 6 0.0000 0.0000 0.0000 3.4319 0.0000 21.1386
#
#
#
# Elastic Compliance Matrix: (Units=1/GPa)
#
#
# Indices 1 2 3 4 5 6 
#
# 1 0.016823 -0.003699 -0.007608 0.000000 0.001727 0.000000
# 2 -0.003699 0.015787 -0.002443 0.000000 -0.005547 0.000000
# 3 -0.007608 -0.002443 0.013209 0.000000 -0.005281 0.000000
# 4 0.000000 0.000000 0.000000 0.052950 0.000000 -0.008597
# 5 0.001727 -0.005547 -0.005281 0.000000 0.039172 0.000000
# 6 0.000000 0.000000 0.000000 -0.008597 0.000000 0.048703
#
#
# Mechanical properties :
#
#
# Convention : Reuss Voigt Hill
#
# Bulk Modulus (GPa) = 54.58912 66.74309 60.66611
# Shear Modulus (GPa) = 22.70138 25.16245 23.93192
#
# Velocity S-wave (km/s) = 3.43502 3.61642 3.52689
# Velocity P-wave (km/s) = 6.64123 7.22002 6.93666
#
# Compressibility (1/GPa) = 0.01831867
#
# Stress axis : x y z
#
# Youngs Moduli (GPa) = 59.44120 63.34143 75.70793
#
# Poissons Ratio (x) = 0.23431 0.57600
# Poissons Ratio (y) = 0.21988 0.18496
# Poissons Ratio (z) = 0.45224 0.15475
#
# Static dielectric constant tensor:
#      x y z
#    x 3.261670 0.000000 -0.010750 
#    y 0.000000 3.266050 0.000000 
#    z -0.010750 0.000000 3.828430 
# 
# 
# High freq. dielectric constant tensor:
#      x y z
#    x 1.721900 0.000000 0.006800 
#    y 0.000000 1.733380 0.000000 
#    z 0.006800 0.000000 1.767950 
# 
# From -- ./inp_files/72082.got.cif
#   From: 2010.06.25/outbox.cif.g09.slc.cpg/sg10_37_cif.got.tgz:72082.got - 2010.06.27 22:07:45.
