data_PCOD8056672
_publ_section_title
;
Structure prediction by ZEFSAII (Michael W. Deem and Ramdas Pophale) SiO2 
 PCOD8056672
Probable space group: C C
;
_chemical_formula_sum "Si O2"
_cell_formula_units_Z 32
_cell_length_a 20.006512
_cell_length_b 12.808409
_cell_length_c 5.334649
_cell_angle_alpha 90.000000
_cell_angle_beta 69.412727
_cell_angle_gamma 90.000000
_cell_volume 1279.711686
_symmetry_space_group_name_H-M "C C"
_symmetry_group_IT_number 9
_symmetry_cell_setting 'monoclinic'
loop_
_space_group_symop_operation_xyz
x,y,z
x,-y,1/2+z
1/2+x,1/2+y,z
1/2+x,1/2-y,1/2+z
loop_
_atom_site_type_symbol
_atom_site_label
_atom_site_fract_x
_atom_site_fract_y
_atom_site_fract_z
Si Si1 0.835230 0.346123 0.861510
Si Si2 0.489484 0.063925 0.212581
Si Si3 0.098787 0.729351 0.919192
Si Si4 0.441832 0.554961 0.158880
Si Si5 0.184318 0.875744 0.130035
Si Si6 0.200400 0.431073 0.077698
Si Si7 0.093208 0.078719 0.133439
Si Si8 0.832751 0.217488 0.359456
O O1 0.904972 0.412458 0.829400
O O2 0.840847 0.294583 0.582910
O O3 0.763115 0.417118 0.956046
O O4 0.814208 0.270473 0.119115
O O5 0.508531 0.001447 0.438952
O O6 0.536125 0.169714 0.153922
O O7 0.134325 0.650135 0.673330
O O8 0.060788 0.836084 0.870220
O O9 0.164099 0.772243 0.002858
O O10 0.412214 0.493638 0.440829
O O11 0.527905 0.551915 0.029784
O O12 0.411978 0.671598 0.218539
O O13 0.162372 0.851033 0.445017
O O14 0.128745 0.974807 0.198717
O O15 0.193469 0.504597 0.330858
O O16 0.276185 0.373084 0.988186
#
# Coordination Sequence:
#
# PCOD8056672 Si02
#       8
#     4   4   4   4   4   4   4   4
#     4  12  28  48  78 111 154 196 253 312 381 452
#     4  12  30  53  78 114 156 208 254 312 375 455
#     4  12  27  48  76 108 152 204 264 310 380 459
#     4  12  24  44  70 109 150 193 246 308 380 447
#     4  12  26  46  76 114 151 198 256 325 387 451
#     4  12  26  47  73 108 150 201 253 307 368 447
#     4  12  26  44  75 112 150 197 253 326 388 445
#     4  12  25  48  74 112 149 203 247 308 381 448
#
# _framework density 25.005628999999999
#
# number of rings (size 3 to 8) (size 9 to 14) (size 15 to 20)
#    0.000    0.000    3.750    5.250    7.000    0.000 
#    0.000    0.000    0.000    0.000    0.000    0.000 
#    0.000    0.000    0.000    0.000    0.000    0.000 
#
# Total GULP energy -198240.673158 kJ/mol
# GULP energy per Si atom -12390.042072 kJ/mol
# Density = 2.494872 g / cm^3
# Si number density = 25.005629 Si / 1000 Ang^3
#
#
#
# Elastic Constant Matrix: (Units=GPa)
#
#
# Indices 1 2 3 4 5 6 
#
# 1 82.8659 24.0207 18.5386 0.0000 -23.1429 0.0000
# 2 24.0207 106.2708 37.8654 0.0000 -11.3045 0.0000
# 3 18.5386 37.8654 135.3398 0.0000 8.6796 0.0000
# 4 0.0000 0.0000 0.0000 35.3454 0.0000 -6.6530
# 5 -23.1429 -11.3045 8.6796 0.0000 42.5305 0.0000
# 6 0.0000 0.0000 0.0000 -6.6530 0.0000 39.1393
#
#
#
# Elastic Compliance Matrix: (Units=1/GPa)
#
#
# Indices 1 2 3 4 5 6 
#
# 1 0.015402 -0.001837 -0.002130 0.000000 0.008328 0.000000
# 2 -0.001837 0.011186 -0.003044 0.000000 0.002595 0.000000
# 3 -0.002130 -0.003044 0.008773 0.000000 -0.003759 0.000000
# 4 0.000000 0.000000 0.000000 0.029227 0.000000 0.004968
# 5 0.008328 0.002595 -0.003759 0.000000 0.029501 0.000000
# 6 0.000000 0.000000 0.000000 0.004968 0.000000 0.026394
#
#
# Mechanical properties :
#
#
# Convention : Reuss Voigt Hill
#
# Bulk Modulus (GPa) = 46.86149 53.92511 50.39330
# Shear Modulus (GPa) = 35.30586 39.67315 37.48951
#
# Velocity S-wave (km/s) = 3.76162 3.98750 3.87621
# Velocity P-wave (km/s) = 6.13575 6.54310 6.34270
#
# Compressibility (1/GPa) = 0.02133949
#
# Stress axis : x y z
#
# Youngs Moduli (GPa) = 64.92499 89.39839 113.98080
#
# Poissons Ratio (x) = 0.16419 0.24278
# Poissons Ratio (y) = 0.11924 0.34701
# Poissons Ratio (z) = 0.13829 0.27217
#
# Static dielectric constant tensor:
#      x y z
#    x 4.563030 0.000000 -0.077850 
#    y 0.000000 4.419270 0.000000 
#    z -0.077850 0.000000 5.056900 
# 
# 
# High freq. dielectric constant tensor:
#      x y z
#    x 1.999600 0.000000 -0.012490 
#    y 0.000000 1.996940 0.000000 
#    z -0.012490 0.000000 2.029150 
# 
# From -- ./inp_files/3163.got.cif
#   From: 2010.06.25/outbox.cif.g09.slc.cpg/sg9_2_cif.got.tgz:3163.got - 2010.06.27 21:40:51.
