data_PCOD8056435
_publ_section_title
;
Structure prediction by ZEFSAII (Michael W. Deem and Ramdas Pophale) SiO2 
 PCOD8056435
Probable space group: C C
;
_chemical_formula_sum "Si O2"
_cell_formula_units_Z 24
_cell_length_a 8.831237
_cell_length_b 12.080115
_cell_length_c 10.328849
_cell_angle_alpha 90.000000
_cell_angle_beta 121.183473
_cell_angle_gamma 90.000000
_cell_volume 942.695600
_symmetry_space_group_name_H-M "C C"
_symmetry_group_IT_number 9
_symmetry_cell_setting 'monoclinic'
loop_
_space_group_symop_operation_xyz
x,y,z
x,-y,1/2+z
1/2+x,1/2+y,z
1/2+x,1/2-y,1/2+z
loop_
_atom_site_type_symbol
_atom_site_label
_atom_site_fract_x
_atom_site_fract_y
_atom_site_fract_z
Si Si1 0.947200 0.805899 0.081340
Si Si2 0.524965 0.468004 0.465941
Si Si3 0.766479 0.374509 0.368292
Si Si4 0.190870 0.223966 0.171567
Si Si5 0.154173 0.549169 0.702648
Si Si6 0.969896 0.552547 0.352633
O O1 0.755423 0.794883 0.070773
O O2 0.109013 0.792788 0.253292
O O3 0.936973 0.701106 0.980003
O O4 0.983018 0.918394 0.019667
O O5 0.707349 0.454547 0.464002
O O6 0.538610 0.366638 0.575663
O O7 0.368226 0.451989 0.291987
O O8 0.818306 0.457203 0.274306
O O9 0.106480 0.322131 0.221878
O O10 0.368571 0.169973 0.311997
O O11 0.072840 0.519288 0.528342
O O12 0.092446 0.459659 0.781183
#
# Coordination Sequence:
#
# PCOD8056435 Si02
#       6
#     4   4   4   4   4   4
#     4  11  24  45  75 107 147 195 247 303 377 435
#     4  11  24  45  76 106 147 198 249 300 373 444
#     4  11  26  47  75 105 148 198 243 313 368 445
#     4  11  24  49  74 106 150 196 246 309 371 434
#     4  12  26  45  76 108 147 198 244 305 374 443
#     4  12  28  49  72 112 153 189 251 312 367 443
#
# _framework density 25.458908999999998
#
# number of rings (size 3 to 8) (size 9 to 14) (size 15 to 20)
#    0.000    0.667    3.333    4.000    7.000    1.333 
#    3.000    0.000    0.000    0.000    0.000    0.000 
#    0.000    0.000    0.000    0.000    0.000    0.000 
#
# Total GULP energy -148684.973529 kJ/mol
# GULP energy per Si atom -12390.414461 kJ/mol
# Density = 2.540096 g / cm^3
# Si number density = 25.458909 Si / 1000 Ang^3
#
#
#
# Elastic Constant Matrix: (Units=GPa)
#
#
# Indices 1 2 3 4 5 6 
#
# 1 54.4174 36.2060 24.3193 0.0000 6.8341 0.0000
# 2 36.2060 153.2183 34.3468 0.0000 -5.0006 0.0000
# 3 24.3193 34.3468 121.0920 0.0000 2.8506 0.0000
# 4 0.0000 0.0000 0.0000 34.2536 0.0000 -1.2921
# 5 6.8341 -5.0006 2.8506 0.0000 26.8802 0.0000
# 6 0.0000 0.0000 0.0000 -1.2921 0.0000 55.5664
#
#
#
# Elastic Compliance Matrix: (Units=1/GPa)
#
#
# Indices 1 2 3 4 5 6 
#
# 1 0.024120 -0.005201 -0.003210 0.000000 -0.006760 0.000000
# 2 -0.005201 0.008153 -0.001338 0.000000 0.002981 0.000000
# 3 -0.003210 -0.001338 0.009292 0.000000 -0.000418 0.000000
# 4 0.000000 0.000000 0.000000 0.029220 0.000000 0.000679
# 5 -0.006760 0.002981 -0.000418 0.000000 0.039520 0.000000
# 6 0.000000 0.000000 0.000000 0.000679 0.000000 0.018012
#
#
# Mechanical properties :
#
#
# Convention : Reuss Voigt Hill
#
# Bulk Modulus (GPa) = 45.31511 57.60796 51.46154
# Shear Modulus (GPa) = 32.22269 38.93041 35.57655
#
# Velocity S-wave (km/s) = 3.56149 3.91467 3.74225
# Velocity P-wave (km/s) = 5.89493 6.56581 6.23939
#
# Compressibility (1/GPa) = 0.02206769
#
# Stress axis : x y z
#
# Youngs Moduli (GPa) = 41.45916 122.65646 107.61666
#
# Poissons Ratio (x) = 0.63790 0.34543
# Poissons Ratio (y) = 0.21562 0.14401
# Poissons Ratio (z) = 0.13308 0.16414
#
# Static dielectric constant tensor:
#      x y z
#    x 4.365560 0.000000 0.261080 
#    y 0.000000 4.882320 0.000000 
#    z 0.261080 0.000000 4.740110 
# 
# 
# High freq. dielectric constant tensor:
#      x y z
#    x 1.981770 0.000000 0.026660 
#    y 0.000000 2.035150 0.000000 
#    z 0.026660 0.000000 2.028280 
# 
# From -- ./inp_files/14262.got.cif
#   From: 2010.06.25/outbox.cif.g09.slc.cpg/sg9_8_cif.got.tgz:14262.got - 2010.06.27 21:40:51.
