data_PCOD8056209
_publ_section_title
;
Structure prediction by ZEFSAII (Michael W. Deem and Ramdas Pophale) SiO2 
 PCOD8056209
Probable space group: C C
;
_chemical_formula_sum "Si O2"
_cell_formula_units_Z 32
_cell_length_a 11.922796
_cell_length_b 9.547031
_cell_length_c 13.827811
_cell_angle_alpha 90.000000
_cell_angle_beta 118.016703
_cell_angle_gamma 90.000000
_cell_volume 1389.528524
_symmetry_space_group_name_H-M "C C"
_symmetry_group_IT_number 9
_symmetry_cell_setting 'monoclinic'
loop_
_space_group_symop_operation_xyz
x,y,z
x,-y,1/2+z
1/2+x,1/2+y,z
1/2+x,1/2-y,1/2+z
loop_
_atom_site_type_symbol
_atom_site_label
_atom_site_fract_x
_atom_site_fract_y
_atom_site_fract_z
Si Si1 0.821830 0.751083 0.927450
Si Si2 0.610765 0.428060 0.264763
Si Si3 0.914988 0.487334 0.066262
Si Si4 0.268619 0.282286 0.448844
Si Si5 0.843382 0.045177 0.595002
Si Si6 0.546511 0.611818 0.419861
Si Si7 0.188447 0.633199 0.701720
Si Si8 0.203837 0.933652 0.626367
O O1 0.683041 0.707178 0.833238
O O2 0.901759 0.841842 0.882334
O O3 0.909847 0.618973 0.991812
O O4 0.773482 0.844393 0.997447
O O5 0.484878 0.387728 0.155128
O O6 0.558827 0.536695 0.322363
O O7 0.712487 0.501610 0.236424
O O8 0.837354 0.533338 0.129936
O O9 0.055247 0.447319 0.157965
O O10 0.850393 0.359961 0.981800
O O11 0.343530 0.393208 0.545189
O O12 0.135018 0.250003 0.448273
O O13 0.248361 0.338218 0.331360
O O14 0.782527 0.034716 0.677310
O O15 0.589416 0.502488 0.519224
O O16 0.173666 0.770827 0.629524
#
# Coordination Sequence:
#
# PCOD8056209 Si02
#       8
#     4   4   4   4   4   4   4   4
#     4  12  25  47  72 110 142 198 247 304 364 447
#     4  12  25  46  74 104 148 204 231 308 387 425
#     4  11  25  47  76 106 148 192 249 305 366 442
#     4  11  26  47  71 109 143 196 244 305 371 442
#     4  12  28  46  70 110 153 186 253 306 365 448
#     4  11  24  45  74 107 151 190 253 299 371 447
#     4  12  25  47  77 104 152 197 246 305 376 439
#     4  11  22  47  72 108 149 193 237 312 374 434
#
# _framework density 23.029392000000001
#
# number of rings (size 3 to 8) (size 9 to 14) (size 15 to 20)
#    0.000    0.500    6.250    1.500    3.500    3.000 
#    2.250    0.000    0.000    0.000    0.000    0.000 
#    0.000    0.000    0.000    0.000    0.000    0.000 
#
# Total GULP energy -198369.492645 kJ/mol
# GULP energy per Si atom -12398.093290 kJ/mol
# Density = 2.297698 g / cm^3
# Si number density = 23.029392 Si / 1000 Ang^3
#
#
#
# Elastic Constant Matrix: (Units=GPa)
#
#
# Indices 1 2 3 4 5 6 
#
# 1 133.9475 25.7556 40.6953 0.0000 -5.8983 0.0000
# 2 25.7556 93.1917 29.6040 0.0000 -7.7340 0.0000
# 3 40.6953 29.6040 86.7553 0.0000 -17.4626 0.0000
# 4 0.0000 0.0000 0.0000 37.5824 0.0000 -5.9844
# 5 -5.8983 -7.7340 -17.4626 0.0000 39.5259 0.0000
# 6 0.0000 0.0000 0.0000 -5.9844 0.0000 35.4614
#
#
#
# Elastic Compliance Matrix: (Units=1/GPa)
#
#
# Indices 1 2 3 4 5 6 
#
# 1 0.008851 -0.001278 -0.003842 0.000000 -0.000627 0.000000
# 2 -0.001278 0.012232 -0.003437 0.000000 0.000684 0.000000
# 3 -0.003842 -0.003437 0.015642 0.000000 0.005665 0.000000
# 4 0.000000 0.000000 0.000000 0.027343 0.000000 0.004614
# 5 -0.000627 0.000684 0.005665 0.000000 0.027843 0.000000
# 6 0.000000 0.000000 0.000000 0.004614 0.000000 0.028978
#
#
# Mechanical properties :
#
#
# Convention : Reuss Voigt Hill
#
# Bulk Modulus (GPa) = 50.98951 56.22273 53.60612
# Shear Modulus (GPa) = 34.59247 37.03658 35.81452
#
# Velocity S-wave (km/s) = 3.87990 4.01463 3.94784
# Velocity P-wave (km/s) = 6.50082 6.77909 6.64141
#
# Compressibility (1/GPa) = 0.01961188
#
# Stress axis : x y z
#
# Youngs Moduli (GPa) = 112.98235 81.75072 63.93074
#
# Poissons Ratio (x) = 0.10445 0.24562
# Poissons Ratio (y) = 0.14436 0.21973
# Poissons Ratio (z) = 0.43407 0.28098
#
# Static dielectric constant tensor:
#      x y z
#    x 4.279030 0.000000 -0.126090 
#    y 0.000000 4.223320 0.000000 
#    z -0.126090 0.000000 4.095490 
# 
# 
# High freq. dielectric constant tensor:
#      x y z
#    x 1.914880 0.000000 -0.013320 
#    y 0.000000 1.914220 0.000000 
#    z -0.013320 0.000000 1.911380 
# 
# From -- ./inp_files/24336.got.cif
#   From: 2010.06.25/outbox.cif.g09.slc.cpg/sg9_13_cif.got.tgz:24336.got - 2010.06.27 21:40:51.
