data_PCOD8056294
_publ_section_title
;
Structure prediction by ZEFSAII (Michael W. Deem and Ramdas Pophale) SiO2 
 PCOD8056294
Probable space group: C C
;
_chemical_formula_sum "Si O2"
_cell_formula_units_Z 32
_cell_length_a 11.832757
_cell_length_b 14.739642
_cell_length_c 8.517015
_cell_angle_alpha 90.000000
_cell_angle_beta 116.195454
_cell_angle_gamma 90.000000
_cell_volume 1332.891398
_symmetry_space_group_name_H-M "C C"
_symmetry_group_IT_number 9
_symmetry_cell_setting 'monoclinic'
loop_
_space_group_symop_operation_xyz
x,y,z
x,-y,1/2+z
1/2+x,1/2+y,z
1/2+x,1/2-y,1/2+z
loop_
_atom_site_type_symbol
_atom_site_label
_atom_site_fract_x
_atom_site_fract_y
_atom_site_fract_z
Si Si1 0.216580 0.911620 0.840860
Si Si2 0.337504 0.592922 0.538454
Si Si3 0.490623 0.104044 0.559286
Si Si4 0.486019 0.282299 0.700231
Si Si5 0.180586 0.898207 0.465625
Si Si6 0.563707 0.919794 0.755041
Si Si7 0.906156 0.914387 0.413226
Si Si8 0.893830 0.718988 0.970711
O O1 0.247347 0.908008 0.674710
O O2 0.098360 0.849739 0.820241
O O3 0.342401 0.884199 0.011688
O O4 0.186790 0.014570 0.861284
O O5 0.209906 0.604324 0.362160
O O6 0.416656 0.509804 0.512066
O O7 0.307286 0.577935 0.707121
O O8 0.416128 0.685628 0.572658
O O9 0.552834 0.199943 0.645768
O O10 0.497024 0.087041 0.379777
O O11 0.554807 0.023286 0.693836
O O12 0.381995 0.336323 0.528970
O O13 0.411329 0.238846 0.798402
O O14 0.252189 0.817407 0.416997
O O15 0.034049 0.881274 0.407193
O O16 0.498066 0.853489 0.589977
#
# Coordination Sequence:
#
# PCOD8056294 Si02
#       8
#     4   4   4   4   4   4   4   4
#     4  11  23  45  72 108 147 201 245 325 382 462
#     4  12  27  47  78 106 160 202 263 319 397 463
#     4  12  24  45  70 105 152 197 261 312 397 466
#     4  11  28  44  75 111 153 198 264 317 399 463
#     4  11  24  44  79 107 150 197 257 321 382 461
#     4  12  27  46  74 111 154 203 256 330 391 460
#     4  11  25  51  77 111 154 210 257 321 394 469
#     4  12  26  46  73 119 148 204 259 325 386 470
#
# _framework density 24.007959
#
# number of rings (size 3 to 8) (size 9 to 14) (size 15 to 20)
#    0.000    0.500    2.500    5.250    7.000    2.000 
#    0.000    0.000    0.000    0.000    0.000    0.000 
#    0.000    0.000    0.000    0.000    0.000    0.000 
#
# Total GULP energy -198372.515547 kJ/mol
# GULP energy per Si atom -12398.282222 kJ/mol
# Density = 2.395332 g / cm^3
# Si number density = 24.007959 Si / 1000 Ang^3
#
#
#
# Elastic Constant Matrix: (Units=GPa)
#
#
# Indices 1 2 3 4 5 6 
#
# 1 85.7243 28.3779 41.9321 0.0000 -14.1207 0.0000
# 2 28.3779 185.9747 56.3912 0.0000 -18.6496 0.0000
# 3 41.9321 56.3912 101.0461 0.0000 -16.2880 0.0000
# 4 0.0000 0.0000 0.0000 48.6652 0.0000 -12.9581
# 5 -14.1207 -18.6496 -16.2880 0.0000 40.7677 0.0000
# 6 0.0000 0.0000 0.0000 -12.9581 0.0000 34.9609
#
#
#
# Elastic Compliance Matrix: (Units=1/GPa)
#
#
# Indices 1 2 3 4 5 6 
#
# 1 0.014962 -0.000308 -0.005584 0.000000 0.002810 0.000000
# 2 -0.000308 0.006581 -0.003288 0.000000 0.001590 0.000000
# 3 -0.005584 -0.003288 0.014423 0.000000 0.002324 0.000000
# 4 0.000000 0.000000 0.000000 0.022799 0.000000 0.008450
# 5 0.002810 0.001590 0.002324 0.000000 0.027159 0.000000
# 6 0.000000 0.000000 0.000000 0.008450 0.000000 0.031735
#
#
# Mechanical properties :
#
#
# Convention : Reuss Voigt Hill
#
# Bulk Modulus (GPa) = 56.80141 69.57192 63.18667
# Shear Modulus (GPa) = 35.23928 41.28166 38.26047
#
# Velocity S-wave (km/s) = 3.83537 4.15118 3.99640
# Velocity P-wave (km/s) = 6.58211 7.21235 6.90443
#
# Compressibility (1/GPa) = 0.01760520
#
# Stress axis : x y z
#
# Youngs Moduli (GPa) = 66.83802 151.96168 69.33149
#
# Poissons Ratio (x) = 0.04681 0.38713
# Poissons Ratio (y) = 0.02059 0.22799
# Poissons Ratio (z) = 0.37321 0.49971
#
# Static dielectric constant tensor:
#      x y z
#    x 4.213980 0.000000 -0.065240 
#    y 0.000000 4.602890 0.000000 
#    z -0.065240 0.000000 4.564240 
# 
# 
# High freq. dielectric constant tensor:
#      x y z
#    x 1.942960 0.000000 -0.003420 
#    y 0.000000 1.967040 0.000000 
#    z -0.003420 0.000000 1.962360 
# 
# From -- ./inp_files/7504.got.cif
#   From: 2010.06.25/outbox.cif.g09.slc.cpg/sg9_4_cif.got.tgz:7504.got - 2010.06.27 21:40:51.
