data_PCOD8056778
_publ_section_title
;
Structure prediction by ZEFSAII (Michael W. Deem and Ramdas Pophale) SiO2 
 PCOD8056778
Probable space group: C C
;
_chemical_formula_sum "Si O2"
_cell_formula_units_Z 32
_cell_length_a 18.436146
_cell_length_b 5.601332
_cell_length_c 13.407846
_cell_angle_alpha 90.000000
_cell_angle_beta 109.419520
_cell_angle_gamma 90.000000
_cell_volume 1305.817722
_symmetry_space_group_name_H-M "C C"
_symmetry_group_IT_number 9
_symmetry_cell_setting 'monoclinic'
loop_
_space_group_symop_operation_xyz
x,y,z
x,-y,1/2+z
1/2+x,1/2+y,z
1/2+x,1/2-y,1/2+z
loop_
_atom_site_type_symbol
_atom_site_label
_atom_site_fract_x
_atom_site_fract_y
_atom_site_fract_z
Si Si1 0.762280 0.816446 0.769160
Si Si2 0.116026 0.354332 0.192295
Si Si3 0.450505 0.128490 0.574875
Si Si4 0.387809 0.500190 0.191348
Si Si5 0.579041 0.238892 0.895285
Si Si6 0.489480 0.740168 0.878382
Si Si7 0.678671 0.523712 0.585924
Si Si8 0.802105 0.294907 0.508778
O O1 0.737061 0.574334 0.703186
O O2 0.773450 0.784836 0.889547
O O3 0.692491 0.993662 0.712850
O O4 0.845472 0.882622 0.765724
O O5 0.118996 0.248196 0.305483
O O6 0.034771 0.493727 0.133418
O O7 0.115184 0.152573 0.104781
O O8 0.445948 0.318717 0.663524
O O9 0.446507 0.255649 0.465069
O O10 0.380131 0.947230 0.544505
O O11 0.430413 0.267818 0.257365
O O12 0.321785 0.438190 0.081729
O O13 0.532048 0.485072 0.887885
O O14 0.536334 0.985326 0.886233
O O15 0.639149 0.245873 0.015407
O O16 0.727662 0.415886 0.519159
#
# Coordination Sequence:
#
# PCOD8056778 Si02
#       8
#     4   4   4   4   4   4   4   4
#     4  12  29  49  82 116 168 222 280 347 430 503
#     4  12  27  50  84 117 162 220 282 349 421 504
#     4  12  27  50  84 117 162 220 282 349 421 504
#     4  12  27  50  78 119 164 220 280 347 422 505
#     4  12  29  51  83 121 167 216 278 349 420 497
#     4  12  29  51  83 121 167 216 278 349 420 497
#     4  12  27  50  78 119 164 220 280 347 422 505
#     4  12  29  49  82 116 168 222 280 347 430 503
#
# _framework density 24.505716
#
# number of rings (size 3 to 8) (size 9 to 14) (size 15 to 20)
#    0.000    0.000    5.000    3.000   10.500    3.000 
#    0.000    0.000    0.000    0.000    0.000    0.000 
#    0.000    0.000    0.000    0.000    0.000    0.000 
#
# Total GULP energy -198313.810257 kJ/mol
# GULP energy per Si atom -12394.613141 kJ/mol
# Density = 2.444994 g / cm^3
# Si number density = 24.505716 Si / 1000 Ang^3
#
#
#
# Elastic Constant Matrix: (Units=GPa)
#
#
# Indices 1 2 3 4 5 6 
#
# 1 114.0427 32.3048 31.2579 0.0000 -9.9263 0.0000
# 2 32.3048 96.8108 14.7511 0.0000 1.7267 0.0000
# 3 31.2579 14.7511 115.1255 0.0000 15.2361 0.0000
# 4 0.0000 0.0000 0.0000 45.7028 0.0000 8.2644
# 5 -9.9263 1.7267 15.2361 0.0000 37.6119 0.0000
# 6 0.0000 0.0000 0.0000 8.2644 0.0000 40.8447
#
#
#
# Elastic Compliance Matrix: (Units=1/GPa)
#
#
# Indices 1 2 3 4 5 6 
#
# 1 0.010915 -0.003244 -0.003116 0.000000 0.004292 0.000000
# 2 -0.003244 0.011499 -0.000433 0.000000 -0.001209 0.000000
# 3 -0.003116 -0.000433 0.010243 0.000000 -0.004952 0.000000
# 4 0.000000 0.000000 0.000000 0.022711 0.000000 -0.004595
# 5 0.004292 -0.001209 -0.004952 0.000000 0.029781 0.000000
# 6 0.000000 0.000000 0.000000 -0.004595 0.000000 0.025413
#
#
# Mechanical properties :
#
#
# Convention : Reuss Voigt Hill
#
# Bulk Modulus (GPa) = 52.43212 53.62295 53.02754
# Shear Modulus (GPa) = 38.31242 41.34289 39.82766
#
# Velocity S-wave (km/s) = 3.95828 4.11185 4.03580
# Velocity P-wave (km/s) = 6.50638 6.66877 6.58807
#
# Compressibility (1/GPa) = 0.01907228
#
# Stress axis : x y z
#
# Youngs Moduli (GPa) = 91.61536 86.96086 97.62808
#
# Poissons Ratio (x) = 0.28211 0.30420
# Poissons Ratio (y) = 0.29721 0.04224
# Poissons Ratio (z) = 0.28547 0.03762
#
# Static dielectric constant tensor:
#      x y z
#    x 4.580930 0.000000 0.126040 
#    y 0.000000 3.936070 0.000000 
#    z 0.126040 0.000000 5.299330 
# 
# 
# High freq. dielectric constant tensor:
#      x y z
#    x 1.988040 0.000000 -0.003260 
#    y 0.000000 1.957680 0.000000 
#    z -0.003260 0.000000 2.012770 
# 
# From -- ./inp_files/19859.got.cif
#   From: 2010.06.25/outbox.cif.g09.slc.cpg/sg9_10_cif.got.tgz:19859.got - 2010.06.27 21:40:51.
