data_PCOD8056814
_publ_section_title
;
Structure prediction by ZEFSAII (Michael W. Deem and Ramdas Pophale) SiO2 
 PCOD8056814
Probable space group: P 2/M
;
_chemical_formula_sum "Si O2"
_cell_formula_units_Z 30
_cell_length_a 32.113211
_cell_length_b 9.352500
_cell_length_c 12.424191
_cell_angle_alpha 90.000000
_cell_angle_beta 153.882519
_cell_angle_gamma 90.000000
_cell_volume 1642.640662
_symmetry_space_group_name_H-M "P 2/M"
_symmetry_group_IT_number 10
_symmetry_cell_setting 'monoclinic'
loop_
_space_group_symop_operation_xyz
x,y,z
-x,y,-z
-x,-y,-z
x,-y,z
loop_
_atom_site_type_symbol
_atom_site_label
_atom_site_fract_x
_atom_site_fract_y
_atom_site_fract_z
Si Si1 0.977570 0.346992 0.706591
Si Si2 0.711391 0.165795 0.803748
Si Si3 0.196878 0.668355 0.409561
Si Si4 0.811289 0.664680 0.850275
Si Si5 0.673428 0.336307 0.096660
Si Si6 0.529139 0.335937 0.447888
Si Si7 0.000000 0.300509 0.000000
Si Si8 0.198961 0.834749 0.763900
O O1 0.946806 0.500000 0.584337
O O2 0.987911 0.379933 0.857840
O O3 0.902455 0.226530 0.504082
O O4 0.077463 0.298012 0.888684
O O5 0.756645 0.233326 0.803512
O O6 0.611021 0.236385 0.594226
O O7 0.692942 0.000000 0.739325
O O8 0.783942 0.189444 0.070132
O O9 0.166751 0.500000 0.353337
O O10 0.229800 0.696362 0.364317
O O11 0.283870 0.708254 0.688778
O O12 0.105106 0.770284 0.228088
O O13 0.793750 0.500000 0.841708
O O14 0.698945 0.500000 0.128038
O O15 0.716571 0.241040 0.102812
O O16 0.560829 0.314643 0.839376
O O17 0.500000 0.288675 0.500000
O O18 0.564180 0.500000 0.529246
O O19 0.199690 0.000000 0.734072
#
# Coordination Sequence:
#
# PCOD8056814 Si02
#       8
#     4   4   4   4   4   4   2   4
#     4  10  19  33  56  84 111 146 186 228 275 321
#     4  11  24  40  57  76 109 154 188 223 277 334
#     4   9  16  29  54  85 112 140 176 223 275 323
#     4   9  20  37  58  82 108 144 191 231 265 320
#     4  10  19  34  58  86 114 141 174 227 286 330
#     4  10  20  35  59  89 110 134 180 235 283 326
#     4  10  15  26  55  86 111 140 177 222 271 324
#     4  11  23  35  51  80 115 149 184 223 272 331
#
# _framework density 18.263276000000001
#
# number of rings (size 3 to 8) (size 9 to 14) (size 15 to 20)
#    0.000    2.000    2.667    2.800    0.000    3.467 
#    0.000    4.333    0.000    4.000    0.000    0.000 
#    0.000    0.000    0.000    0.000    0.000    0.000 
#
# Total GULP energy -371675.620277 kJ/mol
# GULP energy per Si atom -12389.187343 kJ/mol
# Density = 1.822171 g / cm^3
# Si number density = 18.263276 Si / 1000 Ang^3
#
#
#
# Elastic Constant Matrix: (Units=GPa)
#
#
# Indices 1 2 3 4 5 6 
#
# 1 129.2764 64.1273 55.1882 0.0000 9.3953 0.0000
# 2 64.1273 89.6953 52.5339 0.0000 6.7119 0.0000
# 3 55.1882 52.5339 118.8713 0.0000 -0.3076 0.0000
# 4 0.0000 0.0000 0.0000 -299.4302 0.0000 -191.9092
# 5 9.3953 6.7119 -0.3076 0.0000 24.4961 0.0000
# 6 0.0000 0.0000 0.0000 -191.9092 0.0000 -107.7437
#
#
#
# Elastic Compliance Matrix: (Units=1/GPa)
#
#
# Indices 1 2 3 4 5 6 
#
# 1 0.012714 -0.007300 -0.002684 0.000000 -0.002910 0.000000
# 2 -0.007300 0.019680 -0.005315 0.000000 -0.002659 0.000000
# 3 -0.002684 -0.005315 0.012014 0.000000 0.002637 0.000000
# 4 0.000000 0.000000 0.000000 0.023590 0.000000 -0.042017
# 5 -0.002910 -0.002659 0.002637 0.000000 0.042701 0.000000
# 6 0.000000 0.000000 0.000000 -0.042017 0.000000 0.065558
#
#
# Mechanical properties :
#
#
# Convention : Reuss Voigt Hill
#
# Bulk Modulus (GPa) = 72.41143 75.72687 74.06915
# Shear Modulus (GPa) = 23.64542 -65.46932 -20.91195
#
# Velocity S-wave (km/s) = 3.60209 -5.99378 -3.38750
# Velocity P-wave (km/s) = 7.55214 2.51921 5.03430
#
# Compressibility (1/GPa) = 0.01380997
#
# Stress axis : x y z
#
# Youngs Moduli (GPa) = 78.65509 50.81335 83.23401
#
# Poissons Ratio (x) = 0.37093 0.22340
# Poissons Ratio (y) = 0.57417 0.44240
# Poissons Ratio (z) = 0.21111 0.27008
#
# Static dielectric constant tensor:
#      x y z
#    x 3.295190 0.000000 -0.072720 
#    y 0.000000 3.109170 0.000000 
#    z -0.072720 0.000000 3.555280 
# 
# 
# High freq. dielectric constant tensor:
#      x y z
#    x 1.700720 0.000000 -0.004260 
#    y 0.000000 1.679660 0.000000 
#    z -0.004260 0.000000 1.718530 
# 
# From -- ./inp_files/58015.got.cif
#   From: 2010.06.25/outbox.cif.g09.slc.cpg/sg10_30_cif.got.tgz:58015.got - 2010.06.27 22:07:45.
