data_PCOD8056819
_publ_section_title
;
Structure prediction by ZEFSAII (Michael W. Deem and Ramdas Pophale) SiO2 
 PCOD8056819
Probable space group: P 2/M
;
_chemical_formula_sum "Si O2"
_cell_formula_units_Z 32
_cell_length_a 22.584179
_cell_length_b 16.334864
_cell_length_c 11.356931
_cell_angle_alpha 90.000000
_cell_angle_beta 22.817116
_cell_angle_gamma 90.000000
_cell_volume 1624.719885
_symmetry_space_group_name_H-M "P 2/M"
_symmetry_group_IT_number 10
_symmetry_cell_setting 'monoclinic'
loop_
_space_group_symop_operation_xyz
x,y,z
-x,y,-z
-x,-y,-z
x,-y,z
loop_
_atom_site_type_symbol
_atom_site_label
_atom_site_fract_x
_atom_site_fract_y
_atom_site_fract_z
Si Si1 0.326496 0.909733 0.955700
Si Si2 0.665300 0.313337 0.238248
Si Si3 0.771310 0.593828 0.256784
Si Si4 0.666531 0.286798 0.640589
Si Si5 0.941093 0.689407 0.291624
Si Si6 0.669581 0.866570 0.318087
Si Si7 0.139661 0.758691 0.318110
Si Si8 0.874356 0.840416 0.148624
O O1 0.504954 0.900061 0.658160
O O2 0.290034 0.903146 0.883217
O O3 0.274400 0.000000 0.094316
O O4 0.235032 0.837648 0.190621
O O5 0.500000 0.339388 0.500000
O O6 0.730629 0.386935 0.195934
O O7 0.662924 0.231539 0.322477
O O8 0.761623 0.300983 0.943770
O O9 0.739105 0.500000 0.345744
O O10 0.664289 0.649350 0.536672
O O11 0.952104 0.612571 0.937899
O O12 0.775372 0.325713 0.540668
O O13 0.731472 0.197823 0.482809
O O14 0.500000 0.274091 0.000000
O O15 0.924117 0.702299 0.461569
O O16 0.022207 0.768220 0.090472
O O17 0.798412 0.892072 0.179642
O O18 0.000000 0.795632 0.500000
O O19 0.000000 0.890511 0.000000
#
# Coordination Sequence:
#
# PCOD8056819 Si02
#       8
#     4   4   4   4   4   4   4   4
#     4  10  21  32  54  93 122 148 185 237 306 347
#     4  11  20  35  59  85 112 152 197 236 286 348
#     4  11  23  41  59  79 119 156 191 243 299 346
#     4  10  22  34  59  86 114 140 201 251 288 335
#     4  10  20  36  57  85 114 154 201 235 283 345
#     4  10  15  32  59  80 115 154 192 234 279 348
#     4  11  20  35  60  87 116 153 191 240 280 349
#     4   9  18  34  54  85 114 148 200 246 278 332
#
# _framework density 19.695703000000002
#
# number of rings (size 3 to 8) (size 9 to 14) (size 15 to 20)
#    0.000    1.750    6.250    2.625    3.500    1.750 
#    0.000    1.250    0.000    1.500    0.000    8.750 
#    0.000    1.250    0.000    0.000    0.000    0.000 
#
# Total GULP energy -396628.724658 kJ/mol
# GULP energy per Si atom -12394.647646 kJ/mol
# Density = 1.965087 g / cm^3
# Si number density = 19.695703 Si / 1000 Ang^3
#
#
#
# Elastic Constant Matrix: (Units=GPa)
#
#
# Indices 1 2 3 4 5 6 
#
# 1 100.0690 7.3437 28.0777 0.0000 -18.4594 0.0000
# 2 7.3437 43.0367 10.1348 0.0000 5.6829 0.0000
# 3 28.0777 10.1348 115.2684 0.0000 -0.4356 0.0000
# 4 0.0000 0.0000 0.0000 2.3854 0.0000 -3.8866
# 5 -18.4594 5.6829 -0.4356 0.0000 37.0890 0.0000
# 6 0.0000 0.0000 0.0000 -3.8866 0.0000 14.5686
#
#
#
# Elastic Compliance Matrix: (Units=1/GPa)
#
#
# Indices 1 2 3 4 5 6 
#
# 1 0.012091 -0.002258 -0.002723 0.000000 0.006332 0.000000
# 2 -0.002258 0.024656 -0.001636 0.000000 -0.004921 0.000000
# 3 -0.002723 -0.001636 0.009479 0.000000 -0.000993 0.000000
# 4 0.000000 0.000000 0.000000 0.741536 0.000000 0.197827
# 5 0.006332 -0.004921 -0.000993 0.000000 0.030856 0.000000
# 6 0.000000 0.000000 0.000000 0.197827 0.000000 0.121417
#
#
# Mechanical properties :
#
#
# Convention : Reuss Voigt Hill
#
# Bulk Modulus (GPa) = 30.31074 38.83183 34.57129
# Shear Modulus (GPa) = 5.18529 24.99647 15.09088
#
# Velocity S-wave (km/s) = 1.62432 3.56635 2.77104
# Velocity P-wave (km/s) = 4.35211 6.05947 5.27532
#
# Compressibility (1/GPa) = 0.03299161
#
# Stress axis : x y z
#
# Youngs Moduli (GPa) = 82.70803 40.55731 105.49935
#
# Poissons Ratio (x) = 0.09158 0.28724
# Poissons Ratio (y) = 0.18676 0.17264
# Poissons Ratio (z) = 0.22519 0.06637
#
# Static dielectric constant tensor:
#      x y z
#    x 4.148410 0.000000 -0.010420 
#    y 0.000000 3.187680 0.000000 
#    z -0.010420 0.000000 3.945440 
# 
# 
# High freq. dielectric constant tensor:
#      x y z
#    x 1.775360 0.000000 -0.014080 
#    y 0.000000 1.716950 0.000000 
#    z -0.014080 0.000000 1.766900 
# 
# From -- ./inp_files/57085.got.cif
#   From: 2010.06.25/outbox.cif.g09.slc.cpg/sg10_29_cif.got.tgz:57085.got - 2010.06.27 22:07:45.
