data_PCOD8056415
_publ_section_title
;
Structure prediction by ZEFSAII (Michael W. Deem and Ramdas Pophale) SiO2 
 PCOD8056415
Probable space group: C C
;
_chemical_formula_sum "Si O2"
_cell_formula_units_Z 32
_cell_length_a 15.658200
_cell_length_b 19.682103
_cell_length_c 9.512165
_cell_angle_alpha 90.000000
_cell_angle_beta 30.912518
_cell_angle_gamma 90.000000
_cell_volume 1506.005467
_symmetry_space_group_name_H-M "C C"
_symmetry_group_IT_number 9
_symmetry_cell_setting 'monoclinic'
loop_
_space_group_symop_operation_xyz
x,y,z
x,-y,1/2+z
1/2+x,1/2+y,z
1/2+x,1/2-y,1/2+z
loop_
_atom_site_type_symbol
_atom_site_label
_atom_site_fract_x
_atom_site_fract_y
_atom_site_fract_z
Si Si1 0.946790 0.202409 0.117980
Si Si2 0.252128 0.573098 0.288047
Si Si3 0.876015 0.560349 0.867212
Si Si4 0.655616 0.705118 0.567084
Si Si5 0.423944 0.689278 0.653122
Si Si6 0.170852 0.185105 0.063220
Si Si7 0.882535 0.044080 0.803164
Si Si8 0.754587 0.557385 0.351549
O O1 0.856507 0.140003 0.171364
O O2 0.816788 0.262896 0.320987
O O3 0.103776 0.223889 0.799269
O O4 0.025610 0.180565 0.153768
O O5 0.312005 0.515880 0.309849
O O6 0.059408 0.588942 0.583232
O O7 0.272546 0.551117 0.097966
O O8 0.746528 0.610781 0.976981
O O9 0.850566 0.487021 0.831864
O O10 0.852867 0.555626 0.066724
O O11 0.482592 0.703823 0.728382
O O12 0.768484 0.763370 0.339343
O O13 0.750150 0.633226 0.421300
O O14 0.371836 0.610407 0.717976
O O15 0.579103 0.707583 0.334937
O O16 0.070589 0.028578 0.584682
#
# Coordination Sequence:
#
# PCOD8056415 Si02
#       8
#     4   4   4   4   4   4   4   4
#     4  12  26  44  71 100 134 179 222 277 336 398
#     4  12  26  45  69 101 137 175 228 278 334 402
#     4  12  26  45  69 101 137 175 228 278 334 402
#     4  11  24  45  68  98 134 174 222 275 334 400
#     4  11  24  45  68  98 134 174 222 275 334 400
#     4  12  26  44  71 100 134 179 222 277 336 398
#     4  11  24  46  70  97 136 178 226 278 334 399
#     4  11  24  46  70  97 136 178 226 278 334 399
#
# _framework density 21.248263000000001
#
# number of rings (size 3 to 8) (size 9 to 14) (size 15 to 20)
#    0.000    0.500    5.000    4.500    7.000    1.000 
#    0.000    0.000    0.000    0.000    0.000    0.000 
#    0.000    0.000    0.000    0.000    0.000    0.000 
#
# Total GULP energy -198482.202091 kJ/mol
# GULP energy per Si atom -12405.137631 kJ/mol
# Density = 2.119990 g / cm^3
# Si number density = 21.248263 Si / 1000 Ang^3
#
#
#
# Elastic Constant Matrix: (Units=GPa)
#
#
# Indices 1 2 3 4 5 6 
#
# 1 50.3050 11.3357 30.4323 -0.0005 13.3716 -0.0044
# 2 11.3357 64.5920 39.6374 0.0142 12.3143 -0.0041
# 3 30.4323 39.6374 148.1859 0.0208 16.7146 -0.0054
# 4 -0.0005 0.0142 0.0208 33.9056 -0.0070 -1.8498
# 5 13.3716 12.3143 16.7146 -0.0070 40.5836 0.0052
# 6 -0.0044 -0.0041 -0.0054 -1.8498 0.0052 34.2851
#
#
#
# Elastic Compliance Matrix: (Units=1/GPa)
#
#
# Indices 1 2 3 4 5 6 
#
# 1 0.024110 -0.000543 -0.004120 0.000002 -0.006082 0.000003
# 2 -0.000543 0.019096 -0.004576 -0.000006 -0.003731 0.000002
# 3 -0.004120 -0.004576 0.008923 -0.000004 -0.000929 0.000000
# 4 0.000002 -0.000006 -0.000004 0.029581 0.000008 0.001596
# 5 -0.006082 -0.003731 -0.000929 0.000008 0.028159 -0.000005
# 6 0.000003 0.000002 0.000000 0.001596 -0.000005 0.029253
#
#
# Mechanical properties :
#
#
# Convention : Reuss Voigt Hill
#
# Bulk Modulus (GPa) = 29.71617 47.32153 38.51885
# Shear Modulus (GPa) = 29.61768 33.86671 31.74219
#
# Velocity S-wave (km/s) = 3.73753 3.99665 3.86926
# Velocity P-wave (km/s) = 5.71324 6.60429 6.17486
#
# Compressibility (1/GPa) = 0.03365171
#
# Stress axis : x y z
#
# Youngs Moduli (GPa) = 41.47597 52.36629 112.06886
#
# Poissons Ratio (x) = 0.02846 0.46173
# Poissons Ratio (y) = 0.02254 0.51277
# Poissons Ratio (z) = 0.17088 0.23960
#
# Static dielectric constant tensor:
#      x y z
#    x 3.862980 -0.000040 0.110650 
#    y -0.000040 3.921010 0.000000 
#    z 0.110650 0.000000 3.972810 
# 
# 
# High freq. dielectric constant tensor:
#      x y z
#    x 1.835470 0.000000 0.008790 
#    y 0.000000 1.837450 0.000000 
#    z 0.008790 0.000000 1.850670 
# 
# From -- ./inp_files/10072.got.cif
#   From: 2010.06.25/outbox.cif.g09.slc.cpg/sg9_6_cif.got.tgz:10072.got - 2010.06.27 21:40:51.
