data_PCOD8056597
_publ_section_title
;
Structure prediction by ZEFSAII (Michael W. Deem and Ramdas Pophale) SiO2 
 PCOD8056597
Probable space group: C C
;
_chemical_formula_sum "Si O2"
_cell_formula_units_Z 32
_cell_length_a 18.020918
_cell_length_b 6.212955
_cell_length_c 13.699887
_cell_angle_alpha 90.000000
_cell_angle_beta 62.451766
_cell_angle_gamma 90.000000
_cell_volume 1359.973697
_symmetry_space_group_name_H-M "C C"
_symmetry_group_IT_number 9
_symmetry_cell_setting 'monoclinic'
loop_
_space_group_symop_operation_xyz
x,y,z
x,-y,1/2+z
1/2+x,1/2+y,z
1/2+x,1/2-y,1/2+z
loop_
_atom_site_type_symbol
_atom_site_label
_atom_site_fract_x
_atom_site_fract_y
_atom_site_fract_z
Si Si1 0.612490 0.004188 0.386240
Si Si2 0.167561 0.912000 0.108539
Si Si3 0.723426 0.592627 0.261910
Si Si4 0.878740 0.764780 0.056631
Si Si5 0.017290 0.666148 0.120309
Si Si6 0.317232 0.397014 0.465537
Si Si7 0.954023 0.544896 0.353446
Si Si8 0.733762 0.281263 0.415653
O O1 0.665232 0.795641 0.322077
O O2 0.573722 0.977093 0.516700
O O3 0.543145 0.077828 0.351292
O O4 0.672238 0.204293 0.367374
O O5 0.073127 0.848030 0.138556
O O6 0.168332 0.938584 0.225015
O O7 0.231165 0.727257 0.034444
O O8 0.191167 0.139063 0.041930
O O9 0.802931 0.634253 0.146483
O O10 0.764238 0.494245 0.337272
O O11 0.951337 0.788562 0.091419
O O12 0.906084 0.647767 0.937890
O O13 0.847367 0.002730 0.049860
O O14 0.974947 0.506642 0.226280
O O15 0.394978 0.253900 0.384787
O O16 0.300306 0.591939 0.398106
#
# Coordination Sequence:
#
# PCOD8056597 Si02
#       8
#     4   4   4   4   4   4   4   4
#     4  11  27  47  76 112 151 194 256 308 392 449
#     4  12  26  49  74 113 145 198 257 309 382 461
#     4  12  26  46  80 110 149 199 265 313 372 459
#     4  11  28  46  74 109 154 196 252 315 377 451
#     4  11  26  47  71 105 157 189 247 308 378 453
#     4  12  25  49  73 111 148 197 255 309 386 454
#     4  11  27  49  71 113 154 195 253 319 379 463
#     4  12  25  45  81 105 148 198 253 315 368 464
#
# _framework density 23.529868
#
# number of rings (size 3 to 8) (size 9 to 14) (size 15 to 20)
#    0.000    0.500    5.000    0.750   12.250    2.000 
#    0.000    0.000    0.000    0.000    0.000    0.000 
#    0.000    0.000    0.000    0.000    0.000    0.000 
#
# Total GULP energy -198284.195257 kJ/mol
# GULP energy per Si atom -12392.762204 kJ/mol
# Density = 2.347631 g / cm^3
# Si number density = 23.529868 Si / 1000 Ang^3
#
#
#
# Elastic Constant Matrix: (Units=GPa)
#
#
# Indices 1 2 3 4 5 6 
#
# 1 120.3581 59.8629 38.2749 0.0001 -3.1516 -0.0002
# 2 59.8629 78.3743 31.5673 0.0003 4.0976 -0.0009
# 3 38.2749 31.5673 122.9688 0.0001 13.9802 -0.0001
# 4 0.0001 0.0003 0.0001 19.5412 0.0000 11.6028
# 5 -3.1516 4.0976 13.9802 0.0000 36.0231 0.0000
# 6 -0.0002 -0.0009 -0.0001 11.6028 0.0000 42.6120
#
#
#
# Elastic Compliance Matrix: (Units=1/GPa)
#
#
# Indices 1 2 3 4 5 6 
#
# 1 0.014081 -0.010050 -0.002169 0.000000 0.003217 0.000000
# 2 -0.010050 0.021405 -0.002082 -0.000001 -0.002506 0.000001
# 3 -0.002169 -0.002082 0.009767 0.000000 -0.003743 0.000000
# 4 0.000000 -0.000001 0.000000 0.061043 0.000000 -0.016621
# 5 0.003217 -0.002506 -0.003743 0.000000 0.029779 0.000000
# 6 0.000000 0.000001 0.000000 -0.016621 0.000000 0.027993
#
#
# Mechanical properties :
#
#
# Convention : Reuss Voigt Hill
#
# Bulk Modulus (GPa) = 60.05119 64.56793 62.30956
# Shear Modulus (GPa) = 25.22448 32.43500 28.82974
#
# Velocity S-wave (km/s) = 3.27772 3.71679 3.50414
# Velocity P-wave (km/s) = 6.31675 6.77641 6.55061
#
# Compressibility (1/GPa) = 0.01665246
#
# Stress axis : x y z
#
# Youngs Moduli (GPa) = 71.01797 46.71804 102.38391
#
# Poissons Ratio (x) = 0.46951 0.22203
# Poissons Ratio (y) = 0.71372 0.21315
# Poissons Ratio (z) = 0.15401 0.09726
#
# Static dielectric constant tensor:
#      x y z
#    x 4.729370 0.000000 0.160030 
#    y 0.000000 4.082410 0.000000 
#    z 0.160030 0.000000 4.310430 
# 
# 
# High freq. dielectric constant tensor:
#      x y z
#    x 1.957990 0.000000 0.013660 
#    y 0.000000 1.918780 0.000000 
#    z 0.013660 0.000000 1.937090 
# 
# From -- ./inp_files/26445.got.cif
#   From: 2010.06.25/outbox.cif.g09.slc.cpg/sg9_14_cif.got.tgz:26445.got - 2010.06.27 21:40:51.
