data_PCOD8056847
_publ_section_title
;
Structure prediction by ZEFSAII (Michael W. Deem and Ramdas Pophale) SiO2 
 PCOD8056847
Probable space group: P 2/M
;
_chemical_formula_sum "Si O2"
_cell_formula_units_Z 20
_cell_length_a 5.458940
_cell_length_b 22.013982
_cell_length_c 5.952304
_cell_angle_alpha 90.000000
_cell_angle_beta 102.742372
_cell_angle_gamma 90.000000
_cell_volume 697.689488
_symmetry_space_group_name_H-M "P 2/M"
_symmetry_group_IT_number 10
_symmetry_cell_setting 'monoclinic'
loop_
_space_group_symop_operation_xyz
x,y,z
-x,y,-z
-x,-y,-z
x,-y,z
loop_
_atom_site_type_symbol
_atom_site_label
_atom_site_fract_x
_atom_site_fract_y
_atom_site_fract_z
Si Si1 0.207657 0.569653 0.748476
Si Si2 0.097017 0.245454 0.264741
Si Si3 0.710366 0.619144 0.738178
Si Si4 0.283770 0.065303 0.641991
Si Si5 0.410486 0.805407 0.748766
O O1 0.291817 0.500000 0.776079
O O2 0.406964 0.607778 0.630506
O O3 0.904613 0.575498 0.633215
O O4 0.245201 0.601041 0.996169
O O5 0.205363 0.312715 0.289615
O O6 0.338085 0.199470 0.365145
O O7 0.840725 0.235240 0.370609
O O8 0.000000 0.226183 0.000000
O O9 0.500000 0.065302 0.500000
O O10 0.333289 0.125540 0.797133
O O11 0.000000 0.071031 0.500000
O O12 0.304710 0.000000 0.777640
O O13 0.500000 0.774417 0.000000
#
# Coordination Sequence:
#
# PCOD8056847 Si02
#       5
#     4   4   4   4   4
#     4  10  17  23  34  53  80 122 182 219 238 290
#     4  10  18  29  44  66  99 134 170 213 252 305
#     4  10  16  24  36  51  81 124 168 215 239 299
#     4  10  21  39  61  81 105 139 175 210 261 320
#     4  10  21  33  52  80 107 133 174 222 252 309
#
# _framework density 28.666046999999999
#
# number of rings (size 3 to 8) (size 9 to 14) (size 15 to 20)
#    0.000    2.000    2.000    5.400    5.600    0.400 
#    0.000    0.000    0.000    7.200    0.000    0.000 
#    0.000    0.000    0.000    0.000    0.000  412.000 
#
# Total GULP energy -247994.888419 kJ/mol
# GULP energy per Si atom -12399.744421 kJ/mol
# Density = 2.860080 g / cm^3
# Si number density = 28.666047 Si / 1000 Ang^3
#
#
#
# Elastic Constant Matrix: (Units=GPa)
#
#
# Indices 1 2 3 4 5 6 
#
# 1 320.6452 95.8157 114.3392 0.0000 15.8934 0.0000
# 2 95.8157 243.8594 38.7718 0.0000 12.1367 0.0000
# 3 114.3392 38.7718 134.0290 0.0000 17.6211 0.0000
# 4 0.0000 0.0000 0.0000 32.1061 0.0000 9.0291
# 5 15.8934 12.1367 17.6211 0.0000 60.4264 0.0000
# 6 0.0000 0.0000 0.0000 9.0291 0.0000 57.7307
#
#
#
# Elastic Compliance Matrix: (Units=1/GPa)
#
#
# Indices 1 2 3 4 5 6 
#
# 1 0.004850 -0.001311 -0.003770 0.000000 0.000087 0.000000
# 2 -0.001311 0.004668 -0.000161 0.000000 -0.000546 0.000000
# 3 -0.003770 -0.000161 0.011011 0.000000 -0.002187 0.000000
# 4 0.000000 0.000000 0.000000 0.032580 0.000000 -0.005095
# 5 0.000087 -0.000546 -0.002187 0.000000 0.017274 0.000000
# 6 0.000000 0.000000 0.000000 -0.005095 0.000000 0.018119
#
#
# Mechanical properties :
#
#
# Convention : Reuss Voigt Hill
#
# Bulk Modulus (GPa) = 99.52771 132.93189 116.22980
# Shear Modulus (GPa) = 48.85942 60.02643 54.44293
#
# Velocity S-wave (km/s) = 4.13296 4.58098 4.36272
# Velocity P-wave (km/s) = 7.58751 8.62866 8.12478
#
# Compressibility (1/GPa) = 0.01004745
#
# Stress axis : x y z
#
# Youngs Moduli (GPa) = 206.16488 214.20509 90.81522
#
# Poissons Ratio (x) = 0.28076 0.34239
# Poissons Ratio (y) = 0.27022 0.01458
# Poissons Ratio (z) = 0.77728 0.03438
#
# Static dielectric constant tensor:
#      x y z
#    x 7.981280 0.000000 0.631580 
#    y 0.000000 5.178080 0.000000 
#    z 0.631580 0.000000 6.280420 
# 
# 
# High freq. dielectric constant tensor:
#      x y z
#    x 2.242930 0.000000 0.008120 
#    y 0.000000 2.135250 0.000000 
#    z 0.008120 0.000000 2.251420 
# 
# From -- ./inp_files/15317.got.cif
#   From: 2010.06.25/outbox.cif.g09.slc.cpg/sg10_8_cif.got.tgz:15317.got - 2010.06.27 22:07:45.
