data_PCOD8056692
_publ_section_title
;
Structure prediction by ZEFSAII (Michael W. Deem and Ramdas Pophale) SiO2 
 PCOD8056692
Probable space group: C C
;
_chemical_formula_sum "Si O2"
_cell_formula_units_Z 32
_cell_length_a 18.459405
_cell_length_b 14.839502
_cell_length_c 12.698481
_cell_angle_alpha 90.000000
_cell_angle_beta 155.470280
_cell_angle_gamma 90.000000
_cell_volume 1444.141458
_symmetry_space_group_name_H-M "C C"
_symmetry_group_IT_number 9
_symmetry_cell_setting 'monoclinic'
loop_
_space_group_symop_operation_xyz
x,y,z
x,-y,1/2+z
1/2+x,1/2+y,z
1/2+x,1/2-y,1/2+z
loop_
_atom_site_type_symbol
_atom_site_label
_atom_site_fract_x
_atom_site_fract_y
_atom_site_fract_z
Si Si1 0.634560 0.983856 0.303190
Si Si2 0.633551 0.666973 0.246948
Si Si3 0.736108 0.123992 0.129040
Si Si4 0.955800 0.669198 0.079601
Si Si5 0.200286 0.161151 0.933792
Si Si6 0.893433 0.663112 0.403513
Si Si7 0.903121 0.708506 0.778940
Si Si8 0.946905 0.993541 0.071869
O O1 0.628987 0.940834 0.411112
O O2 0.493409 0.932449 0.043499
O O3 0.591756 0.087891 0.262739
O O4 0.827230 0.974152 0.509945
O O5 0.724461 0.664129 0.253932
O O6 0.521927 0.757701 0.110612
O O7 0.772300 0.661541 0.524529
O O8 0.509915 0.580556 0.091428
O O9 0.872507 0.183711 0.242152
O O10 0.833156 0.066805 0.344205
O O11 0.601788 0.191559 0.008360
O O12 0.056444 0.761087 0.238088
O O13 0.802455 0.656176 0.959812
O O14 0.868238 0.669429 0.848994
O O15 0.106887 0.065080 0.828531
O O16 0.334280 0.179034 0.205753
#
# Coordination Sequence:
#
# PCOD8056692 Si02
#       8
#     4   4   4   4   4   4   4   4
#     4  12  27  46  71 105 146 190 240 298 358 429
#     4  12  26  48  73 106 142 190 239 298 361 431
#     4  12  27  48  75 106 146 190 247 302 360 426
#     4  12  26  46  74 101 147 188 242 299 359 433
#     4  12  28  47  70 107 143 195 233 296 368 431
#     4  12  27  48  71 104 147 190 235 294 365 434
#     4  12  24  50  75 104 142 188 247 300 355 424
#     4  12  29  45  71 109 143 191 243 293 364 430
#
# _framework density 22.158494000000001
#
# number of rings (size 3 to 8) (size 9 to 14) (size 15 to 20)
#    0.000    0.000    5.000    3.750    8.750    0.000 
#    0.000    0.000    0.000    0.000    0.000    0.000 
#    0.000    0.000    0.000    0.000    0.000    0.000 
#
# Total GULP energy -198537.566404 kJ/mol
# GULP energy per Si atom -12408.597900 kJ/mol
# Density = 2.210806 g / cm^3
# Si number density = 22.158494 Si / 1000 Ang^3
#
#
#
# Elastic Constant Matrix: (Units=GPa)
#
#
# Indices 1 2 3 4 5 6 
#
# 1 110.3875 27.4281 30.6033 0.0000 8.6739 0.0000
# 2 27.4281 96.1794 11.7545 0.0000 11.4221 0.0000
# 3 30.6033 11.7545 83.3664 0.0000 -10.3905 0.0000
# 4 0.0000 0.0000 0.0000 41.2644 0.0000 12.0528
# 5 8.6739 11.4221 -10.3905 0.0000 49.6915 0.0000
# 6 0.0000 0.0000 0.0000 12.0528 0.0000 34.1533
#
#
#
# Elastic Compliance Matrix: (Units=1/GPa)
#
#
# Indices 1 2 3 4 5 6 
#
# 1 0.010913 -0.002371 -0.003944 0.000000 -0.002185 0.000000
# 2 -0.002371 0.011493 -0.001055 0.000000 -0.002449 0.000000
# 3 -0.003944 -0.001055 0.014075 0.000000 0.003874 0.000000
# 4 0.000000 0.000000 0.000000 0.027019 0.000000 -0.009535
# 5 -0.002185 -0.002449 0.003874 0.000000 0.021878 0.000000
# 6 0.000000 0.000000 0.000000 -0.009535 0.000000 0.032645
#
#
# Mechanical properties :
#
#
# Convention : Reuss Voigt Hill
#
# Bulk Modulus (GPa) = 45.99724 47.72278 46.86001
# Shear Modulus (GPa) = 35.71152 39.69833 37.70492
#
# Velocity S-wave (km/s) = 4.01888 4.23728 4.12952
# Velocity P-wave (km/s) = 6.50681 6.74708 6.62803
#
# Compressibility (1/GPa) = 0.02174044
#
# Stress axis : x y z
#
# Youngs Moduli (GPa) = 91.63234 87.00879 71.04898
#
# Poissons Ratio (x) = 0.20627 0.28023
# Poissons Ratio (y) = 0.21723 0.07499
# Poissons Ratio (z) = 0.36142 0.09183
#
# Static dielectric constant tensor:
#      x y z
#    x 4.150230 0.000000 0.025950 
#    y 0.000000 4.112370 0.000000 
#    z 0.025950 0.000000 3.980440 
# 
# 
# High freq. dielectric constant tensor:
#      x y z
#    x 1.884770 0.000000 0.001250 
#    y 0.000000 1.884340 0.000000 
#    z 0.001250 0.000000 1.879130 
# 
# From -- ./inp_files/7384.got.cif
#   From: 2010.06.25/outbox.cif.g09.slc.cpg/sg9_4_cif.got.tgz:7384.got - 2010.06.27 21:40:51.
