data_PCOD8056121
_publ_section_title
;
Structure prediction by ZEFSAII (Michael W. Deem and Ramdas Pophale) SiO2 
 PCOD8056121
Probable space group: C C
;
_chemical_formula_sum "Si O2"
_cell_formula_units_Z 32
_cell_length_a 13.836838
_cell_length_b 21.459067
_cell_length_c 13.317950
_cell_angle_alpha 90.000000
_cell_angle_beta 159.137759
_cell_angle_gamma 90.000000
_cell_volume 1408.264389
_symmetry_space_group_name_H-M "C C"
_symmetry_group_IT_number 9
_symmetry_cell_setting 'monoclinic'
loop_
_space_group_symop_operation_xyz
x,y,z
x,-y,1/2+z
1/2+x,1/2+y,z
1/2+x,1/2-y,1/2+z
loop_
_atom_site_type_symbol
_atom_site_label
_atom_site_fract_x
_atom_site_fract_y
_atom_site_fract_z
Si Si1 0.557100 0.545301 0.131330
Si Si2 0.349919 0.600918 0.731893
Si Si3 0.884941 0.593112 0.757255
Si Si4 0.319550 0.354430 0.524462
Si Si5 0.557638 0.709557 0.423187
Si Si6 0.559669 0.034403 0.129151
Si Si7 0.284645 0.710242 0.789877
Si Si8 0.361377 0.043232 0.153026
O O1 0.485155 0.581487 0.164441
O O2 0.872587 0.527276 0.435583
O O3 0.495958 0.588943 0.979343
O O4 0.376057 0.483156 0.942646
O O5 0.082225 0.560934 0.451343
O O6 0.259022 0.672611 0.658616
O O7 0.586112 0.584156 0.882638
O O8 0.792618 0.529286 0.610991
O O9 0.628045 0.639255 0.530956
O O10 0.088827 0.631621 0.883605
O O11 0.018742 0.580737 0.996073
O O12 0.190555 0.329774 0.295829
O O13 0.526835 0.302355 0.772029
O O14 0.266991 0.739273 0.169029
O O15 0.481702 0.061634 0.161873
O O16 0.597820 0.729366 0.103046
#
# Coordination Sequence:
#
# PCOD8056121 Si02
#       8
#     4   4   4   4   4   4   4   4
#     4  11  22  39  62 100 137 176 216 274 335 413
#     4  11  23  43  67  97 143 172 224 281 347 399
#     4  12  26  42  71  96 142 183 225 281 356 402
#     4  11  25  40  69 101 142 179 219 280 348 412
#     4  12  26  43  63  93 132 181 229 273 334 411
#     4  12  25  39  65  98 137 175 232 266 340 416
#     4  11  25  43  71 105 137 178 226 280 345 419
#     4  12  24  43  68 102 138 180 223 289 341 418
#
# _framework density 22.723006000000002
#
# number of rings (size 3 to 8) (size 9 to 14) (size 15 to 20)
#    0.000    0.500    5.000    3.000    5.250    2.000 
#    0.000    0.000    0.000    4.500    0.000    0.000 
#    0.000    0.000    0.000    0.000    0.000    0.000 
#
# Total GULP energy -198211.727422 kJ/mol
# GULP energy per Si atom -12388.232964 kJ/mol
# Density = 2.267129 g / cm^3
# Si number density = 22.723006 Si / 1000 Ang^3
#
#
#
# Elastic Constant Matrix: (Units=GPa)
#
#
# Indices 1 2 3 4 5 6 
#
# 1 71.5204 32.5309 7.2062 0.0020 3.1482 0.0025
# 2 32.5309 85.6503 24.1419 0.0042 -0.2224 0.0034
# 3 7.2062 24.1419 77.3981 -0.0037 5.8668 0.0055
# 4 0.0020 0.0042 -0.0037 38.8777 -0.0021 -6.3255
# 5 3.1482 -0.2224 5.8668 -0.0021 22.3072 0.0024
# 6 0.0025 0.0034 0.0055 -6.3255 0.0024 37.8292
#
#
#
# Elastic Compliance Matrix: (Units=1/GPa)
#
#
# Indices 1 2 3 4 5 6 
#
# 1 0.017070 -0.006687 0.000698 0.000000 -0.002659 -0.000001
# 2 -0.006687 0.015452 -0.004367 -0.000002 0.002246 -0.000001
# 3 0.000698 -0.004367 0.014518 0.000001 -0.003960 -0.000001
# 4 0.000000 -0.000002 0.000001 0.026441 0.000002 0.004421
# 5 -0.002659 0.002246 -0.003960 0.000002 0.046268 -0.000002
# 6 -0.000001 -0.000001 -0.000001 0.004421 -0.000002 0.027174
#
#
# Mechanical properties :
#
#
# Convention : Reuss Voigt Hill
#
# Bulk Modulus (GPa) = 37.98368 40.25851 39.12110
# Shear Modulus (GPa) = 28.34275 31.18213 29.76244
#
# Velocity S-wave (km/s) = 3.53557 3.70844 3.62303
# Velocity P-wave (km/s) = 5.78094 6.00768 5.89540
#
# Compressibility (1/GPa) = 0.02632710
#
# Stress axis : x y z
#
# Youngs Moduli (GPa) = 58.58092 64.71599 68.88140
#
# Poissons Ratio (x) = 0.43277 -0.04809
# Poissons Ratio (y) = 0.39174 0.30084
# Poissons Ratio (z) = -0.04090 0.28265
#
# Static dielectric constant tensor:
#      x y z
#    x 4.049350 0.000000 -0.038320 
#    y 0.000000 4.231530 0.000010 
#    z -0.038320 0.000010 4.185500 
# 
# 
# High freq. dielectric constant tensor:
#      x y z
#    x 1.872440 0.000000 0.000670 
#    y 0.000000 1.882610 0.000000 
#    z 0.000670 0.000000 1.911420 
# 
# From -- ./inp_files/26163.got.cif
#   From: 2010.06.25/outbox.cif.g09.slc.cpg/sg9_14_cif.got.tgz:26163.got - 2010.06.27 21:40:51.
