data_PCOD8056349
_publ_section_title
;
Structure prediction by ZEFSAII (Michael W. Deem and Ramdas Pophale) SiO2 
 PCOD8056349
Probable space group: C C
;
_chemical_formula_sum "Si O2"
_cell_formula_units_Z 32
_cell_length_a 16.503119
_cell_length_b 11.095303
_cell_length_c 13.906257
_cell_angle_alpha 90.000000
_cell_angle_beta 32.045496
_cell_angle_gamma 90.000000
_cell_volume 1351.065957
_symmetry_space_group_name_H-M "C C"
_symmetry_group_IT_number 9
_symmetry_cell_setting 'monoclinic'
loop_
_space_group_symop_operation_xyz
x,y,z
x,-y,1/2+z
1/2+x,1/2+y,z
1/2+x,1/2-y,1/2+z
loop_
_atom_site_type_symbol
_atom_site_label
_atom_site_fract_x
_atom_site_fract_y
_atom_site_fract_z
Si Si1 0.430850 0.147023 0.655540
Si Si2 0.259238 0.501990 0.969067
Si Si3 0.211848 0.127003 0.185962
Si Si4 0.812766 0.619933 0.295898
Si Si5 0.753985 0.131395 0.275492
Si Si6 0.489948 0.575478 0.875495
Si Si7 0.518916 0.822404 0.273826
Si Si8 0.081069 0.743878 0.139029
O O1 0.571525 0.131179 0.438353
O O2 0.300173 0.229388 0.742627
O O3 0.497491 0.214768 0.683548
O O4 0.361662 0.018564 0.752659
O O5 0.205636 0.639817 0.022868
O O6 0.141600 0.428961 0.153807
O O7 0.280536 0.450968 0.841694
O O8 0.424469 0.497098 0.852434
O O9 0.275238 0.164509 0.226167
O O10 0.079661 0.215902 0.280644
O O11 0.355635 0.127676 0.970947
O O12 0.140429 0.992262 0.263944
O O13 0.660590 0.639029 0.511261
O O14 0.945988 0.702164 0.205437
O O15 0.854786 0.076886 0.089472
O O16 0.528808 0.710441 0.797736
#
# Coordination Sequence:
#
# PCOD8056349 Si02
#       8
#     4   4   4   4   4   4   4   4
#     4  11  25  48  76 106 149 199 252 316 377 457
#     4  11  26  48  76 105 154 196 253 318 382 453
#     4  12  27  44  78 112 145 197 259 316 378 467
#     4  12  27  48  75 111 156 198 251 318 392 451
#     4  11  27  46  76 109 147 197 259 313 378 453
#     4  12  29  45  78 109 154 201 257 314 387 465
#     4  11  23  48  74 104 146 193 255 313 380 446
#     4  12  26  49  73 112 151 203 244 316 390 458
#
# _framework density 23.685002000000001
#
# number of rings (size 3 to 8) (size 9 to 14) (size 15 to 20)
#    0.000    0.500    3.750    4.500    7.000    2.000 
#    0.000    0.000    0.000    0.000    0.000    0.000 
#    0.000    0.000    0.000    0.000    0.000    0.000 
#
# Total GULP energy -198409.513220 kJ/mol
# GULP energy per Si atom -12400.594576 kJ/mol
# Density = 2.363109 g / cm^3
# Si number density = 23.685002 Si / 1000 Ang^3
#
#
#
# Elastic Constant Matrix: (Units=GPa)
#
#
# Indices 1 2 3 4 5 6 
#
# 1 84.1133 38.5530 28.6764 0.0000 -0.2300 0.0000
# 2 38.5530 125.5949 50.3607 0.0000 -1.6684 0.0000
# 3 28.6764 50.3607 121.8574 0.0000 13.8629 0.0000
# 4 0.0000 0.0000 0.0000 45.4722 0.0000 -10.3896
# 5 -0.2300 -1.6684 13.8629 0.0000 32.2803 0.0000
# 6 0.0000 0.0000 0.0000 -10.3896 0.0000 36.4417
#
#
#
# Elastic Compliance Matrix: (Units=1/GPa)
#
#
# Indices 1 2 3 4 5 6 
#
# 1 0.014189 -0.003563 -0.001953 0.000000 0.000756 0.000000
# 2 -0.003563 0.010603 -0.003788 0.000000 0.002149 0.000000
# 3 -0.001953 -0.003788 0.010782 0.000000 -0.004840 0.000000
# 4 0.000000 0.000000 0.000000 0.023524 0.000000 0.006707
# 5 0.000756 0.002149 -0.004840 0.000000 0.033174 0.000000
# 6 0.000000 0.000000 0.000000 0.006707 0.000000 0.029353
#
#
# Mechanical properties :
#
#
# Convention : Reuss Voigt Hill
#
# Bulk Modulus (GPa) = 58.93599 62.97174 60.95386
# Shear Modulus (GPa) = 34.27276 37.10388 35.68832
#
# Velocity S-wave (km/s) = 3.80810 3.96227 3.88595
# Velocity P-wave (km/s) = 6.65378 6.89766 6.77682
#
# Compressibility (1/GPa) = 0.01696756
#
# Stress axis : x y z
#
# Youngs Moduli (GPa) = 70.47491 94.31089 92.74661
#
# Poissons Ratio (x) = 0.33599 0.18112
# Poissons Ratio (y) = 0.25107 0.35134
# Poissons Ratio (z) = 0.13762 0.35727
#
# Static dielectric constant tensor:
#      x y z
#    x 4.343650 0.000000 -0.087740 
#    y 0.000000 4.167140 0.000000 
#    z -0.087740 0.000000 4.470980 
# 
# 
# High freq. dielectric constant tensor:
#      x y z
#    x 1.942460 0.000000 -0.008610 
#    y 0.000000 1.936500 0.000000 
#    z -0.008610 0.000000 1.953260 
# 
# From -- ./inp_files/9103.got.cif
#   From: 2010.06.25/outbox.cif.g09.slc.cpg/sg9_5_cif.got.tgz:9103.got - 2010.06.27 21:40:51.
