data_PCOD8056833
_publ_section_title
;
Structure prediction by ZEFSAII (Michael W. Deem and Ramdas Pophale) SiO2 
 PCOD8056833
Probable space group: P 2/M
;
_chemical_formula_sum "Si O2"
_cell_formula_units_Z 22
_cell_length_a 27.922586
_cell_length_b 9.078773
_cell_length_c 30.296253
_cell_angle_alpha 90.000000
_cell_angle_beta 9.250693
_cell_angle_gamma 90.000000
_cell_volume 1234.624417
_symmetry_space_group_name_H-M "P 2/M"
_symmetry_group_IT_number 10
_symmetry_cell_setting 'monoclinic'
loop_
_space_group_symop_operation_xyz
x,y,z
-x,y,-z
-x,-y,-z
x,-y,z
loop_
_atom_site_type_symbol
_atom_site_label
_atom_site_fract_x
_atom_site_fract_y
_atom_site_fract_z
Si Si1 0.347041 0.674806 0.351965
Si Si2 0.300380 0.676274 0.883095
Si Si3 0.650744 0.663230 0.482851
Si Si4 0.353070 0.500000 0.681288
Si Si5 0.327249 0.324844 0.031842
Si Si6 0.346525 0.829224 0.185649
O O1 0.345242 0.500000 0.353170
O O2 0.523124 0.732232 0.234578
O O3 0.511719 0.735928 0.158632
O O4 0.010430 0.735933 0.659918
O O5 0.284955 0.500000 0.893383
O O6 0.459110 0.744173 0.695114
O O7 0.966153 0.744180 0.188078
O O8 0.727916 0.500000 0.431405
O O9 0.462767 0.646062 0.608161
O O10 0.500000 0.500000 0.500000
O O11 0.000000 0.500000 0.000000
O O12 0.331627 0.500000 0.028923
O O13 0.500734 0.267570 0.916178
O O14 0.000000 0.786944 0.500000
O O15 0.393233 0.000000 0.154504
O O16 0.500000 0.786930 0.000000
#
# Coordination Sequence:
#
# PCOD8056833 Si02
#       6
#     4   4   4   2   4   4
#     4   9  17  26  42  61  86 108 125 166 217 266
#     4   9  13  23  33  48  67  92 124 153 200 263
#     4   8  15  20  30  42  59  89 127 164 206 256
#     4  10  16  22  28  40  62  90 132 184 222 238
#     4  10  19  31  45  69  90 108 136 171 220 261
#     4  10  21  36  52  67  86 115 146 173 204 251
#
# _framework density 17.819185000000001
#
# number of rings (size 3 to 8) (size 9 to 14) (size 15 to 20)
#    0.545    2.182    0.000    3.273    0.000    5.091 
#    0.000    0.000    0.000    0.000    0.000    0.000 
#    0.000    0.000    0.000    0.000    0.000    0.000 
#
# Total GULP energy -272673.549085 kJ/mol
# GULP energy per Si atom -12394.252231 kJ/mol
# Density = 1.777863 g / cm^3
# Si number density = 17.819185 Si / 1000 Ang^3
#
#
#
# Elastic Constant Matrix: (Units=GPa)
#
#
# Indices 1 2 3 4 5 6 
#
# 1 169.6855 12.4314 101.2285 0.0000 12.1894 0.0000
# 2 12.4314 5.9066 12.5481 0.0000 0.0871 0.0000
# 3 101.2285 12.5481 203.3021 0.0000 12.4370 0.0000
# 4 0.0000 0.0000 0.0000 -7.6642 0.0000 -3.1843
# 5 12.1894 0.0871 12.4370 0.0000 42.7292 0.0000
# 6 0.0000 0.0000 0.0000 -3.1843 0.0000 -3.3212
#
#
#
# Elastic Compliance Matrix: (Units=1/GPa)
#
#
# Indices 1 2 3 4 5 6 
#
# 1 0.009032 -0.011077 -0.003723 0.000000 -0.001470 0.000000
# 2 -0.011077 0.208854 -0.007680 0.000000 0.004969 0.000000
# 3 -0.003723 -0.007680 0.007311 0.000000 -0.001050 0.000000
# 4 0.000000 0.000000 0.000000 -0.216859 0.000000 0.207915
# 5 -0.001470 0.004969 -0.001050 0.000000 0.024118 0.000000
# 6 0.000000 0.000000 0.000000 0.207915 0.000000 -0.500432
#
#
# Mechanical properties :
#
#
# Convention : Reuss Voigt Hill
#
# Bulk Modulus (GPa) = 5.54822 70.14557 37.84690
# Shear Modulus (GPa) = -13.77647 23.19450 4.70902
#
# Velocity S-wave (km/s) = -2.78353 3.61176 1.62739
# Velocity P-wave (km/s) = 2.68521 7.53948 4.98164
#
# Compressibility (1/GPa) = 0.18023800
#
# Stress axis : x y z
#
# Youngs Moduli (GPa) = 110.72214 4.78802 136.78006
#
# Poissons Ratio (x) = 0.05303 0.50929
# Poissons Ratio (y) = 1.22642 1.05041
# Poissons Ratio (z) = 0.41227 0.03677
#
# Static dielectric constant tensor:
#      x y z
#    x 3.292770 0.000000 0.004660 
#    y 0.000000 2.518550 0.000000 
#    z 0.004660 0.000000 3.299230 
# 
# 
# High freq. dielectric constant tensor:
#      x y z
#    x 1.703040 0.000000 0.009820 
#    y 0.000000 1.597390 0.000000 
#    z 0.009820 0.000000 1.716450 
# 
# From -- ./inp_files/93880.got.cif
#   From: 2010.06.25/outbox.cif.g09.slc.cpg/sg10_47_cif.got.tgz:93880.got - 2010.06.27 22:07:45.
