data_PCOD8056030
_publ_section_title
;
Structure prediction by ZEFSAII (Michael W. Deem and Ramdas Pophale) SiO2 
 PCOD8056030
Probable space group: C C
;
_chemical_formula_sum "Si O2"
_cell_formula_units_Z 32
_cell_length_a 11.181282
_cell_length_b 11.501929
_cell_length_c 10.860499
_cell_angle_alpha 90.000000
_cell_angle_beta 74.169217
_cell_angle_gamma 90.000000
_cell_volume 1343.752989
_symmetry_space_group_name_H-M "C C"
_symmetry_group_IT_number 9
_symmetry_cell_setting 'monoclinic'
loop_
_space_group_symop_operation_xyz
x,y,z
x,-y,1/2+z
1/2+x,1/2+y,z
1/2+x,1/2-y,1/2+z
loop_
_atom_site_type_symbol
_atom_site_label
_atom_site_fract_x
_atom_site_fract_y
_atom_site_fract_z
Si Si1 0.046380 0.242658 0.623970
Si Si2 0.063561 0.377247 0.189413
Si Si3 0.237406 0.293037 0.950079
Si Si4 0.359277 0.046688 0.173499
Si Si5 0.228107 0.036780 0.947574
Si Si6 0.723891 0.909812 0.713597
Si Si7 0.502052 0.488331 0.665421
Si Si8 0.510270 0.679527 0.376065
O O1 0.168803 0.306484 0.643147
O O2 0.928424 0.328935 0.649429
O O3 0.091115 0.195504 0.476925
O O4 0.000749 0.124865 0.708117
O O5 0.166117 0.467025 0.204225
O O6 0.956786 0.442291 0.146169
O O7 0.005760 0.307344 0.317514
O O8 0.136129 0.284100 0.085732
O O9 0.182115 0.377512 0.862440
O O10 0.368535 0.347795 0.958135
O O11 0.255493 0.165215 0.889178
O O12 0.286248 0.021465 0.068249
O O13 0.278643 0.047145 0.324093
O O14 0.081317 0.020031 0.015983
O O15 0.872652 0.924961 0.665793
O O16 0.560504 0.418179 0.766393
#
# Coordination Sequence:
#
# PCOD8056030 Si02
#       8
#     4   4   4   4   4   4   4   4
#     4  11  25  48  76 110 150 196 265 319 384 474
#     4  11  23  44  76 101 144 193 250 317 386 461
#     4  11  23  43  72 105 149 190 250 309 398 453
#     4  11  26  47  77 111 146 201 264 320 385 479
#     4  12  26  47  76 107 154 202 253 317 393 463
#     4  10  27  45  73 110 145 197 253 320 379 468
#     4  11  27  47  72 110 156 199 250 322 390 463
#     4  11  23  47  74 106 146 198 247 316 389 465
#
# _framework density 23.813903
#
# number of rings (size 3 to 8) (size 9 to 14) (size 15 to 20)
#    0.000    1.000    3.750    0.750   10.500    0.000 
#    0.000    0.000    0.000    0.000    0.000    0.000 
#    0.000    0.000    0.000    0.000    0.000    0.000 
#
# Total GULP energy -198280.521897 kJ/mol
# GULP energy per Si atom -12392.532619 kJ/mol
# Density = 2.375970 g / cm^3
# Si number density = 23.813903 Si / 1000 Ang^3
#
#
#
# Elastic Constant Matrix: (Units=GPa)
#
#
# Indices 1 2 3 4 5 6 
#
# 1 97.2426 31.6462 52.5510 0.0000 6.9370 0.0000
# 2 31.6462 116.3159 43.0439 0.0000 10.7982 0.0000
# 3 52.5510 43.0439 137.3490 0.0000 -3.6165 0.0000
# 4 0.0000 0.0000 0.0000 27.7863 0.0000 -6.8531
# 5 6.9370 10.7982 -3.6165 0.0000 38.9610 0.0000
# 6 0.0000 0.0000 0.0000 -6.8531 0.0000 19.8923
#
#
#
# Elastic Compliance Matrix: (Units=1/GPa)
#
#
# Indices 1 2 3 4 5 6 
#
# 1 0.013560 -0.001726 -0.004710 0.000000 -0.002373 0.000000
# 2 -0.001726 0.010304 -0.002642 0.000000 -0.002794 0.000000
# 3 -0.004710 -0.002642 0.009977 0.000000 0.002497 0.000000
# 4 0.000000 0.000000 0.000000 0.039331 0.000000 0.013550
# 5 -0.002373 -0.002794 0.002497 0.000000 0.027095 0.000000
# 6 0.000000 0.000000 0.000000 0.013550 0.000000 0.054939
#
#
# Mechanical properties :
#
#
# Convention : Reuss Voigt Hill
#
# Bulk Modulus (GPa) = 63.75841 67.26554 65.51197
# Shear Modulus (GPa) = 27.99721 32.23902 30.11811
#
# Velocity S-wave (km/s) = 3.43252 3.68338 3.56016
# Velocity P-wave (km/s) = 6.52237 6.81156 6.66853
#
# Compressibility (1/GPa) = 0.01568421
#
# Stress axis : x y z
#
# Youngs Moduli (GPa) = 73.74792 97.04892 100.23545
#
# Poissons Ratio (x) = 0.16751 0.47207
# Poissons Ratio (y) = 0.12729 0.26486
# Poissons Ratio (z) = 0.34733 0.25644
#
# Static dielectric constant tensor:
#      x y z
#    x 4.544550 0.000000 0.011510 
#    y 0.000000 4.511360 0.000000 
#    z 0.011510 0.000000 4.217300 
# 
# 
# High freq. dielectric constant tensor:
#      x y z
#    x 1.948130 0.000000 0.000110 
#    y 0.000000 1.960410 0.000000 
#    z 0.000110 0.000000 1.940320 
# 
# From -- ./inp_files/16403.got.cif
#   From: 2010.06.25/outbox.cif.g09.slc.cpg/sg9_9_cif.got.tgz:16403.got - 2010.06.27 21:40:51.
