data_PCOD8056816
_publ_section_title
;
Structure prediction by ZEFSAII (Michael W. Deem and Ramdas Pophale) SiO2 
 PCOD8056816
Probable space group: P 2/M
;
_chemical_formula_sum "Si O2"
_cell_formula_units_Z 24
_cell_length_a 13.352555
_cell_length_b 12.938171
_cell_length_c 19.429374
_cell_angle_alpha 90.000000
_cell_angle_beta 154.722954
_cell_angle_gamma 90.000000
_cell_volume 1433.241926
_symmetry_space_group_name_H-M "P 2/M"
_symmetry_group_IT_number 10
_symmetry_cell_setting 'monoclinic'
loop_
_space_group_symop_operation_xyz
x,y,z
-x,y,-z
-x,-y,-z
x,-y,z
loop_
_atom_site_type_symbol
_atom_site_label
_atom_site_fract_x
_atom_site_fract_y
_atom_site_fract_z
Si Si1 0.466891 0.118500 0.900748
Si Si2 0.224400 0.618503 0.837782
Si Si3 0.053115 0.199215 0.817930
Si Si4 0.679041 0.114158 0.673146
Si Si5 0.256954 0.879824 0.497903
Si Si6 0.043559 0.741634 0.603059
O O1 0.265394 0.182812 0.739009
O O2 0.391313 0.000000 0.850249
O O3 0.500000 0.156620 0.000000
O O4 0.711955 0.138447 0.014420
O O5 0.173593 0.500000 0.824038
O O6 0.117744 0.684317 0.835058
O O7 0.090480 0.646879 0.683914
O O8 0.500000 0.639932 0.000000
O O9 0.883097 0.196026 0.779514
O O10 0.932144 0.137980 0.680125
O O11 0.500000 0.102855 0.500000
O O12 0.522821 0.152080 0.640975
O O13 0.788249 0.000000 0.755365
O O14 0.185756 0.807607 0.517411
O O15 0.248495 0.000000 0.513561
O O16 0.000000 0.696165 0.500000
#
# Coordination Sequence:
#
# PCOD8056816 Si02
#       6
#     4   4   4   4   4   4
#     4  11  18  27  45  70  96 124 153 192 234 274
#     4  10  19  34  52  71  93 116 153 205 250 284
#     4  10  15  27  46  70  91 120 154 195 233 279
#     4   8  14  23  41  68  96 126 154 182 223 277
#     4   9  16  27  43  67  99 131 157 183 223 276
#     4  11  21  32  46  68  98 129 161 192 235 281
#
# _framework density 16.745255
#
# number of rings (size 3 to 8) (size 9 to 14) (size 15 to 20)
#    0.000    2.167    5.000    3.000    0.000    1.667 
#    0.000    0.000    0.000   13.500    0.000    3.500 
#    0.000    2.667    0.000    0.000    0.000    0.000 
#
# Total GULP energy -297466.632444 kJ/mol
# GULP energy per Si atom -12394.443019 kJ/mol
# Density = 1.670714 g / cm^3
# Si number density = 16.745255 Si / 1000 Ang^3
#
#
#
# Elastic Constant Matrix: (Units=GPa)
#
#
# Indices 1 2 3 4 5 6 
#
# 1 84.7597 32.7671 36.4664 0.0000 28.4289 0.0000
# 2 32.7671 87.2806 23.1472 0.0000 16.1939 0.0000
# 3 36.4664 23.1472 47.3448 0.0000 16.0646 0.0000
# 4 0.0000 0.0000 0.0000 17.4316 0.0000 6.1105
# 5 28.4289 16.1939 16.0646 0.0000 31.5957 0.0000
# 6 0.0000 0.0000 0.0000 6.1105 0.0000 15.0678
#
#
#
# Elastic Compliance Matrix: (Units=1/GPa)
#
#
# Indices 1 2 3 4 5 6 
#
# 1 0.021979 -0.002943 -0.011229 0.000000 -0.012558 0.000000
# 2 -0.002943 0.014036 -0.003689 0.000000 -0.002670 0.000000
# 3 -0.011229 -0.003689 0.033239 0.000000 -0.004906 0.000000
# 4 0.000000 0.000000 0.000000 0.066873 0.000000 -0.027119
# 5 -0.012558 -0.002670 -0.004906 0.000000 0.046812 0.000000
# 6 0.000000 0.000000 0.000000 -0.027119 0.000000 0.077364
#
#
# Mechanical properties :
#
#
# Convention : Reuss Voigt Hill
#
# Bulk Modulus (GPa) = 29.82329 44.90515 37.36422
# Shear Modulus (GPa) = 16.27587 21.28601 18.78094
#
# Velocity S-wave (km/s) = 3.12102 3.56921 3.35262
# Velocity P-wave (km/s) = 5.55305 6.62273 6.11134
#
# Compressibility (1/GPa) = 0.03353084
#
# Stress axis : x y z
#
# Youngs Moduli (GPa) = 45.49788 71.24485 30.08551
#
# Poissons Ratio (x) = 0.20971 0.33782
# Poissons Ratio (y) = 0.13392 0.11100
# Poissons Ratio (z) = 0.51088 0.26285
#
# Static dielectric constant tensor:
#      x y z
#    x 3.388890 0.000000 0.463490 
#    y 0.000000 2.956280 0.000000 
#    z 0.463490 0.000000 3.034730 
# 
# 
# High freq. dielectric constant tensor:
#      x y z
#    x 1.627820 0.000000 0.031250 
#    y 0.000000 1.622620 0.000000 
#    z 0.031250 0.000000 1.623580 
# 
# From -- ./inp_files/47225.got.cif
#   From: 2010.06.25/outbox.cif.g09.slc.cpg/sg10_24_cif.got.tgz:47225.got - 2010.06.27 22:07:45.
