data_PCOD8056880
_publ_section_title
;
Structure prediction by ZEFSAII (Michael W. Deem and Ramdas Pophale) SiO2 
 PCOD8056880
Probable space group: P 2/M
;
_chemical_formula_sum "Si O2"
_cell_formula_units_Z 26
_cell_length_a 30.574959
_cell_length_b 8.048847
_cell_length_c 30.574957
_cell_angle_alpha 90.000000
_cell_angle_beta 170.121401
_cell_angle_gamma 90.000000
_cell_volume 1290.875369
_symmetry_space_group_name_H-M "P 2/M"
_symmetry_group_IT_number 10
_symmetry_cell_setting 'monoclinic'
loop_
_space_group_symop_operation_xyz
x,y,z
-x,y,-z
-x,-y,-z
x,-y,z
loop_
_atom_site_type_symbol
_atom_site_label
_atom_site_fract_x
_atom_site_fract_y
_atom_site_fract_z
Si Si1 0.173395 0.806588 0.326610
Si Si2 0.024816 0.698120 0.475185
Si Si3 0.875925 0.697327 0.624083
Si Si4 0.735478 0.000000 0.764521
Si Si5 0.401178 0.302925 0.098830
Si Si6 0.693423 0.815611 0.806581
Si Si7 0.549397 0.698295 0.950605
O O1 0.433053 0.721463 0.564009
O O2 0.147557 0.782540 0.352447
O O3 0.179840 0.000000 0.320168
O O4 0.935997 0.721463 0.066952
O O5 0.024900 0.500000 0.475101
O O6 0.000000 0.765962 0.500000
O O7 0.287137 0.766045 0.712961
O O8 0.787041 0.766045 0.212865
O O9 0.873173 0.500000 0.626835
O O10 0.640196 0.760972 0.362592
O O11 0.137421 0.760973 0.859818
O O12 0.500000 0.000000 0.500000
O O13 0.720003 0.834656 0.779997
O O14 0.000000 0.000000 0.000000
O O15 0.402029 0.500000 0.097973
O O16 0.425848 0.231480 0.074150
O O17 0.682484 0.000000 0.817523
O O18 0.549429 0.500000 0.950574
#
# Coordination Sequence:
#
# PCOD8056880 Si02
#       7
#     4   4   4   2   4   4   4
#     4  10  17  31  45  62  90 122 142 174 221 259
#     4   9  15  21  30  46  65  90 128 167 200 248
#     4  10  19  29  44  63  84 110 151 189 209 244
#     4  10  16  26  44  68  98 120 142 178 220 254
#     4   9  17  28  39  56  78 105 142 184 217 247
#     4   8  17  27  42  64  90 120 139 173 211 261
#     4   9  15  23  34  45  66  97 127 165 211 246
#
# _framework density 20.141372
#
# number of rings (size 3 to 8) (size 9 to 14) (size 15 to 20)
#    0.462    2.308    0.000    3.231    0.000    5.538 
#    0.000    0.000    0.000    0.000    0.000    0.000 
#    0.000   12.308    0.000    0.000    0.000   53.846 
#
# Total GULP energy -322258.362426 kJ/mol
# GULP energy per Si atom -12394.552401 kJ/mol
# Density = 2.009553 g / cm^3
# Si number density = 20.141372 Si / 1000 Ang^3
#
#
#
# Elastic Constant Matrix: (Units=GPa)
#
#
# Indices 1 2 3 4 5 6 
#
# 1 194.6968 -2.2363 118.3237 0.0000 2.5566 0.0000
# 2 -2.2363 6.1564 2.4277 0.0000 0.4111 0.0000
# 3 118.3237 2.4277 249.6613 0.0000 2.2907 0.0000
# 4 0.0000 0.0000 0.0000 2.9424 0.0000 -1.5885
# 5 2.5566 0.4111 2.2907 0.0000 52.6589 0.0000
# 6 0.0000 0.0000 0.0000 -1.5885 0.0000 20.9654
#
#
#
# Elastic Compliance Matrix: (Units=1/GPa)
#
#
# Indices 1 2 3 4 5 6 
#
# 1 0.007316 0.004055 -0.003504 0.000000 -0.000234 0.000000
# 2 0.004055 0.165383 -0.003518 0.000000 -0.001335 0.000000
# 3 -0.003504 -0.003518 0.005701 0.000000 -0.000050 0.000000
# 4 0.000000 0.000000 0.000000 0.354352 0.000000 0.026849
# 5 -0.000234 -0.001335 -0.000050 0.000000 0.019014 0.000000
# 6 0.000000 0.000000 0.000000 0.026849 0.000000 0.049732
#
#
# Mechanical properties :
#
#
# Convention : Reuss Voigt Hill
#
# Bulk Modulus (GPa) = 5.79827 76.39387 41.09607
# Shear Modulus (GPa) = 7.51969 37.44664 22.48317
#
# Velocity S-wave (km/s) = 1.93431 4.31651 3.34468
# Velocity P-wave (km/s) = 2.80603 7.92806 5.94676
#
# Compressibility (1/GPa) = 0.17246519
#
# Stress axis : x y z
#
# Youngs Moduli (GPa) = 136.69441 6.04657 175.40897
#
# Poissons Ratio (x) = -0.02452 0.61470
# Poissons Ratio (y) = -0.55429 0.61705
# Poissons Ratio (z) = 0.47903 0.02127
#
# Static dielectric constant tensor:
#      x y z
#    x 3.666530 0.000000 0.041960 
#    y 0.000000 2.809680 0.000000 
#    z 0.041960 0.000000 4.142420 
# 
# 
# High freq. dielectric constant tensor:
#      x y z
#    x 1.793250 0.000000 0.001950 
#    y 0.000000 1.701520 0.000000 
#    z 0.001950 0.000000 1.815330 
# 
# From -- ./inp_files/95962.got.cif
#   From: 2010.06.25/outbox.cif.g09.slc.cpg/sg10_48_cif.got.tgz:95962.got - 2010.06.27 22:07:45.
