data_PCOD8056003
_publ_section_title
;
Structure prediction by ZEFSAII (Michael W. Deem and Ramdas Pophale) SiO2 
 PCOD8056003
Probable space group: C C
;
_chemical_formula_sum "Si O2"
_cell_formula_units_Z 24
_cell_length_a 14.722871
_cell_length_b 6.319077
_cell_length_c 22.758916
_cell_angle_alpha 90.000000
_cell_angle_beta 28.497236
_cell_angle_gamma 90.000000
_cell_volume 1010.234138
_symmetry_space_group_name_H-M "C C"
_symmetry_group_IT_number 9
_symmetry_cell_setting 'monoclinic'
loop_
_space_group_symop_operation_xyz
x,y,z
x,-y,1/2+z
1/2+x,1/2+y,z
1/2+x,1/2-y,1/2+z
loop_
_atom_site_type_symbol
_atom_site_label
_atom_site_fract_x
_atom_site_fract_y
_atom_site_fract_z
Si Si1 0.070260 0.115372 0.157710
Si Si2 0.292539 0.500687 0.996141
Si Si3 0.557896 0.320751 0.060799
Si Si4 0.716119 0.348043 0.376793
Si Si5 0.321132 0.194084 0.582765
Si Si6 0.229736 0.012022 0.244438
O O1 0.895614 0.207339 0.296837
O O2 0.990129 0.942714 0.157827
O O3 0.232386 0.022194 0.107783
O O4 0.164485 0.294553 0.063696
O O5 0.509345 0.425455 0.865668
O O6 0.230004 0.661021 0.979978
O O7 0.255014 0.604287 0.082201
O O8 0.372131 0.198672 0.141146
O O9 0.642313 0.479892 0.964669
O O10 0.550260 0.186247 0.451489
O O11 0.792806 0.464325 0.274870
O O12 0.257468 0.197804 0.687447
#
# Coordination Sequence:
#
# PCOD8056003 Si02
#       6
#     4   4   4   4   4   4
#     4  11  25  47  71 104 140 187 237 289 353 419
#     4  10  25  48  71 104 138 188 236 291 354 414
#     4  11  26  46  73 107 141 188 236 287 356 418
#     4  11  25  47  75 103 143 188 235 288 356 419
#     4  10  26  45  71 106 138 181 237 289 356 413
#     4  11  25  45  73 102 146 178 235 294 349 415
#
# _framework density 23.756867
#
# number of rings (size 3 to 8) (size 9 to 14) (size 15 to 20)
#    0.000    1.333    1.667    1.000   11.667    0.000 
#    3.000    0.000    0.000    0.000    0.000    0.000 
#    0.000    0.000    0.000    0.000    0.000    0.000 
#
# Total GULP energy -148770.523375 kJ/mol
# GULP energy per Si atom -12397.543615 kJ/mol
# Density = 2.370280 g / cm^3
# Si number density = 23.756867 Si / 1000 Ang^3
#
#
#
# Elastic Constant Matrix: (Units=GPa)
#
#
# Indices 1 2 3 4 5 6 
#
# 1 107.4240 49.5406 47.9822 -0.0045 -9.1141 0.0227
# 2 49.5406 98.3714 54.5026 -0.0072 -18.7657 0.0150
# 3 47.9822 54.5026 108.0411 0.0004 -20.2435 0.0000
# 4 -0.0045 -0.0072 0.0004 49.9774 -0.0006 -7.9871
# 5 -9.1141 -18.7657 -20.2435 -0.0006 49.4669 -0.0047
# 6 0.0227 0.0150 0.0000 -7.9871 -0.0047 25.8801
#
#
#
# Elastic Compliance Matrix: (Units=1/GPa)
#
#
# Indices 1 2 3 4 5 6 
#
# 1 0.013010 -0.004754 -0.003540 -0.000001 -0.000855 -0.000009
# 2 -0.004754 0.016172 -0.005482 0.000001 0.003016 -0.000004
# 3 -0.003540 -0.005482 0.014168 0.000000 0.003066 0.000007
# 4 -0.000001 0.000001 0.000000 0.021047 0.000001 0.006496
# 5 -0.000855 0.003016 0.003066 0.000001 0.022457 0.000003
# 6 -0.000009 -0.000004 0.000007 0.006496 0.000003 0.040644
#
#
# Mechanical properties :
#
#
# Convention : Reuss Voigt Hill
#
# Bulk Modulus (GPa) = 63.29705 68.65414 65.97559
# Shear Modulus (GPa) = 31.18852 35.85228 33.52040
#
# Velocity S-wave (km/s) = 3.62722 3.88897 3.76037
# Velocity P-wave (km/s) = 6.65160 7.00905 6.83267
#
# Compressibility (1/GPa) = 0.01579853
#
# Stress axis : x y z
#
# Youngs Moduli (GPa) = 76.86548 61.83474 70.58242
#
# Poissons Ratio (x) = 0.29394 0.24986
# Poissons Ratio (y) = 0.36539 0.38694
# Poissons Ratio (z) = 0.27210 0.33898
#
# Static dielectric constant tensor:
#      x y z
#    x 4.403460 -0.000030 -0.064360 
#    y -0.000030 4.168820 0.000010 
#    z -0.064360 0.000010 4.309550 
# 
# 
# High freq. dielectric constant tensor:
#      x y z
#    x 1.953400 0.000000 -0.009130 
#    y 0.000000 1.928970 0.000000 
#    z -0.009130 0.000000 1.943900 
# 
# From -- ./inp_files/18767.got.cif
#   From: 2010.06.25/outbox.cif.g09.slc.cpg/sg9_10_cif.got.tgz:18767.got - 2010.06.27 21:40:51.
