data_PCOD8056169
_publ_section_title
;
Structure prediction by ZEFSAII (Michael W. Deem and Ramdas Pophale) SiO2 
 PCOD8056169
Probable space group: C C
;
_chemical_formula_sum "Si O2"
_cell_formula_units_Z 32
_cell_length_a 14.928242
_cell_length_b 9.781570
_cell_length_c 23.110453
_cell_angle_alpha 90.000000
_cell_angle_beta 153.262467
_cell_angle_gamma 90.000000
_cell_volume 1518.258319
_symmetry_space_group_name_H-M "C C"
_symmetry_group_IT_number 9
_symmetry_cell_setting 'monoclinic'
loop_
_space_group_symop_operation_xyz
x,y,z
x,-y,1/2+z
1/2+x,1/2+y,z
1/2+x,1/2-y,1/2+z
loop_
_atom_site_type_symbol
_atom_site_label
_atom_site_fract_x
_atom_site_fract_y
_atom_site_fract_z
Si Si1 0.095940 0.316331 0.906530
Si Si2 0.358290 0.098491 0.782672
Si Si3 0.938249 0.917996 0.246087
Si Si4 0.366326 0.043253 0.667057
Si Si5 0.484020 0.455816 0.142729
Si Si6 0.613728 0.651486 0.417499
Si Si7 0.290909 0.645874 0.939869
Si Si8 0.619799 0.281327 0.538602
O O1 0.061665 0.219808 0.831698
O O2 0.993354 0.464952 0.846831
O O3 0.335185 0.327936 0.049546
O O4 0.011024 0.239754 0.914521
O O5 0.272049 0.127304 0.667941
O O6 0.491071 0.227564 0.878327
O O7 0.198096 0.077740 0.739697
O O8 0.008374 0.983563 0.225338
O O9 0.707951 0.866116 0.110473
O O10 0.967187 0.028969 0.313552
O O11 0.281493 0.101642 0.558529
O O12 0.608539 0.057024 0.808012
O O13 0.303982 0.885452 0.637933
O O14 0.388280 0.582493 0.053781
O O15 0.715569 0.706016 0.417197
O O16 0.459636 0.658013 0.989537
#
# Coordination Sequence:
#
# PCOD8056169 Si02
#       8
#     4   4   4   4   4   4   4   4
#     4  11  22  44  64  98 136 176 223 270 339 406
#     4  11  24  44  68  94 134 182 220 276 342 394
#     4  11  24  43  67 100 137 169 225 285 331 399
#     4  11  22  44  69  94 138 170 228 274 327 408
#     4  11  23  42  70  96 136 175 222 278 343 391
#     4  11  26  44  65 103 136 173 227 284 332 395
#     4  11  24  43  72 102 130 187 222 273 343 405
#     4  11  23  44  71  95 135 184 225 274 335 408
#
# _framework density 21.076784
#
# number of rings (size 3 to 8) (size 9 to 14) (size 15 to 20)
#    0.000    1.000    6.250    0.000    5.250    2.000 
#    6.750    0.000    0.000    0.000    0.000    0.000 
#    0.000    0.000    0.000    0.000    0.000    0.000 
#
# Total GULP energy -198254.885264 kJ/mol
# GULP energy per Si atom -12390.930329 kJ/mol
# Density = 2.102881 g / cm^3
# Si number density = 21.076784 Si / 1000 Ang^3
#
#
#
# Elastic Constant Matrix: (Units=GPa)
#
#
# Indices 1 2 3 4 5 6 
#
# 1 106.4058 43.5913 56.2125 -0.0007 2.5040 0.0003
# 2 43.5913 111.1068 50.6443 0.0034 2.8218 0.0010
# 3 56.2125 50.6443 108.3838 0.0187 -4.2880 0.0029
# 4 -0.0007 0.0034 0.0187 30.4745 0.0012 -7.4049
# 5 2.5040 2.8218 -4.2880 0.0012 34.0325 -0.0005
# 6 0.0003 0.0010 0.0029 -7.4049 -0.0005 27.7705
#
#
#
# Elastic Compliance Matrix: (Units=1/GPa)
#
#
# Indices 1 2 3 4 5 6 
#
# 1 0.013625 -0.002615 -0.005905 0.000005 -0.001530 0.000002
# 2 -0.002615 0.012029 -0.004318 0.000001 -0.001349 0.000000
# 3 -0.005905 -0.004318 0.014410 -0.000010 0.002608 -0.000004
# 4 0.000005 0.000001 -0.000010 0.035088 -0.000003 0.009356
# 5 -0.001530 -0.001349 0.002608 -0.000003 0.029937 0.000000
# 6 0.000002 0.000000 -0.000004 0.009356 0.000000 0.038504
#
#
# Mechanical properties :
#
#
# Convention : Reuss Voigt Hill
#
# Bulk Modulus (GPa) = 69.50369 69.64362 69.57365
# Shear Modulus (GPa) = 28.72520 30.15207 29.43864
#
# Velocity S-wave (km/s) = 3.69573 3.78641 3.74134
# Velocity P-wave (km/s) = 7.15956 7.22706 7.19339
#
# Compressibility (1/GPa) = 0.01438772
#
# Stress axis : x y z
#
# Youngs Moduli (GPa) = 73.39550 83.13470 69.39747
#
# Poissons Ratio (x) = 0.21740 0.40979
# Poissons Ratio (y) = 0.19194 0.29964
# Poissons Ratio (z) = 0.43340 0.35895
#
# Static dielectric constant tensor:
#      x y z
#    x 3.767630 0.000000 -0.239200 
#    y 0.000000 3.853380 0.000000 
#    z -0.239200 0.000000 3.966760 
# 
# 
# High freq. dielectric constant tensor:
#      x y z
#    x 1.815010 0.000000 -0.020070 
#    y 0.000000 1.825260 0.000000 
#    z -0.020070 0.000000 1.831460 
# 
# From -- ./inp_files/25666.got.cif
#   From: 2010.06.25/outbox.cif.g09.slc.cpg/sg9_13_cif.got.tgz:25666.got - 2010.06.27 21:40:51.
