data_PCOD8056604
_publ_section_title
;
Structure prediction by ZEFSAII (Michael W. Deem and Ramdas Pophale) SiO2 
 PCOD8056604
Probable space group: C C
;
_chemical_formula_sum "Si O2"
_cell_formula_units_Z 32
_cell_length_a 5.105949
_cell_length_b 17.496032
_cell_length_c 15.034562
_cell_angle_alpha 90.000000
_cell_angle_beta 109.567902
_cell_angle_gamma 90.000000
_cell_volume 1265.525105
_symmetry_space_group_name_H-M "C C"
_symmetry_group_IT_number 9
_symmetry_cell_setting 'monoclinic'
loop_
_space_group_symop_operation_xyz
x,y,z
x,-y,1/2+z
1/2+x,1/2+y,z
1/2+x,1/2-y,1/2+z
loop_
_atom_site_type_symbol
_atom_site_label
_atom_site_fract_x
_atom_site_fract_y
_atom_site_fract_z
Si Si1 0.992210 0.812846 0.620870
Si Si2 0.009219 0.430226 0.545953
Si Si3 0.309763 0.040498 0.202575
Si Si4 0.121060 0.116714 0.676391
Si Si5 0.504225 0.338467 0.970732
Si Si6 0.457043 0.930422 0.915268
Si Si7 0.156553 0.798777 0.452892
Si Si8 0.677295 0.816051 0.258849
O O1 0.710648 0.857834 0.571054
O O2 0.219207 0.874170 0.673292
O O3 0.072055 0.764963 0.540635
O O4 0.995020 0.756361 0.705197
O O5 0.018638 0.471998 0.643439
O O6 0.063465 0.498324 0.484436
O O7 0.724547 0.388771 0.479144
O O8 0.434638 0.036126 0.314248
O O9 0.071866 0.975091 0.165336
O O10 0.428181 0.125771 0.758608
O O11 0.155543 0.154995 0.583027
O O12 0.869594 0.152413 0.701736
O O13 0.678095 0.385553 0.916472
O O14 0.422233 0.249031 0.941761
O O15 0.196683 0.369806 0.945067
O O16 0.880038 0.793786 0.361854
#
# Coordination Sequence:
#
# PCOD8056604 Si02
#       8
#     4   4   4   4   4   4   4   4
#     4  11  26  48  73 111 154 200 250 323 389 456
#     4  11  26  49  76 111 158 203 253 327 389 454
#     4  11  27  46  73 112 155 200 256 319 387 463
#     4  12  26  50  74 107 148 199 253 317 374 455
#     4  12  26  50  77 111 151 200 254 319 377 459
#     4  12  28  47  78 114 151 207 258 310 390 463
#     4  11  27  47  76 111 152 199 253 318 385 460
#     4  12  28  47  77 109 147 202 257 311 385 462
#
# _framework density 25.285948000000001
#
# number of rings (size 3 to 8) (size 9 to 14) (size 15 to 20)
#    0.000    0.500    2.500    3.750   12.250    1.000 
#    0.000    0.000    0.000    0.000    0.000    0.000 
#    0.000    0.000    0.000    0.000    0.000    0.000 
#
# Total GULP energy -198249.227092 kJ/mol
# GULP energy per Si atom -12390.576693 kJ/mol
# Density = 2.522840 g / cm^3
# Si number density = 25.285948 Si / 1000 Ang^3
#
#
#
# Elastic Constant Matrix: (Units=GPa)
#
#
# Indices 1 2 3 4 5 6 
#
# 1 98.5227 22.8984 19.2570 0.0000 -0.8976 0.0000
# 2 22.8984 204.8515 151.9234 0.0000 77.3049 0.0000
# 3 19.2570 151.9234 235.8107 0.0000 76.1860 0.0000
# 4 0.0000 0.0000 0.0000 35.6074 0.0000 -5.2440
# 5 -0.8976 77.3049 76.1860 0.0000 89.5321 0.0000
# 6 0.0000 0.0000 0.0000 -5.2440 0.0000 48.8043
#
#
#
# Elastic Compliance Matrix: (Units=1/GPa)
#
#
# Indices 1 2 3 4 5 6 
#
# 1 0.010613 -0.001523 -0.000476 0.000000 0.001826 0.000000
# 2 -0.001523 0.010778 -0.005252 0.000000 -0.004852 0.000000
# 3 -0.000476 -0.005252 0.008550 0.000000 -0.002746 0.000000
# 4 0.000000 0.000000 0.000000 0.028536 0.000000 0.003066
# 5 0.001826 -0.004852 -0.002746 0.000000 0.017714 0.000000
# 6 0.000000 0.000000 0.000000 0.003066 0.000000 0.020819
#
#
# Mechanical properties :
#
#
# Convention : Reuss Voigt Hill
#
# Bulk Modulus (GPa) = 64.76095 103.03804 83.89949
# Shear Modulus (GPa) = 42.86084 57.79583 50.32834
#
# Velocity S-wave (km/s) = 4.12156 4.78608 4.46619
# Velocity P-wave (km/s) = 6.95102 8.44865 7.73616
#
# Compressibility (1/GPa) = 0.01544140
#
# Stress axis : x y z
#
# Youngs Moduli (GPa) = 94.22016 92.78543 116.95827
#
# Poissons Ratio (x) = 0.14128 0.05563
# Poissons Ratio (y) = 0.14346 0.61421
# Poissons Ratio (z) = 0.04482 0.48727
#
# Static dielectric constant tensor:
#      x y z
#    x 4.458060 0.000000 -0.032830 
#    y 0.000000 4.736850 0.000000 
#    z -0.032830 0.000000 4.784230 
# 
# 
# High freq. dielectric constant tensor:
#      x y z
#    x 2.003040 0.000000 0.004630 
#    y 0.000000 2.028890 0.000000 
#    z 0.004630 0.000000 2.013410 
# 
# From -- ./inp_files/21950.got.cif
#   From: 2010.06.25/outbox.cif.g09.slc.cpg/sg9_11_cif.got.tgz:21950.got - 2010.06.27 21:40:51.
