data_PCOD8056628
_publ_section_title
;
Structure prediction by ZEFSAII (Michael W. Deem and Ramdas Pophale) SiO2 
 PCOD8056628
Probable space group: C C
;
_chemical_formula_sum "Si O2"
_cell_formula_units_Z 20
_cell_length_a 5.002007
_cell_length_b 17.076635
_cell_length_c 9.500458
_cell_angle_alpha 90.000000
_cell_angle_beta 117.649096
_cell_angle_gamma 90.000000
_cell_volume 718.836100
_symmetry_space_group_name_H-M "C C"
_symmetry_group_IT_number 9
_symmetry_cell_setting 'monoclinic'
loop_
_space_group_symop_operation_xyz
x,y,z
x,-y,1/2+z
1/2+x,1/2+y,z
1/2+x,1/2-y,1/2+z
loop_
_atom_site_type_symbol
_atom_site_label
_atom_site_fract_x
_atom_site_fract_y
_atom_site_fract_z
Si Si1 0.667750 0.159792 0.325380
Si Si2 0.709806 0.358432 0.134415
Si Si3 0.856230 0.813455 0.322093
Si Si4 0.312232 0.006545 0.290566
Si Si5 0.739683 0.094714 0.066451
O O1 0.492545 0.226777 0.367176
O O2 0.550634 0.075621 0.343889
O O3 0.632851 0.164613 0.146864
O O4 0.021318 0.164966 0.451505
O O5 0.503040 0.355642 0.224079
O O6 0.823096 0.449232 0.155240
O O7 0.996819 0.301433 0.214260
O O8 0.911765 0.865468 0.476212
O O9 0.971507 0.040724 0.214337
O O10 0.435285 0.951866 0.449182
#
# Coordination Sequence:
#
# PCOD8056628 Si02
#       5
#     4   4   4   4   4
#     4  12  30  53  88 124 176 231 286 363 434 513
#     4  11  29  54  86 125 176 224 295 352 433 519
#     4  11  31  57  82 127 175 230 289 357 428 523
#     4  11  27  50  84 126 170 220 289 357 434 504
#     4  11  29  52  90 124 173 227 297 355 439 513
#
# _framework density 27.822749999999999
#
# number of rings (size 3 to 8) (size 9 to 14) (size 15 to 20)
#    0.000    0.800    2.000    0.000   22.400    0.000 
#    0.000    4.000    0.000    0.000    0.000    0.000 
#    0.000    0.000    0.000    0.000    0.000    0.000 
#
# Total GULP energy -123953.710778 kJ/mol
# GULP energy per Si atom -12395.371078 kJ/mol
# Density = 2.775942 g / cm^3
# Si number density = 27.822750 Si / 1000 Ang^3
#
#
#
# Elastic Constant Matrix: (Units=GPa)
#
#
# Indices 1 2 3 4 5 6 
#
# 1 114.9764 35.6531 70.5577 0.0000 24.5423 0.0000
# 2 35.6531 139.3233 68.9072 0.0000 15.4134 0.0000
# 3 70.5577 68.9072 159.4900 0.0000 23.8952 0.0000
# 4 0.0000 0.0000 0.0000 37.7570 0.0000 4.6687
# 5 24.5423 15.4134 23.8952 0.0000 64.1759 0.0000
# 6 0.0000 0.0000 0.0000 4.6687 0.0000 24.9868
#
#
#
# Elastic Compliance Matrix: (Units=1/GPa)
#
#
# Indices 1 2 3 4 5 6 
#
# 1 0.012439 -0.000455 -0.004882 0.000000 -0.002830 0.000000
# 2 -0.000455 0.009181 -0.003665 0.000000 -0.000666 0.000000
# 3 -0.004882 -0.003665 0.010169 0.000000 -0.001039 0.000000
# 4 0.000000 0.000000 0.000000 0.027112 0.000000 -0.005066
# 5 -0.002830 -0.000666 -0.001039 0.000000 0.017211 0.000000
# 6 0.000000 0.000000 0.000000 -0.005066 0.000000 0.040968
#
#
# Mechanical properties :
#
#
# Convention : Reuss Voigt Hill
#
# Bulk Modulus (GPa) = 72.55402 84.89174 78.72288
# Shear Modulus (GPa) = 35.79662 41.29541 38.54602
#
# Velocity S-wave (km/s) = 3.59081 3.85675 3.72615
# Velocity P-wave (km/s) = 6.58222 7.10004 6.84603
#
# Compressibility (1/GPa) = 0.01378283
#
# Stress axis : x y z
#
# Youngs Moduli (GPa) = 80.39449 108.92647 98.33826
#
# Poissons Ratio (x) = 0.04961 0.48010
# Poissons Ratio (y) = 0.03661 0.36042
# Poissons Ratio (z) = 0.39249 0.39923
#
# Static dielectric constant tensor:
#      x y z
#    x 4.953910 0.000000 0.197930 
#    y 0.000000 5.143140 0.000000 
#    z 0.197930 0.000000 5.177960 
# 
# 
# High freq. dielectric constant tensor:
#      x y z
#    x 2.118430 0.000000 0.016750 
#    y 0.000000 2.135210 0.000000 
#    z 0.016750 0.000000 2.130070 
# 
# From -- ./inp_files/3625.got.cif
#   From: 2010.06.25/outbox.cif.g09.slc.cpg/sg9_2_cif.got.tgz:3625.got - 2010.06.27 21:40:51.
