data_PCOD8056094
_publ_section_title
;
Structure prediction by ZEFSAII (Michael W. Deem and Ramdas Pophale) SiO2 
 PCOD8056094
Probable space group: C C
;
_chemical_formula_sum "Si O2"
_cell_formula_units_Z 28
_cell_length_a 12.346473
_cell_length_b 19.952264
_cell_length_c 7.724605
_cell_angle_alpha 90.000000
_cell_angle_beta 141.177856
_cell_angle_gamma 90.000000
_cell_volume 1192.924850
_symmetry_space_group_name_H-M "C C"
_symmetry_group_IT_number 9
_symmetry_cell_setting 'monoclinic'
loop_
_space_group_symop_operation_xyz
x,y,z
x,-y,1/2+z
1/2+x,1/2+y,z
1/2+x,1/2-y,1/2+z
loop_
_atom_site_type_symbol
_atom_site_label
_atom_site_fract_x
_atom_site_fract_y
_atom_site_fract_z
Si Si1 0.565670 0.332439 0.595390
Si Si2 0.873166 0.581564 0.328525
Si Si3 0.368191 0.441653 0.875331
Si Si4 0.762508 0.441535 0.313146
Si Si5 0.929702 0.192491 0.571972
Si Si6 0.257151 0.581734 0.860438
Si Si7 0.702755 0.692731 0.619521
O O1 0.732093 0.376500 0.758280
O O2 0.511563 0.286572 0.360645
O O3 0.398947 0.376139 0.433135
O O4 0.620388 0.286374 0.830391
O O5 0.872135 0.504234 0.385085
O O6 0.065248 0.611233 0.593363
O O7 0.834093 0.587801 0.079329
O O8 0.259746 0.504388 0.806331
O O9 0.293013 0.412057 0.606359
O O10 0.565112 0.465854 0.091758
O O11 0.341025 0.381124 0.982743
O O12 0.791795 0.380836 0.209256
O O13 0.816035 0.249842 0.345552
O O14 0.066275 0.174770 0.595776
#
# Coordination Sequence:
#
# PCOD8056094 Si02
#       7
#     4   4   4   4   4   4   4
#     4  12  24  50  76 102 150 188 228 310 366 408
#     4  12  24  40  75 112 141 186 238 295 364 429
#     4  11  21  44  67 103 151 183 232 297 359 420
#     4  11  21  44  67 103 151 183 232 297 359 420
#     4  11  26  47  72 102 141 194 242 288 355 430
#     4  12  24  40  75 112 141 186 238 295 364 429
#     4  11  26  47  72 102 141 194 242 288 355 430
#
# _framework density 23.471719
#
# number of rings (size 3 to 8) (size 9 to 14) (size 15 to 20)
#    0.000    0.571    7.143    3.429    0.000    4.571 
#    2.571    0.000    0.000    0.000    0.000    0.000 
#    0.000    0.000    0.000    0.000    0.000    0.000 
#
# Total GULP energy -173531.554050 kJ/mol
# GULP energy per Si atom -12395.111004 kJ/mol
# Density = 2.341830 g / cm^3
# Si number density = 23.471719 Si / 1000 Ang^3
#
#
#
# Elastic Constant Matrix: (Units=GPa)
#
#
# Indices 1 2 3 4 5 6 
#
# 1 80.0202 26.0246 72.0981 0.0000 -11.6607 0.0000
# 2 26.0246 82.9461 34.5689 0.0000 4.4074 0.0000
# 3 72.0981 34.5689 191.6060 0.0000 -14.4394 0.0000
# 4 0.0000 0.0000 0.0000 46.9325 0.0000 -12.9336
# 5 -11.6607 4.4074 -14.4394 0.0000 64.0344 0.0000
# 6 0.0000 0.0000 0.0000 -12.9336 0.0000 8.1889
#
#
#
# Elastic Compliance Matrix: (Units=1/GPa)
#
#
# Indices 1 2 3 4 5 6 
#
# 1 0.020081 -0.003626 -0.006722 0.000000 0.002391 0.000000
# 2 -0.003626 0.013825 -0.001273 0.000000 -0.001899 0.000000
# 3 -0.006722 -0.001273 0.008029 0.000000 0.000674 0.000000
# 4 0.000000 0.000000 0.000000 0.037728 0.000000 0.059588
# 5 0.002391 -0.001899 0.000674 0.000000 0.016335 0.000000
# 6 0.000000 0.000000 0.000000 0.059588 0.000000 0.216230
#
#
# Mechanical properties :
#
#
# Convention : Reuss Voigt Hill
#
# Bulk Modulus (GPa) = 53.49537 68.88393 61.18965
# Shear Modulus (GPa) = 14.63272 38.62320 26.62796
#
# Velocity S-wave (km/s) = 2.49955 4.06090 3.37184
# Velocity P-wave (km/s) = 5.58312 7.16933 6.42536
#
# Compressibility (1/GPa) = 0.01869321
#
# Stress axis : x y z
#
# Youngs Moduli (GPa) = 49.79905 72.33201 124.55238
#
# Poissons Ratio (x) = 0.26228 0.83720
# Poissons Ratio (y) = 0.18057 0.15855
# Poissons Ratio (z) = 0.33473 0.09208
#
# Static dielectric constant tensor:
#      x y z
#    x 3.957090 0.000000 -0.391880 
#    y 0.000000 5.419910 0.000000 
#    z -0.391880 0.000000 4.310020 
# 
# 
# High freq. dielectric constant tensor:
#      x y z
#    x 1.923820 0.000000 -0.016550 
#    y 0.000000 1.917170 0.000000 
#    z -0.016550 0.000000 1.942970 
# 
# From -- ./inp_files/10071.got.cif
#   From: 2010.06.25/outbox.cif.g09.slc.cpg/sg9_6_cif.got.tgz:10071.got - 2010.06.27 21:40:51.
