data_PCOD8056380
_publ_section_title
;
Structure prediction by ZEFSAII (Michael W. Deem and Ramdas Pophale) SiO2 
 PCOD8056380
Probable space group: C C
;
_chemical_formula_sum "Si O2"
_cell_formula_units_Z 32
_cell_length_a 20.072052
_cell_length_b 14.907508
_cell_length_c 14.407511
_cell_angle_alpha 90.000000
_cell_angle_beta 19.452390
_cell_angle_gamma 90.000000
_cell_volume 1435.689772
_symmetry_space_group_name_H-M "C C"
_symmetry_group_IT_number 9
_symmetry_cell_setting 'monoclinic'
loop_
_space_group_symop_operation_xyz
x,y,z
x,-y,1/2+z
1/2+x,1/2+y,z
1/2+x,1/2-y,1/2+z
loop_
_atom_site_type_symbol
_atom_site_label
_atom_site_fract_x
_atom_site_fract_y
_atom_site_fract_z
Si Si1 0.255700 0.470652 0.081210
Si Si2 0.012232 0.862250 0.212149
Si Si3 0.658744 0.012174 0.402149
Si Si4 0.532152 0.196226 0.515725
Si Si5 0.413363 0.987637 0.893042
Si Si6 0.093391 0.862098 0.549541
Si Si7 0.562124 0.529250 0.468277
Si Si8 0.760763 0.696387 0.558628
O O1 0.142902 0.455621 0.327253
O O2 0.098014 0.467683 0.205085
O O3 0.343030 0.570476 0.969615
O O4 0.435601 0.399150 0.832946
O O5 0.165286 0.853094 0.095920
O O6 0.922698 0.765356 0.306716
O O7 0.105494 0.899403 0.993334
O O8 0.689803 0.118181 0.338019
O O9 0.455348 0.999901 0.728320
O O10 0.836964 0.967442 0.227029
O O11 0.514219 0.265132 0.623671
O O12 0.602167 0.249944 0.331473
O O13 0.320233 0.146817 0.785722
O O14 0.378342 0.881627 0.961145
O O15 0.216160 0.044221 0.181018
O O16 0.100038 0.929320 0.454789
#
# Coordination Sequence:
#
# PCOD8056380 Si02
#       8
#     4   4   4   4   4   4   4   4
#     4  11  25  46  69 105 147 189 244 302 375 448
#     4  11  24  43  69 105 145 184 241 305 364 438
#     4  12  26  46  76 105 145 194 249 310 371 445
#     4  12  25  42  74 112 144 190 252 310 367 431
#     4  12  26  46  76 105 145 194 249 310 371 445
#     4  11  24  43  69 105 145 184 241 305 364 438
#     4  11  25  46  69 105 147 189 244 302 375 448
#     4  12  25  42  74 112 144 190 252 310 367 431
#
# _framework density 22.288938999999999
#
# number of rings (size 3 to 8) (size 9 to 14) (size 15 to 20)
#    0.000    0.500    5.000    3.750    7.000    0.000 
#    0.000    1.250    0.000    0.000    0.000    0.000 
#    0.000    0.000    0.000    0.000    0.000    0.000 
#
# Total GULP energy -198343.666117 kJ/mol
# GULP energy per Si atom -12396.479132 kJ/mol
# Density = 2.223821 g / cm^3
# Si number density = 22.288939 Si / 1000 Ang^3
#
#
#
# Elastic Constant Matrix: (Units=GPa)
#
#
# Indices 1 2 3 4 5 6 
#
# 1 95.9432 23.3916 52.1497 0.0104 21.0034 -0.0082
# 2 23.3916 76.0008 31.2090 0.0116 11.8139 -0.0080
# 3 52.1497 31.2090 133.5780 0.0004 35.8731 0.0075
# 4 0.0104 0.0116 0.0004 38.9815 0.0010 4.0669
# 5 21.0034 11.8139 35.8731 0.0010 51.2560 0.0014
# 6 -0.0082 -0.0080 0.0075 4.0669 0.0014 36.2287
#
#
#
# Elastic Compliance Matrix: (Units=1/GPa)
#
#
# Indices 1 2 3 4 5 6 
#
# 1 0.013745 -0.002135 -0.004294 -0.000003 -0.002135 0.000004
# 2 -0.002135 0.014946 -0.002424 -0.000004 -0.000874 0.000004
# 3 -0.004294 -0.002424 0.011214 0.000002 -0.005530 -0.000004
# 4 -0.000003 -0.000004 0.000002 0.025957 0.000000 -0.002914
# 5 -0.002135 -0.000874 -0.005530 0.000000 0.024457 0.000000
# 6 0.000004 0.000004 -0.000004 -0.002914 0.000000 0.027930
#
#
# Mechanical properties :
#
#
# Convention : Reuss Voigt Hill
#
# Bulk Modulus (GPa) = 45.04671 57.66915 51.35793
# Shear Modulus (GPa) = 34.87880 38.54470 36.71175
#
# Velocity S-wave (km/s) = 3.96011 4.16302 4.06283
# Velocity P-wave (km/s) = 6.41593 7.00266 6.71571
#
# Compressibility (1/GPa) = 0.02219918
#
# Stress axis : x y z
#
# Youngs Moduli (GPa) = 72.75552 66.90742 89.17360
#
# Poissons Ratio (x) = 0.14287 0.38289
# Poissons Ratio (y) = 0.15535 0.21613
# Poissons Ratio (z) = 0.31240 0.16217
#
# Static dielectric constant tensor:
#      x y z
#    x 4.016650 -0.000080 0.082360 
#    y -0.000080 4.024790 0.000040 
#    z 0.082360 0.000040 4.073020 
# 
# 
# High freq. dielectric constant tensor:
#      x y z
#    x 1.879370 0.000000 0.002360 
#    y 0.000000 1.862610 0.000000 
#    z 0.002360 0.000000 1.880920 
# 
# From -- ./inp_files/27448.got.cif
#   From: 2010.06.25/outbox.cif.g09.slc.cpg/sg9_14_cif.got.tgz:27448.got - 2010.06.27 21:40:51.
