data_PCOD8056552
_publ_section_title
;
Structure prediction by ZEFSAII (Michael W. Deem and Ramdas Pophale) SiO2 
 PCOD8056552
Probable space group: C C
;
_chemical_formula_sum "Si O2"
_cell_formula_units_Z 28
_cell_length_a 16.007388
_cell_length_b 11.375585
_cell_length_c 11.310173
_cell_angle_alpha 90.000000
_cell_angle_beta 144.983575
_cell_angle_gamma 90.000000
_cell_volume 1181.768774
_symmetry_space_group_name_H-M "C C"
_symmetry_group_IT_number 9
_symmetry_cell_setting 'monoclinic'
loop_
_space_group_symop_operation_xyz
x,y,z
x,-y,1/2+z
1/2+x,1/2+y,z
1/2+x,1/2-y,1/2+z
loop_
_atom_site_type_symbol
_atom_site_label
_atom_site_fract_x
_atom_site_fract_y
_atom_site_fract_z
Si Si1 0.008240 0.332969 0.904200
Si Si2 0.647217 0.163840 0.799510
Si Si3 0.921696 0.264909 0.224236
Si Si4 0.772587 0.527874 0.672854
Si Si5 0.492376 0.404639 0.256330
Si Si6 0.674689 0.084818 0.375055
Si Si7 0.110369 0.816760 0.155889
O O1 0.109541 0.401673 0.930011
O O2 0.875497 0.412690 0.801779
O O3 0.950891 0.220123 0.768054
O O4 0.104921 0.281397 0.124002
O O5 0.564575 0.222529 0.812021
O O6 0.597199 0.027308 0.725727
O O7 0.816091 0.181629 0.026266
O O8 0.840975 0.389410 0.151336
O O9 0.979479 0.208275 0.412915
O O10 0.609486 0.483751 0.458753
O O11 0.748799 0.610571 0.761907
O O12 0.545910 0.394790 0.184676
O O13 0.337263 0.466395 0.078895
O O14 0.668671 0.194992 0.279738
#
# Coordination Sequence:
#
# PCOD8056552 Si02
#       7
#     4   4   4   4   4   4   4
#     4  11  26  48  71 108 148 198 252 312 383 447
#     4  12  28  44  73 105 155 191 253 317 376 452
#     4  12  26  47  71 111 146 204 255 313 382 450
#     4  12  25  47  78 108 152 200 256 315 384 451
#     4  11  27  45  77 108 148 197 256 312 381 447
#     4  11  25  48  75 108 148 198 244 315 382 450
#     4  11  25  49  77 110 153 196 260 310 384 467
#
# _framework density 23.693299
#
# number of rings (size 3 to 8) (size 9 to 14) (size 15 to 20)
#    0.000    0.571    2.857    4.286    6.000    3.429 
#    0.000    0.000    0.000    0.000    0.000    0.000 
#    0.000    0.000    0.000    0.000    0.000    0.000 
#
# Total GULP energy -173546.584905 kJ/mol
# GULP energy per Si atom -12396.184636 kJ/mol
# Density = 2.363937 g / cm^3
# Si number density = 23.693299 Si / 1000 Ang^3
#
#
#
# Elastic Constant Matrix: (Units=GPa)
#
#
# Indices 1 2 3 4 5 6 
#
# 1 89.8191 26.8931 27.6108 0.0000 -1.6450 0.0000
# 2 26.8931 79.9405 12.3359 0.0000 -0.4331 0.0000
# 3 27.6108 12.3359 106.6557 0.0000 -6.2274 0.0000
# 4 0.0000 0.0000 0.0000 31.5337 0.0000 8.4158
# 5 -1.6450 -0.4331 -6.2274 0.0000 38.8155 0.0000
# 6 0.0000 0.0000 0.0000 8.4158 0.0000 43.1403
#
#
#
# Elastic Compliance Matrix: (Units=1/GPa)
#
#
# Indices 1 2 3 4 5 6 
#
# 1 0.013242 -0.003997 -0.002963 0.000000 0.000041 0.000000
# 2 -0.003997 0.013944 -0.000584 0.000000 -0.000108 0.000000
# 3 -0.002963 -0.000584 0.010299 0.000000 0.001520 0.000000
# 4 0.000000 0.000000 0.000000 0.033454 0.000000 -0.006526
# 5 0.000041 -0.000108 0.001520 0.000000 0.026007 0.000000
# 6 0.000000 0.000000 0.000000 -0.006526 0.000000 0.024453
#
#
# Mechanical properties :
#
#
# Convention : Reuss Voigt Hill
#
# Bulk Modulus (GPa) = 44.65198 45.56611 45.10904
# Shear Modulus (GPa) = 34.73323 36.66960 35.70141
#
# Velocity S-wave (km/s) = 3.83293 3.93832 3.88598
# Velocity P-wave (km/s) = 6.20284 6.32091 6.26215
#
# Compressibility (1/GPa) = 0.02239543
#
# Stress axis : x y z
#
# Youngs Moduli (GPa) = 75.51707 71.71739 97.09259
#
# Poissons Ratio (x) = 0.28668 0.28772
# Poissons Ratio (y) = 0.30186 0.05672
# Poissons Ratio (z) = 0.22378 0.04190
#
# Static dielectric constant tensor:
#      x y z
#    x 4.297960 0.000000 0.062020 
#    y 0.000000 4.325280 0.000000 
#    z 0.062020 0.000000 4.136090 
# 
# 
# High freq. dielectric constant tensor:
#      x y z
#    x 1.945890 0.000000 0.006390 
#    y 0.000000 1.948890 0.000000 
#    z 0.006390 0.000000 1.939610 
# 
# From -- ./inp_files/19301.got.cif
#   From: 2010.06.25/outbox.cif.g09.slc.cpg/sg9_10_cif.got.tgz:19301.got - 2010.06.27 21:40:51.
