data_PCOD8056175
_publ_section_title
;
Structure prediction by ZEFSAII (Michael W. Deem and Ramdas Pophale) SiO2 
 PCOD8056175
Probable space group: C C
;
_chemical_formula_sum "Si O2"
_cell_formula_units_Z 32
_cell_length_a 10.552168
_cell_length_b 9.404729
_cell_length_c 27.393945
_cell_angle_alpha 90.000000
_cell_angle_beta 147.901077
_cell_angle_gamma 90.000000
_cell_volume 1444.607740
_symmetry_space_group_name_H-M "C C"
_symmetry_group_IT_number 9
_symmetry_cell_setting 'monoclinic'
loop_
_space_group_symop_operation_xyz
x,y,z
x,-y,1/2+z
1/2+x,1/2+y,z
1/2+x,1/2-y,1/2+z
loop_
_atom_site_type_symbol
_atom_site_label
_atom_site_fract_x
_atom_site_fract_y
_atom_site_fract_z
Si Si1 0.597550 0.359991 0.509970
Si Si2 0.392442 0.172518 0.203670
Si Si3 0.958083 0.995884 0.242231
Si Si4 0.563420 0.775698 0.615538
Si Si5 0.605861 0.159716 0.025964
Si Si6 0.918991 0.876650 0.895689
Si Si7 0.793790 0.592040 0.433876
Si Si8 0.080763 0.977727 0.673689
O O1 0.734857 0.379143 0.606350
O O2 0.449085 0.498173 0.445117
O O3 0.400892 0.237119 0.448084
O O4 0.791790 0.330391 0.531297
O O5 0.353334 0.338553 0.201024
O O6 0.666951 0.125300 0.285299
O O7 0.314227 0.092145 0.227149
O O8 0.749617 0.102207 0.191814
O O9 0.157036 0.003810 0.348111
O O10 0.086295 0.039301 0.233649
O O11 0.623898 0.734125 0.578864
O O12 0.578954 0.642407 0.657229
O O13 0.854202 0.115387 0.081261
O O14 0.436984 0.228248 0.930460
O O15 0.508532 0.013437 0.018580
O O16 0.130493 0.877670 0.926387
#
# Coordination Sequence:
#
# PCOD8056175 Si02
#       8
#     4   4   4   4   4   4   4   4
#     4  12  25  46  75 101 143 189 233 291 356 416
#     4  12  26  49  71 105 143 191 233 289 358 419
#     4  11  26  44  70 102 143 185 231 291 356 418
#     4  11  22  44  71  99 142 187 230 286 352 420
#     4  11  23  45  69 101 138 188 231 288 356 409
#     4  12  28  45  72 107 142 183 242 293 344 427
#     4  12  25  46  70 101 141 185 231 300 352 411
#     4  11  25  45  70 102 142 186 233 286 348 426
#
# _framework density 22.151342
#
# number of rings (size 3 to 8) (size 9 to 14) (size 15 to 20)
#    0.000    0.500    5.000    3.000    3.500    2.000 
#    4.500    0.000    0.000    0.000    0.000    0.000 
#    0.000    0.000    0.000    0.000    0.000    0.000 
#
# Total GULP energy -198395.876577 kJ/mol
# GULP energy per Si atom -12399.742286 kJ/mol
# Density = 2.210092 g / cm^3
# Si number density = 22.151342 Si / 1000 Ang^3
#
#
#
# Elastic Constant Matrix: (Units=GPa)
#
#
# Indices 1 2 3 4 5 6 
#
# 1 101.3513 42.6079 11.3244 0.0000 10.4069 0.0000
# 2 42.6079 99.9507 22.5849 0.0000 -1.9028 0.0000
# 3 11.3244 22.5849 65.2557 0.0001 -6.3219 0.0000
# 4 0.0000 0.0000 0.0001 37.2407 0.0000 5.0950
# 5 10.4069 -1.9028 -6.3219 0.0000 35.7532 0.0000
# 6 0.0000 0.0000 0.0000 5.0950 0.0000 41.0155
#
#
#
# Elastic Compliance Matrix: (Units=1/GPa)
#
#
# Indices 1 2 3 4 5 6 
#
# 1 0.012586 -0.005273 -0.000754 0.000000 -0.004078 0.000000
# 2 -0.005273 0.013063 -0.003449 0.000000 0.001620 0.000000
# 3 -0.000754 -0.003449 0.016943 0.000000 0.003032 0.000000
# 4 0.000000 0.000000 0.000000 0.027317 0.000000 -0.003393
# 5 -0.004078 0.001620 0.003032 0.000000 0.029779 0.000000
# 6 0.000000 0.000000 0.000000 -0.003393 0.000000 0.024803
#
#
# Mechanical properties :
#
#
# Convention : Reuss Voigt Hill
#
# Bulk Modulus (GPa) = 42.30181 46.62135 44.46158
# Shear Modulus (GPa) = 33.04226 35.47125 34.25676
#
# Velocity S-wave (km/s) = 3.86639 4.00598 3.93681
# Velocity P-wave (km/s) = 6.25061 6.51841 6.38591
#
# Compressibility (1/GPa) = 0.02363965
#
# Stress axis : x y z
#
# Youngs Moduli (GPa) = 79.45199 76.55359 59.02252
#
# Poissons Ratio (x) = 0.40363 0.04453
# Poissons Ratio (y) = 0.41891 0.20357
# Poissons Ratio (z) = 0.05994 0.26404
#
# Static dielectric constant tensor:
#      x y z
#    x 4.021420 0.000000 0.042790 
#    y 0.000000 4.004660 0.000000 
#    z 0.042790 0.000000 3.863950 
# 
# 
# High freq. dielectric constant tensor:
#      x y z
#    x 1.884570 0.000000 0.001610 
#    y 0.000000 1.878070 0.000000 
#    z 0.001610 0.000000 1.869600 
# 
# From -- ./inp_files/24185.got.cif
#   From: 2010.06.25/outbox.cif.g09.slc.cpg/sg9_13_cif.got.tgz:24185.got - 2010.06.27 21:40:51.
