data_PCOD8056262
_publ_section_title
;
Structure prediction by ZEFSAII (Michael W. Deem and Ramdas Pophale) SiO2 
 PCOD8056262
Probable space group: C C
;
_chemical_formula_sum "Si O2"
_cell_formula_units_Z 32
_cell_length_a 6.551620
_cell_length_b 25.745772
_cell_length_c 9.398133
_cell_angle_alpha 90.000000
_cell_angle_beta 69.600772
_cell_angle_gamma 90.000000
_cell_volume 1485.828395
_symmetry_space_group_name_H-M "C C"
_symmetry_group_IT_number 9
_symmetry_cell_setting 'monoclinic'
loop_
_space_group_symop_operation_xyz
x,y,z
x,-y,1/2+z
1/2+x,1/2+y,z
1/2+x,1/2-y,1/2+z
loop_
_atom_site_type_symbol
_atom_site_label
_atom_site_fract_x
_atom_site_fract_y
_atom_site_fract_z
Si Si1 0.870080 0.262424 0.597590
Si Si2 0.738799 0.512424 0.360151
Si Si3 0.946697 0.080147 0.861682
Si Si4 0.272558 0.853773 0.422538
Si Si5 0.579508 0.830147 0.096060
Si Si6 0.277649 0.198089 0.423211
Si Si7 0.471990 0.948089 0.534530
Si Si8 0.466225 0.396227 0.035204
O O1 0.771131 0.297600 0.495425
O O2 0.717201 0.212313 0.649873
O O3 0.873994 0.293373 0.743669
O O4 0.115592 0.244929 0.503136
O O5 0.638204 0.462313 0.307868
O O6 0.889858 0.494929 0.454605
O O7 0.888790 0.543373 0.214072
O O8 0.537684 0.547600 0.462318
O O9 0.027064 0.126652 0.947231
O O10 0.903749 0.102612 0.716390
O O11 0.732537 0.053467 0.977322
O O12 0.391267 0.852611 0.241351
O O13 0.390050 0.892557 0.501661
O O14 0.745423 0.876653 0.010512
O O15 0.480988 0.803467 0.980419
O O16 0.162839 0.142557 0.456078
#
# Coordination Sequence:
#
# PCOD8056262 Si02
#       8
#     4   4   4   4   4   4   4   4
#     4  11  25  44  68 101 136 178 231 278 335 412
#     4  11  25  44  68 101 136 178 231 278 335 412
#     4  11  24  42  72  97 135 185 220 285 343 398
#     4  11  23  44  68  98 138 178 228 277 344 407
#     4  11  24  42  72  97 135 185 220 285 343 398
#     4  11  25  42  69 101 136 179 227 282 340 400
#     4  11  25  42  69 101 136 179 227 282 340 400
#     4  11  23  44  68  98 138 178 228 277 344 407
#
# _framework density 21.536805999999999
#
# number of rings (size 3 to 8) (size 9 to 14) (size 15 to 20)
#    0.000    1.000    5.000    0.750    3.500    2.000 
#    0.000    5.000    0.000    0.000    0.000    0.000 
#    0.000    0.000    0.000    0.000    0.000    0.000 
#
# Total GULP energy -198486.075610 kJ/mol
# GULP energy per Si atom -12405.379726 kJ/mol
# Density = 2.148779 g / cm^3
# Si number density = 21.536806 Si / 1000 Ang^3
#
#
#
# Elastic Constant Matrix: (Units=GPa)
#
#
# Indices 1 2 3 4 5 6 
#
# 1 126.4979 40.3279 42.9291 0.0000 -0.1395 0.0000
# 2 40.3279 92.7372 28.3283 0.0000 -0.0568 0.0000
# 3 42.9291 28.3283 93.3923 0.0000 -0.0169 0.0000
# 4 0.0000 0.0000 0.0000 34.4291 0.0000 -0.0310
# 5 -0.1395 -0.0568 -0.0169 0.0000 27.0061 0.0000
# 6 0.0000 0.0000 0.0000 -0.0310 0.0000 40.9879
#
#
#
# Elastic Compliance Matrix: (Units=1/GPa)
#
#
# Indices 1 2 3 4 5 6 
#
# 1 0.010214 -0.003315 -0.003690 0.000000 0.000044 0.000000
# 2 -0.003315 0.012960 -0.002407 0.000000 0.000009 0.000000
# 3 -0.003690 -0.002407 0.013134 0.000000 -0.000016 0.000000
# 4 0.000000 0.000000 0.000000 0.029045 0.000000 0.000022
# 5 0.000044 0.000009 -0.000016 0.000000 0.037029 0.000000
# 6 0.000000 0.000000 0.000000 0.000022 0.000000 0.024397
#
#
# Mechanical properties :
#
#
# Convention : Reuss Voigt Hill
#
# Bulk Modulus (GPa) = 57.19394 59.53309 58.36351
# Shear Modulus (GPa) = 33.01827 33.88742 33.45285
#
# Velocity S-wave (km/s) = 3.91974 3.97100 3.94545
# Velocity P-wave (km/s) = 6.86293 6.98051 6.92197
#
# Compressibility (1/GPa) = 0.01748437
#
# Stress axis : x y z
#
# Youngs Moduli (GPa) = 97.90302 77.16050 76.13957
#
# Poissons Ratio (x) = 0.25576 0.28093
# Poissons Ratio (y) = 0.32452 0.18330
# Poissons Ratio (z) = 0.36123 0.18576
#
# Static dielectric constant tensor:
#      x y z
#    x 3.865390 0.000000 -0.000750 
#    y 0.000000 3.924580 0.000000 
#    z -0.000750 0.000000 3.708220 
# 
# 
# High freq. dielectric constant tensor:
#      x y z
#    x 1.846130 0.000000 -0.000030 
#    y 0.000000 1.855850 0.000000 
#    z -0.000030 0.000000 1.840400 
# 
# From -- ./inp_files/4474.got.cif
#   From: 2010.06.25/outbox.cif.g09.slc.cpg/sg9_3_cif.got.tgz:4474.got - 2010.06.27 21:40:51.
