data_PCOD8056095
_publ_section_title
;
Structure prediction by ZEFSAII (Michael W. Deem and Ramdas Pophale) SiO2 
 PCOD8056095
Probable space group: C C
;
_chemical_formula_sum "Si O2"
_cell_formula_units_Z 32
_cell_length_a 11.951335
_cell_length_b 17.604423
_cell_length_c 8.879717
_cell_angle_alpha 90.000000
_cell_angle_beta 126.481455
_cell_angle_gamma 90.000000
_cell_volume 1502.173315
_symmetry_space_group_name_H-M "C C"
_symmetry_group_IT_number 9
_symmetry_cell_setting 'monoclinic'
loop_
_space_group_symop_operation_xyz
x,y,z
x,-y,1/2+z
1/2+x,1/2+y,z
1/2+x,1/2-y,1/2+z
loop_
_atom_site_type_symbol
_atom_site_label
_atom_site_fract_x
_atom_site_fract_y
_atom_site_fract_z
Si Si1 0.439720 0.226378 0.392600
Si Si2 0.032429 0.820326 0.173123
Si Si3 0.190552 0.680372 0.788533
Si Si4 0.184952 0.466012 0.098633
Si Si5 0.380952 0.946829 0.791465
Si Si6 0.065102 0.318309 0.515915
Si Si7 0.774255 0.906638 0.861745
Si Si8 0.307895 0.082626 0.902237
O O1 0.471182 0.267455 0.258362
O O2 0.332310 0.272350 0.409538
O O3 0.583494 0.224996 0.596854
O O4 0.372379 0.142481 0.324560
O O5 0.042012 0.770697 0.028388
O O6 0.173966 0.864232 0.328308
O O7 0.924631 0.884978 0.041051
O O8 0.231266 0.601487 0.744461
O O9 0.129506 0.667341 0.904382
O O10 0.277152 0.538467 0.218602
O O11 0.201585 0.450872 0.937320
O O12 0.020669 0.482364 0.977483
O O13 0.369687 0.951613 0.604364
O O14 0.268446 0.006750 0.772030
O O15 0.175484 0.336855 0.737344
O O16 0.922050 0.364961 0.410755
#
# Coordination Sequence:
#
# PCOD8056095 Si02
#       8
#     4   4   4   4   4   4   4   4
#     4  11  24  48  71 104 140 194 238 295 366 441
#     4  12  27  46  71 105 149 189 234 300 378 429
#     4  11  26  42  72 102 138 179 243 300 353 429
#     4  11  21  44  69 100 133 181 242 285 348 434
#     4  11  23  42  72  99 138 188 235 289 353 438
#     4  12  25  44  73 101 140 190 246 294 352 448
#     4  12  24  44  73 102 137 187 240 295 362 431
#     4  12  26  44  71 105 143 184 242 296 362 432
#
# _framework density 21.302468999999999
#
# number of rings (size 3 to 8) (size 9 to 14) (size 15 to 20)
#    0.000    0.500    5.000    3.000    7.000    1.000 
#    2.250    0.000    0.000    0.000    0.000    0.000 
#    0.000    0.000    0.000    0.000    0.000    0.000 
#
# Total GULP energy -198347.900630 kJ/mol
# GULP energy per Si atom -12396.743789 kJ/mol
# Density = 2.125398 g / cm^3
# Si number density = 21.302469 Si / 1000 Ang^3
#
#
#
# Elastic Constant Matrix: (Units=GPa)
#
#
# Indices 1 2 3 4 5 6 
#
# 1 76.9985 38.8394 24.0073 0.0000 2.9004 0.0000
# 2 38.8394 114.4902 36.1835 0.0000 5.1216 0.0000
# 3 24.0073 36.1835 78.2677 0.0000 -6.8740 0.0000
# 4 0.0000 0.0000 0.0000 39.3881 0.0000 4.2486
# 5 2.9004 5.1216 -6.8740 0.0000 35.1681 0.0000
# 6 0.0000 0.0000 0.0000 4.2486 0.0000 28.9337
#
#
#
# Elastic Compliance Matrix: (Units=1/GPa)
#
#
# Indices 1 2 3 4 5 6 
#
# 1 0.016246 -0.004502 -0.003014 0.000000 -0.001273 0.000000
# 2 -0.004502 0.011689 -0.004212 0.000000 -0.002154 0.000000
# 3 -0.003014 -0.004212 0.015999 0.000000 0.003989 0.000000
# 4 0.000000 0.000000 0.000000 0.025797 0.000000 -0.003788
# 5 -0.001273 -0.002154 0.003989 0.000000 0.029633 0.000000
# 6 0.000000 0.000000 0.000000 -0.003788 0.000000 0.035118
#
#
# Mechanical properties :
#
#
# Convention : Reuss Voigt Hill
#
# Bulk Modulus (GPa) = 48.83286 51.97965 50.40626
# Shear Modulus (GPa) = 30.34651 32.07972 31.21311
#
# Velocity S-wave (km/s) = 3.77842 3.88482 3.83199
# Velocity P-wave (km/s) = 6.48141 6.67654 6.57970
#
# Compressibility (1/GPa) = 0.02047802
#
# Stress axis : x y z
#
# Youngs Moduli (GPa) = 61.55502 85.54930 62.50462
#
# Poissons Ratio (x) = 0.38512 0.18837
# Poissons Ratio (y) = 0.27710 0.26329
# Poissons Ratio (z) = 0.18551 0.36036
#
# Static dielectric constant tensor:
#      x y z
#    x 3.769340 0.000000 -0.042570 
#    y 0.000000 4.121040 0.000000 
#    z -0.042570 0.000000 3.798000 
# 
# 
# High freq. dielectric constant tensor:
#      x y z
#    x 1.822180 0.000000 -0.007930 
#    y 0.000000 1.850930 0.000000 
#    z -0.007930 0.000000 1.840220 
# 
# From -- ./inp_files/8046.got.cif
#   From: 2010.06.25/outbox.cif.g09.slc.cpg/sg9_5_cif.got.tgz:8046.got - 2010.06.27 21:40:51.
