data_PCOD8056950
_publ_section_title
;
Structure prediction by ZEFSAII (Michael W. Deem and Ramdas Pophale) SiO2 
 PCOD8056950
Probable space group: P 2/M
;
_chemical_formula_sum "Si O2"
_cell_formula_units_Z 28
_cell_length_a 22.055919
_cell_length_b 9.189178
_cell_length_c 17.859542
_cell_angle_alpha 90.000000
_cell_angle_beta 27.191264
_cell_angle_gamma 90.000000
_cell_volume 1654.064808
_symmetry_space_group_name_H-M "P 2/M"
_symmetry_group_IT_number 10
_symmetry_cell_setting 'monoclinic'
loop_
_space_group_symop_operation_xyz
x,y,z
-x,y,-z
-x,-y,-z
x,-y,z
loop_
_atom_site_type_symbol
_atom_site_label
_atom_site_fract_x
_atom_site_fract_y
_atom_site_fract_z
Si Si1 0.361046 0.828092 0.187982
Si Si2 0.404965 0.332259 0.447476
Si Si3 0.150982 0.331222 0.318208
Si Si4 0.718884 0.667678 0.977506
Si Si5 0.659241 0.338343 0.326403
Si Si6 0.323848 0.171422 0.833216
Si Si7 0.416769 0.665479 0.271453
O O1 0.240950 0.765280 0.272604
O O2 0.349651 0.771002 0.285285
O O3 0.349638 0.000000 0.201140
O O4 0.500000 0.775182 0.000000
O O5 0.458245 0.500000 0.395980
O O6 0.301527 0.301247 0.629539
O O7 0.525352 0.220470 0.322161
O O8 0.341737 0.312138 0.434189
O O9 0.181779 0.500000 0.300828
O O10 0.000000 0.290499 0.500000
O O11 0.179566 0.293536 0.200251
O O12 0.727714 0.500000 0.991501
O O13 0.759473 0.762292 0.005780
O O14 0.571250 0.705816 0.111346
O O15 0.500000 0.327366 0.500000
O O16 0.707460 0.500000 0.252340
O O17 0.726759 0.229621 0.192404
O O18 0.309738 0.000000 0.849805
O O19 0.401366 0.500000 0.260037
#
# Coordination Sequence:
#
# PCOD8056950 Si02
#       7
#     4   4   4   4   4   4   4
#     4  11  22  33  48  72 101 129 159 194 238 291
#     4   8  15  26  38  55  81 116 152 189 233 275
#     4  10  21  37  56  74  92 121 163 207 247 286
#     4   9  17  30  46  64  88 118 153 194 240 282
#     4   8  13  23  36  50  77 115 151 184 226 276
#     4  10  17  22  34  57  84 115 152 188 224 273
#     4   9  16  28  47  67  88 120 160 198 234 274
#
# _framework density 16.927994000000002
#
# number of rings (size 3 to 8) (size 9 to 14) (size 15 to 20)
#    0.000    2.714    1.429    3.429    0.000    6.286 
#    0.000    0.000    0.000    0.000    0.000    0.000 
#    0.000    1.143    0.000   13.143    0.000    7.571 
#
# Total GULP energy -346982.786233 kJ/mol
# GULP energy per Si atom -12392.242365 kJ/mol
# Density = 1.688947 g / cm^3
# Si number density = 16.927994 Si / 1000 Ang^3
#
#
#
# Elastic Constant Matrix: (Units=GPa)
#
#
# Indices 1 2 3 4 5 6 
#
# 1 110.3198 60.3699 60.8495 0.0000 37.7416 0.0000
# 2 60.3699 93.2770 43.1316 0.0000 19.4079 0.0000
# 3 60.8495 43.1316 66.8363 0.0000 23.2792 0.0000
# 4 0.0000 0.0000 0.0000 9.9386 0.0000 0.2617
# 5 37.7416 19.4079 23.2792 0.0000 29.6900 0.0000
# 6 0.0000 0.0000 0.0000 0.2617 0.0000 16.8596
#
#
#
# Elastic Compliance Matrix: (Units=1/GPa)
#
#
# Indices 1 2 3 4 5 6 
#
# 1 0.026768 -0.007356 -0.012995 0.000000 -0.019029 0.000000
# 2 -0.007356 0.017513 -0.005330 0.000000 0.002082 0.000000
# 3 -0.012995 -0.005330 0.032006 0.000000 -0.005092 0.000000
# 4 0.000000 0.000000 0.000000 0.100659 0.000000 -0.001562
# 5 -0.019029 0.002082 -0.005092 0.000000 0.060503 0.000000
# 6 0.000000 0.000000 0.000000 -0.001562 0.000000 0.059338
#
#
# Mechanical properties :
#
#
# Convention : Reuss Voigt Hill
#
# Bulk Modulus (GPa) = 40.12008 66.57057 53.34533
# Shear Modulus (GPa) = 14.02694 18.36976 16.19835
#
# Velocity S-wave (km/s) = 2.88171 3.29777 3.09673
# Velocity P-wave (km/s) = 5.90120 7.34244 6.66092
#
# Compressibility (1/GPa) = 0.02492517
#
# Stress axis : x y z
#
# Youngs Moduli (GPa) = 37.35805 57.10054 31.24423
#
# Poissons Ratio (x) = 0.42004 0.40602
# Poissons Ratio (y) = 0.27481 0.16652
# Poissons Ratio (z) = 0.48547 0.30432
#
# Static dielectric constant tensor:
#      x y z
#    x 3.431940 0.000000 0.659650 
#    y 0.000000 3.050360 0.000000 
#    z 0.659650 0.000000 2.985340 
# 
# 
# High freq. dielectric constant tensor:
#      x y z
#    x 1.649600 0.000000 0.054830 
#    y 0.000000 1.647400 0.000000 
#    z 0.054830 0.000000 1.600910 
# 
# From -- ./inp_files/79259.got.cif
#   From: 2010.06.25/outbox.cif.g09.slc.cpg/sg10_40_cif.got.tgz:79259.got - 2010.06.27 22:07:45.
