data_PCOD8056357
_publ_section_title
;
Structure prediction by ZEFSAII (Michael W. Deem and Ramdas Pophale) SiO2 
 PCOD8056357
Probable space group: C C
;
_chemical_formula_sum "Si O2"
_cell_formula_units_Z 32
_cell_length_a 6.115112
_cell_length_b 14.497444
_cell_length_c 16.290107
_cell_angle_alpha 90.000000
_cell_angle_beta 117.689652
_cell_angle_gamma 90.000000
_cell_volume 1278.784473
_symmetry_space_group_name_H-M "C C"
_symmetry_group_IT_number 9
_symmetry_cell_setting 'monoclinic'
loop_
_space_group_symop_operation_xyz
x,y,z
x,-y,1/2+z
1/2+x,1/2+y,z
1/2+x,1/2-y,1/2+z
loop_
_atom_site_type_symbol
_atom_site_label
_atom_site_fract_x
_atom_site_fract_y
_atom_site_fract_z
Si Si1 0.459190 0.378676 0.565770
Si Si2 0.908587 0.182053 0.238453
Si Si3 0.109645 0.367649 0.229763
Si Si4 0.172499 0.729915 0.495769
Si Si5 0.105708 0.919130 0.060601
Si Si6 0.113875 0.205012 0.799047
Si Si7 0.042831 0.568571 0.879079
Si Si8 0.267829 0.910917 0.914599
O O1 0.357663 0.342517 0.635252
O O2 0.676290 0.314476 0.563254
O O3 0.541471 0.484761 0.593976
O O4 0.226838 0.370445 0.465079
O O5 0.661367 0.205439 0.248612
O O6 0.068930 0.274124 0.274008
O O7 0.071388 0.102313 0.307763
O O8 0.358959 0.343143 0.224577
O O9 0.156528 0.448050 0.306882
O O10 0.883860 0.389138 0.130672
O O11 0.414912 0.664039 0.547716
O O12 0.148197 0.767230 0.399309
O O13 0.916752 0.678261 0.470694
O O14 0.109341 0.945936 0.964750
O O15 0.293745 0.120909 0.813787
O O16 0.984936 0.476642 0.919169
#
# Coordination Sequence:
#
# PCOD8056357 Si02
#       8
#     4   4   4   4   4   4   4   4
#     4  12  26  51  77 119 155 209 265 327 406 478
#     4  11  25  45  75 113 152 199 263 323 400 475
#     4  11  25  48  75 111 152 202 259 325 395 474
#     4  12  24  49  83 104 156 211 260 324 394 475
#     4  12  28  50  76 117 159 205 269 328 397 485
#     4  11  23  49  77 105 150 207 255 329 395 467
#     4  11  25  45  75 112 154 199 260 319 394 473
#     4  12  24  47  74 115 156 202 261 327 393 471
#
# _framework density 25.023762000000001
#
# number of rings (size 3 to 8) (size 9 to 14) (size 15 to 20)
#    0.000    0.500    5.000    3.000    1.750    4.000 
#    4.500    0.000    2.750    0.000    0.000    0.000 
#    0.000    0.000    0.000    0.000    0.000    0.000 
#
# Total GULP energy -198282.298819 kJ/mol
# GULP energy per Si atom -12392.643676 kJ/mol
# Density = 2.496681 g / cm^3
# Si number density = 25.023762 Si / 1000 Ang^3
#
#
#
# Elastic Constant Matrix: (Units=GPa)
#
#
# Indices 1 2 3 4 5 6 
#
# 1 119.6356 44.7099 58.1379 0.0000 0.8190 0.0000
# 2 44.7099 111.9402 33.2026 0.0000 -0.2980 0.0000
# 3 58.1379 33.2026 139.6189 0.0000 -3.7778 0.0000
# 4 0.0000 0.0000 0.0000 30.2132 0.0000 -2.6800
# 5 0.8190 -0.2980 -3.7778 0.0000 57.0116 0.0000
# 6 0.0000 0.0000 0.0000 -2.6800 0.0000 41.2000
#
#
#
# Elastic Compliance Matrix: (Units=1/GPa)
#
#
# Indices 1 2 3 4 5 6 
#
# 1 0.011605 -0.003442 -0.004026 0.000000 -0.000451 0.000000
# 2 -0.003442 0.010633 -0.001094 0.000000 0.000033 0.000000
# 3 -0.004026 -0.001094 0.009117 0.000000 0.000656 0.000000
# 4 0.000000 0.000000 0.000000 0.033290 0.000000 0.002165
# 5 -0.000451 0.000033 0.000656 0.000000 0.017590 0.000000
# 6 0.000000 0.000000 0.000000 0.002165 0.000000 0.024413
#
#
# Mechanical properties :
#
#
# Convention : Reuss Voigt Hill
#
# Bulk Modulus (GPa) = 70.27657 71.47730 70.87693
# Shear Modulus (GPa) = 38.90587 41.36125 40.13356
#
# Velocity S-wave (km/s) = 3.94732 4.06997 4.00911
# Velocity P-wave (km/s) = 6.99428 7.12124 7.05805
#
# Compressibility (1/GPa) = 0.01422949
#
# Stress axis : x y z
#
# Youngs Moduli (GPa) = 86.17304 94.04832 109.68819
#
# Poissons Ratio (x) = 0.32372 0.44159
# Poissons Ratio (y) = 0.29661 0.12004
# Poissons Ratio (z) = 0.34692 0.10293
#
# Static dielectric constant tensor:
#      x y z
#    x 5.174890 0.000000 -0.293830 
#    y 0.000000 4.547120 0.000000 
#    z -0.293830 0.000000 4.337120 
# 
# 
# High freq. dielectric constant tensor:
#      x y z
#    x 2.007590 0.000000 -0.007000 
#    y 0.000000 1.989710 0.000000 
#    z -0.007000 0.000000 2.004610 
# 
# From -- ./inp_files/28735.got.cif
#   From: 2010.06.25/outbox.cif.g09.slc.cpg/sg9_15_cif.got.tgz:28735.got - 2010.06.27 21:40:51.
