data_PCOD8056097
_publ_section_title
;
Structure prediction by ZEFSAII (Michael W. Deem and Ramdas Pophale) SiO2 
 PCOD8056097
Probable space group: C C
;
_chemical_formula_sum "Si O2"
_cell_formula_units_Z 32
_cell_length_a 9.294364
_cell_length_b 16.527411
_cell_length_c 11.117110
_cell_angle_alpha 90.000000
_cell_angle_beta 60.414659
_cell_angle_gamma 90.000000
_cell_volume 1485.068763
_symmetry_space_group_name_H-M "C C"
_symmetry_group_IT_number 9
_symmetry_cell_setting 'monoclinic'
loop_
_space_group_symop_operation_xyz
x,y,z
x,-y,1/2+z
1/2+x,1/2+y,z
1/2+x,1/2-y,1/2+z
loop_
_atom_site_type_symbol
_atom_site_label
_atom_site_fract_x
_atom_site_fract_y
_atom_site_fract_z
Si Si1 0.137440 0.630048 0.685760
Si Si2 0.341691 0.299544 0.526755
Si Si3 0.711339 0.076902 0.900877
Si Si4 0.874836 0.511845 0.307214
Si Si5 0.297307 0.597904 0.384648
Si Si6 0.047406 0.672336 0.311226
Si Si7 0.575789 0.312118 0.645708
Si Si8 0.325211 0.054916 0.073795
O O1 0.224332 0.634110 0.779273
O O2 0.273434 0.597539 0.537175
O O3 0.077603 0.718971 0.678286
O O4 0.984487 0.568646 0.750823
O O5 0.306325 0.381198 0.469718
O O6 0.175840 0.278275 0.671974
O O7 0.391908 0.227440 0.415475
O O8 0.496255 0.321791 0.547309
O O9 0.802210 0.992943 0.832302
O O10 0.521572 0.058635 0.011149
O O11 0.763326 0.518425 0.229966
O O12 0.777823 0.501299 0.476311
O O13 0.982055 0.593747 0.268776
O O14 0.144333 0.646855 0.391003
O O15 0.469361 0.640478 0.287873
O O16 0.755168 0.354874 0.576669
#
# Coordination Sequence:
#
# PCOD8056097 Si02
#       8
#     4   4   4   4   4   4   4   4
#     4  11  22  42  69 100 127 185 223 277 342 416
#     4  11  25  44  72 103 139 183 228 290 340 421
#     4  11  24  43  76  93 135 181 235 272 346 410
#     4  11  22  44  73  94 136 183 231 270 352 414
#     4  11  22  46  66  98 133 188 221 277 349 425
#     4  11  21  44  70 103 136 179 231 281 346 411
#     4  11  28  42  68 101 147 166 229 292 349 400
#     4  11  24  45  70 102 131 185 230 291 334 421
#
# _framework density 21.547823999999999
#
# number of rings (size 3 to 8) (size 9 to 14) (size 15 to 20)
#    0.000    1.000    6.250    0.000    7.000    1.000 
#    2.250    0.000    0.000    0.000    0.000    0.000 
#    0.000    0.000    0.000    0.000    0.000    0.000 
#
# Total GULP energy -198344.169951 kJ/mol
# GULP energy per Si atom -12396.510622 kJ/mol
# Density = 2.149878 g / cm^3
# Si number density = 21.547824 Si / 1000 Ang^3
#
#
#
# Elastic Constant Matrix: (Units=GPa)
#
#
# Indices 1 2 3 4 5 6 
#
# 1 53.7348 46.4270 38.8601 0.0000 18.9922 0.0000
# 2 46.4270 128.4901 43.1596 0.0000 1.0067 0.0000
# 3 38.8601 43.1596 121.8910 0.0000 27.7079 0.0000
# 4 0.0000 0.0000 0.0000 38.6285 0.0000 3.2598
# 5 18.9922 1.0067 27.7079 0.0000 33.1861 0.0000
# 6 0.0000 0.0000 0.0000 3.2598 0.0000 10.6356
#
#
#
# Elastic Compliance Matrix: (Units=1/GPa)
#
#
# Indices 1 2 3 4 5 6 
#
# 1 0.038813 -0.012663 -0.003614 0.000000 -0.018811 0.000000
# 2 -0.012663 0.013195 -0.002705 0.000000 0.009105 0.000000
# 3 -0.003614 -0.002705 0.012127 0.000000 -0.007975 0.000000
# 4 0.000000 0.000000 0.000000 0.026575 0.000000 -0.008145
# 5 -0.018811 0.009105 -0.007975 0.000000 0.047280 0.000000
# 6 0.000000 0.000000 0.000000 -0.008145 0.000000 0.096520
#
#
# Mechanical properties :
#
#
# Convention : Reuss Voigt Hill
#
# Bulk Modulus (GPa) = 38.21010 62.33437 50.27223
# Shear Modulus (GPa) = 17.78106 28.20132 22.99119
#
# Velocity S-wave (km/s) = 2.87573 3.62163 3.27002
# Velocity P-wave (km/s) = 5.36634 6.81758 6.13502
#
# Compressibility (1/GPa) = 0.02617109
#
# Stress axis : x y z
#
# Youngs Moduli (GPa) = 25.76463 75.78418 82.46158
#
# Poissons Ratio (x) = 0.95964 0.29804
# Poissons Ratio (y) = 0.32625 0.22306
# Poissons Ratio (z) = 0.09312 0.20499
#
# Static dielectric constant tensor:
#      x y z
#    x 3.730640 0.000000 0.290570 
#    y 0.000000 3.827990 0.000000 
#    z 0.290570 0.000000 4.350560 
# 
# 
# High freq. dielectric constant tensor:
#      x y z
#    x 1.819120 0.000000 0.022700 
#    y 0.000000 1.844220 0.000000 
#    z 0.022700 0.000000 1.862810 
# 
# From -- ./inp_files/14659.got.cif
#   From: 2010.06.25/outbox.cif.g09.slc.cpg/sg9_8_cif.got.tgz:14659.got - 2010.06.27 21:40:51.
