data_PCOD8056638
_publ_section_title
;
Structure prediction by ZEFSAII (Michael W. Deem and Ramdas Pophale) SiO2 
 PCOD8056638
Probable space group: C C
;
_chemical_formula_sum "Si O2"
_cell_formula_units_Z 32
_cell_length_a 13.880512
_cell_length_b 22.110255
_cell_length_c 5.017167
_cell_angle_alpha 90.000000
_cell_angle_beta 111.155476
_cell_angle_gamma 90.000000
_cell_volume 1436.002901
_symmetry_space_group_name_H-M "C C"
_symmetry_group_IT_number 9
_symmetry_cell_setting 'monoclinic'
loop_
_space_group_symop_operation_xyz
x,y,z
x,-y,1/2+z
1/2+x,1/2+y,z
1/2+x,1/2-y,1/2+z
loop_
_atom_site_type_symbol
_atom_site_label
_atom_site_fract_x
_atom_site_fract_y
_atom_site_fract_z
Si Si1 0.114150 0.959753 0.634320
Si Si2 0.328570 0.891276 0.910429
Si Si3 0.944161 0.141509 0.957999
Si Si4 0.039171 0.539339 0.605816
Si Si5 0.857385 0.313443 0.444525
Si Si6 0.694417 0.218443 0.259518
Si Si7 0.499836 0.284070 0.008954
Si Si8 0.208047 0.639241 0.774047
O O1 0.226407 0.930781 0.783616
O O2 0.023353 0.912303 0.599401
O O3 0.102544 0.984469 0.324464
O O4 0.324403 0.835094 0.703770
O O5 0.429082 0.929935 0.939251
O O6 0.335753 0.866967 0.217408
O O7 0.965663 0.196411 0.180541
O O8 0.958780 0.166348 0.675245
O O9 0.827064 0.117303 0.872152
O O10 0.047081 0.482215 0.417775
O O11 0.134045 0.583281 0.637042
O O12 0.805621 0.248576 0.325934
O O13 0.973750 0.287586 0.544348
O O14 0.623301 0.278110 0.147387
O O15 0.684278 0.192958 0.545941
O O16 0.680315 0.164090 0.037839
#
# Coordination Sequence:
#
# PCOD8056638 Si02
#       8
#     4   4   4   4   4   4   4   4
#     4  12  26  45  68  93 128 176 227 281 335 376
#     4  12  24  43  66 100 130 167 224 278 328 406
#     4  12  24  44  65  97 136 171 222 275 325 398
#     4  12  26  45  68  93 128 176 227 281 335 376
#     4  12  22  39  66  98 130 169 206 256 346 392
#     4  12  23  41  65  97 135 175 215 263 324 403
#     4  12  23  41  65  97 135 175 215 263 324 403
#     4  12  24  44  65  97 136 171 222 275 325 398
#
# _framework density 22.284077
#
# number of rings (size 3 to 8) (size 9 to 14) (size 15 to 20)
#    0.000    0.000    2.500    9.000    0.000    1.000 
#    0.000    0.000    0.000    0.000    0.000    0.000 
#    0.000    0.000    0.000    0.000    0.000    0.000 
#
# Total GULP energy -198495.207459 kJ/mol
# GULP energy per Si atom -12405.950466 kJ/mol
# Density = 2.223336 g / cm^3
# Si number density = 22.284077 Si / 1000 Ang^3
#
#
#
# Elastic Constant Matrix: (Units=GPa)
#
#
# Indices 1 2 3 4 5 6 
#
# 1 114.8791 44.8025 31.5315 0.0000 21.9153 0.0000
# 2 44.8025 84.9890 19.0610 0.0000 13.0809 0.0000
# 3 31.5315 19.0610 82.0550 0.0000 3.0440 0.0000
# 4 0.0000 0.0000 0.0000 43.6205 0.0000 -9.0099
# 5 21.9153 13.0809 3.0440 0.0000 42.9074 0.0000
# 6 0.0000 0.0000 0.0000 -9.0099 0.0000 31.2559
#
#
#
# Elastic Compliance Matrix: (Units=1/GPa)
#
#
# Indices 1 2 3 4 5 6 
#
# 1 0.012526 -0.005122 -0.003453 0.000000 -0.004591 0.000000
# 2 -0.005122 0.015084 -0.001466 0.000000 -0.001879 0.000000
# 3 -0.003453 -0.001466 0.013809 0.000000 0.001231 0.000000
# 4 0.000000 0.000000 0.000000 0.024376 0.000000 0.007027
# 5 -0.004591 -0.001879 0.001231 0.000000 0.026136 0.000000
# 6 0.000000 0.000000 0.000000 0.007027 0.000000 0.034020
#
#
# Mechanical properties :
#
#
# Convention : Reuss Voigt Hill
#
# Bulk Modulus (GPa) = 46.86822 52.52368 49.69595
# Shear Modulus (GPa) = 32.64847 35.99197 34.32022
#
# Velocity S-wave (km/s) = 3.83182 4.02324 3.92870
# Velocity P-wave (km/s) = 6.37612 6.72333 6.55203
#
# Compressibility (1/GPa) = 0.02133642
#
# Stress axis : x y z
#
# Youngs Moduli (GPa) = 79.83319 66.29415 72.41739
#
# Poissons Ratio (x) = 0.33956 0.25008
# Poissons Ratio (y) = 0.40891 0.10617
# Poissons Ratio (z) = 0.27569 0.09719
#
# Static dielectric constant tensor:
#      x y z
#    x 4.173710 0.000000 0.160500 
#    y 0.000000 3.781150 0.000000 
#    z 0.160500 0.000000 4.070020 
# 
# 
# High freq. dielectric constant tensor:
#      x y z
#    x 1.898770 0.000000 0.004850 
#    y 0.000000 1.871370 0.000000 
#    z 0.004850 0.000000 1.892920 
# 
# From -- ./inp_files/2598.got.cif
#   From: 2010.06.25/outbox.cif.g09.slc.cpg/sg9_2_cif.got.tgz:2598.got - 2010.06.27 21:40:51.
