data_PCOD8056834
_publ_section_title
;
Structure prediction by ZEFSAII (Michael W. Deem and Ramdas Pophale) SiO2 
 PCOD8056834
Probable space group: P 2/M
;
_chemical_formula_sum "Si O2"
_cell_formula_units_Z 32
_cell_length_a 21.629284
_cell_length_b 8.619936
_cell_length_c 26.971601
_cell_angle_alpha 90.000000
_cell_angle_beta 158.386505
_cell_angle_gamma 90.000000
_cell_volume 1852.277120
_symmetry_space_group_name_H-M "P 2/M"
_symmetry_group_IT_number 10
_symmetry_cell_setting 'monoclinic'
loop_
_space_group_symop_operation_xyz
x,y,z
-x,y,-z
-x,-y,-z
x,-y,z
loop_
_atom_site_type_symbol
_atom_site_label
_atom_site_fract_x
_atom_site_fract_y
_atom_site_fract_z
Si Si1 0.463250 0.318857 0.126676
Si Si2 0.258560 0.317101 0.195152
Si Si3 0.951200 0.682633 0.409751
Si Si4 0.414192 0.683297 0.887203
Si Si5 0.533924 0.820130 0.725784
Si Si6 0.018487 0.181643 0.084990
Si Si7 0.263492 0.177338 0.598653
Si Si8 0.801475 0.321830 0.996271
O O1 0.505405 0.500000 0.166493
O O2 0.470982 0.274151 0.074640
O O3 0.603138 0.222351 0.259911
O O4 0.273739 0.281223 0.005219
O O5 0.278408 0.500000 0.214488
O O6 0.434881 0.240622 0.307492
O O7 0.202776 0.246792 0.207153
O O8 0.116534 0.270010 0.049675
O O9 0.933727 0.500000 0.401316
O O10 0.772863 0.753090 0.259385
O O11 0.000000 0.752547 0.500000
O O12 0.094038 0.723338 0.476191
O O13 0.400916 0.500000 0.883965
O O14 0.500000 0.757638 0.000000
O O15 0.343075 0.798014 0.602774
O O16 0.589108 0.000000 0.771647
O O17 0.648123 0.712248 0.845227
O O18 0.966434 0.221450 0.103292
O O19 0.011735 0.000000 0.070175
O O20 0.214310 0.000000 0.570295
O O21 0.854914 0.500000 0.032407
#
# Coordination Sequence:
#
# PCOD8056834 Si02
#       8
#     4   4   4   4   4   4   4   4
#     4   9  16  28  44  61  83 110 142 181 222 263
#     4  10  16  22  32  46  67  97 134 171 207 248
#     4  10  18  30  48  67  87 112 146 184 222 262
#     4   9  17  30  48  68  88 113 146 183 223 268
#     4   9  16  25  34  49  73 101 133 168 209 252
#     4  10  16  22  31  44  67  99 134 170 206 248
#     4  10  19  28  42  63  86 111 142 181 220 262
#     4   9  15  22  34  51  71  97 132 173 211 248
#
# _framework density 17.276032000000001
#
# number of rings (size 3 to 8) (size 9 to 14) (size 15 to 20)
#    0.000    2.500    1.250    5.625    0.000    2.250 
#    0.000    0.000    0.000    1.500    0.000    0.000 
#    0.000    0.000    0.000    1.125    0.000   24.750 
#
# Total GULP energy -396441.404020 kJ/mol
# GULP energy per Si atom -12388.793876 kJ/mol
# Density = 1.723671 g / cm^3
# Si number density = 17.276032 Si / 1000 Ang^3
#
#
#
# Elastic Constant Matrix: (Units=GPa)
#
#
# Indices 1 2 3 4 5 6 
#
# 1 146.9437 30.1666 56.8633 0.0000 37.5764 0.0000
# 2 30.1666 42.4691 15.6067 0.0000 8.3698 0.0000
# 3 56.8633 15.6067 57.9154 0.0000 8.8118 0.0000
# 4 0.0000 0.0000 0.0000 9.4702 0.0000 10.3256
# 5 37.5764 8.3698 8.8118 0.0000 23.5328 0.0000
# 6 0.0000 0.0000 0.0000 10.3256 0.0000 21.6160
#
#
#
# Elastic Compliance Matrix: (Units=1/GPa)
#
#
# Indices 1 2 3 4 5 6 
#
# 1 0.019207 -0.003684 -0.014208 0.000000 -0.024038 0.000000
# 2 -0.003684 0.027996 -0.003507 0.000000 -0.002761 0.000000
# 3 -0.014208 -0.003507 0.030242 0.000000 0.012609 0.000000
# 4 0.000000 0.000000 0.000000 0.220368 0.000000 -0.105266
# 5 -0.024038 -0.002761 0.012609 0.000000 0.077138 0.000000
# 6 0.000000 0.000000 0.000000 -0.105266 0.000000 0.096546
#
#
# Mechanical properties :
#
#
# Convention : Reuss Voigt Hill
#
# Bulk Modulus (GPa) = 28.86145 50.28906 39.57525
# Shear Modulus (GPa) = 9.50851 20.56991 15.03921
#
# Velocity S-wave (km/s) = 2.34858 3.45434 2.95367
# Velocity P-wave (km/s) = 4.90885 6.71433 5.88129
#
# Compressibility (1/GPa) = 0.03464830
#
# Stress axis : x y z
#
# Youngs Moduli (GPa) = 52.06510 35.71882 33.06606
#
# Poissons Ratio (x) = 0.13160 0.46979
# Poissons Ratio (y) = 0.19183 0.11595
# Poissons Ratio (z) = 0.73972 0.12526
#
# Static dielectric constant tensor:
#      x y z
#    x 4.226760 0.000000 0.635530 
#    y 0.000000 3.100750 0.000000 
#    z 0.635530 0.000000 2.837340 
# 
# 
# High freq. dielectric constant tensor:
#      x y z
#    x 1.683500 0.000000 0.054110 
#    y 0.000000 1.663630 0.000000 
#    z 0.054110 0.000000 1.585070 
# 
# From -- ./inp_files/95757.got.cif
#   From: 2010.06.25/outbox.cif.g09.slc.cpg/sg10_48_cif.got.tgz:95757.got - 2010.06.27 22:07:45.
