data_PCOD8056134
_publ_section_title
;
Structure prediction by ZEFSAII (Michael W. Deem and Ramdas Pophale) SiO2 
 PCOD8056134
Probable space group: C C
;
_chemical_formula_sum "Si O2"
_cell_formula_units_Z 32
_cell_length_a 12.308809
_cell_length_b 15.846072
_cell_length_c 9.920297
_cell_angle_alpha 90.000000
_cell_angle_beta 48.478851
_cell_angle_gamma 90.000000
_cell_volume 1448.693776
_symmetry_space_group_name_H-M "C C"
_symmetry_group_IT_number 9
_symmetry_cell_setting 'monoclinic'
loop_
_space_group_symop_operation_xyz
x,y,z
x,-y,1/2+z
1/2+x,1/2+y,z
1/2+x,1/2-y,1/2+z
loop_
_atom_site_type_symbol
_atom_site_label
_atom_site_fract_x
_atom_site_fract_y
_atom_site_fract_z
Si Si1 0.366070 0.746465 0.344010
Si Si2 0.085028 0.803333 0.454573
Si Si3 0.944843 0.256847 0.683198
Si Si4 0.994570 0.381583 0.421459
Si Si5 0.725306 0.300358 0.073328
Si Si6 0.567263 0.495557 0.434515
Si Si7 0.250068 0.991027 0.044673
Si Si8 0.817216 0.877913 0.106112
O O1 0.215074 0.798637 0.457926
O O2 0.474613 0.798443 0.348315
O O3 0.341819 0.652913 0.430206
O O4 0.442483 0.741144 0.133594
O O5 0.155547 0.757140 0.264864
O O6 0.031291 0.896744 0.461453
O O7 0.964969 0.351248 0.601378
O O8 0.835403 0.205656 0.679685
O O9 0.097987 0.207463 0.565642
O O10 0.870848 0.258512 0.893081
O O11 0.897174 0.458296 0.448915
O O12 0.157414 0.414176 0.264220
O O13 0.772611 0.394836 0.071886
O O14 0.626172 0.529484 0.242972
O O15 0.694961 0.509356 0.437452
O O16 0.421867 0.548729 0.575806
#
# Coordination Sequence:
#
# PCOD8056134 Si02
#       8
#     4   4   4   4   4   4   4   4
#     4  11  22  41  67 100 128 174 230 270 327 394
#     4  11  23  41  66  97 136 174 218 274 338 397
#     4  11  22  41  67 100 128 174 230 270 327 394
#     4  11  23  40  68  99 133 171 226 283 321 389
#     4  11  23  41  66  97 136 174 218 274 338 397
#     4  11  23  42  67  97 136 179 219 273 340 401
#     4  11  23  42  67  97 136 179 219 273 340 401
#     4  11  23  40  68  99 133 171 226 283 321 389
#
# _framework density 22.088864000000001
#
# number of rings (size 3 to 8) (size 9 to 14) (size 15 to 20)
#    0.000    1.000    5.000    2.250    0.000    0.000 
#    0.000   11.250    0.000    0.000    0.000    0.000 
#    0.000    0.000    0.000    0.000    0.000    0.000 
#
# Total GULP energy -198336.141758 kJ/mol
# GULP energy per Si atom -12396.008860 kJ/mol
# Density = 2.203859 g / cm^3
# Si number density = 22.088864 Si / 1000 Ang^3
#
#
#
# Elastic Constant Matrix: (Units=GPa)
#
#
# Indices 1 2 3 4 5 6 
#
# 1 74.8668 36.4649 27.9448 0.0002 -22.8199 -0.0001
# 2 36.4649 78.6404 46.1760 0.0000 -16.5814 0.0000
# 3 27.9448 46.1760 139.4950 0.0002 -7.8921 -0.0002
# 4 0.0002 0.0000 0.0002 25.3025 -0.0001 -4.5342
# 5 -22.8199 -16.5814 -7.8921 -0.0001 47.2030 0.0001
# 6 -0.0001 0.0000 -0.0002 -4.5342 0.0001 41.1951
#
#
#
# Elastic Compliance Matrix: (Units=1/GPa)
#
#
# Indices 1 2 3 4 5 6 
#
# 1 0.019134 -0.006747 -0.001222 0.000000 0.006676 0.000000
# 2 -0.006747 0.019276 -0.004877 0.000000 0.002694 0.000000
# 3 -0.001222 -0.004877 0.008982 0.000000 -0.000802 0.000000
# 4 0.000000 0.000000 0.000000 0.040317 0.000000 0.004438
# 5 0.006676 0.002694 -0.000802 0.000000 0.025225 0.000000
# 6 0.000000 0.000000 0.000000 0.004438 0.000000 0.024763
#
#
# Mechanical properties :
#
#
# Convention : Reuss Voigt Hill
#
# Bulk Modulus (GPa) = 46.08072 57.13039 51.60555
# Shear Modulus (GPa) = 29.30417 34.90122 32.10270
#
# Velocity S-wave (km/s) = 3.64627 3.97928 3.81641
# Velocity P-wave (km/s) = 6.21561 6.85806 6.54472
#
# Compressibility (1/GPa) = 0.02170105
#
# Stress axis : x y z
#
# Youngs Moduli (GPa) = 52.26182 51.87683 111.32806
#
# Poissons Ratio (x) = 0.35003 0.13604
# Poissons Ratio (y) = 0.35263 0.54293
# Poissons Ratio (z) = 0.06386 0.25299
#
# Static dielectric constant tensor:
#      x y z
#    x 3.898240 0.000000 0.159040 
#    y 0.000000 3.613870 0.000000 
#    z 0.159040 0.000000 4.179860 
# 
# 
# High freq. dielectric constant tensor:
#      x y z
#    x 1.869670 0.000000 0.001590 
#    y 0.000000 1.840930 0.000000 
#    z 0.001590 0.000000 1.882100 
# 
# From -- ./inp_files/7558.got.cif
#   From: 2010.06.25/outbox.cif.g09.slc.cpg/sg9_4_cif.got.tgz:7558.got - 2010.06.27 21:40:51.
