data_PCOD8056627
_publ_section_title
;
Structure prediction by ZEFSAII (Michael W. Deem and Ramdas Pophale) SiO2 
 PCOD8056627
Probable space group: C C
;
_chemical_formula_sum "Si O2"
_cell_formula_units_Z 32
_cell_length_a 26.105334
_cell_length_b 8.946692
_cell_length_c 8.113375
_cell_angle_alpha 90.000000
_cell_angle_beta 139.877296
_cell_angle_gamma 90.000000
_cell_volume 1221.143795
_symmetry_space_group_name_H-M "C C"
_symmetry_group_IT_number 9
_symmetry_cell_setting 'monoclinic'
loop_
_space_group_symop_operation_xyz
x,y,z
x,-y,1/2+z
1/2+x,1/2+y,z
1/2+x,1/2-y,1/2+z
loop_
_atom_site_type_symbol
_atom_site_label
_atom_site_fract_x
_atom_site_fract_y
_atom_site_fract_z
Si Si1 0.797860 0.469223 0.368480
Si Si2 0.032576 0.875149 0.846363
Si Si3 0.652055 0.641338 0.141244
Si Si4 0.380839 0.171601 0.778134
Si Si5 0.357697 0.430948 0.485873
Si Si6 0.774165 0.825879 0.965731
Si Si7 0.129389 0.326637 0.384003
Si Si8 0.553396 0.857496 0.684539
O O1 0.719508 0.572831 0.188297
O O2 0.874097 0.571902 0.594511
O O3 0.810362 0.385969 0.225442
O O4 0.790511 0.349738 0.498874
O O5 0.060050 0.795228 0.746827
O O6 0.942745 0.934932 0.603756
O O7 0.035475 0.740640 0.981668
O O8 0.089119 0.012768 0.035217
O O9 0.681635 0.735300 0.375855
O O10 0.615356 0.775367 0.949176
O O11 0.362066 0.339485 0.669873
O O12 0.467825 0.140017 0.068406
O O13 0.334891 0.596578 0.486792
O O14 0.288438 0.375001 0.190082
O O15 0.683683 0.857248 0.680678
O O16 0.087978 0.479533 0.221211
#
# Coordination Sequence:
#
# PCOD8056627 Si02
#       8
#     4   4   4   4   4   4   4   4
#     4  12  27  48  79 115 157 210 272 337 403 483
#     4  11  27  50  79 116 159 216 271 332 415 486
#     4  12  28  50  81 115 165 217 276 336 411 492
#     4  11  28  50  80 115 157 210 273 334 411 480
#     4  11  29  49  81 116 160 211 269 333 405 486
#     4  12  28  48  77 114 162 208 270 330 400 483
#     4  12  28  49  81 114 167 213 274 340 409 484
#     4  11  29  48  80 119 161 219 271 336 414 492
#
# _framework density 26.204939
#
# number of rings (size 3 to 8) (size 9 to 14) (size 15 to 20)
#    0.000    0.500    1.250    3.750   21.000    0.000 
#    0.000    0.000    0.000    0.000    0.000    0.000 
#    0.000    0.000    0.000    0.000    0.000    0.000 
#
# Total GULP energy -198327.720136 kJ/mol
# GULP energy per Si atom -12395.482508 kJ/mol
# Density = 2.614530 g / cm^3
# Si number density = 26.204939 Si / 1000 Ang^3
#
#
#
# Elastic Constant Matrix: (Units=GPa)
#
#
# Indices 1 2 3 4 5 6 
#
# 1 105.3688 32.8733 37.1709 0.0000 23.0937 0.0000
# 2 32.8733 146.9070 38.2112 0.0000 21.0860 0.0000
# 3 37.1709 38.2112 99.5931 0.0000 11.4726 0.0000
# 4 0.0000 0.0000 0.0000 367.3678 0.0000 77.6962
# 5 23.0937 21.0860 11.4726 0.0000 35.1333 0.0000
# 6 0.0000 0.0000 0.0000 77.6962 0.0000 61.7135
#
#
#
# Elastic Compliance Matrix: (Units=1/GPa)
#
#
# Indices 1 2 3 4 5 6 
#
# 1 0.012449 -0.000937 -0.003542 0.000000 -0.006464 0.000000
# 2 -0.000937 0.008134 -0.002369 0.000000 -0.003493 0.000000
# 3 -0.003542 -0.002369 0.012303 0.000000 -0.000267 0.000000
# 4 0.000000 0.000000 0.000000 0.003710 0.000000 -0.004671
# 5 -0.006464 -0.003493 -0.000267 0.000000 0.034896 0.000000
# 6 0.000000 0.000000 0.000000 -0.004671 0.000000 0.022084
#
#
# Mechanical properties :
#
#
# Convention : Reuss Voigt Hill
#
# Bulk Modulus (GPa) = 52.11024 63.15331 57.63178
# Shear Modulus (GPa) = 43.98782 109.08380 76.53581
#
# Velocity S-wave (km/s) = 4.10153 6.45891 5.41018
# Velocity P-wave (km/s) = 6.50837 8.93171 7.81455
#
# Compressibility (1/GPa) = 0.01919009
#
# Stress axis : x y z
#
# Youngs Moduli (GPa) = 80.32744 122.93942 81.28330
#
# Poissons Ratio (x) = 0.11513 0.28794
# Poissons Ratio (y) = 0.07523 0.19256
# Poissons Ratio (z) = 0.28455 0.29124
#
# Static dielectric constant tensor:
#      x y z
#    x 4.923850 0.000000 0.080440 
#    y 0.000000 3.911660 0.000000 
#    z 0.080440 0.000000 4.752700 
# 
# 
# High freq. dielectric constant tensor:
#      x y z
#    x 2.046340 0.000000 0.005640 
#    y 0.000000 2.072260 0.000000 
#    z 0.005640 0.000000 2.049040 
# 
# From -- ./inp_files/12445.got.cif
#   From: 2010.06.25/outbox.cif.g09.slc.cpg/sg9_7_cif.got.tgz:12445.got - 2010.06.27 21:40:51.
