data_PCOD8056534
_publ_section_title
;
Structure prediction by ZEFSAII (Michael W. Deem and Ramdas Pophale) SiO2 
 PCOD8056534
Probable space group: C C
;
_chemical_formula_sum "Si O2"
_cell_formula_units_Z 28
_cell_length_a 16.520248
_cell_length_b 6.677590
_cell_length_c 22.873001
_cell_angle_alpha 90.000000
_cell_angle_beta 151.453891
_cell_angle_gamma 90.000000
_cell_volume 1205.772696
_symmetry_space_group_name_H-M "C C"
_symmetry_group_IT_number 9
_symmetry_cell_setting 'monoclinic'
loop_
_space_group_symop_operation_xyz
x,y,z
x,-y,1/2+z
1/2+x,1/2+y,z
1/2+x,1/2-y,1/2+z
loop_
_atom_site_type_symbol
_atom_site_label
_atom_site_fract_x
_atom_site_fract_y
_atom_site_fract_z
Si Si1 0.005850 0.004064 0.514670
Si Si2 0.917175 0.543990 0.146076
Si Si3 0.525455 0.208098 0.823820
Si Si4 0.360988 0.827403 0.999341
Si Si5 0.838134 0.486369 0.790789
Si Si6 0.025931 0.921292 0.396469
Si Si7 0.233158 0.825720 0.346364
O O1 0.191200 0.060091 0.653826
O O2 0.996719 0.027676 0.439793
O O3 0.972371 0.780495 0.520253
O O4 0.868173 0.159061 0.451137
O O5 0.922948 0.395747 0.205762
O O6 0.045787 0.731029 0.229281
O O7 0.972600 0.411280 0.124312
O O8 0.726766 0.633467 0.019595
O O9 0.723669 0.172294 0.937222
O O10 0.477107 0.440094 0.809423
O O11 0.502151 0.101395 0.871577
O O12 0.242447 0.005622 0.900966
O O13 0.780279 0.553113 0.817749
O O14 0.889240 0.256305 0.813828
#
# Coordination Sequence:
#
# PCOD8056534 Si02
#       7
#     4   4   4   4   4   4   4
#     4  12  25  46  73 108 144 186 246 298 370 436
#     4  11  26  49  72 108 148 197 243 303 371 442
#     4  11  25  47  70 102 149 184 247 300 364 436
#     4  11  27  46  71 106 146 193 238 305 367 439
#     4  12  27  46  75 105 144 195 240 309 363 436
#     4  11  26  49  72 109 144 192 246 297 372 437
#     4  12  26  49  73 110 145 191 250 302 365 442
#
# _framework density 23.221625
#
# number of rings (size 3 to 8) (size 9 to 14) (size 15 to 20)
#    0.000    0.571    5.714    0.857    8.000    2.286 
#   10.286    0.000    0.000    0.000    0.000    0.000 
#    0.000    0.000    0.000    0.000    0.000    0.000 
#
# Total GULP energy -173434.187859 kJ/mol
# GULP energy per Si atom -12388.156276 kJ/mol
# Density = 2.316877 g / cm^3
# Si number density = 23.221625 Si / 1000 Ang^3
#
#
#
# Elastic Constant Matrix: (Units=GPa)
#
#
# Indices 1 2 3 4 5 6 
#
# 1 127.9851 44.1049 26.3781 -0.0001 -7.7496 0.0000
# 2 44.1049 92.8482 28.1352 -0.0004 -1.6228 -0.0003
# 3 26.3781 28.1352 70.6356 -0.0011 1.1481 -0.0001
# 4 -0.0001 -0.0004 -0.0011 30.9518 -0.0002 1.8394
# 5 -7.7496 -1.6228 1.1481 -0.0002 35.6790 0.0001
# 6 0.0000 -0.0003 -0.0001 1.8394 0.0001 44.0741
#
#
#
# Elastic Compliance Matrix: (Units=1/GPa)
#
#
# Indices 1 2 3 4 5 6 
#
# 1 0.009727 -0.003952 -0.002091 0.000000 0.002000 0.000000
# 2 -0.003952 0.013873 -0.004048 0.000000 -0.000097 0.000000
# 3 -0.002091 -0.004048 0.016570 0.000001 -0.001171 0.000000
# 4 0.000000 0.000000 0.000001 0.032389 0.000000 -0.001352
# 5 0.002000 -0.000097 -0.001171 0.000000 0.028495 0.000000
# 6 0.000000 0.000000 0.000000 -0.001352 0.000000 0.022745
#
#
# Mechanical properties :
#
#
# Convention : Reuss Voigt Hill
#
# Bulk Modulus (GPa) = 50.03252 54.30057 52.16655
# Shear Modulus (GPa) = 33.19083 34.99769 34.09426
#
# Velocity S-wave (km/s) = 3.78472 3.88637 3.83588
# Velocity P-wave (km/s) = 6.37897 6.60098 6.49092
#
# Compressibility (1/GPa) = 0.01998700
#
# Stress axis : x y z
#
# Youngs Moduli (GPa) = 102.80201 72.08426 60.35184
#
# Poissons Ratio (x) = 0.28489 0.12619
# Poissons Ratio (y) = 0.40629 0.24432
# Poissons Ratio (z) = 0.21495 0.29181
#
# Static dielectric constant tensor:
#      x y z
#    x 4.440740 0.000000 -0.046290 
#    y 0.000000 4.123890 0.000000 
#    z -0.046290 0.000000 4.022440 
# 
# 
# High freq. dielectric constant tensor:
#      x y z
#    x 1.948380 0.000000 0.000390 
#    y 0.000000 1.911680 0.000000 
#    z 0.000390 0.000000 1.904140 
# 
# From -- ./inp_files/18802.got.cif
#   From: 2010.06.25/outbox.cif.g09.slc.cpg/sg9_10_cif.got.tgz:18802.got - 2010.06.27 21:40:51.
