data_PCOD8056210
_publ_section_title
;
Structure prediction by ZEFSAII (Michael W. Deem and Ramdas Pophale) SiO2 
 PCOD8056210
Probable space group: C C
;
_chemical_formula_sum "Si O2"
_cell_formula_units_Z 32
_cell_length_a 14.759134
_cell_length_b 8.192215
_cell_length_c 11.583840
_cell_angle_alpha 90.000000
_cell_angle_beta 91.207273
_cell_angle_gamma 90.000000
_cell_volume 1400.291172
_symmetry_space_group_name_H-M "C C"
_symmetry_group_IT_number 9
_symmetry_cell_setting 'monoclinic'
loop_
_space_group_symop_operation_xyz
x,y,z
x,-y,1/2+z
1/2+x,1/2+y,z
1/2+x,1/2-y,1/2+z
loop_
_atom_site_type_symbol
_atom_site_label
_atom_site_fract_x
_atom_site_fract_y
_atom_site_fract_z
Si Si1 0.358960 0.395001 0.753810
Si Si2 0.049748 0.753017 0.748001
Si Si3 0.612182 0.181733 0.513211
Si Si4 0.721952 0.626750 0.361799
Si Si5 0.554630 0.884400 0.769641
Si Si6 0.290880 0.799680 0.452252
Si Si7 0.870164 0.255738 0.696243
Si Si8 0.195043 0.661186 0.086632
O O1 0.445911 0.280627 0.779249
O O2 0.301690 0.359715 0.869400
O O3 0.399912 0.573126 0.731530
O O4 0.295048 0.356199 0.643360
O O5 0.047082 0.751607 0.609345
O O6 0.119955 0.885531 0.804892
O O7 0.083537 0.573239 0.787215
O O8 0.557247 0.198005 0.394120
O O9 0.695062 0.304625 0.512574
O O10 0.654363 0.003891 0.534580
O O11 0.784660 0.465026 0.376274
O O12 0.778171 0.726452 0.267449
O O13 0.708579 0.707680 0.486563
O O14 0.450760 0.878360 0.728183
O O15 0.622440 0.787263 0.684229
O O16 0.362129 0.789289 0.558681
#
# Coordination Sequence:
#
# PCOD8056210 Si02
#       8
#     4   4   4   4   4   4   4   4
#     4  12  27  45  72 105 143 184 241 296 358 415
#     4  11  26  45  70 107 144 182 239 294 356 426
#     4  11  22  47  72  97 141 190 233 291 347 427
#     4  12  27  46  72 102 146 186 238 296 356 420
#     4  11  25  44  73 105 141 191 238 287 359 426
#     4  12  27  46  75 103 146 185 245 292 356 425
#     4  12  28  48  72 106 143 190 241 290 360 429
#     4  11  24  45  72  97 140 192 229 292 360 418
#
# _framework density 22.852391000000001
#
# number of rings (size 3 to 8) (size 9 to 14) (size 15 to 20)
#    0.000    0.500    5.000    2.250    8.750    2.000 
#    0.000    0.000    0.000    0.000    0.000    0.000 
#    0.000    0.000    0.000    0.000    0.000    0.000 
#
# Total GULP energy -198269.756515 kJ/mol
# GULP energy per Si atom -12391.859782 kJ/mol
# Density = 2.280038 g / cm^3
# Si number density = 22.852391 Si / 1000 Ang^3
#
#
#
# Elastic Constant Matrix: (Units=GPa)
#
#
# Indices 1 2 3 4 5 6 
#
# 1 99.6880 6.5320 26.6901 0.0000 12.2362 0.0000
# 2 6.5320 69.4129 28.4310 0.0000 5.7615 0.0000
# 3 26.6901 28.4310 139.3148 0.0000 14.9651 0.0000
# 4 0.0000 0.0000 0.0000 38.6524 0.0000 -7.5756
# 5 12.2362 5.7615 14.9651 0.0000 40.8247 0.0000
# 6 0.0000 0.0000 0.0000 -7.5756 0.0000 34.4372
#
#
#
# Elastic Compliance Matrix: (Units=1/GPa)
#
#
# Indices 1 2 3 4 5 6 
#
# 1 0.010830 -0.000075 -0.001782 0.000000 -0.002582 0.000000
# 2 -0.000075 0.015767 -0.003088 0.000000 -0.001071 0.000000
# 3 -0.001782 -0.003088 0.008375 0.000000 -0.002100 0.000000
# 4 0.000000 0.000000 0.000000 0.027037 0.000000 0.005948
# 5 -0.002582 -0.001071 -0.002100 0.000000 0.026190 0.000000
# 6 0.000000 0.000000 0.000000 0.005948 0.000000 0.030347
#
#
# Mechanical properties :
#
#
# Convention : Reuss Voigt Hill
#
# Bulk Modulus (GPa) = 39.86914 47.96909 43.91912
# Shear Modulus (GPa) = 36.55005 39.23371 37.89188
#
# Velocity S-wave (km/s) = 4.00359 4.14796 4.07641
# Velocity P-wave (km/s) = 6.23345 6.63153 6.43557
#
# Compressibility (1/GPa) = 0.02508206
#
# Stress axis : x y z
#
# Youngs Moduli (GPa) = 92.33333 63.42183 119.39875
#
# Poissons Ratio (x) = 0.00475 0.21280
# Poissons Ratio (y) = 0.00691 0.36875
# Poissons Ratio (z) = 0.16456 0.19587
#
# Static dielectric constant tensor:
#      x y z
#    x 3.935410 0.000000 0.033580 
#    y 0.000000 3.759310 0.000000 
#    z 0.033580 0.000000 4.656190 
# 
# 
# High freq. dielectric constant tensor:
#      x y z
#    x 1.907330 0.000000 0.001660 
#    y 0.000000 1.883780 0.000000 
#    z 0.001660 0.000000 1.921720 
# 
# From -- ./inp_files/17785.got.cif
#   From: 2010.06.25/outbox.cif.g09.slc.cpg/sg9_9_cif.got.tgz:17785.got - 2010.06.27 21:40:51.
