data_PCOD8056372
_publ_section_title
;
Structure prediction by ZEFSAII (Michael W. Deem and Ramdas Pophale) SiO2 
 PCOD8056372
Probable space group: C C
;
_chemical_formula_sum "Si O2"
_cell_formula_units_Z 32
_cell_length_a 18.072366
_cell_length_b 10.362018
_cell_length_c 15.912582
_cell_angle_alpha 90.000000
_cell_angle_beta 28.299373
_cell_angle_gamma 90.000000
_cell_volume 1412.701278
_symmetry_space_group_name_H-M "C C"
_symmetry_group_IT_number 9
_symmetry_cell_setting 'monoclinic'
loop_
_space_group_symop_operation_xyz
x,y,z
x,-y,1/2+z
1/2+x,1/2+y,z
1/2+x,1/2-y,1/2+z
loop_
_atom_site_type_symbol
_atom_site_label
_atom_site_fract_x
_atom_site_fract_y
_atom_site_fract_z
Si Si1 0.019170 0.864316 0.990600
Si Si2 0.478684 0.879868 0.778944
Si Si3 0.978672 0.379842 0.970416
Si Si4 0.682579 0.120135 0.766513
Si Si5 0.682598 0.879841 0.075035
Si Si6 0.142081 0.135680 0.554872
Si Si7 0.519202 0.364356 0.677755
Si Si8 0.142061 0.135638 0.867703
O O1 0.079428 0.749142 0.872070
O O2 0.080616 0.999975 0.892539
O O3 0.080628 0.841955 0.022734
O O4 0.831661 0.865744 0.177661
O O5 0.424258 0.904202 0.929099
O O6 0.581821 0.750853 0.673404
O O7 0.580618 0.000027 0.643958
O O8 0.329593 0.865756 0.867810
O O9 0.080663 0.499967 0.901482
O O10 0.081754 0.250797 0.869741
O O11 0.829573 0.365778 0.179733
O O12 0.737019 0.095808 0.616344
O O13 0.579506 0.750802 0.175722
O O14 0.831691 0.865764 0.865721
O O15 0.080631 0.000023 0.652938
O O16 0.580641 0.342003 0.522721
#
# Coordination Sequence:
#
# PCOD8056372 Si02
#       8
#     4   4   4   4   4   4   4   4
#     4  11  24  42  64  94 129 170 214 259 316 379
#     4  11  24  42  67  97 129 167 212 264 319 378
#     4  11  24  42  67  97 129 167 212 264 319 378
#     4  11  24  42  67  97 129 167 212 264 319 378
#     4  11  24  42  67  97 129 167 212 264 319 378
#     4  11  24  42  64  94 129 170 214 259 316 379
#     4  11  24  42  64  94 129 170 214 259 316 379
#     4  11  24  42  64  94 129 170 214 259 316 379
#
# _framework density 22.65164
#
# number of rings (size 3 to 8) (size 9 to 14) (size 15 to 20)
#    0.000    1.000    0.000    6.000    0.000   13.000 
#    0.000    0.000    0.000    0.000    0.000    0.000 
#    0.000    0.000    0.000    0.000    0.000    0.000 
#
# Total GULP energy -198532.482745 kJ/mol
# GULP energy per Si atom -12408.280172 kJ/mol
# Density = 2.260008 g / cm^3
# Si number density = 22.651640 Si / 1000 Ang^3
#
#
#
# Elastic Constant Matrix: (Units=GPa)
#
#
# Indices 1 2 3 4 5 6 
#
# 1 103.2545 30.5879 62.6522 0.0001 -20.1735 -0.0001
# 2 30.5879 187.8651 53.7646 0.0002 -23.6050 -0.0001
# 3 62.6522 53.7646 153.9124 0.0004 -31.4783 -0.0003
# 4 0.0001 0.0002 0.0004 37.1797 -0.0002 -13.5188
# 5 -20.1735 -23.6050 -31.4783 -0.0002 41.7269 0.0001
# 6 -0.0001 -0.0001 -0.0003 -13.5188 0.0001 23.9521
#
#
#
# Elastic Compliance Matrix: (Units=1/GPa)
#
#
# Indices 1 2 3 4 5 6 
#
# 1 0.013159 -0.000486 -0.004661 0.000000 0.002571 0.000000
# 2 -0.000486 0.006094 -0.001506 0.000000 0.002076 0.000000
# 3 -0.004661 -0.001506 0.009797 0.000000 0.004285 0.000000
# 4 0.000000 0.000000 0.000000 0.033841 0.000000 0.019100
# 5 0.002571 0.002076 0.004285 0.000000 0.029616 0.000000
# 6 0.000000 0.000000 0.000000 0.019100 0.000000 0.052530
#
#
# Mechanical properties :
#
#
# Convention : Reuss Voigt Hill
#
# Bulk Modulus (GPa) = 63.51610 82.11570 72.81590
# Shear Modulus (GPa) = 30.56375 40.44022 35.50198
#
# Velocity S-wave (km/s) = 3.67726 4.22988 3.96321
# Velocity P-wave (km/s) = 6.79198 7.75797 7.29099
#
# Compressibility (1/GPa) = 0.01574404
#
# Stress axis : x y z
#
# Youngs Moduli (GPa) = 75.99210 164.09495 102.06915
#
# Poissons Ratio (x) = 0.07968 0.47577
# Poissons Ratio (y) = 0.03690 0.15377
# Poissons Ratio (z) = 0.35422 0.24721
#
# Static dielectric constant tensor:
#      x y z
#    x 3.781810 0.000000 -0.163210 
#    y 0.000000 4.389860 0.000000 
#    z -0.163210 0.000000 3.941690 
# 
# 
# High freq. dielectric constant tensor:
#      x y z
#    x 1.887130 0.000000 -0.009160 
#    y 0.000000 1.914980 0.000000 
#    z -0.009160 0.000000 1.896090 
# 
# From -- ./inp_files/26842.got.cif
#   From: 2010.06.25/outbox.cif.g09.slc.cpg/sg9_14_cif.got.tgz:26842.got - 2010.06.27 21:40:51.
