data_PCOD8056813
_publ_section_title
;
Structure prediction by ZEFSAII (Michael W. Deem and Ramdas Pophale) SiO2 
 PCOD8056813
Probable space group: P 2/M
;
_chemical_formula_sum "Si O2"
_cell_formula_units_Z 28
_cell_length_a 21.130536
_cell_length_b 13.999425
_cell_length_c 10.596644
_cell_angle_alpha 90.000000
_cell_angle_beta 149.324243
_cell_angle_gamma 90.000000
_cell_volume 1599.232761
_symmetry_space_group_name_H-M "P 2/M"
_symmetry_group_IT_number 10
_symmetry_cell_setting 'monoclinic'
loop_
_space_group_symop_operation_xyz
x,y,z
-x,y,-z
-x,-y,-z
x,-y,z
loop_
_atom_site_type_symbol
_atom_site_label
_atom_site_fract_x
_atom_site_fract_y
_atom_site_fract_z
Si Si1 0.980175 0.887505 0.641952
Si Si2 0.609447 0.106783 0.928704
Si Si3 0.693168 0.391021 0.896518
Si Si4 0.815886 0.200655 0.142963
Si Si5 0.439383 0.607763 0.591846
Si Si6 0.227406 0.105656 0.540174
Si Si7 0.416788 0.772418 0.733603
O O1 0.901639 0.827291 0.406790
O O2 0.916667 0.871373 0.670686
O O3 0.120253 0.844621 0.874368
O O4 0.978598 0.000000 0.604541
O O5 0.482670 0.161177 0.742792
O O6 0.574637 0.000000 0.828158
O O7 0.678725 0.156816 0.929378
O O8 0.696642 0.106368 0.200028
O O9 0.744149 0.500000 0.990641
O O10 0.639000 0.367826 0.666375
O O11 0.585386 0.376888 0.815570
O O12 0.803699 0.315851 0.112513
O O13 0.414365 0.500000 0.590923
O O14 0.393172 0.670522 0.629893
O O15 0.283204 0.182304 0.539030
O O16 0.237177 0.000000 0.495665
O O17 0.500000 0.760284 0.000000
#
# Coordination Sequence:
#
# PCOD8056813 Si02
#       7
#     4   4   4   4   4   4   4
#     4   9  17  28  45  71  98 128 157 182 223 279
#     4   9  15  23  39  66  94 119 146 181 227 274
#     4   9  18  32  50  66  88 124 159 191 234 283
#     4  10  15  26  47  69  90 119 157 195 226 264
#     4   9  18  33  48  66  91 122 158 191 232 289
#     4   8  15  26  40  61  93 125 150 175 211 273
#     4  10  17  26  45  70  94 119 151 188 234 276
#
# _framework density 17.508395
#
# number of rings (size 3 to 8) (size 9 to 14) (size 15 to 20)
#    0.000    2.857    1.429    3.857    0.000    2.000 
#    0.000    1.429    0.000    7.714    0.000    4.000 
#    0.000    0.000    0.000    0.000    0.000    0.000 
#
# Total GULP energy -346969.772248 kJ/mol
# GULP energy per Si atom -12391.777580 kJ/mol
# Density = 1.746854 g / cm^3
# Si number density = 17.508395 Si / 1000 Ang^3
#
#
#
# Elastic Constant Matrix: (Units=GPa)
#
#
# Indices 1 2 3 4 5 6 
#
# 1 127.1090 71.1561 25.9896 0.0000 29.0811 0.0000
# 2 71.1561 147.4305 36.7593 0.0000 12.5862 0.0000
# 3 25.9896 36.7593 21.3480 0.0000 10.4975 0.0000
# 4 0.0000 0.0000 0.0000 8.2300 0.0000 7.7368
# 5 29.0811 12.5862 10.4975 0.0000 18.2778 0.0000
# 6 0.0000 0.0000 0.0000 7.7368 0.0000 34.2506
#
#
#
# Elastic Compliance Matrix: (Units=1/GPa)
#
#
# Indices 1 2 3 4 5 6 
#
# 1 0.016203 -0.006579 0.002858 0.000000 -0.022891 0.000000
# 2 -0.006579 0.014890 -0.024716 0.000000 0.014409 0.000000
# 3 0.002858 -0.024716 0.111192 0.000000 -0.051389 0.000000
# 4 0.000000 0.000000 0.000000 0.154265 0.000000 -0.034846
# 5 -0.022891 0.014409 -0.051389 0.000000 0.110725 0.000000
# 6 0.000000 0.000000 0.000000 -0.034846 0.000000 0.037068
#
#
# Mechanical properties :
#
#
# Convention : Reuss Voigt Hill
#
# Bulk Modulus (GPa) = 11.70794 62.63305 37.17050
# Shear Modulus (GPa) = 9.43955 22.95052 16.19504
#
# Velocity S-wave (km/s) = 2.32447 3.62447 3.04466
# Velocity P-wave (km/s) = 3.72904 7.30524 5.79967
#
# Compressibility (1/GPa) = 0.08541211
#
# Stress axis : x y z
#
# Youngs Moduli (GPa) = 61.71777 67.15713 8.99348
#
# Poissons Ratio (x) = 0.44180 -0.02571
# Poissons Ratio (y) = 0.40602 0.22228
# Poissons Ratio (z) = -0.17642 1.65987
#
# Static dielectric constant tensor:
#      x y z
#    x 3.626640 0.000000 0.440450 
#    y 0.000000 3.302160 0.000000 
#    z 0.440450 0.000000 2.801050 
# 
# 
# High freq. dielectric constant tensor:
#      x y z
#    x 1.677010 0.000000 0.022230 
#    y 0.000000 1.680050 0.000000 
#    z 0.022230 0.000000 1.616960 
# 
# From -- ./inp_files/56861.got.cif
#   From: 2010.06.25/outbox.cif.g09.slc.cpg/sg10_29_cif.got.tgz:56861.got - 2010.06.27 22:07:45.
