data_PCOD8056091
_publ_section_title
;
Structure prediction by ZEFSAII (Michael W. Deem and Ramdas Pophale) SiO2 
 PCOD8056091
Probable space group: C C
;
_chemical_formula_sum "Si O2"
_cell_formula_units_Z 28
_cell_length_a 12.971620
_cell_length_b 13.888942
_cell_length_c 9.377109
_cell_angle_alpha 90.000000
_cell_angle_beta 46.762193
_cell_angle_gamma 90.000000
_cell_volume 1230.755817
_symmetry_space_group_name_H-M "C C"
_symmetry_group_IT_number 9
_symmetry_cell_setting 'monoclinic'
loop_
_space_group_symop_operation_xyz
x,y,z
x,-y,1/2+z
1/2+x,1/2+y,z
1/2+x,1/2-y,1/2+z
loop_
_atom_site_type_symbol
_atom_site_label
_atom_site_fract_x
_atom_site_fract_y
_atom_site_fract_z
Si Si1 0.144710 0.794488 0.367240
Si Si2 0.554247 0.373149 0.942919
Si Si3 0.407180 0.190325 0.432879
Si Si4 0.738352 0.911844 0.846496
Si Si5 0.781399 0.782198 0.296673
Si Si6 0.047188 0.958578 0.652522
Si Si7 0.143811 0.438656 0.633824
O O1 0.202150 0.699897 0.392188
O O2 0.140023 0.878774 0.485382
O O3 0.992338 0.772885 0.440071
O O4 0.254014 0.827632 0.143310
O O5 0.665977 0.284704 0.826306
O O6 0.580244 0.448325 0.788934
O O7 0.390084 0.336567 0.086417
O O8 0.581579 0.433592 0.063310
O O9 0.390748 0.219654 0.284965
O O10 0.494437 0.090915 0.346733
O O11 0.743834 0.951389 0.678338
O O12 0.884447 0.937503 0.780358
O O13 0.624325 0.966510 0.056376
O O14 0.702461 0.853836 0.478868
#
# Coordination Sequence:
#
# PCOD8056091 Si02
#       7
#     4   4   4   4   4   4   4
#     4  11  23  43  73 103 144 191 243 297 359 430
#     4  12  30  45  80 102 153 184 252 294 372 423
#     4  11  21  43  73 100 141 187 241 289 364 423
#     4  11  23  42  71 103 142 195 236 293 358 445
#     4  12  23  46  72 107 137 195 235 305 347 440
#     4  12  27  47  73 109 144 195 244 303 360 443
#     4  11  23  40  72 104 139 185 247 287 358 430
#
# _framework density 22.750249
#
# number of rings (size 3 to 8) (size 9 to 14) (size 15 to 20)
#    0.000    0.571    7.143    0.857    6.000    0.000 
#    5.143    0.000    0.000    0.000    0.000    0.000 
#    0.000    0.000    0.000    0.000    0.000    0.000 
#
# Total GULP energy -173580.162818 kJ/mol
# GULP energy per Si atom -12398.583058 kJ/mol
# Density = 2.269847 g / cm^3
# Si number density = 22.750249 Si / 1000 Ang^3
#
#
#
# Elastic Constant Matrix: (Units=GPa)
#
#
# Indices 1 2 3 4 5 6 
#
# 1 66.1409 18.3156 22.4722 0.0000 4.7345 0.0000
# 2 18.3156 102.5264 45.2228 0.0000 2.7240 0.0000
# 3 22.4722 45.2228 98.9214 0.0000 1.9585 0.0000
# 4 0.0000 0.0000 0.0000 46.3930 0.0000 10.7678
# 5 4.7345 2.7240 1.9585 0.0000 27.6691 0.0000
# 6 0.0000 0.0000 0.0000 10.7678 0.0000 26.1393
#
#
#
# Elastic Compliance Matrix: (Units=1/GPa)
#
#
# Indices 1 2 3 4 5 6 
#
# 1 0.016769 -0.001592 -0.003032 0.000000 -0.002498 0.000000
# 2 -0.001592 0.012386 -0.005290 0.000000 -0.000573 0.000000
# 3 -0.003032 -0.005290 0.013214 0.000000 0.000104 0.000000
# 4 0.000000 0.000000 0.000000 0.023834 0.000000 -0.009818
# 5 -0.002498 -0.000573 0.000104 0.000000 0.036618 0.000000
# 6 0.000000 0.000000 0.000000 -0.009818 0.000000 0.042301
#
#
# Mechanical properties :
#
#
# Convention : Reuss Voigt Hill
#
# Bulk Modulus (GPa) = 44.36151 48.84555 46.60353
# Shear Modulus (GPa) = 28.99167 32.14549 30.56858
#
# Velocity S-wave (km/s) = 3.57367 3.76303 3.66957
# Velocity P-wave (km/s) = 6.04730 6.35590 6.20352
#
# Compressibility (1/GPa) = 0.02254206
#
# Stress axis : x y z
#
# Youngs Moduli (GPa) = 59.63344 80.73435 75.67734
#
# Poissons Ratio (x) = 0.12851 0.22948
# Poissons Ratio (y) = 0.09492 0.40030
# Poissons Ratio (z) = 0.18083 0.42705
#
# Static dielectric constant tensor:
#      x y z
#    x 4.007470 0.000000 0.118080 
#    y 0.000000 4.354590 0.000000 
#    z 0.118080 0.000000 4.316600 
# 
# 
# High freq. dielectric constant tensor:
#      x y z
#    x 1.887750 0.000000 -0.000030 
#    y 0.000000 1.893950 0.000000 
#    z -0.000030 0.000000 1.901040 
# 
# From -- ./inp_files/9635.got.cif
#   From: 2010.06.25/outbox.cif.g09.slc.cpg/sg9_5_cif.got.tgz:9635.got - 2010.06.27 21:40:51.
