data_PCOD8056306
_publ_section_title
;
Structure prediction by ZEFSAII (Michael W. Deem and Ramdas Pophale) SiO2 
 PCOD8056306
Probable space group: C C
;
_chemical_formula_sum "Si O2"
_cell_formula_units_Z 32
_cell_length_a 6.391444
_cell_length_b 17.351266
_cell_length_c 14.474938
_cell_angle_alpha 90.000000
_cell_angle_beta 116.204016
_cell_angle_gamma 90.000000
_cell_volume 1440.288212
_symmetry_space_group_name_H-M "C C"
_symmetry_group_IT_number 9
_symmetry_cell_setting 'monoclinic'
loop_
_space_group_symop_operation_xyz
x,y,z
x,-y,1/2+z
1/2+x,1/2+y,z
1/2+x,1/2-y,1/2+z
loop_
_atom_site_type_symbol
_atom_site_label
_atom_site_fract_x
_atom_site_fract_y
_atom_site_fract_z
Si Si1 0.712580 0.073297 0.350180
Si Si2 0.871642 0.079013 0.179560
Si Si3 0.910133 0.920972 0.179563
Si Si4 0.910441 0.426698 0.350179
Si Si5 0.294870 0.170483 0.211732
Si Si6 0.545897 0.666609 0.537324
Si Si7 0.951406 0.333396 0.537323
Si Si8 0.051250 0.329505 0.211740
O O1 0.814216 0.050232 0.271535
O O2 0.545387 0.148665 0.304484
O O3 0.941302 0.100556 0.451663
O O4 0.583233 0.999997 0.371897
O O5 0.717416 0.151292 0.119306
O O6 0.136686 0.102095 0.218224
O O7 0.822931 0.999991 0.111628
O O8 0.722468 0.897878 0.218249
O O9 0.151519 0.949764 0.271524
O O10 0.943840 0.848695 0.119304
O O11 0.884668 0.399446 0.451659
O O12 0.986246 0.351327 0.304492
O O13 0.292966 0.167199 0.098985
O O14 0.194745 0.249989 0.233446
O O15 0.449821 0.750003 0.488481
O O16 0.827665 0.667197 0.598992
#
# Coordination Sequence:
#
# PCOD8056306 Si02
#       8
#     4   4   4   4   4   4   4   4
#     4  11  25  45  69 105 136 179 234 282 342 415
#     4  11  23  46  69  98 138 180 225 284 345 408
#     4  11  23  46  69  98 138 180 225 284 345 408
#     4  11  25  45  69 105 136 179 234 282 342 415
#     4  11  24  46  71  97 140 184 225 285 346 403
#     4  11  25  42  68 103 139 174 235 284 341 414
#     4  11  25  42  68 103 139 174 235 284 341 414
#     4  11  24  46  71  97 140 184 225 285 346 403
#
# _framework density 22.217776000000001
#
# number of rings (size 3 to 8) (size 9 to 14) (size 15 to 20)
#    0.000    1.000    5.000    0.750    3.500    2.000 
#    4.500    0.000    0.000    0.000    0.000    0.000 
#    0.000    0.000    0.000    0.000    0.000    0.000 
#
# Total GULP energy -198243.679802 kJ/mol
# GULP energy per Si atom -12390.229988 kJ/mol
# Density = 2.216721 g / cm^3
# Si number density = 22.217776 Si / 1000 Ang^3
#
#
#
# Elastic Constant Matrix: (Units=GPa)
#
#
# Indices 1 2 3 4 5 6 
#
# 1 101.4627 46.3240 18.8754 0.0000 -1.7447 0.0000
# 2 46.3240 143.7939 35.7485 0.0000 -0.3572 0.0000
# 3 18.8754 35.7485 78.6775 0.0000 0.9826 0.0000
# 4 0.0000 0.0000 0.0000 25.9641 0.0000 -0.5574
# 5 -1.7447 -0.3572 0.9826 0.0000 15.1596 0.0000
# 6 0.0000 0.0000 0.0000 -0.5574 0.0000 42.7900
#
#
#
# Elastic Compliance Matrix: (Units=1/GPa)
#
#
# Indices 1 2 3 4 5 6 
#
# 1 0.011687 -0.003450 -0.001253 0.000000 0.001345 0.000000
# 2 -0.003450 0.008861 -0.003199 0.000000 0.000019 0.000000
# 3 -0.001253 -0.003199 0.014479 0.000000 -0.001158 0.000000
# 4 0.000000 0.000000 0.000000 0.038525 0.000000 0.000502
# 5 0.001345 0.000019 -0.001158 0.000000 0.066195 0.000000
# 6 0.000000 0.000000 0.000000 0.000502 0.000000 0.023376
#
#
# Mechanical properties :
#
#
# Convention : Reuss Voigt Hill
#
# Bulk Modulus (GPa) = 52.02075 58.42555 55.22315
# Shear Modulus (GPa) = 26.97806 31.64849 29.31328
#
# Velocity S-wave (km/s) = 3.48840 3.77831 3.63624
# Velocity P-wave (km/s) = 6.30001 6.73706 6.52219
#
# Compressibility (1/GPa) = 0.01922310
#
# Stress axis : x y z
#
# Youngs Moduli (GPa) = 85.56270 112.85143 69.06761
#
# Poissons Ratio (x) = 0.38937 0.08654
# Poissons Ratio (y) = 0.29522 0.22093
# Poissons Ratio (z) = 0.10721 0.36098
#
# Static dielectric constant tensor:
#      x y z
#    x 4.091230 0.000000 -0.012420 
#    y 0.000000 3.953150 0.000000 
#    z -0.012420 0.000000 3.718020 
# 
# 
# High freq. dielectric constant tensor:
#      x y z
#    x 1.885790 0.000000 -0.001210 
#    y 0.000000 1.896000 0.000000 
#    z -0.001210 0.000000 1.849430 
# 
# From -- ./inp_files/21930.got.cif
#   From: 2010.06.25/outbox.cif.g09.slc.cpg/sg9_11_cif.got.tgz:21930.got - 2010.06.27 21:40:51.
