data_PCOD8056391
_publ_section_title
;
Structure prediction by ZEFSAII (Michael W. Deem and Ramdas Pophale) SiO2 
 PCOD8056391
Probable space group: C C
;
_chemical_formula_sum "Si O2"
_cell_formula_units_Z 32
_cell_length_a 18.949981
_cell_length_b 15.266903
_cell_length_c 5.107285
_cell_angle_alpha 90.000000
_cell_angle_beta 64.045437
_cell_angle_gamma 90.000000
_cell_volume 1328.549727
_symmetry_space_group_name_H-M "C C"
_symmetry_group_IT_number 9
_symmetry_cell_setting 'monoclinic'
loop_
_space_group_symop_operation_xyz
x,y,z
x,-y,1/2+z
1/2+x,1/2+y,z
1/2+x,1/2-y,1/2+z
loop_
_atom_site_type_symbol
_atom_site_label
_atom_site_fract_x
_atom_site_fract_y
_atom_site_fract_z
Si Si1 0.134370 0.277997 0.545920
Si Si2 0.964680 0.298529 0.734607
Si Si3 0.338641 0.146782 0.831417
Si Si4 0.234672 0.557275 0.791801
Si Si5 0.382406 0.674035 0.515531
Si Si6 0.018586 0.941533 0.649802
Si Si7 0.460857 0.948095 0.390435
Si Si8 0.168753 0.170981 0.971408
O O1 0.163835 0.375374 0.443115
O O2 0.143680 0.216901 0.279044
O O3 0.042379 0.278034 0.775222
O O4 0.181737 0.240191 0.716203
O O5 0.922712 0.208994 0.716007
O O6 0.994101 0.352978 0.426754
O O7 0.903507 0.359571 0.992967
O O8 0.339199 0.246647 0.935766
O O9 0.366853 0.074722 0.002533
O O10 0.252061 0.122434 0.875793
O O11 0.227124 0.520631 0.511426
O O12 0.318263 0.602994 0.699639
O O13 0.450336 0.631265 0.225576
O O14 0.104570 0.899412 0.486003
O O15 0.008247 0.015107 0.449275
O O16 0.489368 0.982593 0.063049
#
# Coordination Sequence:
#
# PCOD8056391 Si02
#       8
#     4   4   4   4   4   4   4   4
#     4  12  26  48  74 102 147 192 243 293 355 440
#     4  11  25  44  78 107 139 196 247 294 367 441
#     4  11  25  44  78 107 139 196 247 294 367 441
#     4  12  27  47  71 109 145 189 235 299 367 422
#     4  11  24  44  74 107 146 188 244 291 362 440
#     4  12  27  47  71 109 145 189 235 299 367 422
#     4  11  24  44  66 103 142 182 240 305 360 416
#     4  12  26  48  74 102 147 192 243 293 355 440
#
# _framework density 24.086414000000001
#
# number of rings (size 3 to 8) (size 9 to 14) (size 15 to 20)
#    0.000    0.500    3.750    3.750    7.000    2.000 
#    0.000    0.000    0.000    0.000    0.000    0.000 
#    0.000    0.000    0.000    0.000    0.000    0.000 
#
# Total GULP energy -198385.932737 kJ/mol
# GULP energy per Si atom -12399.120796 kJ/mol
# Density = 2.403159 g / cm^3
# Si number density = 24.086414 Si / 1000 Ang^3
#
#
#
# Elastic Constant Matrix: (Units=GPa)
#
#
# Indices 1 2 3 4 5 6 
#
# 1 90.1501 -13.0604 14.6414 0.0000 -3.9430 0.0000
# 2 -13.0604 29.6063 10.4182 0.0000 3.5322 0.0000
# 3 14.6414 10.4182 92.6340 0.0000 10.6957 0.0000
# 4 0.0000 0.0000 0.0000 46.8979 0.0000 -1.7267
# 5 -3.9430 3.5322 10.6957 0.0000 34.0132 0.0000
# 6 0.0000 0.0000 0.0000 -1.7267 0.0000 24.5303
#
#
#
# Elastic Compliance Matrix: (Units=1/GPa)
#
#
# Indices 1 2 3 4 5 6 
#
# 1 0.012559 0.006356 -0.002897 0.000000 0.001707 0.000000
# 2 0.006356 0.038591 -0.005154 0.000000 -0.001650 0.000000
# 3 -0.002897 -0.005154 0.012255 0.000000 -0.003654 0.000000
# 4 0.000000 0.000000 0.000000 0.021378 0.000000 0.001505
# 5 0.001707 -0.001650 -0.003654 0.000000 0.030919 0.000000
# 6 0.000000 0.000000 0.000000 0.001505 0.000000 0.040872
#
#
# Mechanical properties :
#
#
# Convention : Reuss Voigt Hill
#
# Bulk Modulus (GPa) = 16.66294 26.26543 21.46418
# Shear Modulus (GPa) = 27.78272 34.44770 31.11521
#
# Velocity S-wave (km/s) = 3.39995 3.78586 3.59808
# Velocity P-wave (km/s) = 4.72714 5.48076 5.11784
#
# Compressibility (1/GPa) = 0.06001343
#
# Stress axis : x y z
#
# Youngs Moduli (GPa) = 79.62719 25.91286 81.60186
#
# Poissons Ratio (x) = -0.16470 0.23639
# Poissons Ratio (y) = -0.50609 0.42059
# Poissons Ratio (z) = 0.23067 0.13356
#
# Static dielectric constant tensor:
#      x y z
#    x 4.478900 0.000000 0.147350 
#    y 0.000000 4.415760 0.000000 
#    z 0.147350 0.000000 4.201440 
# 
# 
# High freq. dielectric constant tensor:
#      x y z
#    x 1.965470 0.000000 0.014370 
#    y 0.000000 1.961830 0.000000 
#    z 0.014370 0.000000 1.947920 
# 
# From -- ./inp_files/2969.got.cif
#   From: 2010.06.25/outbox.cif.g09.slc.cpg/sg9_2_cif.got.tgz:2969.got - 2010.06.27 21:40:51.
