data_PCOD8056475
_publ_section_title
;
Structure prediction by ZEFSAII (Michael W. Deem and Ramdas Pophale) SiO2 
 PCOD8056475
Probable space group: C C
;
_chemical_formula_sum "Si O2"
_cell_formula_units_Z 24
_cell_length_a 21.446584
_cell_length_b 9.582526
_cell_length_c 13.624751
_cell_angle_alpha 90.000000
_cell_angle_beta 158.981462
_cell_angle_gamma 90.000000
_cell_volume 1004.296037
_symmetry_space_group_name_H-M "C C"
_symmetry_group_IT_number 9
_symmetry_cell_setting 'monoclinic'
loop_
_space_group_symop_operation_xyz
x,y,z
x,-y,1/2+z
1/2+x,1/2+y,z
1/2+x,1/2-y,1/2+z
loop_
_atom_site_type_symbol
_atom_site_label
_atom_site_fract_x
_atom_site_fract_y
_atom_site_fract_z
Si Si1 0.049220 0.845255 0.618720
Si Si2 0.119834 0.994507 0.531021
Si Si3 0.502805 0.388557 0.165929
Si Si4 0.989747 0.431507 0.117299
Si Si5 0.950010 0.703978 0.756625
Si Si6 0.641534 0.838554 0.725273
O O1 0.025081 0.896964 0.472262
O O2 0.946589 0.701589 0.484955
O O3 0.246233 0.807198 0.938746
O O4 0.964597 0.959293 0.565774
O O5 0.314117 0.025351 0.857053
O O6 0.127682 0.905179 0.442962
O O7 0.016445 0.137173 0.360355
O O8 0.599931 0.300282 0.225282
O O9 0.324093 0.318021 0.938806
O O10 0.044592 0.379792 0.306735
O O11 0.144948 0.527650 0.302780
O O12 0.995215 0.633076 0.927132
#
# Coordination Sequence:
#
# PCOD8056475 Si02
#       6
#     4   4   4   4   4   4
#     4  11  25  46  77 109 149 206 260 308 386 458
#     4  11  24  47  74 109 152 198 259 317 378 457
#     4  12  27  47  73 111 158 200 260 313 385 458
#     4  11  26  45  75 113 147 201 257 317 387 452
#     4  11  24  48  79 103 154 205 251 318 387 450
#     4  12  28  45  76 113 152 204 257 317 385 457
#
# _framework density 23.897337
#
# number of rings (size 3 to 8) (size 9 to 14) (size 15 to 20)
#    0.000    0.667    3.333    3.000    9.333    2.667 
#    0.000    0.000    0.000    0.000    0.000    0.000 
#    0.000    0.000    0.000    0.000    0.000    0.000 
#
# Total GULP energy -148809.348220 kJ/mol
# GULP energy per Si atom -12400.779018 kJ/mol
# Density = 2.384295 g / cm^3
# Si number density = 23.897337 Si / 1000 Ang^3
#
#
#
# Elastic Constant Matrix: (Units=GPa)
#
#
# Indices 1 2 3 4 5 6 
#
# 1 128.4133 39.8930 30.7151 0.0000 -14.1889 0.0000
# 2 39.8930 126.5830 27.1000 0.0000 1.8044 0.0000
# 3 30.7151 27.1000 75.1944 0.0000 -7.3350 0.0000
# 4 0.0000 0.0000 0.0000 34.4618 0.0000 -0.5335
# 5 -14.1889 1.8044 -7.3350 0.0000 48.7006 0.0000
# 6 0.0000 0.0000 0.0000 -0.5335 0.0000 57.5246
#
#
#
# Elastic Compliance Matrix: (Units=1/GPa)
#
#
# Indices 1 2 3 4 5 6 
#
# 1 0.009470 -0.002429 -0.002755 0.000000 0.002434 0.000000
# 2 -0.002429 0.009214 -0.002467 0.000000 -0.001421 0.000000
# 3 -0.002755 -0.002467 0.015471 0.000000 0.001619 0.000000
# 4 0.000000 0.000000 0.000000 0.029022 0.000000 0.000269
# 5 0.002434 -0.001421 0.001619 0.000000 0.021539 0.000000
# 6 0.000000 0.000000 0.000000 0.000269 0.000000 0.017386
#
#
# Mechanical properties :
#
#
# Convention : Reuss Voigt Hill
#
# Bulk Modulus (GPa) = 53.04438 58.40075 55.72256
# Shear Modulus (GPa) = 40.42361 43.63623 42.02992
#
# Velocity S-wave (km/s) = 4.11731 4.27779 4.19832
# Velocity P-wave (km/s) = 6.69686 6.99218 6.84611
#
# Compressibility (1/GPa) = 0.01885214
#
# Stress axis : x y z
#
# Youngs Moduli (GPa) = 105.59601 108.53091 64.63559
#
# Poissons Ratio (x) = 0.26366 0.17809
# Poissons Ratio (y) = 0.25653 0.15945
# Poissons Ratio (z) = 0.29095 0.26774
#
# Static dielectric constant tensor:
#      x y z
#    x 4.679100 0.000000 -0.192460 
#    y 0.000000 4.310770 0.000000 
#    z -0.192460 0.000000 4.027240 
# 
# 
# High freq. dielectric constant tensor:
#      x y z
#    x 1.970960 0.000000 -0.006260 
#    y 0.000000 1.953140 0.000000 
#    z -0.006260 0.000000 1.930150 
# 
# From -- ./inp_files/21448.got.cif
#   From: 2010.06.25/outbox.cif.g09.slc.cpg/sg9_11_cif.got.tgz:21448.got - 2010.06.27 21:40:51.
