data_PCOD8056744
_publ_section_title
;
Structure prediction by ZEFSAII (Michael W. Deem and Ramdas Pophale) SiO2 
 PCOD8056744
Probable space group: C C
;
_chemical_formula_sum "Si O2"
_cell_formula_units_Z 24
_cell_length_a 6.242369
_cell_length_b 17.657786
_cell_length_c 8.919857
_cell_angle_alpha 90.000000
_cell_angle_beta 89.294918
_cell_angle_gamma 90.000000
_cell_volume 983.129422
_symmetry_space_group_name_H-M "C C"
_symmetry_group_IT_number 9
_symmetry_cell_setting 'monoclinic'
loop_
_space_group_symop_operation_xyz
x,y,z
x,-y,1/2+z
1/2+x,1/2+y,z
1/2+x,1/2-y,1/2+z
loop_
_atom_site_type_symbol
_atom_site_label
_atom_site_fract_x
_atom_site_fract_y
_atom_site_fract_z
Si Si1 0.482650 0.084370 0.168050
Si Si2 0.371853 0.501317 0.275582
Si Si3 0.292024 0.185080 0.661866
Si Si4 0.654097 0.534007 0.529733
Si Si5 0.432120 0.775705 0.846923
Si Si6 0.641735 0.857563 0.368914
O O1 0.361520 0.141784 0.282053
O O2 0.658258 0.051529 0.284004
O O3 0.355488 0.017779 0.080781
O O4 0.587760 0.139364 0.044580
O O5 0.593123 0.529878 0.354391
O O6 0.436148 0.500260 0.101281
O O7 0.324056 0.418048 0.334507
O O8 0.155599 0.121666 0.576549
O O9 0.444664 0.223067 0.530882
O O10 0.147752 0.243517 0.762770
O O11 0.427816 0.133152 0.774283
O O12 0.229541 0.723373 0.816259
#
# Coordination Sequence:
#
# PCOD8056744 Si02
#       6
#     4   4   4   4   4   4
#     4  12  28  50  77 114 149 201 259 318 376 456
#     4  12  26  46  78 112 150 193 259 315 382 446
#     4  12  28  49  78 113 155 204 254 315 386 458
#     4  12  26  47  79 111 149 199 254 317 378 455
#     4  12  29  49  75 114 154 205 253 315 386 459
#     4  12  27  49  75 110 157 200 251 322 380 456
#
# _framework density 24.411845
#
# number of rings (size 3 to 8) (size 9 to 14) (size 15 to 20)
#    0.000    0.000    6.667    2.000    7.000    2.667 
#    0.000    0.000    0.000    0.000    0.000    0.000 
#    0.000    0.000    0.000    0.000    0.000    0.000 
#
# Total GULP energy -148658.894558 kJ/mol
# GULP energy per Si atom -12388.241213 kJ/mol
# Density = 2.435628 g / cm^3
# Si number density = 24.411845 Si / 1000 Ang^3
#
#
#
# Elastic Constant Matrix: (Units=GPa)
#
#
# Indices 1 2 3 4 5 6 
#
# 1 75.3953 32.6109 38.9884 0.0000 4.9877 0.0000
# 2 32.6109 108.5195 30.9239 0.0000 5.5230 0.0000
# 3 38.9884 30.9239 120.2840 0.0000 -3.4478 0.0000
# 4 0.0000 0.0000 0.0000 36.3732 0.0000 2.8872
# 5 4.9877 5.5230 -3.4478 0.0000 59.3489 0.0000
# 6 0.0000 0.0000 0.0000 2.8872 0.0000 40.4162
#
#
#
# Elastic Compliance Matrix: (Units=1/GPa)
#
#
# Indices 1 2 3 4 5 6 
#
# 1 0.017448 -0.003830 -0.004710 0.000000 -0.001383 0.000000
# 2 -0.003830 0.010853 -0.001571 0.000000 -0.000779 0.000000
# 3 -0.004710 -0.001571 0.010277 0.000000 0.001139 0.000000
# 4 0.000000 0.000000 0.000000 0.027650 0.000000 -0.001975
# 5 -0.001383 -0.000779 0.001139 0.000000 0.017104 0.000000
# 6 0.000000 0.000000 0.000000 -0.001975 0.000000 0.024884
#
#
# Mechanical properties :
#
#
# Convention : Reuss Voigt Hill
#
# Bulk Modulus (GPa) = 54.48302 56.58279 55.53291
# Shear Modulus (GPa) = 37.15891 40.67268 38.91579
#
# Velocity S-wave (km/s) = 3.90573 4.08622 3.99699
# Velocity P-wave (km/s) = 6.53501 6.74475 6.64071
#
# Compressibility (1/GPa) = 0.01835434
#
# Stress axis : x y z
#
# Youngs Moduli (GPa) = 57.31475 92.13732 97.30484
#
# Poissons Ratio (x) = 0.35293 0.45833
# Poissons Ratio (y) = 0.21954 0.15287
# Poissons Ratio (z) = 0.26997 0.14475
#
# Static dielectric constant tensor:
#      x y z
#    x 4.121130 0.000000 -0.377650 
#    y 0.000000 4.291580 0.000000 
#    z -0.377650 0.000000 4.578680 
# 
# 
# High freq. dielectric constant tensor:
#      x y z
#    x 1.959320 0.000000 -0.019010 
#    y 0.000000 1.977970 0.000000 
#    z -0.019010 0.000000 1.989540 
# 
# From -- ./inp_files/3676.got.cif
#   From: 2010.06.25/outbox.cif.g09.slc.cpg/sg9_2_cif.got.tgz:3676.got - 2010.06.27 21:40:51.
