data_PCOD8056610
_publ_section_title
;
Structure prediction by ZEFSAII (Michael W. Deem and Ramdas Pophale) SiO2 
 PCOD8056610
Probable space group: C C
;
_chemical_formula_sum "Si O2"
_cell_formula_units_Z 28
_cell_length_a 14.072673
_cell_length_b 13.429008
_cell_length_c 9.249794
_cell_angle_alpha 90.000000
_cell_angle_beta 40.491674
_cell_angle_gamma 90.000000
_cell_volume 1135.071195
_symmetry_space_group_name_H-M "C C"
_symmetry_group_IT_number 9
_symmetry_cell_setting 'monoclinic'
loop_
_space_group_symop_operation_xyz
x,y,z
x,-y,1/2+z
1/2+x,1/2+y,z
1/2+x,1/2-y,1/2+z
loop_
_atom_site_type_symbol
_atom_site_label
_atom_site_fract_x
_atom_site_fract_y
_atom_site_fract_z
Si Si1 0.575820 0.832602 0.409690
Si Si2 0.774965 0.721290 0.352883
Si Si3 0.728222 0.815772 0.943625
Si Si4 0.602579 0.056179 0.342899
Si Si5 0.404148 0.474796 0.892266
Si Si6 0.104853 0.956307 0.925131
Si Si7 0.303382 0.146743 0.633254
O O1 0.701556 0.824392 0.387465
O O2 0.444137 0.766548 0.620780
O O3 0.533523 0.948043 0.452336
O O4 0.627815 0.786611 0.196356
O O5 0.709906 0.638204 0.318481
O O6 0.747679 0.702861 0.554092
O O7 0.628992 0.887433 0.961461
O O8 0.868831 0.876193 0.839673
O O9 0.786570 0.719856 0.789976
O O10 0.473736 0.116644 0.409296
O O11 0.757068 0.042292 0.080686
O O12 0.473811 0.442158 0.963118
O O13 0.527810 0.537161 0.669514
O O14 0.203234 0.051798 0.776285
#
# Coordination Sequence:
#
# PCOD8056610 Si02
#       7
#     4   4   4   4   4   4   4
#     4  11  30  49  78 118 162 211 260 341 402 482
#     4  12  30  49  79 118 164 207 272 335 408 476
#     4  11  29  47  83 116 157 209 271 327 402 485
#     4  11  27  50  82 112 162 207 273 325 402 474
#     4  11  26  49  78 115 155 207 260 335 397 476
#     4  12  26  50  80 115 158 207 270 332 402 475
#     4  12  30  50  82 116 162 212 272 329 403 482
#
# _framework density 24.668057000000001
#
# number of rings (size 3 to 8) (size 9 to 14) (size 15 to 20)
#    0.000    0.571    4.286    0.000   16.000    1.143 
#    0.000    0.000    0.000    0.000    0.000    0.000 
#    0.000    0.000    0.000    0.000    0.000    0.000 
#
# Total GULP energy -173610.031801 kJ/mol
# GULP energy per Si atom -12400.716557 kJ/mol
# Density = 2.461191 g / cm^3
# Si number density = 24.668057 Si / 1000 Ang^3
#
#
#
# Elastic Constant Matrix: (Units=GPa)
#
#
# Indices 1 2 3 4 5 6 
#
# 1 125.1243 26.3683 31.2078 0.0000 5.1991 0.0000
# 2 26.3683 67.2017 12.5868 0.0000 10.3163 0.0000
# 3 31.2078 12.5868 108.6961 0.0000 -3.9908 0.0000
# 4 0.0000 0.0000 0.0000 30.3411 0.0000 0.9618
# 5 5.1991 10.3163 -3.9908 0.0000 38.7616 0.0000
# 6 0.0000 0.0000 0.0000 0.9618 0.0000 51.3119
#
#
#
# Elastic Compliance Matrix: (Units=1/GPa)
#
#
# Indices 1 2 3 4 5 6 
#
# 1 0.009250 -0.003094 -0.002322 0.000000 -0.000656 0.000000
# 2 -0.003094 0.016975 -0.001233 0.000000 -0.004230 0.000000
# 3 -0.002322 -0.001233 0.010071 0.000000 0.001676 0.000000
# 4 0.000000 0.000000 0.000000 0.032978 0.000000 -0.000618
# 5 -0.000656 -0.004230 0.001676 0.000000 0.027185 0.000000
# 6 0.000000 0.000000 0.000000 -0.000618 0.000000 0.019500
#
#
# Mechanical properties :
#
#
# Convention : Reuss Voigt Hill
#
# Bulk Modulus (GPa) = 43.47952 49.03864 46.25908
# Shear Modulus (GPa) = 36.51696 39.47353 37.99525
#
# Velocity S-wave (km/s) = 3.85168 4.00457 3.92887
# Velocity P-wave (km/s) = 6.11921 6.42688 6.27493
#
# Compressibility (1/GPa) = 0.02299934
#
# Stress axis : x y z
#
# Youngs Moduli (GPa) = 108.10323 58.91093 99.29664
#
# Poissons Ratio (x) = 0.18227 0.23054
# Poissons Ratio (y) = 0.33447 0.12239
# Poissons Ratio (z) = 0.25098 0.07261
#
# Static dielectric constant tensor:
#      x y z
#    x 4.690160 0.000000 -0.028780 
#    y 0.000000 4.389580 0.000000 
#    z -0.028780 0.000000 4.320670 
# 
# 
# High freq. dielectric constant tensor:
#      x y z
#    x 1.998240 0.000000 -0.003210 
#    y 0.000000 1.983350 0.000000 
#    z -0.003210 0.000000 1.985510 
# 
# From -- ./inp_files/9633.got.cif
#   From: 2010.06.25/outbox.cif.g09.slc.cpg/sg9_5_cif.got.tgz:9633.got - 2010.06.27 21:40:51.
