data_PCOD8056680
_publ_section_title
;
Structure prediction by ZEFSAII (Michael W. Deem and Ramdas Pophale) SiO2 
 PCOD8056680
Probable space group: C C
;
_chemical_formula_sum "Si O2"
_cell_formula_units_Z 28
_cell_length_a 12.104247
_cell_length_b 8.495694
_cell_length_c 13.379949
_cell_angle_alpha 90.000000
_cell_angle_beta 50.007812
_cell_angle_gamma 90.000000
_cell_volume 1054.131383
_symmetry_space_group_name_H-M "C C"
_symmetry_group_IT_number 9
_symmetry_cell_setting 'monoclinic'
loop_
_space_group_symop_operation_xyz
x,y,z
x,-y,1/2+z
1/2+x,1/2+y,z
1/2+x,1/2-y,1/2+z
loop_
_atom_site_type_symbol
_atom_site_label
_atom_site_fract_x
_atom_site_fract_y
_atom_site_fract_z
Si Si1 0.344900 0.084688 0.008420
Si Si2 0.967559 0.400426 0.101760
Si Si3 0.696394 0.098681 0.822704
Si Si4 0.585111 0.737338 0.209357
Si Si5 0.921919 0.936694 0.546632
Si Si6 0.318158 0.413806 0.918886
Si Si7 0.744839 0.563486 0.372958
O O1 0.205348 0.104547 0.165076
O O2 0.480215 0.037127 0.004539
O O3 0.315718 0.260182 0.987934
O O4 0.313582 0.954194 0.943406
O O5 0.916586 0.246905 0.073319
O O6 0.837985 0.452376 0.247695
O O7 0.101636 0.358612 0.101707
O O8 0.561408 0.150244 0.824547
O O9 0.758144 0.253455 0.839173
O O10 0.813637 0.038997 0.676425
O O11 0.683995 0.967108 0.921745
O O12 0.443787 0.634328 0.265653
O O13 0.869506 0.946323 0.461807
O O14 0.080922 0.005965 0.468384
#
# Coordination Sequence:
#
# PCOD8056680 Si02
#       7
#     4   4   4   4   4   4   4
#     4  12  24  47  71 105 152 195 250 310 379 451
#     4  12  25  47  73 111 149 198 259 310 378 457
#     4  12  25  47  73 111 149 198 259 310 378 457
#     4  12  24  46  76 104 154 192 256 312 362 456
#     4  12  24  47  75 109 155 203 248 321 379 448
#     4  12  24  47  71 105 152 195 250 310 379 451
#     4  12  24  47  75 109 155 203 248 321 379 448
#
# _framework density 26.562154
#
# number of rings (size 3 to 8) (size 9 to 14) (size 15 to 20)
#    0.000    0.000    8.571    0.857    0.000    1.143 
#    5.143    1.429    0.000    0.000    0.000    0.000 
#    0.000    0.000    0.000    0.000    0.000    0.000 
#
# Total GULP energy -173443.647903 kJ/mol
# GULP energy per Si atom -12388.831993 kJ/mol
# Density = 2.650170 g / cm^3
# Si number density = 26.562154 Si / 1000 Ang^3
#
#
#
# Elastic Constant Matrix: (Units=GPa)
#
#
# Indices 1 2 3 4 5 6 
#
# 1 262.0880 78.7890 81.3964 0.0000 12.3883 0.0000
# 2 78.7890 154.8152 67.5167 0.0000 15.8289 0.0000
# 3 81.3964 67.5167 119.8049 0.0000 24.6688 0.0000
# 4 0.0000 0.0000 0.0000 36.7556 0.0000 22.9620
# 5 12.3883 15.8289 24.6688 0.0000 43.7734 0.0000
# 6 0.0000 0.0000 0.0000 22.9620 0.0000 45.5842
#
#
#
# Elastic Compliance Matrix: (Units=1/GPa)
#
#
# Indices 1 2 3 4 5 6 
#
# 1 0.005079 -0.001443 -0.002771 0.000000 0.000646 0.000000
# 2 -0.001443 0.008981 -0.003956 0.000000 -0.000610 0.000000
# 3 -0.002771 -0.003956 0.013578 0.000000 -0.005438 0.000000
# 4 0.000000 0.000000 0.000000 0.039700 0.000000 -0.019998
# 5 0.000646 -0.000610 -0.005438 0.000000 0.025947 0.000000
# 6 0.000000 0.000000 0.000000 -0.019998 0.000000 0.032011
#
#
# Mechanical properties :
#
#
# Convention : Reuss Voigt Hill
#
# Bulk Modulus (GPa) = 88.49160 110.23471 99.36316
# Shear Modulus (GPa) = 34.38773 45.82305 40.10539
#
# Velocity S-wave (km/s) = 3.60198 4.15797 3.88992
# Velocity P-wave (km/s) = 7.11943 8.04005 7.59370
#
# Compressibility (1/GPa) = 0.01130051
#
# Stress axis : x y z
#
# Youngs Moduli (GPa) = 196.88190 111.34762 73.64727
#
# Poissons Ratio (x) = 0.16062 0.20407
# Poissons Ratio (y) = 0.28401 0.29131
# Poissons Ratio (z) = 0.54553 0.44044
#
# Static dielectric constant tensor:
#      x y z
#    x 5.763730 0.000000 -0.503410 
#    y 0.000000 5.530330 0.000000 
#    z -0.503410 0.000000 6.186300 
# 
# 
# High freq. dielectric constant tensor:
#      x y z
#    x 2.109120 0.000000 -0.008360 
#    y 0.000000 2.059590 0.000000 
#    z -0.008360 0.000000 2.134480 
# 
# From -- ./inp_files/24146.got.cif
#   From: 2010.06.25/outbox.cif.g09.slc.cpg/sg9_13_cif.got.tgz:24146.got - 2010.06.27 21:40:51.
