data_PCOD8056837
_publ_section_title
;
Structure prediction by ZEFSAII (Michael W. Deem and Ramdas Pophale) SiO2 
 PCOD8056837
Probable space group: P 2/M
;
_chemical_formula_sum "Si O2"
_cell_formula_units_Z 24
_cell_length_a 12.775775
_cell_length_b 22.226120
_cell_length_c 14.788120
_cell_angle_alpha 90.000000
_cell_angle_beta 160.384699
_cell_angle_gamma 90.000000
_cell_volume 1409.675900
_symmetry_space_group_name_H-M "P 2/M"
_symmetry_group_IT_number 10
_symmetry_cell_setting 'monoclinic'
loop_
_space_group_symop_operation_xyz
x,y,z
-x,y,-z
-x,-y,-z
x,-y,z
loop_
_atom_site_type_symbol
_atom_site_label
_atom_site_fract_x
_atom_site_fract_y
_atom_site_fract_z
Si Si1 0.124674 0.625174 0.999950
Si Si2 0.647539 0.930765 0.217382
Si Si3 0.128812 0.000000 0.203872
Si Si4 0.418638 0.821047 0.536304
Si Si5 0.807176 0.881756 0.008879
Si Si6 0.124588 0.500000 0.200271
Si Si7 0.375866 0.682699 0.497456
O O1 0.492289 0.639606 0.314032
O O2 0.000000 0.637372 0.000000
O O3 0.026920 0.559908 0.879387
O O4 0.994360 0.672100 0.818121
O O5 0.469020 0.890684 0.144898
O O6 0.000000 0.907224 0.500000
O O7 0.636485 0.000000 0.240284
O O8 0.500000 0.922059 0.000000
O O9 0.500000 0.000000 0.500000
O O10 0.000000 0.000000 0.000000
O O11 0.003145 0.942378 0.154636
O O12 0.500000 0.838989 0.500000
O O13 0.654437 0.857815 0.791925
O O14 0.469402 0.750717 0.596484
O O15 0.053702 0.835490 0.253767
O O16 0.500000 0.500000 0.500000
O O17 0.000000 0.500000 0.000000
O O18 0.500000 0.661439 0.500000
#
# Coordination Sequence:
#
# PCOD8056837 Si02
#       7
#     4   4   2   4   4   2   4
#     4   9  15  24  37  53  77 106 148 193 238 267
#     4  10  21  38  58  76  94 115 148 192 242 293
#     4  12  24  36  50  70  98 124 148 182 233 284
#     4  11  22  34  50  69  98 128 162 194 229 279
#     4  12  22  37  53  74  94 123 154 194 239 289
#     4  10  16  22  34  54  76 102 142 200 250 272
#     4   9  17  28  40  56  79 117 152 188 224 264
#
# _framework density 17.025189000000001
#
# number of rings (size 3 to 8) (size 9 to 14) (size 15 to 20)
#    0.000    1.667    0.833    7.500    0.000    2.667 
#    0.000    0.000    0.000    0.000    0.000    0.000 
#    0.000    0.000    0.000    0.000    0.000    0.000 
#
# Total GULP energy -297375.153678 kJ/mol
# GULP energy per Si atom -12390.631403 kJ/mol
# Density = 1.698644 g / cm^3
# Si number density = 17.025189 Si / 1000 Ang^3
#
#
#
# Elastic Constant Matrix: (Units=GPa)
#
#
# Indices 1 2 3 4 5 6 
#
# 1 35.4657 24.7638 30.1153 0.0000 3.3046 0.0000
# 2 24.7638 82.6437 48.9538 0.0000 -7.4545 0.0000
# 3 30.1153 48.9538 151.5306 0.0000 -16.2447 0.0000
# 4 0.0000 0.0000 0.0000 31.8066 0.0000 -6.9283
# 5 3.3046 -7.4545 -16.2447 0.0000 25.7994 0.0000
# 6 0.0000 0.0000 0.0000 -6.9283 0.0000 5.4660
#
#
#
# Elastic Compliance Matrix: (Units=1/GPa)
#
#
# Indices 1 2 3 4 5 6 
#
# 1 0.041601 -0.009762 -0.006421 0.000000 -0.012192 0.000000
# 2 -0.009762 0.017300 -0.003195 0.000000 0.004237 0.000000
# 3 -0.006421 -0.003195 0.009541 0.000000 0.005907 0.000000
# 4 0.000000 0.000000 0.000000 0.043432 0.000000 0.055051
# 5 -0.012192 0.004237 0.005907 0.000000 0.045266 0.000000
# 6 0.000000 0.000000 0.000000 0.055051 0.000000 0.252728
#
#
# Mechanical properties :
#
#
# Convention : Reuss Voigt Hill
#
# Bulk Modulus (GPa) = 33.68539 53.03397 43.35968
# Shear Modulus (GPa) = 10.90472 23.66818 17.28645
#
# Velocity S-wave (km/s) = 2.53357 3.73256 3.18991
# Velocity P-wave (km/s) = 5.32796 7.05648 6.25225
#
# Compressibility (1/GPa) = 0.02968646
#
# Stress axis : x y z
#
# Youngs Moduli (GPa) = 24.03793 57.80457 104.81316
#
# Poissons Ratio (x) = 0.56427 0.67303
# Poissons Ratio (y) = 0.23465 0.33483
# Poissons Ratio (z) = 0.15435 0.18466
#
# Static dielectric constant tensor:
#      x y z
#    x 2.702820 0.000000 -0.249780 
#    y 0.000000 3.225890 0.000000 
#    z -0.249780 0.000000 3.595380 
# 
# 
# High freq. dielectric constant tensor:
#      x y z
#    x 1.584990 0.000000 -0.035330 
#    y 0.000000 1.656010 0.000000 
#    z -0.035330 0.000000 1.683930 
# 
# From -- ./inp_files/65494.got.cif
#   From: 2010.06.25/outbox.cif.g09.slc.cpg/sg10_33_cif.got.tgz:65494.got - 2010.06.27 22:07:45.
