data_PCOD8056068
_publ_section_title
;
Structure prediction by ZEFSAII (Michael W. Deem and Ramdas Pophale) SiO2 
 PCOD8056068
Probable space group: C C
;
_chemical_formula_sum "Si O2"
_cell_formula_units_Z 32
_cell_length_a 9.484919
_cell_length_b 19.088583
_cell_length_c 9.416052
_cell_angle_alpha 90.000000
_cell_angle_beta 61.906746
_cell_angle_gamma 90.000000
_cell_volume 1503.953863
_symmetry_space_group_name_H-M "C C"
_symmetry_group_IT_number 9
_symmetry_cell_setting 'monoclinic'
loop_
_space_group_symop_operation_xyz
x,y,z
x,-y,1/2+z
1/2+x,1/2+y,z
1/2+x,1/2-y,1/2+z
loop_
_atom_site_type_symbol
_atom_site_label
_atom_site_fract_x
_atom_site_fract_y
_atom_site_fract_z
Si Si1 0.166460 0.684733 0.147370
Si Si2 0.036105 0.453671 0.363706
Si Si3 0.459763 0.804193 0.462248
Si Si4 0.864674 0.691032 0.463943
Si Si5 0.751533 0.454159 0.097871
Si Si6 0.723303 0.968105 0.550721
Si Si7 0.159027 0.180989 0.277166
Si Si8 0.063682 0.966695 0.905547
O O1 0.245879 0.607872 0.112762
O O2 0.052978 0.696617 0.338300
O O3 0.058484 0.691554 0.060122
O O4 0.308703 0.741689 0.081375
O O5 0.000932 0.372280 0.348524
O O6 0.183197 0.461228 0.403759
O O7 0.076782 0.492359 0.197904
O O8 0.879245 0.486053 0.507228
O O9 0.271187 0.801744 0.588622
O O10 0.511723 0.735631 0.349632
O O11 0.835060 0.621428 0.570780
O O12 0.763653 0.686730 0.368605
O O13 0.666654 0.470625 0.287597
O O14 0.616439 0.453299 0.041056
O O15 0.879118 0.014270 0.496125
O O16 0.086346 0.103190 0.299836
#
# Coordination Sequence:
#
# PCOD8056068 Si02
#       8
#     4   4   4   4   4   4   4   4
#     4   9  18  33  53  82 111 145 193 239 276 329
#     4  11  21  39  61  85 115 154 191 235 288 343
#     4   9  18  32  55  81 110 146 193 238 278 328
#     4   9  18  32  55  81 110 146 193 238 278 328
#     4  11  21  39  61  85 115 154 191 235 288 343
#     4  11  23  37  59  89 118 149 191 240 287 339
#     4   9  18  33  53  82 111 145 193 239 276 329
#     4  11  23  37  59  89 118 149 191 240 287 339
#
# _framework density 21.277249000000001
#
# number of rings (size 3 to 8) (size 9 to 14) (size 15 to 20)
#    0.000    2.000    2.500    1.500    3.500    0.000 
#    0.000    0.000    0.000    9.000    0.000    0.000 
#    0.000    0.000    0.000    0.000    0.000    0.000 
#
# Total GULP energy -198440.135698 kJ/mol
# GULP energy per Si atom -12402.508481 kJ/mol
# Density = 2.122882 g / cm^3
# Si number density = 21.277249 Si / 1000 Ang^3
#
#
#
# Elastic Constant Matrix: (Units=GPa)
#
#
# Indices 1 2 3 4 5 6 
#
# 1 37.8588 13.6109 8.1861 0.0000 -19.1080 0.0000
# 2 13.6109 149.0443 45.1755 0.0000 -13.7644 0.0000
# 3 8.1861 45.1755 91.3867 0.0000 -18.0573 0.0000
# 4 0.0000 0.0000 0.0000 42.8970 0.0000 -11.3506
# 5 -19.1080 -13.7644 -18.0573 0.0000 25.3032 0.0000
# 6 0.0000 0.0000 0.0000 -11.3506 0.0000 22.6356
#
#
#
# Elastic Compliance Matrix: (Units=1/GPa)
#
#
# Indices 1 2 3 4 5 6 
#
# 1 0.043870 -0.001980 0.003938 0.000000 0.034861 0.000000
# 2 -0.001980 0.008049 -0.003762 0.000000 0.000198 0.000000
# 3 0.003938 -0.003762 0.014707 0.000000 0.011422 0.000000
# 4 0.000000 0.000000 0.000000 0.026878 0.000000 0.013478
# 5 0.034861 0.000198 0.011422 0.000000 0.074105 0.000000
# 6 0.000000 0.000000 0.000000 0.013478 0.000000 0.050937
#
#
# Mechanical properties :
#
#
# Convention : Reuss Voigt Hill
#
# Bulk Modulus (GPa) = 15.86922 45.80386 30.83654
# Shear Modulus (GPa) = 20.56260 32.25500 26.40880
#
# Velocity S-wave (km/s) = 3.11209 3.89773 3.52685
# Velocity P-wave (km/s) = 4.51530 6.46763 5.57756
#
# Compressibility (1/GPa) = 0.06301505
#
# Stress axis : x y z
#
# Youngs Moduli (GPa) = 22.79484 124.24049 67.99708
#
# Poissons Ratio (x) = 0.24602 -0.26774
# Poissons Ratio (y) = 0.04514 0.25583
# Poissons Ratio (z) = -0.08976 0.46743
#
# Static dielectric constant tensor:
#      x y z
#    x 3.411380 0.000000 -0.192530 
#    y 0.000000 4.048590 0.000000 
#    z -0.192530 0.000000 3.865520 
# 
# 
# High freq. dielectric constant tensor:
#      x y z
#    x 1.795000 0.000000 -0.021100 
#    y 0.000000 1.844620 0.000000 
#    z -0.021100 0.000000 1.833340 
# 
# From -- ./inp_files/7902.got.cif
#   From: 2010.06.25/outbox.cif.g09.slc.cpg/sg9_4_cif.got.tgz:7902.got - 2010.06.27 21:40:51.
