data_PCOD8056554
_publ_section_title
;
Structure prediction by ZEFSAII (Michael W. Deem and Ramdas Pophale) SiO2 
 PCOD8056554
Probable space group: C C
;
_chemical_formula_sum "Si O2"
_cell_formula_units_Z 32
_cell_length_a 9.031663
_cell_length_b 11.835369
_cell_length_c 12.812613
_cell_angle_alpha 90.000000
_cell_angle_beta 110.318013
_cell_angle_gamma 90.000000
_cell_volume 1284.363979
_symmetry_space_group_name_H-M "C C"
_symmetry_group_IT_number 9
_symmetry_cell_setting 'monoclinic'
loop_
_space_group_symop_operation_xyz
x,y,z
x,-y,1/2+z
1/2+x,1/2+y,z
1/2+x,1/2-y,1/2+z
loop_
_atom_site_type_symbol
_atom_site_label
_atom_site_fract_x
_atom_site_fract_y
_atom_site_fract_z
Si Si1 0.654280 0.153415 0.669200
Si Si2 0.995287 0.137029 0.067124
Si Si3 0.978488 0.174293 0.833508
Si Si4 0.016327 0.600163 0.845946
Si Si5 0.526352 0.270682 0.023801
Si Si6 0.210612 0.617498 0.389539
Si Si7 0.716439 0.911230 0.652054
Si Si8 0.670467 0.561088 0.705963
O O1 0.567051 0.238085 0.570640
O O2 0.804701 0.213316 0.758296
O O3 0.532338 0.117968 0.727970
O O4 0.696742 0.041631 0.614213
O O5 0.841362 0.142246 0.102110
O O6 0.960429 0.103592 0.938235
O O7 0.131826 0.061582 0.151622
O O8 0.082705 0.285173 0.864143
O O9 0.038600 0.088941 0.759876
O O10 0.049201 0.720118 0.912467
O O11 0.833488 0.563669 0.810477
O O12 0.135234 0.500339 0.914331
O O13 0.360683 0.338606 0.995060
O O14 0.547710 0.155458 0.098473
O O15 0.661594 0.353053 0.104056
O O16 0.271481 0.599169 0.285711
#
# Coordination Sequence:
#
# PCOD8056554 Si02
#       8
#     4   4   4   4   4   4   4   4
#     4  11  26  47  75 110 156 199 263 325 388 474
#     4  12  28  46  79 114 156 209 265 324 396 474
#     4  12  26  47  73 115 150 204 266 326 388 472
#     4  11  26  49  77 115 155 210 261 322 401 478
#     4  12  24  43  82 110 152 211 260 316 401 467
#     4  11  26  48  80 110 163 210 262 330 399 474
#     4  11  25  48  75 112 160 206 255 333 400 466
#     4  12  27  50  75 114 164 203 264 332 399 471
#
# _framework density 24.915056
#
# number of rings (size 3 to 8) (size 9 to 14) (size 15 to 20)
#    0.000    0.500    3.750    3.000    8.750    3.000 
#    0.000    1.250    0.000    0.000    0.000    0.000 
#    0.000    0.000    0.000    0.000    0.000    0.000 
#
# Total GULP energy -198307.236253 kJ/mol
# GULP energy per Si atom -12394.202266 kJ/mol
# Density = 2.485835 g / cm^3
# Si number density = 24.915056 Si / 1000 Ang^3
#
#
#
# Elastic Constant Matrix: (Units=GPa)
#
#
# Indices 1 2 3 4 5 6 
#
# 1 96.0375 44.2840 45.4563 0.0000 4.8195 0.0000
# 2 44.2840 143.1175 41.3243 0.0000 15.1492 0.0000
# 3 45.4563 41.3243 121.8211 0.0000 3.9612 0.0000
# 4 0.0000 0.0000 0.0000 34.5357 0.0000 16.9553
# 5 4.8195 15.1492 3.9612 0.0000 38.3258 0.0000
# 6 0.0000 0.0000 0.0000 16.9553 0.0000 32.9852
#
#
#
# Elastic Compliance Matrix: (Units=1/GPa)
#
#
# Indices 1 2 3 4 5 6 
#
# 1 0.013770 -0.003069 -0.004094 0.000000 -0.000096 0.000000
# 2 -0.003069 0.008741 -0.001726 0.000000 -0.002891 0.000000
# 3 -0.004094 -0.001726 0.010318 0.000000 0.000131 0.000000
# 4 0.000000 0.000000 0.000000 0.038729 0.000000 -0.019908
# 5 -0.000096 -0.002891 0.000131 0.000000 0.027233 0.000000
# 6 0.000000 0.000000 0.000000 -0.019908 0.000000 0.040550
#
#
# Mechanical properties :
#
#
# Convention : Reuss Voigt Hill
#
# Bulk Modulus (GPa) = 66.43949 69.23393 67.83671
# Shear Modulus (GPa) = 30.83818 36.49678 33.66748
#
# Velocity S-wave (km/s) = 3.52196 3.83149 3.67998
# Velocity P-wave (km/s) = 6.57748 6.88637 6.73369
#
# Compressibility (1/GPa) = 0.01505129
#
# Stress axis : x y z
#
# Youngs Moduli (GPa) = 72.62065 114.40109 96.92014
#
# Poissons Ratio (x) = 0.35104 0.39681
# Poissons Ratio (y) = 0.22284 0.16730
# Poissons Ratio (z) = 0.29732 0.19748
#
# Static dielectric constant tensor:
#      x y z
#    x 4.390760 0.000000 0.027210 
#    y 0.000000 4.671390 0.000000 
#    z 0.027210 0.000000 4.669680 
# 
# 
# High freq. dielectric constant tensor:
#      x y z
#    x 1.982100 0.000000 0.003300 
#    y 0.000000 1.997350 0.000000 
#    z 0.003300 0.000000 2.011780 
# 
# From -- ./inp_files/22923.got.cif
#   From: 2010.06.25/outbox.cif.g09.slc.cpg/sg9_12_cif.got.tgz:22923.got - 2010.06.27 21:40:51.
