data_PCOD8056353
_publ_section_title
;
Structure prediction by ZEFSAII (Michael W. Deem and Ramdas Pophale) SiO2 
 PCOD8056353
Probable space group: C C
;
_chemical_formula_sum "Si O2"
_cell_formula_units_Z 20
_cell_length_a 7.590336
_cell_length_b 12.545418
_cell_length_c 14.481537
_cell_angle_alpha 90.000000
_cell_angle_beta 39.224776
_cell_angle_gamma 90.000000
_cell_volume 872.023466
_symmetry_space_group_name_H-M "C C"
_symmetry_group_IT_number 9
_symmetry_cell_setting 'monoclinic'
loop_
_space_group_symop_operation_xyz
x,y,z
x,-y,1/2+z
1/2+x,1/2+y,z
1/2+x,1/2-y,1/2+z
loop_
_atom_site_type_symbol
_atom_site_label
_atom_site_fract_x
_atom_site_fract_y
_atom_site_fract_z
Si Si1 0.880900 0.046834 0.655130
Si Si2 0.190941 0.309948 0.904495
Si Si3 0.328553 0.222266 0.173555
Si Si4 0.973396 0.532313 0.984293
Si Si5 0.212314 0.329839 0.677273
O O1 0.916362 0.162700 0.592399
O O2 0.682330 0.073159 0.821744
O O3 0.732054 0.957852 0.651873
O O4 0.169577 0.994652 0.568916
O O5 0.499183 0.287128 0.813621
O O6 0.163161 0.306110 0.805024
O O7 0.097198 0.425401 0.980540
O O8 0.001497 0.220464 0.027070
O O9 0.454362 0.217283 0.225526
O O10 0.461122 0.126772 0.062390
#
# Coordination Sequence:
#
# PCOD8056353 Si02
#       5
#     4   4   4   4   4
#     4  11  25  49  73 110 154 187 255 314 362 456
#     4  11  26  50  76 113 154 191 259 316 361 463
#     4  12  26  46  80 103 151 206 238 310 390 426
#     4  11  23  49  72 106 156 186 246 324 355 443
#     4  11  26  48  77 112 147 200 252 304 380 450
#
# _framework density 22.935161000000001
#
# number of rings (size 3 to 8) (size 9 to 14) (size 15 to 20)
#    0.000    0.800    6.000    1.200    2.800    1.600 
#   10.800    0.000    0.000    0.000    0.000    0.000 
#    0.000    0.000    0.000    0.000    0.000    0.000 
#
# Total GULP energy -124000.664138 kJ/mol
# GULP energy per Si atom -12400.066414 kJ/mol
# Density = 2.288296 g / cm^3
# Si number density = 22.935161 Si / 1000 Ang^3
#
#
#
# Elastic Constant Matrix: (Units=GPa)
#
#
# Indices 1 2 3 4 5 6 
#
# 1 41.4154 32.5829 25.8700 -0.0317 -14.8377 -0.0111
# 2 32.5829 199.2081 45.5983 -0.0124 19.7015 -0.0023
# 3 25.8700 45.5983 114.5133 -0.0045 10.2387 -0.0039
# 4 -0.0317 -0.0124 -0.0045 39.4300 0.0033 -4.2639
# 5 -14.8377 19.7015 10.2387 0.0033 29.9539 -0.0016
# 6 -0.0111 -0.0023 -0.0039 -4.2639 -0.0016 34.7656
#
#
#
# Elastic Compliance Matrix: (Units=1/GPa)
#
#
# Indices 1 2 3 4 5 6 
#
# 1 0.050786 -0.009269 -0.010910 0.000036 0.034983 0.000020
# 2 -0.009269 0.007484 -0.000037 -0.000005 -0.009501 -0.000003
# 3 -0.010910 -0.000037 0.012062 -0.000007 -0.009503 -0.000003
# 4 0.000036 -0.000005 -0.000007 0.025702 0.000021 0.003152
# 5 0.034983 -0.009501 -0.009503 0.000021 0.060211 0.000015
# 6 0.000020 -0.000003 -0.000003 0.003152 0.000015 0.029151
#
#
# Mechanical properties :
#
#
# Convention : Reuss Voigt Hill
#
# Bulk Modulus (GPa) = 33.44475 62.58213 48.01344
# Shear Modulus (GPa) = 21.20493 37.56894 29.38693
#
# Velocity S-wave (km/s) = 3.04396 4.05167 3.58342
# Velocity P-wave (km/s) = 5.19309 7.01668 6.17260
#
# Compressibility (1/GPa) = 0.02990006
#
# Stress axis : x y z
#
# Youngs Moduli (GPa) = 19.69041 133.61843 82.90777
#
# Poissons Ratio (x) = 1.23853 0.90454
# Poissons Ratio (y) = 0.18251 0.00303
# Poissons Ratio (z) = 0.21483 0.00488
#
# Static dielectric constant tensor:
#      x y z
#    x 3.910750 -0.000020 -0.178980 
#    y -0.000020 4.777040 0.000050 
#    z -0.178980 0.000050 4.108400 
# 
# 
# High freq. dielectric constant tensor:
#      x y z
#    x 1.887170 0.000000 -0.021110 
#    y 0.000000 1.936370 0.000000 
#    z -0.021110 0.000000 1.914810 
# 
# From -- ./inp_files/4679.got.cif
#   From: 2010.06.25/outbox.cif.g09.slc.cpg/sg9_3_cif.got.tgz:4679.got - 2010.06.27 21:40:51.
