data_PCOD8056704
_publ_section_title
;
Structure prediction by ZEFSAII (Michael W. Deem and Ramdas Pophale) SiO2 
 PCOD8056704
Probable space group: C C
;
_chemical_formula_sum "Si O2"
_cell_formula_units_Z 24
_cell_length_a 5.403306
_cell_length_b 7.691817
_cell_length_c 22.815113
_cell_angle_alpha 90.000000
_cell_angle_beta 69.190716
_cell_angle_gamma 90.000000
_cell_volume 886.369951
_symmetry_space_group_name_H-M "C C"
_symmetry_group_IT_number 9
_symmetry_cell_setting 'monoclinic'
loop_
_space_group_symop_operation_xyz
x,y,z
x,-y,1/2+z
1/2+x,1/2+y,z
1/2+x,1/2-y,1/2+z
loop_
_atom_site_type_symbol
_atom_site_label
_atom_site_fract_x
_atom_site_fract_y
_atom_site_fract_z
Si Si1 0.139100 0.655494 0.379020
Si Si2 0.175297 0.810254 0.220621
Si Si3 0.499268 0.655110 0.548181
Si Si4 0.118952 0.094898 0.135046
Si Si5 0.251314 0.905502 0.804215
Si Si6 0.312328 0.439758 0.462610
O O1 0.455931 0.659233 0.342769
O O2 0.091903 0.515640 0.435938
O O3 0.959380 0.590743 0.340469
O O4 0.048882 0.850461 0.405210
O O5 0.354501 0.642034 0.192815
O O6 0.874854 0.734375 0.247305
O O7 0.246620 0.943646 0.163097
O O8 0.239695 0.899539 0.278016
O O9 0.289396 0.731118 0.612598
O O10 0.602376 0.481127 0.570627
O O11 0.408166 0.607975 0.490406
O O12 0.711081 0.806376 0.520138
#
# Coordination Sequence:
#
# PCOD8056704 Si02
#       6
#     4   4   4   4   4   4
#     4  12  29  51  78 114 155 202 254 313 377 452
#     4  12  27  47  76 110 150 198 250 309 376 448
#     4  12  25  46  74 108 148 194 248 310 374 446
#     4  12  25  46  74 108 148 194 248 310 374 446
#     4  12  29  51  78 114 155 202 254 313 377 452
#     4  12  27  47  76 110 150 198 250 309 376 448
#
# _framework density 27.076727999999999
#
# number of rings (size 3 to 8) (size 9 to 14) (size 15 to 20)
#    0.000    0.000    0.000    9.000    0.000   16.000 
#    0.000    0.000    0.000    0.000    0.000    0.000 
#    0.000    0.000    0.000    0.000    0.000    0.000 
#
# Total GULP energy -148806.137640 kJ/mol
# GULP energy per Si atom -12400.511470 kJ/mol
# Density = 2.701510 g / cm^3
# Si number density = 27.076728 Si / 1000 Ang^3
#
#
#
# Elastic Constant Matrix: (Units=GPa)
#
#
# Indices 1 2 3 4 5 6 
#
# 1 105.0132 6.4996 15.8222 0.0000 0.2351 0.0000
# 2 6.4996 82.7616 -5.7784 0.0000 0.2084 0.0000
# 3 15.8222 -5.7784 85.3894 0.0000 0.1006 0.0000
# 4 0.0000 0.0000 0.0000 53.2033 0.0000 -0.1937
# 5 0.2351 0.2084 0.1006 0.0000 37.7457 0.0000
# 6 0.0000 0.0000 0.0000 -0.1937 0.0000 42.0300
#
#
#
# Elastic Compliance Matrix: (Units=1/GPa)
#
#
# Indices 1 2 3 4 5 6 
#
# 1 0.009863 -0.000906 -0.001889 0.000000 -0.000051 0.000000
# 2 -0.000906 0.012224 0.000995 0.000000 -0.000065 0.000000
# 3 -0.001889 0.000995 0.012128 0.000000 -0.000026 0.000000
# 4 0.000000 0.000000 0.000000 0.018796 0.000000 0.000087
# 5 -0.000051 -0.000065 -0.000026 0.000000 0.026494 0.000000
# 6 0.000000 0.000000 0.000000 0.000087 0.000000 0.023793
#
#
# Mechanical properties :
#
#
# Convention : Reuss Voigt Hill
#
# Bulk Modulus (GPa) = 32.66324 34.02789 33.34557
# Shear Modulus (GPa) = 42.69718 43.70386 43.20052
#
# Velocity S-wave (km/s) = 3.97532 4.02191 3.99869
# Velocity P-wave (km/s) = 5.75850 5.84484 5.80183
#
# Compressibility (1/GPa) = 0.03061545
#
# Stress axis : x y z
#
# Youngs Moduli (GPa) = 101.38472 81.80816 82.45084
#
# Poissons Ratio (x) = 0.07415 0.15574
# Poissons Ratio (y) = 0.09189 -0.08206
# Poissons Ratio (z) = 0.19151 -0.08142
#
# Static dielectric constant tensor:
#      x y z
#    x 4.708370 0.000000 -0.006520 
#    y 0.000000 4.960650 0.000000 
#    z -0.006520 0.000000 5.092550 
# 
# 
# High freq. dielectric constant tensor:
#      x y z
#    x 2.071010 0.000000 -0.000790 
#    y 0.000000 2.111730 0.000000 
#    z -0.000790 0.000000 2.116880 
# 
# From -- ./inp_files/34709.got.cif
#   From: 2010.06.25/outbox.cif.g09.slc.cpg/sg9_18_cif.got.tgz:34709.got - 2010.06.27 21:40:51.
