data_PCOD8056235
_publ_section_title
;
Structure prediction by ZEFSAII (Michael W. Deem and Ramdas Pophale) SiO2 
 PCOD8056235
Probable space group: C C
;
_chemical_formula_sum "Si O2"
_cell_formula_units_Z 32
_cell_length_a 13.045444
_cell_length_b 13.784637
_cell_length_c 17.636076
_cell_angle_alpha 90.000000
_cell_angle_beta 29.548418
_cell_angle_gamma 90.000000
_cell_volume 1564.022582
_symmetry_space_group_name_H-M "C C"
_symmetry_group_IT_number 9
_symmetry_cell_setting 'monoclinic'
loop_
_space_group_symop_operation_xyz
x,y,z
x,-y,1/2+z
1/2+x,1/2+y,z
1/2+x,1/2-y,1/2+z
loop_
_atom_site_type_symbol
_atom_site_label
_atom_site_fract_x
_atom_site_fract_y
_atom_site_fract_z
Si Si1 0.336650 0.827864 0.421120
Si Si2 0.572925 0.308907 0.047416
Si Si3 0.021739 0.452326 0.960009
Si Si4 0.615372 0.167884 0.881640
Si Si5 0.871342 0.199539 0.258847
Si Si6 0.431488 0.044742 0.342577
Si Si7 0.238429 0.682353 0.073265
Si Si8 0.203832 0.821975 0.234219
O O1 0.439836 0.801345 0.434807
O O2 0.399438 0.742112 0.324508
O O3 0.090153 0.837273 0.587317
O O4 0.419006 0.930426 0.336709
O O5 0.334786 0.342876 0.197356
O O6 0.603125 0.244865 0.102668
O O7 0.628737 0.248220 0.937350
O O8 0.717254 0.403696 0.956914
O O9 0.058136 0.564582 0.955136
O O10 0.220695 0.392422 0.859359
O O11 0.980109 0.430535 0.898601
O O12 0.819816 0.421574 0.138510
O O13 0.777736 0.285260 0.268127
O O14 0.618849 0.083090 0.169456
O O15 0.267810 0.741671 0.131639
O O16 0.458414 0.657285 0.893425
#
# Coordination Sequence:
#
# PCOD8056235 Si02
#       8
#     4   4   4   4   4   4   4   4
#     4  11  26  43  63  92 131 175 217 254 317 382
#     4  12  21  43  68  89 134 171 209 262 323 378
#     4  11  23  42  67  99 126 167 214 264 321 382
#     4  11  26  43  63  92 131 175 217 254 317 382
#     4  12  21  43  68  89 134 171 209 262 323 378
#     4  11  23  42  67  99 126 167 214 264 321 382
#     4  12  20  38  69 100 129 157 210 272 325 364
#     4  12  20  38  69 100 129 157 210 272 325 364
#
# _framework density 20.460063000000002
#
# number of rings (size 3 to 8) (size 9 to 14) (size 15 to 20)
#    0.000    0.500    7.500    1.500    0.000    1.000 
#    0.000    1.250    0.000    0.000    0.000    0.000 
#    0.000    0.000    0.000    0.000    0.000    0.000 
#
# Total GULP energy -198513.007618 kJ/mol
# GULP energy per Si atom -12407.062976 kJ/mol
# Density = 2.041349 g / cm^3
# Si number density = 20.460063 Si / 1000 Ang^3
#
#
#
# Elastic Constant Matrix: (Units=GPa)
#
#
# Indices 1 2 3 4 5 6 
#
# 1 73.3272 30.9625 -4.2168 0.0096 -3.2258 0.0010
# 2 30.9625 73.1324 17.9165 -0.0032 -1.4765 0.0076
# 3 -4.2168 17.9165 118.5381 -0.0103 -12.1589 0.0185
# 4 0.0096 -0.0032 -0.0103 30.6086 -0.0055 -1.3067
# 5 -3.2258 -1.4765 -12.1589 -0.0055 30.4065 -0.0014
# 6 0.0010 0.0076 0.0185 -1.3067 -0.0014 28.3245
#
#
#
# Elastic Compliance Matrix: (Units=1/GPa)
#
#
# Indices 1 2 3 4 5 6 
#
# 1 0.017095 -0.007682 0.001999 -0.000005 0.002240 0.000000
# 2 -0.007682 0.017653 -0.003063 0.000003 -0.001182 -0.000002
# 3 0.001999 -0.003063 0.009361 0.000003 0.003806 -0.000005
# 4 -0.000005 0.000003 0.000003 0.032735 0.000007 0.001510
# 5 0.002240 -0.001182 0.003806 0.000007 0.034590 0.000000
# 6 0.000000 -0.000002 -0.000005 0.001510 0.000000 0.035375
#
#
# Mechanical properties :
#
#
# Convention : Reuss Voigt Hill
#
# Bulk Modulus (GPa) = 37.57066 39.36913 38.46990
# Shear Modulus (GPa) = 28.87313 32.55694 30.71504
#
# Velocity S-wave (km/s) = 3.76066 3.99337 3.87876
# Velocity P-wave (km/s) = 6.10406 6.36760 6.23722
#
# Compressibility (1/GPa) = 0.02661651
#
# Stress axis : x y z
#
# Youngs Moduli (GPa) = 58.49768 56.64881 106.83110
#
# Poissons Ratio (x) = 0.43517 -0.21355
# Poissons Ratio (y) = 0.44938 0.32719
# Poissons Ratio (z) = -0.11693 0.17350
#
# Static dielectric constant tensor:
#      x y z
#    x 3.774340 0.000000 -0.114690 
#    y 0.000000 3.588010 0.000030 
#    z -0.114690 0.000030 3.836160 
# 
# 
# High freq. dielectric constant tensor:
#      x y z
#    x 1.804210 0.000000 -0.007800 
#    y 0.000000 1.789880 0.000000 
#    z -0.007800 0.000000 1.813390 
# 
# From -- ./inp_files/7503.got.cif
#   From: 2010.06.25/outbox.cif.g09.slc.cpg/sg9_4_cif.got.tgz:7503.got - 2010.06.27 21:40:51.
