data_PCOD8056595
_publ_section_title
;
Structure prediction by ZEFSAII (Michael W. Deem and Ramdas Pophale) SiO2 
 PCOD8056595
Probable space group: C C
;
_chemical_formula_sum "Si O2"
_cell_formula_units_Z 32
_cell_length_a 11.783506
_cell_length_b 14.737140
_cell_length_c 8.411694
_cell_angle_alpha 90.000000
_cell_angle_beta 112.353185
_cell_angle_gamma 90.000000
_cell_volume 1350.970394
_symmetry_space_group_name_H-M "C C"
_symmetry_group_IT_number 9
_symmetry_cell_setting 'monoclinic'
loop_
_space_group_symop_operation_xyz
x,y,z
x,-y,1/2+z
1/2+x,1/2+y,z
1/2+x,1/2-y,1/2+z
loop_
_atom_site_type_symbol
_atom_site_label
_atom_site_fract_x
_atom_site_fract_y
_atom_site_fract_z
Si Si1 0.634520 0.935230 0.618420
Si Si2 0.870488 0.432726 0.615455
Si Si3 0.786439 0.600309 0.735888
Si Si4 0.312379 0.292245 0.858318
Si Si5 0.975176 0.099441 0.039769
Si Si6 0.700023 0.883619 0.317247
Si Si7 0.026364 0.089876 0.434824
Si Si8 0.696948 0.285513 0.606179
O O1 0.507846 0.906391 0.636636
O O2 0.743923 0.871512 0.730758
O O3 0.616609 0.916958 0.420834
O O4 0.677713 0.039350 0.670117
O O5 0.879561 0.532463 0.696327
O O6 0.778801 0.432721 0.414741
O O7 0.807958 0.358561 0.702361
O O8 0.830128 0.704395 0.754988
O O9 0.659275 0.594077 0.579335
O O10 0.448758 0.327567 0.969783
O O11 0.238351 0.272728 0.977840
O O12 0.027778 0.096009 0.245775
O O13 0.070772 0.162865 0.995648
O O14 0.837674 0.134707 0.952087
O O15 0.964436 0.002775 0.952539
O O16 0.665196 0.784245 0.231757
#
# Coordination Sequence:
#
# PCOD8056595 Si02
#       8
#     4   4   4   4   4   4   4   4
#     4  12  26  50  76 104 155 199 244 305 375 446
#     4  11  26  49  73 111 148 199 238 312 377 445
#     4  11  26  46  76 108 148 195 252 303 379 436
#     4  11  27  46  75 114 144 201 243 312 374 444
#     4  12  26  47  77 110 148 199 251 313 372 442
#     4  12  26  50  74 110 150 198 256 304 373 449
#     4  12  26  48  79 105 154 194 257 310 370 451
#     4  11  29  44  74 114 147 193 249 309 378 437
#
# _framework density 23.686675000000001
#
# number of rings (size 3 to 8) (size 9 to 14) (size 15 to 20)
#    0.000    0.500    3.750    2.250   10.500    1.000 
#    0.000    0.000    0.000    0.000    0.000    0.000 
#    0.000    0.000    0.000    0.000    0.000    0.000 
#
# Total GULP energy -198372.368237 kJ/mol
# GULP energy per Si atom -12398.273015 kJ/mol
# Density = 2.363276 g / cm^3
# Si number density = 23.686675 Si / 1000 Ang^3
#
#
#
# Elastic Constant Matrix: (Units=GPa)
#
#
# Indices 1 2 3 4 5 6 
#
# 1 100.1004 40.4150 4.9916 0.0000 -11.8074 0.0000
# 2 40.4150 129.5853 9.9479 0.0000 -3.9542 0.0000
# 3 4.9916 9.9479 59.2940 0.0000 -4.4639 0.0000
# 4 0.0000 0.0000 0.0000 52.7180 0.0000 7.3954
# 5 -11.8074 -3.9542 -4.4639 0.0000 29.1071 0.0000
# 6 0.0000 0.0000 0.0000 7.3954 0.0000 72.0730
#
#
#
# Elastic Compliance Matrix: (Units=1/GPa)
#
#
# Indices 1 2 3 4 5 6 
#
# 1 0.011957 -0.003590 -0.000077 0.000000 0.004351 0.000000
# 2 -0.003590 0.008918 -0.001226 0.000000 -0.000433 0.000000
# 3 -0.000077 -0.001226 0.017262 0.000000 0.002450 0.000000
# 4 0.000000 0.000000 0.000000 0.019246 0.000000 -0.001975
# 5 0.004351 -0.000433 0.002450 0.000000 0.036438 0.000000
# 6 0.000000 0.000000 0.000000 -0.001975 0.000000 0.014077
#
#
# Mechanical properties :
#
#
# Convention : Reuss Voigt Hill
#
# Bulk Modulus (GPa) = 35.27470 44.40987 39.84229
# Shear Modulus (GPa) = 39.32873 46.35464 42.84168
#
# Velocity S-wave (km/s) = 4.07919 4.42859 4.25747
# Velocity P-wave (km/s) = 6.09187 6.70369 6.40509
#
# Compressibility (1/GPa) = 0.02834893
#
# Stress axis : x y z
#
# Youngs Moduli (GPa) = 83.63597 112.13752 57.93159
#
# Poissons Ratio (x) = 0.40261 0.00444
# Poissons Ratio (y) = 0.30028 0.07105
# Poissons Ratio (z) = 0.00641 0.13753
#
# Static dielectric constant tensor:
#      x y z
#    x 4.201500 0.000000 -0.029620 
#    y 0.000000 4.541230 0.000000 
#    z -0.029620 0.000000 4.266790 
# 
# 
# High freq. dielectric constant tensor:
#      x y z
#    x 1.946000 0.000000 0.002160 
#    y 0.000000 1.953240 0.000000 
#    z 0.002160 0.000000 1.930940 
# 
# From -- ./inp_files/7616.got.cif
#   From: 2010.06.25/outbox.cif.g09.slc.cpg/sg9_4_cif.got.tgz:7616.got - 2010.06.27 21:40:51.
