data_PCOD8056234
_publ_section_title
;
Structure prediction by ZEFSAII (Michael W. Deem and Ramdas Pophale) SiO2 
 PCOD8056234
Probable space group: C C
;
_chemical_formula_sum "Si O2"
_cell_formula_units_Z 24
_cell_length_a 4.962226
_cell_length_b 17.462656
_cell_length_c 13.071720
_cell_angle_alpha 90.000000
_cell_angle_beta 77.310440
_cell_angle_gamma 90.000000
_cell_volume 1105.045229
_symmetry_space_group_name_H-M "C C"
_symmetry_group_IT_number 9
_symmetry_cell_setting 'monoclinic'
loop_
_space_group_symop_operation_xyz
x,y,z
x,-y,1/2+z
1/2+x,1/2+y,z
1/2+x,1/2-y,1/2+z
loop_
_atom_site_type_symbol
_atom_site_label
_atom_site_fract_x
_atom_site_fract_y
_atom_site_fract_z
Si Si1 0.430800 0.145280 0.305930
Si Si2 0.236714 0.313907 0.120597
Si Si3 0.357443 0.411424 0.922977
Si Si4 0.968705 0.913904 0.457888
Si Si5 0.139032 0.187183 0.762628
Si Si6 0.393426 0.144187 0.073553
O O1 0.644319 0.090096 0.346515
O O2 0.521103 0.232712 0.313364
O O3 0.427317 0.119705 0.188354
O O4 0.126305 0.138850 0.377567
O O5 0.455132 0.345032 0.185046
O O6 0.341356 0.234222 0.064545
O O7 0.947716 0.299056 0.199269
O O8 0.204408 0.376407 0.034560
O O9 0.446462 0.497281 0.936467
O O10 0.669179 0.875922 0.489172
O O11 0.140995 0.874081 0.353102
O O12 0.136376 0.902851 0.549158
#
# Coordination Sequence:
#
# PCOD8056234 Si02
#       6
#     4   4   4   4   4   4
#     4  11  23  43  66  91 123 167 213 256 305 369
#     4  11  23  42  66  93 123 166 214 259 304 364
#     4  12  25  41  64  96 130 165 202 257 319 373
#     4  12  25  41  64  96 130 165 202 257 319 373
#     4  11  23  42  66  93 123 166 214 259 304 364
#     4  11  23  43  66  91 123 167 213 256 305 369
#
# _framework density 21.718565999999999
#
# number of rings (size 3 to 8) (size 9 to 14) (size 15 to 20)
#    0.000    0.667    0.000   10.000    0.000    4.000 
#    0.000    0.000    0.000    0.000    0.000    0.000 
#    0.000    0.000    0.000    0.000    0.000    0.000 
#
# Total GULP energy -148913.883298 kJ/mol
# GULP energy per Si atom -12409.490275 kJ/mol
# Density = 2.166913 g / cm^3
# Si number density = 21.718566 Si / 1000 Ang^3
#
#
#
# Elastic Constant Matrix: (Units=GPa)
#
#
# Indices 1 2 3 4 5 6 
#
# 1 95.6814 16.2062 12.1710 0.0000 6.4682 0.0000
# 2 16.2062 85.7002 58.0491 0.0000 9.0528 0.0000
# 3 12.1710 58.0491 82.0008 0.0000 9.5349 0.0000
# 4 0.0000 0.0000 0.0000 4.6670 0.0000 6.4735
# 5 6.4682 9.0528 9.5349 0.0000 62.7093 0.0000
# 6 0.0000 0.0000 0.0000 6.4735 0.0000 19.8958
#
#
#
# Elastic Compliance Matrix: (Units=1/GPa)
#
#
# Indices 1 2 3 4 5 6 
#
# 1 0.010842 -0.001803 -0.000238 0.000000 -0.000822 0.000000
# 2 -0.001803 0.022761 -0.015764 0.000000 -0.000703 0.000000
# 3 -0.000238 -0.015764 0.023538 0.000000 -0.001279 0.000000
# 4 0.000000 0.000000 0.000000 0.390521 0.000000 -0.127064
# 5 -0.000822 -0.000703 -0.001279 0.000000 0.016327 0.000000
# 6 0.000000 0.000000 0.000000 -0.127064 0.000000 0.091605
#
#
# Mechanical properties :
#
#
# Convention : Reuss Voigt Hill
#
# Bulk Modulus (GPa) = 46.43765 48.47056 47.45410
# Shear Modulus (GPa) = 8.35589 29.25148 18.80369
#
# Velocity S-wave (km/s) = 1.96359 3.67392 2.94562
# Velocity P-wave (km/s) = 5.15450 6.35318 5.78497
#
# Compressibility (1/GPa) = 0.02153425
#
# Stress axis : x y z
#
# Youngs Moduli (GPa) = 92.22994 43.93445 42.48425
#
# Poissons Ratio (x) = 0.07919 0.01010
# Poissons Ratio (y) = 0.16625 0.66970
# Poissons Ratio (z) = 0.02192 0.69256
#
# Static dielectric constant tensor:
#      x y z
#    x 4.213540 0.000000 0.141390 
#    y 0.000000 3.734110 0.000000 
#    z 0.141390 0.000000 4.034310 
# 
# 
# High freq. dielectric constant tensor:
#      x y z
#    x 1.876040 0.000000 0.003400 
#    y 0.000000 1.842120 0.000000 
#    z 0.003400 0.000000 1.863980 
# 
# From -- ./inp_files/13042.got.cif
#   From: 2010.06.25/outbox.cif.g09.slc.cpg/sg9_7_cif.got.tgz:13042.got - 2010.06.27 21:40:51.
