data_PCOD8056228
_publ_section_title
;
Structure prediction by ZEFSAII (Michael W. Deem and Ramdas Pophale) SiO2 
 PCOD8056228
Probable space group: C C
;
_chemical_formula_sum "Si O2"
_cell_formula_units_Z 32
_cell_length_a 9.920350
_cell_length_b 15.987480
_cell_length_c 13.199729
_cell_angle_alpha 90.000000
_cell_angle_beta 45.570511
_cell_angle_gamma 90.000000
_cell_volume 1494.991241
_symmetry_space_group_name_H-M "C C"
_symmetry_group_IT_number 9
_symmetry_cell_setting 'monoclinic'
loop_
_space_group_symop_operation_xyz
x,y,z
x,-y,1/2+z
1/2+x,1/2+y,z
1/2+x,1/2-y,1/2+z
loop_
_atom_site_type_symbol
_atom_site_label
_atom_site_fract_x
_atom_site_fract_y
_atom_site_fract_z
Si Si1 0.367770 0.579830 0.630720
Si Si2 0.789213 0.868448 0.388464
Si Si3 0.864127 0.826128 0.666001
Si Si4 0.704985 0.517238 0.336340
Si Si5 0.620969 0.949922 0.669913
Si Si6 0.101282 0.152485 0.228111
Si Si7 0.630098 0.668395 0.838949
Si Si8 0.964004 0.253480 0.483941
O O1 0.330543 0.574774 0.769378
O O2 0.546925 0.521988 0.507450
O O3 0.185025 0.542825 0.669101
O O4 0.400738 0.674962 0.583371
O O5 0.710191 0.931521 0.514000
O O6 0.643976 0.793960 0.443460
O O7 0.981974 0.826166 0.324735
O O8 0.693464 0.883115 0.714606
O O9 0.792215 0.734780 0.733651
O O10 0.950275 0.869481 0.720822
O O11 0.026448 0.812360 0.498397
O O12 0.638251 0.570274 0.274720
O O13 0.730485 0.422093 0.288581
O O14 0.895908 0.554916 0.282344
O O15 0.293875 0.180536 0.071433
O O16 0.019587 0.227011 0.341264
#
# Coordination Sequence:
#
# PCOD8056228 Si02
#       8
#     4   4   4   4   4   4   4   4
#     4  11  25  44  71 103 144 177 234 292 340 411
#     4  11  24  46  70 105 140 183 233 290 344 419
#     4  11  26  47  70 102 145 175 233 296 350 412
#     4  11  25  48  73 100 142 186 239 280 354 422
#     4  11  26  49  71 105 141 184 235 290 351 415
#     4  11  24  43  72 103 142 181 233 289 350 414
#     4  11  27  46  71 100 143 182 233 289 353 415
#     4  11  23  41  72 104 135 190 232 278 348 418
#
# _framework density 21.404809
#
# number of rings (size 3 to 8) (size 9 to 14) (size 15 to 20)
#    0.000    1.000    5.000    0.750   10.500    1.000 
#    4.500    0.000    0.000    0.000    0.000    0.000 
#    0.000    0.000    0.000    0.000    0.000    0.000 
#
# Total GULP energy -198491.929393 kJ/mol
# GULP energy per Si atom -12405.745587 kJ/mol
# Density = 2.135609 g / cm^3
# Si number density = 21.404809 Si / 1000 Ang^3
#
#
#
# Elastic Constant Matrix: (Units=GPa)
#
#
# Indices 1 2 3 4 5 6 
#
# 1 148.1241 55.3359 57.5233 -0.0008 19.2460 0.0012
# 2 55.3359 126.3839 47.0321 -0.0004 6.7505 0.0006
# 3 57.5233 47.0321 94.4449 -0.0004 15.5954 0.0003
# 4 -0.0008 -0.0004 -0.0004 30.3110 0.0004 -3.1687
# 5 19.2460 6.7505 15.5954 0.0004 33.2745 -0.0006
# 6 0.0012 0.0006 0.0003 -3.1687 -0.0006 40.5445
#
#
#
# Elastic Compliance Matrix: (Units=1/GPa)
#
#
# Indices 1 2 3 4 5 6 
#
# 1 0.009718 -0.002550 -0.004125 0.000000 -0.003170 0.000000
# 2 -0.002550 0.010385 -0.003809 0.000000 0.001153 0.000000
# 3 -0.004125 -0.003809 0.015690 0.000000 -0.004195 0.000000
# 4 0.000000 0.000000 0.000000 0.033263 0.000000 0.002600
# 5 -0.003170 0.001153 -0.004195 0.000000 0.033619 0.000001
# 6 0.000000 0.000000 0.000000 0.002600 0.000001 0.024867
#
#
# Mechanical properties :
#
#
# Convention : Reuss Voigt Hill
#
# Bulk Modulus (GPa) = 67.45739 76.52618 71.99178
# Shear Modulus (GPa) = 32.58354 34.76342 33.67348
#
# Velocity S-wave (km/s) = 3.90584 4.03438 3.97063
# Velocity P-wave (km/s) = 7.20585 7.58492 7.39781
#
# Compressibility (1/GPa) = 0.01482417
#
# Stress axis : x y z
#
# Youngs Moduli (GPa) = 102.90438 96.29509 63.73441
#
# Poissons Ratio (x) = 0.24558 0.26292
# Poissons Ratio (y) = 0.26244 0.24274
# Poissons Ratio (z) = 0.42451 0.36675
#
# Static dielectric constant tensor:
#      x y z
#    x 3.998280 0.000000 0.021050 
#    y 0.000000 3.773740 0.000000 
#    z 0.021050 0.000000 3.947520 
# 
# 
# High freq. dielectric constant tensor:
#      x y z
#    x 1.847770 0.000000 0.001860 
#    y 0.000000 1.842640 0.000000 
#    z 0.001860 0.000000 1.844480 
# 
# From -- ./inp_files/14714.got.cif
#   From: 2010.06.25/outbox.cif.g09.slc.cpg/sg9_8_cif.got.tgz:14714.got - 2010.06.27 21:40:51.
