data_PCOD8056536
_publ_section_title
;
Structure prediction by ZEFSAII (Michael W. Deem and Ramdas Pophale) SiO2 
 PCOD8056536
Probable space group: C C
;
_chemical_formula_sum "Si O2"
_cell_formula_units_Z 28
_cell_length_a 22.687046
_cell_length_b 8.882641
_cell_length_c 11.152338
_cell_angle_alpha 90.000000
_cell_angle_beta 150.216290
_cell_angle_gamma 90.000000
_cell_volume 1116.359178
_symmetry_space_group_name_H-M "C C"
_symmetry_group_IT_number 9
_symmetry_cell_setting 'monoclinic'
loop_
_space_group_symop_operation_xyz
x,y,z
x,-y,1/2+z
1/2+x,1/2+y,z
1/2+x,1/2-y,1/2+z
loop_
_atom_site_type_symbol
_atom_site_label
_atom_site_fract_x
_atom_site_fract_y
_atom_site_fract_z
Si Si1 0.596560 0.075654 0.130340
Si Si2 0.190141 0.287507 0.368813
Si Si3 0.546621 0.529902 0.186462
Si Si4 0.364119 0.733617 0.961063
Si Si5 0.254320 0.811067 0.528239
Si Si6 0.436149 0.049332 0.173889
Si Si7 0.900575 0.755849 0.895359
O O1 0.699294 0.200862 0.327146
O O2 0.617815 0.941703 0.263987
O O3 0.469467 0.154100 0.921777
O O4 0.571386 0.992306 0.957271
O O5 0.100076 0.149006 0.183599
O O6 0.276705 0.323209 0.410502
O O7 0.261695 0.246685 0.617119
O O8 0.652465 0.415772 0.410342
O O9 0.486174 0.633689 0.184691
O O10 0.440161 0.428768 0.946790
O O11 0.308828 0.710059 0.730823
O O12 0.384762 0.911077 0.008337
O O13 0.352832 0.915214 0.641044
O O14 0.434517 0.197489 0.087713
#
# Coordination Sequence:
#
# PCOD8056536 Si02
#       7
#     4   4   4   4   4   4   4
#     4  11  26  45  72 106 142 191 241 295 363 427
#     4  12  25  48  74 105 148 193 237 303 368 430
#     4  11  25  47  71 105 143 191 244 297 360 428
#     4  12  26  46  75 108 146 191 247 297 363 446
#     4  11  26  48  70 107 148 190 242 300 368 430
#     4  12  24  48  76 106 149 191 241 308 358 439
#     4  11  26  48  72 109 146 187 250 296 362 446
#
# _framework density 25.081530999999998
#
# number of rings (size 3 to 8) (size 9 to 14) (size 15 to 20)
#    0.000    0.571    2.857    4.286    6.000    4.571 
#    0.000    0.000    0.000    0.000    0.000    0.000 
#    0.000    0.000    0.000    0.000    0.000    0.000 
#
# Total GULP energy -173482.350518 kJ/mol
# GULP energy per Si atom -12391.596466 kJ/mol
# Density = 2.502444 g / cm^3
# Si number density = 25.081531 Si / 1000 Ang^3
#
#
#
# Elastic Constant Matrix: (Units=GPa)
#
#
# Indices 1 2 3 4 5 6 
#
# 1 73.8784 21.6679 19.8956 0.0000 -1.5705 0.0000
# 2 21.6679 156.9901 52.0416 0.0000 9.5486 0.0000
# 3 19.8956 52.0416 110.1303 0.0000 -12.0045 0.0000
# 4 0.0000 0.0000 0.0000 49.4529 0.0000 6.7216
# 5 -1.5705 9.5486 -12.0045 0.0000 31.2085 0.0000
# 6 0.0000 0.0000 0.0000 6.7216 0.0000 31.2018
#
#
#
# Elastic Compliance Matrix: (Units=1/GPa)
#
#
# Indices 1 2 3 4 5 6 
#
# 1 0.014467 -0.001388 -0.001912 0.000000 0.000417 0.000000
# 2 -0.001388 0.008156 -0.004053 0.000000 -0.004124 0.000000
# 3 -0.001912 -0.004053 0.011967 0.000000 0.005747 0.000000
# 4 0.000000 0.000000 0.000000 0.020831 0.000000 -0.004488
# 5 0.000417 -0.004124 0.005747 0.000000 0.035536 0.000000
# 6 0.000000 0.000000 0.000000 -0.004488 0.000000 0.033016
#
#
# Mechanical properties :
#
#
# Convention : Reuss Voigt Hill
#
# Bulk Modulus (GPa) = 50.29264 58.68988 54.49126
# Shear Modulus (GPa) = 34.40999 38.86553 36.63776
#
# Velocity S-wave (km/s) = 3.70797 3.94073 3.82612
# Velocity P-wave (km/s) = 6.19897 6.64501 6.42586
#
# Compressibility (1/GPa) = 0.01988362
#
# Stress axis : x y z
#
# Youngs Moduli (GPa) = 69.12430 122.61319 83.56263
#
# Poissons Ratio (x) = 0.17022 0.15977
# Poissons Ratio (y) = 0.09596 0.33865
# Poissons Ratio (z) = 0.13216 0.49691
#
# Static dielectric constant tensor:
#      x y z
#    x 4.199670 0.000000 0.294840 
#    y 0.000000 4.712060 0.000000 
#    z 0.294840 0.000000 4.568430 
# 
# 
# High freq. dielectric constant tensor:
#      x y z
#    x 1.966070 0.000000 0.017300 
#    y 0.000000 2.024750 0.000000 
#    z 0.017300 0.000000 2.003740 
# 
# From -- ./inp_files/15953.got.cif
#   From: 2010.06.25/outbox.cif.g09.slc.cpg/sg9_8_cif.got.tgz:15953.got - 2010.06.27 21:40:51.
