data_PCOD8056088
_publ_section_title
;
Structure prediction by ZEFSAII (Michael W. Deem and Ramdas Pophale) SiO2 
 PCOD8056088
Probable space group: C C
;
_chemical_formula_sum "Si O2"
_cell_formula_units_Z 32
_cell_length_a 20.252105
_cell_length_b 17.044544
_cell_length_c 8.708097
_cell_angle_alpha 90.000000
_cell_angle_beta 30.053134
_cell_angle_gamma 90.000000
_cell_volume 1505.378311
_symmetry_space_group_name_H-M "C C"
_symmetry_group_IT_number 9
_symmetry_cell_setting 'monoclinic'
loop_
_space_group_symop_operation_xyz
x,y,z
x,-y,1/2+z
1/2+x,1/2+y,z
1/2+x,1/2-y,1/2+z
loop_
_atom_site_type_symbol
_atom_site_label
_atom_site_fract_x
_atom_site_fract_y
_atom_site_fract_z
Si Si1 0.677580 0.455080 0.278220
Si Si2 0.923224 0.357739 0.737290
Si Si3 0.790567 0.928278 0.445377
Si Si4 0.699266 0.921940 0.299392
Si Si5 0.327670 0.709962 0.102770
Si Si6 0.075173 0.083457 0.305423
Si Si7 0.952339 0.839717 0.654960
Si Si8 0.044680 0.747605 0.754639
O O1 0.654466 0.547799 0.290615
O O2 0.664816 0.443795 0.483972
O O3 0.564186 0.405470 0.421433
O O4 0.820353 0.428946 0.927365
O O5 0.060761 0.391161 0.518784
O O6 0.942850 0.313826 0.534749
O O7 0.859781 0.297575 0.985417
O O8 0.693962 0.915605 0.495220
O O9 0.827959 0.849084 0.459339
O O10 0.723316 0.988612 0.698131
O O11 0.929898 0.957117 0.092271
O O12 0.815501 0.869620 0.998459
O O13 0.435323 0.688632 0.014998
O O14 0.184612 0.705364 0.466530
O O15 0.060041 0.177318 0.337067
O O16 0.998342 0.770001 0.676521
#
# Coordination Sequence:
#
# PCOD8056088 Si02
#       8
#     4   4   4   4   4   4   4   4
#     4  11  25  43  68 101 137 172 231 290 340 411
#     4  12  26  46  68 104 147 173 229 298 352 394
#     4  12  24  44  73  99 137 186 239 278 342 423
#     4  12  25  43  71 104 137 184 232 288 345 412
#     4  12  25  43  70 103 136 185 228 293 348 407
#     4  11  21  43  70  95 131 183 230 274 334 418
#     4  11  22  42  71  99 133 178 242 275 343 418
#     4  11  24  46  67 103 140 177 233 290 340 421
#
# _framework density 21.257114999999999
#
# number of rings (size 3 to 8) (size 9 to 14) (size 15 to 20)
#    0.000    0.500    8.750    0.750    3.500    2.000 
#    2.250    0.000    0.000    0.000    0.000    0.000 
#    0.000    0.000    0.000    0.000    0.000    0.000 
#
# Total GULP energy -198389.618045 kJ/mol
# GULP energy per Si atom -12399.351128 kJ/mol
# Density = 2.120873 g / cm^3
# Si number density = 21.257115 Si / 1000 Ang^3
#
#
#
# Elastic Constant Matrix: (Units=GPa)
#
#
# Indices 1 2 3 4 5 6 
#
# 1 95.7495 40.8105 34.6362 0.0000 -5.6705 0.0000
# 2 40.8105 62.3540 20.1617 0.0000 3.0354 0.0000
# 3 34.6362 20.1617 101.4714 -0.0001 -10.1385 0.0000
# 4 0.0000 0.0000 -0.0001 32.8845 0.0000 -5.5828
# 5 -5.6705 3.0354 -10.1385 0.0000 30.6527 0.0000
# 6 0.0000 0.0000 0.0000 -5.5828 0.0000 32.6589
#
#
#
# Elastic Compliance Matrix: (Units=1/GPa)
#
#
# Indices 1 2 3 4 5 6 
#
# 1 0.015800 -0.009428 -0.003242 0.000000 0.002784 0.000000
# 2 -0.009428 0.023021 -0.001818 0.000000 -0.004625 0.000000
# 3 -0.003242 -0.001818 0.011666 0.000000 0.003439 0.000000
# 4 0.000000 0.000000 0.000000 0.031318 0.000000 0.005354
# 5 0.002784 -0.004625 0.003439 0.000000 0.034734 0.000000
# 6 0.000000 0.000000 0.000000 0.005354 0.000000 0.031535
#
#
# Mechanical properties :
#
#
# Convention : Reuss Voigt Hill
#
# Bulk Modulus (GPa) = 46.48664 50.08796 48.28730
# Shear Modulus (GPa) = 27.14122 30.17031 28.65576
#
# Velocity S-wave (km/s) = 3.57712 3.77145 3.67557
# Velocity P-wave (km/s) = 6.24318 6.52527 6.38578
#
# Compressibility (1/GPa) = 0.02151156
#
# Stress axis : x y z
#
# Youngs Moduli (GPa) = 63.29093 43.43789 85.71684
#
# Poissons Ratio (x) = 0.40955 0.27786
# Poissons Ratio (y) = 0.59674 0.15583
# Poissons Ratio (z) = 0.20516 0.07897
#
# Static dielectric constant tensor:
#      x y z
#    x 3.941120 0.000000 0.020810 
#    y 0.000000 3.827030 0.000000 
#    z 0.020810 0.000000 3.957100 
# 
# 
# High freq. dielectric constant tensor:
#      x y z
#    x 1.826420 0.000000 0.004780 
#    y 0.000000 1.826710 0.000000 
#    z 0.004780 0.000000 1.843150 
# 
# From -- ./inp_files/11775.got.cif
#   From: 2010.06.25/outbox.cif.g09.slc.cpg/sg9_6_cif.got.tgz:11775.got - 2010.06.27 21:40:51.
