data_PCOD8056275
_publ_section_title
;
Structure prediction by ZEFSAII (Michael W. Deem and Ramdas Pophale) SiO2 
 PCOD8056275
Probable space group: C C
;
_chemical_formula_sum "Si O2"
_cell_formula_units_Z 32
_cell_length_a 20.389554
_cell_length_b 8.808713
_cell_length_c 17.280422
_cell_angle_alpha 90.000000
_cell_angle_beta 27.848686
_cell_angle_gamma 90.000000
_cell_volume 1449.839228
_symmetry_space_group_name_H-M "C C"
_symmetry_group_IT_number 9
_symmetry_cell_setting 'monoclinic'
loop_
_space_group_symop_operation_xyz
x,y,z
x,-y,1/2+z
1/2+x,1/2+y,z
1/2+x,1/2-y,1/2+z
loop_
_atom_site_type_symbol
_atom_site_label
_atom_site_fract_x
_atom_site_fract_y
_atom_site_fract_z
Si Si1 0.445590 0.600870 0.519740
Si Si2 0.262518 0.234120 0.578245
Si Si3 0.664333 0.775717 0.390759
Si Si4 0.596349 0.894613 0.988675
Si Si5 0.323628 0.242263 0.845093
Si Si6 0.495108 0.264853 0.448468
Si Si7 0.900648 0.964134 0.894665
Si Si8 0.677403 0.433686 0.026226
O O1 0.578873 0.688549 0.414087
O O2 0.308379 0.673165 0.700956
O O3 0.451657 0.421965 0.535850
O O4 0.452451 0.617327 0.419374
O O5 0.363612 0.182982 0.543481
O O6 0.283132 0.412514 0.540365
O O7 0.285073 0.137642 0.476583
O O8 0.103330 0.197109 0.767341
O O9 0.687776 0.665305 0.438237
O O10 0.582720 0.923659 0.508335
O O11 0.479384 0.812094 0.162217
O O12 0.752211 0.842686 0.851784
O O13 0.570017 0.851656 0.927315
O O14 0.326337 0.337180 0.920801
O O15 0.222366 0.102053 0.960921
O O16 0.019062 0.053732 0.722815
#
# Coordination Sequence:
#
# PCOD8056275 Si02
#       8
#     4   4   4   4   4   4   4   4
#     4  11  26  48  70 104 145 188 239 306 356 431
#     4  11  23  44  75 100 142 190 235 299 357 432
#     4  12  28  44  76 103 146 189 244 300 360 432
#     4  12  25  44  69 108 141 192 240 296 365 429
#     4  12  26  44  73 100 145 193 238 301 361 437
#     4  11  24  45  71 104 144 188 241 295 361 433
#     4  11  26  48  71 105 147 185 243 302 361 431
#     4  12  26  47  71 110 142 189 242 301 363 429
#
# _framework density 22.071411999999999
#
# number of rings (size 3 to 8) (size 9 to 14) (size 15 to 20)
#    0.000    0.500    3.750    5.250    7.000    3.000 
#    0.000    0.000    0.000    0.000    0.000    0.000 
#    0.000    0.000    0.000    0.000    0.000    0.000 
#
# Total GULP energy -198441.392406 kJ/mol
# GULP energy per Si atom -12402.587025 kJ/mol
# Density = 2.202118 g / cm^3
# Si number density = 22.071412 Si / 1000 Ang^3
#
#
#
# Elastic Constant Matrix: (Units=GPa)
#
#
# Indices 1 2 3 4 5 6 
#
# 1 133.4757 82.1458 26.1482 -0.0004 6.9917 0.0002
# 2 82.1458 119.4480 20.0714 0.0011 0.5797 -0.0005
# 3 26.1482 20.0714 102.7514 0.0004 2.3631 -0.0002
# 4 -0.0004 0.0011 0.0004 39.6571 -0.0001 3.6397
# 5 6.9917 0.5797 2.3631 -0.0001 32.7152 0.0000
# 6 0.0002 -0.0005 -0.0002 3.6397 0.0000 49.1980
#
#
#
# Elastic Compliance Matrix: (Units=1/GPa)
#
#
# Indices 1 2 3 4 5 6 
#
# 1 0.013472 -0.008981 -0.001614 0.000000 -0.002603 0.000000
# 2 -0.008981 0.014643 -0.000614 0.000000 0.001704 0.000000
# 3 -0.001614 -0.000614 0.010272 0.000000 -0.000386 0.000000
# 4 0.000000 0.000000 0.000000 0.025389 0.000000 -0.001878
# 5 -0.002603 0.001704 -0.000386 0.000000 0.031121 0.000000
# 6 0.000000 0.000000 0.000000 -0.001878 0.000000 0.020465
#
#
# Mechanical properties :
#
#
# Convention : Reuss Voigt Hill
#
# Bulk Modulus (GPa) = 62.62337 68.04510 65.33423
# Shear Modulus (GPa) = 34.94020 39.46804 37.20412
#
# Velocity S-wave (km/s) = 3.98308 4.23330 4.11009
# Velocity P-wave (km/s) = 7.04186 7.40208 7.22422
#
# Compressibility (1/GPa) = 0.01596848
#
# Stress axis : x y z
#
# Youngs Moduli (GPa) = 74.22987 68.29236 97.35365
#
# Poissons Ratio (x) = 0.61332 0.15714
# Poissons Ratio (y) = 0.66664 0.05979
# Poissons Ratio (z) = 0.11982 0.04194
#
# Static dielectric constant tensor:
#      x y z
#    x 4.191120 0.000000 0.089180 
#    y 0.000000 4.046790 0.000000 
#    z 0.089180 0.000000 3.998800 
# 
# 
# High freq. dielectric constant tensor:
#      x y z
#    x 1.885060 0.000000 0.002260 
#    y 0.000000 1.871450 0.000000 
#    z 0.002260 0.000000 1.872350 
# 
# From -- ./inp_files/31222.got.cif
#   From: 2010.06.25/outbox.cif.g09.slc.cpg/sg9_16_cif.got.tgz:31222.got - 2010.06.27 21:40:51.
