data_PCOD8056556
_publ_section_title
;
Structure prediction by ZEFSAII (Michael W. Deem and Ramdas Pophale) SiO2 
 PCOD8056556
Probable space group: C C
;
_chemical_formula_sum "Si O2"
_cell_formula_units_Z 28
_cell_length_a 11.838814
_cell_length_b 8.514192
_cell_length_c 11.634768
_cell_angle_alpha 90.000000
_cell_angle_beta 93.750354
_cell_angle_gamma 90.000000
_cell_volume 1170.249149
_symmetry_space_group_name_H-M "C C"
_symmetry_group_IT_number 9
_symmetry_cell_setting 'monoclinic'
loop_
_space_group_symop_operation_xyz
x,y,z
x,-y,1/2+z
1/2+x,1/2+y,z
1/2+x,1/2-y,1/2+z
loop_
_atom_site_type_symbol
_atom_site_label
_atom_site_fract_x
_atom_site_fract_y
_atom_site_fract_z
Si Si1 0.405780 0.098189 0.504750
Si Si2 0.315312 0.551563 0.401702
Si Si3 0.204444 0.962400 0.836231
Si Si4 0.873785 0.325216 0.242531
Si Si5 0.466342 0.248498 0.070252
Si Si6 0.103383 0.336915 0.379654
Si Si7 0.001343 0.814554 0.338326
O O1 0.403220 0.218192 0.613252
O O2 0.497563 0.156040 0.415329
O O3 0.280103 0.082584 0.449870
O O4 0.440269 0.934695 0.562656
O O5 0.318002 0.672558 0.296174
O O6 0.362581 0.641039 0.518501
O O7 0.187412 0.484262 0.406679
O O8 0.390838 0.403403 0.375565
O O9 0.281744 0.033545 0.740091
O O10 0.113374 0.088832 0.873714
O O11 0.150015 0.795788 0.792990
O O12 0.981687 0.391030 0.321435
O O13 0.496262 0.289746 0.202002
O O14 0.577395 0.262885 0.995408
#
# Coordination Sequence:
#
# PCOD8056556 Si02
#       7
#     4   4   4   4   4   4   4
#     4  12  27  50  75 111 153 203 256 312 379 455
#     4  11  25  48  77 110 153 196 256 312 383 451
#     4  12  25  48  76 106 151 194 248 308 383 448
#     4  11  27  48  74 109 152 194 254 310 375 456
#     4  11  27  51  73 112 156 195 260 311 377 457
#     4  11  25  51  73 113 150 194 252 311 381 458
#     4  12  28  48  78 113 153 200 250 318 382 445
#
# _framework density 23.92653
#
# number of rings (size 3 to 8) (size 9 to 14) (size 15 to 20)
#    0.000    0.571    7.143    0.857    6.000    1.143 
#    2.571    0.000    0.000    0.000    0.000    0.000 
#    0.000    0.000    0.000    0.000    0.000    0.000 
#
# Total GULP energy -173515.013429 kJ/mol
# GULP energy per Si atom -12393.929531 kJ/mol
# Density = 2.387207 g / cm^3
# Si number density = 23.926530 Si / 1000 Ang^3
#
#
#
# Elastic Constant Matrix: (Units=GPa)
#
#
# Indices 1 2 3 4 5 6 
#
# 1 148.0045 54.2450 35.0114 0.0000 -7.9613 0.0000
# 2 54.2450 103.6041 33.9644 0.0000 -4.4978 0.0000
# 3 35.0114 33.9644 141.1706 0.0000 -8.8517 0.0000
# 4 0.0000 0.0000 0.0000 24.0403 0.0000 -2.0117
# 5 -7.9613 -4.4978 -8.8517 0.0000 17.1975 0.0000
# 6 0.0000 0.0000 0.0000 -2.0117 0.0000 50.5323
#
#
#
# Elastic Compliance Matrix: (Units=1/GPa)
#
#
# Indices 1 2 3 4 5 6 
#
# 1 0.008619 -0.004078 -0.001005 0.000000 0.002406 0.000000
# 2 -0.004078 0.012446 -0.001960 0.000000 0.000358 0.000000
# 3 -0.001005 -0.001960 0.008002 0.000000 0.003140 0.000000
# 4 0.000000 0.000000 0.000000 0.041736 0.000000 0.001661
# 5 0.002406 0.000358 0.003140 0.000000 0.060972 0.000000
# 6 0.000000 0.000000 0.000000 0.001661 0.000000 0.019855
#
#
# Mechanical properties :
#
#
# Convention : Reuss Voigt Hill
#
# Bulk Modulus (GPa) = 66.76757 71.02453 68.89605
# Shear Modulus (GPa) = 29.28949 36.32459 32.80704
#
# Velocity S-wave (km/s) = 3.50257 3.90060 3.70693
# Velocity P-wave (km/s) = 6.65756 7.07355 6.86871
#
# Compressibility (1/GPa) = 0.01497733
#
# Stress axis : x y z
#
# Youngs Moduli (GPa) = 116.02825 80.34865 124.97609
#
# Poissons Ratio (x) = 0.32770 0.12565
# Poissons Ratio (y) = 0.47322 0.24500
# Poissons Ratio (z) = 0.11665 0.15752
#
# Static dielectric constant tensor:
#      x y z
#    x 4.626680 0.000000 -0.243000 
#    y 0.000000 4.818240 0.000000 
#    z -0.243000 0.000000 4.266160 
# 
# 
# High freq. dielectric constant tensor:
#      x y z
#    x 1.957900 0.000000 -0.008300 
#    y 0.000000 1.969210 0.000000 
#    z -0.008300 0.000000 1.931550 
# 
# From -- ./inp_files/15948.got.cif
#   From: 2010.06.25/outbox.cif.g09.slc.cpg/sg9_8_cif.got.tgz:15948.got - 2010.06.27 21:40:51.
