data_PCOD8056902
_publ_section_title
;
Structure prediction by ZEFSAII (Michael W. Deem and Ramdas Pophale) SiO2 
 PCOD8056902
Probable space group: P 2/M
;
_chemical_formula_sum "Si O2"
_cell_formula_units_Z 32
_cell_length_a 18.051457
_cell_length_b 12.798234
_cell_length_c 9.453179
_cell_angle_alpha 90.000000
_cell_angle_beta 109.974655
_cell_angle_gamma 90.000000
_cell_volume 2052.560091
_symmetry_space_group_name_H-M "P 2/M"
_symmetry_group_IT_number 10
_symmetry_cell_setting 'monoclinic'
loop_
_space_group_symop_operation_xyz
x,y,z
-x,y,-z
-x,-y,-z
x,-y,z
loop_
_atom_site_type_symbol
_atom_site_label
_atom_site_fract_x
_atom_site_fract_y
_atom_site_fract_z
Si Si1 0.143602 0.877489 0.435199
Si Si2 0.454873 0.880830 0.111488
Si Si3 0.998689 0.124546 0.839996
Si Si4 0.421410 0.380678 0.858444
Si Si5 0.852958 0.876988 0.242305
Si Si6 0.681067 0.879709 0.445040
Si Si7 0.540481 0.259501 0.384267
Si Si8 0.316360 0.193269 0.865403
O O1 0.078119 0.827445 0.288834
O O2 0.119450 0.852434 0.580325
O O3 0.231712 0.836099 0.458614
O O4 0.145308 0.000000 0.412245
O O5 0.480514 0.816467 0.264283
O O6 0.475686 0.000000 0.157254
O O7 0.500000 0.840038 0.000000
O O8 0.362157 0.864334 0.022790
O O9 0.078015 0.162368 0.815021
O O10 0.995033 0.000000 0.833271
O O11 0.000000 0.167651 0.000000
O O12 0.394066 0.500000 0.853124
O O13 0.437441 0.355461 0.703657
O O14 0.348975 0.311209 0.869725
O O15 0.500000 0.359728 0.000000
O O16 0.775716 0.808884 0.154575
O O17 0.833876 0.000000 0.211466
O O18 0.617731 0.806529 0.481355
O O19 0.668210 0.872170 0.267758
O O20 0.669857 0.000000 0.484103
O O21 0.500000 0.303320 0.500000
#
# Coordination Sequence:
#
# PCOD8056902 Si02
#       8
#     4   4   4   4   4   4   4   4
#     4   8  14  25  40  55  76 111 152 185 210 244
#     4  11  18  28  46  64  90 127 155 182 215 258
#     4   9  16  26  37  55  86 120 151 178 208 247
#     4  10  19  35  54  67  82 111 152 197 243 274
#     4   9  16  25  42  63  86 116 147 180 213 259
#     4   9  16  27  43  62  88 121 154 186 218 258
#     4  11  21  32  43  65  95 121 154 187 226 273
#     4  10  16  29  46  69  85 109 152 196 226 261
#
# _framework density 15.590286000000001
#
# number of rings (size 3 to 8) (size 9 to 14) (size 15 to 20)
#    0.000    2.375    3.750    2.625    0.000    2.750 
#    2.250    0.000    0.000    0.000    0.000    0.000 
#    0.000   18.500    0.000    0.000    0.000   10.125 
#
# Total GULP energy -396697.015547 kJ/mol
# GULP energy per Si atom -12396.781736 kJ/mol
# Density = 1.555480 g / cm^3
# Si number density = 15.590286 Si / 1000 Ang^3
#
#
#
# Elastic Constant Matrix: (Units=GPa)
#
#
# Indices 1 2 3 4 5 6 
#
# 1 107.0943 22.0745 54.7644 0.0000 13.6976 0.0000
# 2 22.0745 53.4551 16.9066 0.0000 6.8522 0.0000
# 3 54.7644 16.9066 79.7051 0.0000 9.7445 0.0000
# 4 0.0000 0.0000 0.0000 10.0498 0.0000 0.8626
# 5 13.6976 6.8522 9.7445 0.0000 24.8275 0.0000
# 6 0.0000 0.0000 0.0000 0.8626 0.0000 10.8413
#
#
#
# Elastic Compliance Matrix: (Units=1/GPa)
#
#
# Indices 1 2 3 4 5 6 
#
# 1 0.015216 -0.002813 -0.009377 0.000000 -0.003938 0.000000
# 2 -0.002813 0.020970 -0.002098 0.000000 -0.003412 0.000000
# 3 -0.009377 -0.002098 0.019675 0.000000 -0.001970 0.000000
# 4 0.000000 0.000000 0.000000 0.100188 0.000000 -0.007971
# 5 -0.003938 -0.003412 -0.001970 0.000000 0.044166 0.000000
# 6 0.000000 0.000000 0.000000 -0.007971 0.000000 0.092874
#
#
# Mechanical properties :
#
#
# Convention : Reuss Voigt Hill
#
# Bulk Modulus (GPa) = 36.64992 47.52727 42.08859
# Shear Modulus (GPa) = 15.11677 18.91100 17.01388
#
# Velocity S-wave (km/s) = 3.11726 3.48659 3.30709
# Velocity P-wave (km/s) = 6.04282 6.83811 6.45273
#
# Compressibility (1/GPa) = 0.02728519
#
# Stress axis : x y z
#
# Youngs Moduli (GPa) = 65.72050 47.68733 50.82697
#
# Poissons Ratio (x) = 0.13415 0.47658
# Poissons Ratio (y) = 0.18488 0.10664
# Poissons Ratio (z) = 0.61623 0.10005
#
# Static dielectric constant tensor:
#      x y z
#    x 3.102970 0.000000 0.245200 
#    y 0.000000 2.569200 0.000000 
#    z 0.245200 0.000000 3.048330 
# 
# 
# High freq. dielectric constant tensor:
#      x y z
#    x 1.595440 0.000000 0.015720 
#    y 0.000000 1.542210 0.000000 
#    z 0.015720 0.000000 1.594030 
# 
# From -- ./inp_files/32587.got.cif
#   From: 2010.06.25/outbox.cif.g09.slc.cpg/sg10_17_cif.got.tgz:32587.got - 2010.06.27 22:07:45.
