data_PCOD8056841
_publ_section_title
;
Structure prediction by ZEFSAII (Michael W. Deem and Ramdas Pophale) SiO2 
 PCOD8056841
Probable space group: P 2/M
;
_chemical_formula_sum "Si O2"
_cell_formula_units_Z 24
_cell_length_a 11.180285
_cell_length_b 7.666746
_cell_length_c 16.798477
_cell_angle_alpha 90.000000
_cell_angle_beta 71.851403
_cell_angle_gamma 90.000000
_cell_volume 1368.272495
_symmetry_space_group_name_H-M "P 2/M"
_symmetry_group_IT_number 10
_symmetry_cell_setting 'monoclinic'
loop_
_space_group_symop_operation_xyz
x,y,z
-x,y,-z
-x,-y,-z
x,-y,z
loop_
_atom_site_type_symbol
_atom_site_label
_atom_site_fract_x
_atom_site_fract_y
_atom_site_fract_z
Si Si1 0.317796 0.201001 0.249748
Si Si2 0.826213 0.302390 0.579839
Si Si3 0.917415 0.805989 0.405920
Si Si4 0.550923 0.500000 0.861800
Si Si5 0.699914 0.500000 0.994234
Si Si6 0.946181 0.794976 0.767762
Si Si7 0.100098 0.796810 0.047420
O O1 0.297655 0.227745 0.349457
O O2 0.428217 0.325485 0.194951
O O3 0.191386 0.268374 0.231637
O O4 0.352116 0.000000 0.223540
O O5 0.848577 0.500000 0.601533
O O6 0.818363 0.293713 0.484341
O O7 0.944375 0.187316 0.582611
O O8 0.941756 0.718483 0.312875
O O9 0.863688 0.000000 0.407922
O O10 0.641285 0.500000 0.919159
O O11 0.406084 0.500000 0.916569
O O12 0.779566 0.675986 0.991034
O O13 0.966922 0.743521 0.855278
O O14 0.950390 0.000000 0.753699
O O15 0.142959 0.000000 0.039851
O O16 0.000000 0.759410 0.000000
#
# Coordination Sequence:
#
# PCOD8056841 Si02
#       7
#     4   4   4   2   2   4   4
#     4  10  18  31  47  65  96 131 164 198 236 288
#     4  10  16  23  36  59  89 124 162 192 228 282
#     4   9  15  23  35  56  88 126 159 188 233 282
#     4  11  22  34  50  74  96 135 168 206 241 301
#     4  11  23  36  52  73 102 125 169 210 253 285
#     4   8  15  27  44  65  93 127 160 198 238 287
#     4  10  20  36  56  75  98 130 167 206 250 296
#
# _framework density 17.540365000000001
#
# number of rings (size 3 to 8) (size 9 to 14) (size 15 to 20)
#    0.000    2.333    2.500    4.250    0.000    0.667 
#    1.500    1.667    0.000    0.000    0.000    0.000 
#    0.000    2.667    0.000   10.000    0.000    0.333 
#
# Total GULP energy -297317.723904 kJ/mol
# GULP energy per Si atom -12388.238496 kJ/mol
# Density = 1.750044 g / cm^3
# Si number density = 17.540365 Si / 1000 Ang^3
#
#
#
# Elastic Constant Matrix: (Units=GPa)
#
#
# Indices 1 2 3 4 5 6 
#
# 1 41.4909 25.0949 45.3295 0.0000 -1.3675 0.0000
# 2 25.0949 95.8432 51.8579 0.0000 -9.2354 0.0000
# 3 45.3295 51.8579 181.2739 0.0000 -8.3649 0.0000
# 4 0.0000 0.0000 0.0000 25.0941 0.0000 -4.3687
# 5 -1.3675 -9.2354 -8.3649 0.0000 17.2809 0.0000
# 6 0.0000 0.0000 0.0000 -4.3687 0.0000 10.7143
#
#
#
# Elastic Compliance Matrix: (Units=1/GPa)
#
#
# Indices 1 2 3 4 5 6 
#
# 1 0.035520 -0.005639 -0.007445 0.000000 -0.003806 0.000000
# 2 -0.005639 0.013677 -0.002236 0.000000 0.005781 0.000000
# 3 -0.007445 -0.002236 0.008117 0.000000 0.002145 0.000000
# 4 0.000000 0.000000 0.000000 0.042895 0.000000 0.017490
# 5 -0.003806 0.005781 0.002145 0.000000 0.061694 0.000000
# 6 0.000000 0.000000 0.000000 0.017490 0.000000 0.100465
#
#
# Mechanical properties :
#
#
# Convention : Reuss Voigt Hill
#
# Bulk Modulus (GPa) = 37.48839 62.57475 50.03157
# Shear Modulus (GPa) = 16.56189 23.70624 20.13407
#
# Velocity S-wave (km/s) = 3.07614 3.68030 3.39170
# Velocity P-wave (km/s) = 5.83403 7.33564 6.62750
#
# Compressibility (1/GPa) = 0.02667493
#
# Stress axis : x y z
#
# Youngs Moduli (GPa) = 28.15290 73.11574 123.20251
#
# Poissons Ratio (x) = 0.41230 0.91721
# Poissons Ratio (y) = 0.15876 0.27545
# Poissons Ratio (z) = 0.20959 0.16347
#
# Static dielectric constant tensor:
#      x y z
#    x 2.522980 0.000000 0.071220 
#    y 0.000000 3.207330 0.000000 
#    z 0.071220 0.000000 3.929430 
# 
# 
# High freq. dielectric constant tensor:
#      x y z
#    x 1.574000 0.000000 0.001440 
#    y 0.000000 1.686730 0.000000 
#    z 0.001440 0.000000 1.710160 
# 
# From -- ./inp_files/56330.got.cif
#   From: 2010.06.25/outbox.cif.g09.slc.cpg/sg10_29_cif.got.tgz:56330.got - 2010.06.27 22:07:45.
