data_PCOD8056414
_publ_section_title
;
Structure prediction by ZEFSAII (Michael W. Deem and Ramdas Pophale) SiO2 
 PCOD8056414
Probable space group: C C
;
_chemical_formula_sum "Si O2"
_cell_formula_units_Z 32
_cell_length_a 13.801274
_cell_length_b 12.314800
_cell_length_c 8.593568
_cell_angle_alpha 90.000000
_cell_angle_beta 80.801387
_cell_angle_gamma 90.000000
_cell_volume 1441.779575
_symmetry_space_group_name_H-M "C C"
_symmetry_group_IT_number 9
_symmetry_cell_setting 'monoclinic'
loop_
_space_group_symop_operation_xyz
x,y,z
x,-y,1/2+z
1/2+x,1/2+y,z
1/2+x,1/2-y,1/2+z
loop_
_atom_site_type_symbol
_atom_site_label
_atom_site_fract_x
_atom_site_fract_y
_atom_site_fract_z
Si Si1 0.704860 0.094734 0.966390
Si Si2 0.081700 0.854892 0.369650
Si Si3 0.967039 0.636540 0.486634
Si Si4 0.314669 0.557370 0.643619
Si Si5 0.769560 0.275733 0.162251
Si Si6 0.900191 0.209434 0.388765
Si Si7 0.505754 0.458179 0.680591
Si Si8 0.509684 0.921787 0.317688
O O1 0.797112 0.085190 0.827531
O O2 0.608583 0.089263 0.888806
O O3 0.706112 0.209412 0.053492
O O4 0.718296 0.996876 0.087533
O O5 0.194144 0.843186 0.287546
O O6 0.021082 0.742542 0.403423
O O7 0.085484 0.915889 0.535349
O O8 0.032668 0.926766 0.247698
O O9 0.851949 0.652525 0.554285
O O10 0.969905 0.543258 0.355044
O O11 0.023655 0.598297 0.629501
O O12 0.343745 0.670677 0.555899
O O13 0.404973 0.473422 0.609286
O O14 0.825524 0.194757 0.263952
O O15 0.992915 0.132674 0.319558
O O16 0.933134 0.333435 0.404575
#
# Coordination Sequence:
#
# PCOD8056414 Si02
#       8
#     4   4   4   4   4   4   4   4
#     4  12  24  41  69 114 130 189 249 302 349 432
#     4  12  27  44  78 104 146 185 245 303 359 429
#     4  11  26  50  67 105 151 191 230 302 360 438
#     4  12  22  39  73 101 143 177 250 305 353 413
#     4  11  26  47  68 103 149 184 242 293 361 430
#     4  11  24  45  68 102 143 193 230 301 362 425
#     4  12  22  46  71 105 140 186 236 306 360 412
#     4  11  27  44  70 100 150 187 236 284 374 427
#
# _framework density 22.194794000000002
#
# number of rings (size 3 to 8) (size 9 to 14) (size 15 to 20)
#    0.000    0.500    6.250    1.500    8.750    3.000 
#    0.000    0.000    0.000    0.000    0.000    0.000 
#    0.000    0.000    0.000    0.000    0.000    0.000 
#
# Total GULP energy -198389.885840 kJ/mol
# GULP energy per Si atom -12399.367865 kJ/mol
# Density = 2.214428 g / cm^3
# Si number density = 22.194794 Si / 1000 Ang^3
#
#
#
# Elastic Constant Matrix: (Units=GPa)
#
#
# Indices 1 2 3 4 5 6 
#
# 1 83.7640 41.3628 37.1788 0.0000 -18.0063 0.0000
# 2 41.3628 144.7732 57.9888 0.0000 2.4108 0.0000
# 3 37.1788 57.9888 103.0389 0.0000 -1.1405 0.0000
# 4 0.0000 0.0000 0.0000 53.8861 0.0000 2.5289
# 5 -18.0063 2.4108 -1.1405 0.0000 23.5495 0.0000
# 6 0.0000 0.0000 0.0000 2.5289 0.0000 22.2424
#
#
#
# Elastic Compliance Matrix: (Units=1/GPa)
#
#
# Indices 1 2 3 4 5 6 
#
# 1 0.019020 -0.003867 -0.004523 0.000000 0.014720 0.000000
# 2 -0.003867 0.009736 -0.004130 0.000000 -0.004154 0.000000
# 3 -0.004523 -0.004130 0.013635 0.000000 -0.002376 0.000000
# 4 0.000000 0.000000 0.000000 0.018657 0.000000 -0.002121
# 5 0.014720 -0.004154 -0.002376 0.000000 0.054029 0.000000
# 6 0.000000 0.000000 0.000000 -0.002121 0.000000 0.045200
#
#
# Mechanical properties :
#
#
# Convention : Reuss Voigt Hill
#
# Bulk Modulus (GPa) = 57.63760 67.18188 62.40974
# Shear Modulus (GPa) = 26.16415 32.93864 29.55139
#
# Velocity S-wave (km/s) = 3.43715 3.85654 3.65287
# Velocity P-wave (km/s) = 6.46354 7.08276 6.78022
#
# Compressibility (1/GPa) = 0.01734979
#
# Stress axis : x y z
#
# Youngs Moduli (GPa) = 52.57618 102.71600 73.34076
#
# Poissons Ratio (x) = 0.39725 0.33175
# Poissons Ratio (y) = 0.20334 0.30286
# Poissons Ratio (z) = 0.23782 0.42417
#
# Static dielectric constant tensor:
#      x y z
#    x 3.850820 0.000000 -0.113040 
#    y 0.000000 3.975270 0.000000 
#    z -0.113040 0.000000 4.210710 
# 
# 
# High freq. dielectric constant tensor:
#      x y z
#    x 1.859170 0.000000 -0.002480 
#    y 0.000000 1.873590 0.000000 
#    z -0.002480 0.000000 1.887640 
# 
# From -- ./inp_files/9079.got.cif
#   From: 2010.06.25/outbox.cif.g09.slc.cpg/sg9_5_cif.got.tgz:9079.got - 2010.06.27 21:40:51.
