data_PCOD8056072
_publ_section_title
;
Structure prediction by ZEFSAII (Michael W. Deem and Ramdas Pophale) SiO2 
 PCOD8056072
Probable space group: C C
;
_chemical_formula_sum "Si O2"
_cell_formula_units_Z 32
_cell_length_a 20.575182
_cell_length_b 11.892769
_cell_length_c 18.283655
_cell_angle_alpha 90.000000
_cell_angle_beta 19.432744
_cell_angle_gamma 90.000000
_cell_volume 1488.478771
_symmetry_space_group_name_H-M "C C"
_symmetry_group_IT_number 9
_symmetry_cell_setting 'monoclinic'
loop_
_space_group_symop_operation_xyz
x,y,z
x,-y,1/2+z
1/2+x,1/2+y,z
1/2+x,1/2-y,1/2+z
loop_
_atom_site_type_symbol
_atom_site_label
_atom_site_fract_x
_atom_site_fract_y
_atom_site_fract_z
Si Si1 0.335890 0.135724 0.861530
Si Si2 0.961208 0.949609 0.534853
Si Si3 0.920845 0.630777 0.932419
Si Si4 0.822730 0.141630 0.583540
Si Si5 0.248788 0.622530 0.402481
Si Si6 0.774318 0.159583 0.100404
Si Si7 0.966421 0.975232 0.802311
Si Si8 0.333999 0.901372 0.066467
O O1 0.424068 0.179382 0.846652
O O2 0.251307 0.242023 0.907342
O O3 0.526318 0.088410 0.616843
O O4 0.174381 0.036325 0.039367
O O5 0.895385 0.923699 0.686150
O O6 0.883417 0.855507 0.561558
O O7 0.197325 0.930665 0.282225
O O8 0.878297 0.073722 0.598656
O O9 0.124669 0.599279 0.755241
O O10 0.820469 0.722892 0.093985
O O11 0.803132 0.513192 0.050081
O O12 0.989067 0.109771 0.347316
O O13 0.296416 0.562231 0.427944
O O14 0.560617 0.111695 0.343762
O O15 0.762200 0.292741 0.096259
O O16 0.898629 0.097859 0.904236
#
# Coordination Sequence:
#
# PCOD8056072 Si02
#       8
#     4   4   4   4   4   4   4   4
#     4  12  22  37  65 100 132 172 223 283 339 389
#     4  11  26  41  63  98 139 176 218 275 340 408
#     4  12  20  39  72  98 129 164 232 291 333 386
#     4  11  21  40  65 103 128 164 224 284 335 395
#     4  12  24  39  63  99 140 176 219 277 341 406
#     4  11  24  40  63  94 136 170 231 269 336 400
#     4  11  22  41  59  96 131 169 219 277 335 395
#     4  12  23  41  66 100 131 181 218 282 337 397
#
# _framework density 21.498459
#
# number of rings (size 3 to 8) (size 9 to 14) (size 15 to 20)
#    0.000    0.500    7.500    3.000    1.750    1.000 
#    0.000    0.000    0.000    6.000    0.000    0.000 
#    0.000    0.000    0.000    0.000    0.000    0.000 
#
# Total GULP energy -198210.647458 kJ/mol
# GULP energy per Si atom -12388.165466 kJ/mol
# Density = 2.144953 g / cm^3
# Si number density = 21.498459 Si / 1000 Ang^3
#
#
#
# Elastic Constant Matrix: (Units=GPa)
#
#
# Indices 1 2 3 4 5 6 
#
# 1 44.1931 21.7676 18.6108 -0.0127 5.2195 0.0068
# 2 21.7676 158.0893 39.6493 -0.0479 9.3903 0.0335
# 3 18.6108 39.6493 127.6901 -0.0505 -3.6249 0.0347
# 4 -0.0127 -0.0479 -0.0505 28.5054 0.0112 -1.1545
# 5 5.2195 9.3903 -3.6249 0.0112 32.1849 -0.0117
# 6 0.0068 0.0335 0.0347 -1.1545 -0.0117 21.1296
#
#
#
# Elastic Compliance Matrix: (Units=1/GPa)
#
#
# Indices 1 2 3 4 5 6 
#
# 1 0.025606 -0.002538 -0.003051 0.000003 -0.003756 -0.000001
# 2 -0.002538 0.007277 -0.001945 0.000008 -0.001931 -0.000008
# 3 -0.003051 -0.001945 0.008939 0.000010 0.002069 -0.000009
# 4 0.000003 0.000008 0.000010 0.035159 -0.000013 0.001921
# 5 -0.003756 -0.001931 0.002069 -0.000013 0.032476 0.000018
# 6 -0.000001 -0.000008 -0.000009 0.001921 0.000018 0.047432
#
#
# Mechanical properties :
#
#
# Convention : Reuss Voigt Hill
#
# Bulk Modulus (GPa) = 37.37441 54.44756 45.91099
# Shear Modulus (GPa) = 27.64358 33.02696 30.33527
#
# Velocity S-wave (km/s) = 3.58975 3.92375 3.76046
# Velocity P-wave (km/s) = 5.88253 6.77562 6.34481
#
# Compressibility (1/GPa) = 0.02675627
#
# Stress axis : x y z
#
# Youngs Moduli (GPa) = 39.05308 137.41265 111.87318
#
# Poissons Ratio (x) = 0.34869 0.34130
# Poissons Ratio (y) = 0.09910 0.21756
# Poissons Ratio (z) = 0.11914 0.26722
#
# Static dielectric constant tensor:
#      x y z
#    x 3.457610 -0.000030 -0.258850 
#    y -0.000030 3.958690 0.000040 
#    z -0.258850 0.000040 4.162300 
# 
# 
# High freq. dielectric constant tensor:
#      x y z
#    x 1.803730 0.000000 -0.035280 
#    y 0.000000 1.835110 0.000000 
#    z -0.035280 0.000000 1.863600 
# 
# From -- ./inp_files/31313.got.cif
#   From: 2010.06.25/outbox.cif.g09.slc.cpg/sg9_16_cif.got.tgz:31313.got - 2010.06.27 21:40:51.
