data_PCOD8056845
_publ_section_title
;
Structure prediction by ZEFSAII (Michael W. Deem and Ramdas Pophale) SiO2 
 PCOD8056845
Probable space group: P 2/M
;
_chemical_formula_sum "Si O2"
_cell_formula_units_Z 32
_cell_length_a 13.317892
_cell_length_b 30.782586
_cell_length_c 13.273066
_cell_angle_alpha 90.000000
_cell_angle_beta 158.032728
_cell_angle_gamma 90.000000
_cell_volume 2035.507708
_symmetry_space_group_name_H-M "P 2/M"
_symmetry_group_IT_number 10
_symmetry_cell_setting 'monoclinic'
loop_
_space_group_symop_operation_xyz
x,y,z
-x,y,-z
-x,-y,-z
x,-y,z
loop_
_atom_site_type_symbol
_atom_site_label
_atom_site_fract_x
_atom_site_fract_y
_atom_site_fract_z
Si Si1 0.479717 0.096069 0.099707
Si Si2 0.282631 0.184632 0.714459
Si Si3 0.578585 0.320750 0.955969
Si Si4 0.612168 0.586988 0.898134
Si Si5 0.288179 0.549746 0.219742
Si Si6 0.059464 0.549809 0.444227
Si Si7 0.024478 0.950998 0.402791
Si Si8 0.081837 0.728955 0.461246
O O1 0.563376 0.145945 0.200964
O O2 0.675512 0.064485 0.344755
O O3 0.500000 0.088127 0.000000
O O4 0.176406 0.081802 0.843813
O O5 0.197504 0.221997 0.554901
O O6 0.000000 0.167180 0.500000
O O7 0.500000 0.202795 0.000000
O O8 0.680233 0.365154 0.001259
O O9 0.317128 0.304631 0.652477
O O10 0.500000 0.327464 0.000000
O O11 0.812464 0.284838 0.151795
O O12 0.686590 0.582134 0.850583
O O13 0.298170 0.577603 0.618939
O O14 0.792080 0.553512 0.129038
O O15 0.500000 0.564577 0.500000
O O16 0.342610 0.500000 0.235543
O O17 0.000000 0.554759 0.000000
O O18 0.150798 0.500000 0.534051
O O19 0.000000 0.568188 0.500000
O O20 0.000000 0.947960 0.500000
O O21 0.974621 0.000000 0.318541
O O22 0.000000 0.725266 0.500000
#
# Coordination Sequence:
#
# PCOD8056845 Si02
#       8
#     4   4   4   4   4   4   4   4
#     4   9  15  21  29  41  54  73 106 143 179 226
#     4  10  16  24  36  48  63  86 118 153 186 221
#     4  10  19  30  44  63  86 109 133 157 191 243
#     4  12  22  35  53  71  93 120 145 174 209 245
#     4  10  21  37  55  73  91 113 145 181 212 241
#     4  11  22  34  49  71  97 122 146 169 198 241
#     4   9  15  21  27  36  53  75  99 135 186 237
#     4   9  17  28  40  55  76 102 127 155 189 228
#
# _framework density 15.720893
#
# number of rings (size 3 to 8) (size 9 to 14) (size 15 to 20)
#    0.000    2.000    0.000    7.875    0.000    4.500 
#    0.000    0.000    0.000    0.000    0.000    0.000 
#    0.000    0.000    0.000    0.000    0.000    0.000 
#
# Total GULP energy -396540.089507 kJ/mol
# GULP energy per Si atom -12391.877797 kJ/mol
# Density = 1.568511 g / cm^3
# Si number density = 15.720893 Si / 1000 Ang^3
#
#
#
# Elastic Constant Matrix: (Units=GPa)
#
#
# Indices 1 2 3 4 5 6 
#
# 1 44.2362 20.9458 21.1869 0.0000 -4.4983 0.0000
# 2 20.9458 95.3621 32.4262 0.0000 1.3482 0.0000
# 3 21.1869 32.4262 97.3097 0.0000 5.1071 0.0000
# 4 0.0000 0.0000 0.0000 29.0049 0.0000 3.1965
# 5 -4.4983 1.3482 5.1071 0.0000 12.7234 0.0000
# 6 0.0000 0.0000 0.0000 3.1965 0.0000 2.5500
#
#
#
# Elastic Compliance Matrix: (Units=1/GPa)
#
#
# Indices 1 2 3 4 5 6 
#
# 1 0.028680 -0.004656 -0.005364 0.000000 0.012786 0.000000
# 2 -0.004656 0.012584 -0.003088 0.000000 -0.001740 0.000000
# 3 -0.005364 -0.003088 0.012826 0.000000 -0.006717 0.000000
# 4 0.000000 0.000000 0.000000 0.040003 0.000000 -0.050145
# 5 0.012786 -0.001740 -0.006717 0.000000 0.085996 0.000000
# 6 0.000000 0.000000 0.000000 -0.050145 0.000000 0.455018
#
#
# Mechanical properties :
#
#
# Convention : Reuss Voigt Hill
#
# Bulk Modulus (GPa) = 35.87693 42.89177 39.38435
# Shear Modulus (GPa) = 7.45584 19.67893 13.56739
#
# Velocity S-wave (km/s) = 2.18012 3.54187 2.94090
# Velocity P-wave (km/s) = 5.40444 6.63845 6.05297
#
# Compressibility (1/GPa) = 0.02787307
#
# Stress axis : x y z
#
# Youngs Moduli (GPa) = 34.86766 79.46768 77.96728
#
# Poissons Ratio (x) = 0.37002 0.41820
# Poissons Ratio (y) = 0.16235 0.24077
# Poissons Ratio (z) = 0.18702 0.24541
#
# Static dielectric constant tensor:
#      x y z
#    x 2.382840 0.000000 0.181590 
#    y 0.000000 3.161490 0.000000 
#    z 0.181590 0.000000 3.452200 
# 
# 
# High freq. dielectric constant tensor:
#      x y z
#    x 1.507180 0.000000 0.023480 
#    y 0.000000 1.605540 0.000000 
#    z 0.023480 0.000000 1.633970 
# 
# From -- ./inp_files/68060.got.cif
#   From: 2010.06.25/outbox.cif.g09.slc.cpg/sg10_35_cif.got.tgz:68060.got - 2010.06.27 22:07:45.
