data_PCOD8056439
_publ_section_title
;
Structure prediction by ZEFSAII (Michael W. Deem and Ramdas Pophale) SiO2 
 PCOD8056439
Probable space group: C C
;
_chemical_formula_sum "Si O2"
_cell_formula_units_Z 32
_cell_length_a 15.048702
_cell_length_b 11.889380
_cell_length_c 10.684871
_cell_angle_alpha 90.000000
_cell_angle_beta 136.456219
_cell_angle_gamma 90.000000
_cell_volume 1317.010298
_symmetry_space_group_name_H-M "C C"
_symmetry_group_IT_number 9
_symmetry_cell_setting 'monoclinic'
loop_
_space_group_symop_operation_xyz
x,y,z
x,-y,1/2+z
1/2+x,1/2+y,z
1/2+x,1/2-y,1/2+z
loop_
_atom_site_type_symbol
_atom_site_label
_atom_site_fract_x
_atom_site_fract_y
_atom_site_fract_z
Si Si1 0.579540 0.836671 0.995240
Si Si2 0.068297 0.497328 0.688263
Si Si3 0.502390 0.396382 0.833641
Si Si4 0.893837 0.659614 0.678328
Si Si5 0.733239 0.571745 0.739134
Si Si6 0.805713 0.078846 0.559636
Si Si7 0.671007 0.653101 0.279112
Si Si8 0.403755 0.802967 0.592016
O O1 0.711295 0.844504 0.049745
O O2 0.448638 0.817034 0.782773
O O3 0.558501 0.956377 0.039127
O O4 0.593313 0.740689 0.114587
O O5 0.218306 0.496937 0.879561
O O6 0.990510 0.574281 0.707677
O O7 0.015200 0.368799 0.628102
O O8 0.458874 0.268704 0.801325
O O9 0.394244 0.494000 0.730369
O O10 0.573905 0.411559 0.773803
O O11 0.588729 0.405548 0.045988
O O12 0.833469 0.594253 0.731998
O O13 0.783645 0.711290 0.474582
O O14 0.744854 0.439229 0.773099
O O15 0.769689 0.639115 0.905785
O O16 0.890391 0.167691 0.563046
#
# Coordination Sequence:
#
# PCOD8056439 Si02
#       8
#     4   4   4   4   4   4   4   4
#     4  11  26  46  79 105 146 198 251 293 362 445
#     4  11  25  47  77 105 144 192 247 301 364 431
#     4  11  26  48  72 106 149 194 246 301 362 438
#     4  11  25  46  77 106 143 194 250 300 364 441
#     4  11  27  44  75 107 152 190 242 305 378 426
#     4  11  28  45  73 112 150 187 246 306 372 428
#     4  11  24  45  76 107 140 197 250 298 357 441
#     4  11  27  47  69 112 150 192 238 304 371 436
#
# _framework density 24.297456
#
# number of rings (size 3 to 8) (size 9 to 14) (size 15 to 20)
#    0.000    1.000    2.500    1.500    8.750    9.000 
#    0.000    0.000    0.000    0.000    0.000    0.000 
#    0.000    0.000    0.000    0.000    0.000    0.000 
#
# Total GULP energy -198274.556097 kJ/mol
# GULP energy per Si atom -12392.159756 kJ/mol
# Density = 2.424215 g / cm^3
# Si number density = 24.297456 Si / 1000 Ang^3
#
#
#
# Elastic Constant Matrix: (Units=GPa)
#
#
# Indices 1 2 3 4 5 6 
#
# 1 53.2492 39.2383 35.6226 0.0000 2.2554 0.0000
# 2 39.2383 109.2512 56.6811 0.0000 8.3652 0.0000
# 3 35.6226 56.6811 226.0957 0.0000 4.8161 0.0000
# 4 0.0000 0.0000 0.0000 39.1240 0.0000 0.5935
# 5 2.2554 8.3652 4.8161 0.0000 32.6417 0.0000
# 6 0.0000 0.0000 0.0000 0.5935 0.0000 35.6125
#
#
#
# Elastic Compliance Matrix: (Units=1/GPa)
#
#
# Indices 1 2 3 4 5 6 
#
# 1 0.026349 -0.008451 -0.002047 0.000000 0.000647 0.000000
# 2 -0.008451 0.013410 -0.001976 0.000000 -0.002561 0.000000
# 3 -0.002047 -0.001976 0.005243 0.000000 -0.000126 0.000000
# 4 0.000000 0.000000 0.000000 0.025566 0.000000 -0.000426
# 5 0.000647 -0.002561 -0.000126 0.000000 0.031266 0.000000
# 6 0.000000 0.000000 0.000000 -0.000426 0.000000 0.028087
#
#
# Mechanical properties :
#
#
# Convention : Reuss Voigt Hill
#
# Bulk Modulus (GPa) = 49.86264 72.40890 61.13577
# Shear Modulus (GPa) = 30.94970 38.61258 34.78114
#
# Velocity S-wave (km/s) = 3.57288 3.99075 3.78758
# Velocity P-wave (km/s) = 6.13082 7.14846 6.65911
#
# Compressibility (1/GPa) = 0.02005509
#
# Stress axis : x y z
#
# Youngs Moduli (GPa) = 37.95243 74.57352 190.71915
#
# Poissons Ratio (x) = 0.63023 0.39031
# Poissons Ratio (y) = 0.32074 0.37679
# Poissons Ratio (z) = 0.07767 0.14733
#
# Static dielectric constant tensor:
#      x y z
#    x 4.162680 0.000000 0.011120 
#    y 0.000000 4.293050 0.000000 
#    z 0.011120 0.000000 4.949620 
# 
# 
# High freq. dielectric constant tensor:
#      x y z
#    x 1.943000 0.000000 0.001560 
#    y 0.000000 1.966870 0.000000 
#    z 0.001560 0.000000 1.994380 
# 
# From -- ./inp_files/19322.got.cif
#   From: 2010.06.25/outbox.cif.g09.slc.cpg/sg9_10_cif.got.tgz:19322.got - 2010.06.27 21:40:51.
