data_PCOD8056577
_publ_section_title
;
Structure prediction by ZEFSAII (Michael W. Deem and Ramdas Pophale) SiO2 
 PCOD8056577
Probable space group: C C
;
_chemical_formula_sum "Si O2"
_cell_formula_units_Z 32
_cell_length_a 15.207063
_cell_length_b 5.326766
_cell_length_c 19.184504
_cell_angle_alpha 90.000000
_cell_angle_beta 48.909676
_cell_angle_gamma 90.000000
_cell_volume 1171.233005
_symmetry_space_group_name_H-M "C C"
_symmetry_group_IT_number 9
_symmetry_cell_setting 'monoclinic'
loop_
_space_group_symop_operation_xyz
x,y,z
x,-y,1/2+z
1/2+x,1/2+y,z
1/2+x,1/2-y,1/2+z
loop_
_atom_site_type_symbol
_atom_site_label
_atom_site_fract_x
_atom_site_fract_y
_atom_site_fract_z
Si Si1 0.237490 0.246844 0.478550
Si Si2 0.511916 0.036642 0.129756
Si Si3 0.714067 0.734496 0.730948
Si Si4 0.726940 0.649238 0.106674
Si Si5 0.130698 0.991715 0.899428
Si Si6 0.017503 0.479927 0.271513
Si Si7 0.438572 0.457489 0.599980
Si Si8 0.420867 0.618869 0.422566
O O1 0.153859 0.480089 0.546003
O O2 0.205506 0.172178 0.415070
O O3 0.370885 0.355497 0.414853
O O4 0.208920 0.021344 0.546615
O O5 0.477562 0.264260 0.097539
O O6 0.467193 0.122708 0.229991
O O7 0.452759 0.769591 0.147102
O O8 0.758663 0.511334 0.658308
O O9 0.721160 0.667838 0.810046
O O10 0.797827 0.968175 0.665615
O O11 0.581363 0.816486 0.786362
O O12 0.606948 0.790284 0.185366
O O13 0.841317 0.822180 0.031817
O O14 0.058520 0.858859 0.872618
O O15 0.020413 0.134131 0.992943
O O16 0.913563 0.337321 0.367001
#
# Coordination Sequence:
#
# PCOD8056577 Si02
#       8
#     4   4   4   4   4   4   4   4
#     4  11  26  51  81 112 167 216 281 346 424 508
#     4  11  25  52  80 115 159 214 277 336 415 508
#     4  12  28  49  78 118 164 214 280 346 432 512
#     4  12  24  51  80 112 162 221 275 343 426 514
#     4  11  27  52  78 123 161 215 280 355 415 523
#     4  12  26  48  80 116 160 214 277 342 420 517
#     4  11  28  50  83 114 163 219 269 349 423 485
#     4  12  28  49  82 118 160 221 277 349 435 495
#
# _framework density 27.321636999999999
#
# number of rings (size 3 to 8) (size 9 to 14) (size 15 to 20)
#    0.000    0.500    3.750    3.000    8.750    1.000 
#    6.750    0.000    0.000    0.000    0.000    0.000 
#    0.000    0.000    0.000    0.000    0.000    0.000 
#
# Total GULP energy -198264.107124 kJ/mol
# GULP energy per Si atom -12391.506695 kJ/mol
# Density = 2.725945 g / cm^3
# Si number density = 27.321637 Si / 1000 Ang^3
#
#
#
# Elastic Constant Matrix: (Units=GPa)
#
#
# Indices 1 2 3 4 5 6 
#
# 1 72.0549 0.1113 35.6270 0.0018 4.9404 0.0190
# 2 0.1113 55.0997 13.1324 0.0347 5.1735 0.0206
# 3 35.6270 13.1324 168.2494 -0.0053 6.0034 -0.0075
# 4 0.0018 0.0347 -0.0053 48.2972 -0.0007 -4.4506
# 5 4.9404 5.1735 6.0034 -0.0007 51.6292 0.0018
# 6 0.0190 0.0206 -0.0075 -4.4506 0.0018 32.9589
#
#
#
# Elastic Compliance Matrix: (Units=1/GPa)
#
#
# Indices 1 2 3 4 5 6 
#
# 1 0.015605 0.000874 -0.003330 -0.000003 -0.001194 -0.000011
# 2 0.000874 0.018690 -0.001581 -0.000015 -0.001773 -0.000014
# 3 -0.003330 -0.001581 0.006783 0.000002 -0.000312 0.000005
# 4 -0.000003 -0.000015 0.000002 0.020966 0.000002 0.002831
# 5 -0.001194 -0.001773 -0.000312 0.000002 0.019697 0.000001
# 6 -0.000011 -0.000014 0.000005 0.002831 0.000001 0.030723
#
#
# Mechanical properties :
#
#
# Convention : Reuss Voigt Hill
#
# Bulk Modulus (GPa) = 30.29768 43.68280 36.99024
# Shear Modulus (GPa) = 38.01123 43.01263 40.51193
#
# Velocity S-wave (km/s) = 3.73399 3.97206 3.85486
# Velocity P-wave (km/s) = 5.45010 6.08764 5.77767
#
# Compressibility (1/GPa) = 0.03300582
#
# Stress axis : x y z
#
# Youngs Moduli (GPa) = 64.08060 53.50354 147.42285
#
# Poissons Ratio (x) = -0.04678 0.49093
# Poissons Ratio (y) = -0.05602 0.23303
# Poissons Ratio (z) = 0.21339 0.08457
#
# Static dielectric constant tensor:
#      x y z
#    x 5.281070 -0.000190 0.012760 
#    y -0.000190 4.649730 -0.000070 
#    z 0.012760 -0.000070 5.126430 
# 
# 
# High freq. dielectric constant tensor:
#      x y z
#    x 2.108710 -0.000010 -0.000400 
#    y -0.000010 2.082490 0.000000 
#    z -0.000400 0.000000 2.126930 
# 
# From -- ./inp_files/30455.got.cif
#   From: 2010.06.25/outbox.cif.g09.slc.cpg/sg9_16_cif.got.tgz:30455.got - 2010.06.27 21:40:51.
