data_PCOD8056470
_publ_section_title
;
Structure prediction by ZEFSAII (Michael W. Deem and Ramdas Pophale) SiO2 
 PCOD8056470
Probable space group: C C
;
_chemical_formula_sum "Si O2"
_cell_formula_units_Z 32
_cell_length_a 14.716422
_cell_length_b 8.412571
_cell_length_c 11.102119
_cell_angle_alpha 90.000000
_cell_angle_beta 63.544255
_cell_angle_gamma 90.000000
_cell_volume 1230.538265
_symmetry_space_group_name_H-M "C C"
_symmetry_group_IT_number 9
_symmetry_cell_setting 'monoclinic'
loop_
_space_group_symop_operation_xyz
x,y,z
x,-y,1/2+z
1/2+x,1/2+y,z
1/2+x,1/2-y,1/2+z
loop_
_atom_site_type_symbol
_atom_site_label
_atom_site_fract_x
_atom_site_fract_y
_atom_site_fract_z
Si Si1 0.938820 0.789380 0.909610
Si Si2 0.314491 0.250547 0.763326
Si Si3 0.087248 0.745722 0.434585
Si Si4 0.579433 0.827808 0.674041
Si Si5 0.673520 0.632252 0.249130
Si Si6 0.938134 0.512385 0.098123
Si Si7 0.642116 0.523477 0.518202
Si Si8 0.267518 0.463206 0.128154
O O1 0.910307 0.728296 0.794294
O O2 0.053128 0.848851 0.838947
O O3 0.858706 0.931592 0.981455
O O4 0.915058 0.651010 0.018762
O O5 0.207696 0.247971 0.897500
O O6 0.338679 0.101219 0.658467
O O7 0.316748 0.417697 0.694555
O O8 0.071943 0.772001 0.301730
O O9 0.038676 0.579756 0.495715
O O10 0.050777 0.897189 0.536163
O O11 0.595975 0.698042 0.560378
O O12 0.472764 0.913838 0.706896
O O13 0.671806 0.952774 0.620610
O O14 0.710442 0.539907 0.351590
O O15 0.696635 0.535192 0.110234
O O16 0.728706 0.801945 0.214206
#
# Coordination Sequence:
#
# PCOD8056470 Si02
#       8
#     4   4   4   4   4   4   4   4
#     4  12  26  45  74 111 152 205 253 323 385 464
#     4  11  26  45  71 110 145 196 262 316 379 457
#     4  11  25  47  74 102 151 202 251 322 378 453
#     4  11  24  47  72 109 145 207 253 312 385 455
#     4  12  27  50  78 114 158 203 261 317 397 461
#     4  12  25  45  75 108 150 198 253 319 387 456
#     4  12  25  45  81 111 146 206 258 314 383 464
#     4  11  28  48  75 111 153 205 257 321 386 466
#
# _framework density 26.004878999999999
#
# number of rings (size 3 to 8) (size 9 to 14) (size 15 to 20)
#    0.000    0.500    2.500    6.000    7.000    2.000 
#    0.000    2.500    0.000    0.000    0.000    0.000 
#    0.000    0.000    0.000    0.000    0.000    0.000 
#
# Total GULP energy -198235.123210 kJ/mol
# GULP energy per Si atom -12389.695201 kJ/mol
# Density = 2.594569 g / cm^3
# Si number density = 26.004879 Si / 1000 Ang^3
#
#
#
# Elastic Constant Matrix: (Units=GPa)
#
#
# Indices 1 2 3 4 5 6 
#
# 1 122.9295 44.8415 46.9930 0.0000 -0.8784 0.0000
# 2 44.8415 128.1065 43.3515 0.0000 7.3423 0.0000
# 3 46.9930 43.3515 117.3303 0.0000 16.3739 0.0000
# 4 0.0000 0.0000 0.0000 48.7304 0.0000 0.0660
# 5 -0.8784 7.3423 16.3739 0.0000 48.8754 0.0000
# 6 0.0000 0.0000 0.0000 0.0660 0.0000 42.2465
#
#
#
# Elastic Compliance Matrix: (Units=1/GPa)
#
#
# Indices 1 2 3 4 5 6 
#
# 1 0.010408 -0.002571 -0.003460 0.000000 0.001733 0.000000
# 2 -0.002571 0.009560 -0.002408 0.000000 -0.000676 0.000000
# 3 -0.003460 -0.002408 0.011284 0.000000 -0.003481 0.000000
# 4 0.000000 0.000000 0.000000 0.020521 0.000000 -0.000032
# 5 0.001733 -0.000676 -0.003481 0.000000 0.021759 0.000000
# 6 0.000000 0.000000 0.000000 -0.000032 0.000000 0.023671
#
#
# Mechanical properties :
#
#
# Convention : Reuss Voigt Hill
#
# Bulk Modulus (GPa) = 69.57676 70.97091 70.27384
# Shear Modulus (GPa) = 42.06180 43.51581 42.78881
#
# Velocity S-wave (km/s) = 4.02613 4.09512 4.06077
# Velocity P-wave (km/s) = 6.95890 7.05058 7.00489
#
# Compressibility (1/GPa) = 0.01437261
#
# Stress axis : x y z
#
# Youngs Moduli (GPa) = 96.08096 104.60611 88.61877
#
# Poissons Ratio (x) = 0.26899 0.30664
# Poissons Ratio (y) = 0.24707 0.21339
# Poissons Ratio (z) = 0.33246 0.25188
#
# Static dielectric constant tensor:
#      x y z
#    x 4.609240 0.000000 0.107680 
#    y 0.000000 5.053610 0.000000 
#    z 0.107680 0.000000 4.929810 
# 
# 
# High freq. dielectric constant tensor:
#      x y z
#    x 2.033260 0.000000 0.010580 
#    y 0.000000 2.068440 0.000000 
#    z 0.010580 0.000000 2.043590 
# 
# From -- ./inp_files/17924.got.cif
#   From: 2010.06.25/outbox.cif.g09.slc.cpg/sg9_9_cif.got.tgz:17924.got - 2010.06.27 21:40:51.
