data_PCOD8056991
_publ_section_title
;
Structure prediction by ZEFSAII (Michael W. Deem and Ramdas Pophale) SiO2 
 PCOD8056991
Probable space group: P 2/M
;
_chemical_formula_sum "Si O2"
_cell_formula_units_Z 24
_cell_length_a 16.615752
_cell_length_b 8.926539
_cell_length_c 15.210577
_cell_angle_alpha 90.000000
_cell_angle_beta 37.592536
_cell_angle_gamma 90.000000
_cell_volume 1376.285375
_symmetry_space_group_name_H-M "P 2/M"
_symmetry_group_IT_number 10
_symmetry_cell_setting 'monoclinic'
loop_
_space_group_symop_operation_xyz
x,y,z
-x,y,-z
-x,-y,-z
x,-y,z
loop_
_atom_site_type_symbol
_atom_site_label
_atom_site_fract_x
_atom_site_fract_y
_atom_site_fract_z
Si Si1 0.585591 0.327888 0.638900
Si Si2 0.637785 0.176603 0.419334
Si Si3 0.666417 0.177518 0.926713
Si Si4 0.617253 0.325235 0.804074
Si Si5 0.850984 0.325829 0.113656
Si Si6 0.290412 0.673741 0.940295
O O1 0.590424 0.500000 0.604755
O O2 0.655752 0.229507 0.504068
O O3 0.665668 0.304494 0.661453
O O4 0.433876 0.275775 0.780966
O O5 0.500000 0.240525 0.500000
O O6 0.758885 0.234056 0.257925
O O7 0.638647 0.000000 0.415876
O O8 0.716187 0.249807 0.790359
O O9 0.669961 0.000000 0.916621
O O10 0.520598 0.239371 0.069028
O O11 0.752634 0.232718 0.935559
O O12 0.597427 0.500000 0.842544
O O13 0.831489 0.500000 0.152277
O O14 0.816073 0.291663 0.042620
O O15 0.000000 0.273074 0.000000
O O16 0.294668 0.500000 0.963264
#
# Coordination Sequence:
#
# PCOD8056991 Si02
#       6
#     4   4   4   4   4   4
#     4   9  17  29  48  70  94 130 167 205 246 291
#     4  11  22  33  49  75 104 135 167 204 253 304
#     4  10  17  24  39  64  94 128 161 196 242 297
#     4   9  16  27  41  62  93 127 161 200 247 290
#     4  10  21  37  56  75  97 131 175 216 252 295
#     4   9  17  30  47  68  95 128 164 205 250 292
#
# _framework density 17.438243
#
# number of rings (size 3 to 8) (size 9 to 14) (size 15 to 20)
#    0.000    2.333    1.667    4.500    0.000    5.000 
#    0.000    0.000    0.000    0.000    0.000    1.167 
#    0.000    9.333    0.000    0.000    0.000    0.000 
#
# Total GULP energy -297481.332982 kJ/mol
# GULP energy per Si atom -12395.055541 kJ/mol
# Density = 1.739855 g / cm^3
# Si number density = 17.438243 Si / 1000 Ang^3
#
#
#
# Elastic Constant Matrix: (Units=GPa)
#
#
# Indices 1 2 3 4 5 6 
#
# 1 124.8934 57.3318 54.5352 0.0000 25.4899 0.0000
# 2 57.3318 88.1529 42.7012 0.0000 15.3466 0.0000
# 3 54.5352 42.7012 63.6315 0.0000 11.6877 0.0000
# 4 0.0000 0.0000 0.0000 8.8907 0.0000 -3.8196
# 5 25.4899 15.3466 11.6877 0.0000 25.1613 0.0000
# 6 0.0000 0.0000 0.0000 -3.8196 0.0000 9.0098
#
#
#
# Elastic Compliance Matrix: (Units=1/GPa)
#
#
# Indices 1 2 3 4 5 6 
#
# 1 0.015764 -0.004335 -0.008914 0.000000 -0.009185 0.000000
# 2 -0.004335 0.018721 -0.008261 0.000000 -0.003189 0.000000
# 3 -0.008914 -0.008261 0.028770 0.000000 0.000706 0.000000
# 4 0.000000 0.000000 0.000000 0.137525 0.000000 0.058302
# 5 -0.009185 -0.003189 0.000706 0.000000 0.050665 0.000000
# 6 0.000000 0.000000 0.000000 0.058302 0.000000 0.135708
#
#
# Mechanical properties :
#
#
# Convention : Reuss Voigt Hill
#
# Bulk Modulus (GPa) = 49.42586 65.09047 57.25817
# Shear Modulus (GPa) = 11.44381 16.75299 14.09840
#
# Velocity S-wave (km/s) = 2.56451 3.10289 2.84646
# Velocity P-wave (km/s) = 6.09704 7.08834 6.61129
#
# Compressibility (1/GPa) = 0.02023232
#
# Stress axis : x y z
#
# Youngs Moduli (GPa) = 63.43633 53.41737 34.75891
#
# Poissons Ratio (x) = 0.23159 0.30984
# Poissons Ratio (y) = 0.27502 0.28716
# Poissons Ratio (z) = 0.56547 0.44131
#
# Static dielectric constant tensor:
#      x y z
#    x 3.902990 0.000000 0.494810 
#    y 0.000000 3.186630 0.000000 
#    z 0.494810 0.000000 2.882310 
# 
# 
# High freq. dielectric constant tensor:
#      x y z
#    x 1.681750 0.000000 0.043070 
#    y 0.000000 1.675990 0.000000 
#    z 0.043070 0.000000 1.618190 
# 
# From -- ./inp_files/66307.got.cif
#   From: 2010.06.25/outbox.cif.g09.slc.cpg/sg10_34_cif.got.tgz:66307.got - 2010.06.27 22:07:45.
