data_PCOD8056508
_publ_section_title
;
Structure prediction by ZEFSAII (Michael W. Deem and Ramdas Pophale) SiO2 
 PCOD8056508
Probable space group: C C
;
_chemical_formula_sum "Si O2"
_cell_formula_units_Z 32
_cell_length_a 10.962284
_cell_length_b 10.747372
_cell_length_c 12.388421
_cell_angle_alpha 90.000000
_cell_angle_beta 98.186462
_cell_angle_gamma 90.000000
_cell_volume 1444.678073
_symmetry_space_group_name_H-M "C C"
_symmetry_group_IT_number 9
_symmetry_cell_setting 'monoclinic'
loop_
_space_group_symop_operation_xyz
x,y,z
x,-y,1/2+z
1/2+x,1/2+y,z
1/2+x,1/2-y,1/2+z
loop_
_atom_site_type_symbol
_atom_site_label
_atom_site_fract_x
_atom_site_fract_y
_atom_site_fract_z
Si Si1 0.212810 0.304039 0.738470
Si Si2 0.694242 0.673058 0.277345
Si Si3 0.458017 0.795914 0.159441
Si Si4 0.108151 0.087288 0.853911
Si Si5 0.524324 0.044958 0.076131
Si Si6 0.785031 0.318158 0.556978
Si Si7 0.877347 0.832667 0.440794
Si Si8 0.221392 0.438326 0.963409
O O1 0.342865 0.255712 0.711178
O O2 0.137463 0.181918 0.761438
O O3 0.138582 0.381175 0.641202
O O4 0.229760 0.394497 0.841824
O O5 0.583552 0.766005 0.237169
O O6 0.633905 0.551162 0.319778
O O7 0.770155 0.640100 0.178996
O O8 0.783498 0.735124 0.375924
O O9 0.459051 0.945667 0.148157
O O10 0.459964 0.736922 0.040159
O O11 0.964254 0.106020 0.861278
O O12 0.185363 0.113408 0.971083
O O13 0.419577 0.143072 0.029143
O O14 0.580562 0.973272 0.978913
O O15 0.771627 0.169255 0.548711
O O16 0.805189 0.941735 0.492094
#
# Coordination Sequence:
#
# PCOD8056508 Si02
#       8
#     4   4   4   4   4   4   4   4
#     4  11  25  45  68 103 140 192 239 299 363 429
#     4  12  25  45  76 108 148 198 238 298 374 421
#     4  12  24  46  71 105 149 185 248 303 353 442
#     4  11  25  45  69 106 148 187 246 298 355 441
#     4  12  24  45  73  99 143 191 239 299 362 425
#     4  11  25  46  69 106 145 193 242 303 358 430
#     4  12  25  45  72 107 146 192 242 301 365 429
#     4  11  25  45  70 100 145 188 242 297 364 435
#
# _framework density 22.150265000000001
#
# number of rings (size 3 to 8) (size 9 to 14) (size 15 to 20)
#    0.000    0.500    3.750    4.500    0.000    8.000 
#    2.250    0.000    0.000    0.000    0.000    0.000 
#    0.000    0.000    0.000    0.000    0.000    0.000 
#
# Total GULP energy -198471.009092 kJ/mol
# GULP energy per Si atom -12404.438068 kJ/mol
# Density = 2.209985 g / cm^3
# Si number density = 22.150265 Si / 1000 Ang^3
#
#
#
# Elastic Constant Matrix: (Units=GPa)
#
#
# Indices 1 2 3 4 5 6 
#
# 1 141.7843 37.5131 20.1923 0.0000 -18.5943 0.0000
# 2 37.5131 95.9720 13.6332 0.0000 -6.9998 0.0000
# 3 20.1923 13.6332 66.0648 0.0000 -9.1503 0.0000
# 4 0.0000 0.0000 0.0000 22.1219 0.0000 -4.9106
# 5 -18.5943 -6.9998 -9.1503 0.0000 34.3787 0.0000
# 6 0.0000 0.0000 0.0000 -4.9106 0.0000 47.7005
#
#
#
# Elastic Compliance Matrix: (Units=1/GPa)
#
#
# Indices 1 2 3 4 5 6 
#
# 1 0.008494 -0.002842 -0.001509 0.000000 0.003614 0.000000
# 2 -0.002842 0.011777 -0.001498 0.000000 0.000462 0.000000
# 3 -0.001509 -0.001498 0.016355 0.000000 0.003232 0.000000
# 4 0.000000 0.000000 0.000000 0.046261 0.000000 0.004762
# 5 0.003614 0.000462 0.003232 0.000000 0.031997 0.000000
# 6 0.000000 0.000000 0.000000 0.004762 0.000000 0.021454
#
#
# Mechanical properties :
#
#
# Convention : Reuss Voigt Hill
#
# Bulk Modulus (GPa) = 40.11589 49.61095 44.86342
# Shear Modulus (GPa) = 31.98068 36.33904 34.15986
#
# Velocity S-wave (km/s) = 3.80387 4.05479 3.93133
# Velocity P-wave (km/s) = 6.11904 6.66092 6.39572
#
# Compressibility (1/GPa) = 0.02492778
#
# Stress axis : x y z
#
# Youngs Moduli (GPa) = 117.73370 84.91090 61.14502
#
# Poissons Ratio (x) = 0.24132 0.09227
# Poissons Ratio (y) = 0.33461 0.09157
# Poissons Ratio (z) = 0.17767 0.12717
#
# Static dielectric constant tensor:
#      x y z
#    x 4.112950 0.000000 -0.134680 
#    y 0.000000 4.167410 0.000000 
#    z -0.134680 0.000000 3.887670 
# 
# 
# High freq. dielectric constant tensor:
#      x y z
#    x 1.888200 0.000000 -0.008550 
#    y 0.000000 1.886030 0.000000 
#    z -0.008550 0.000000 1.864520 
# 
# From -- ./inp_files/16510.got.cif
#   From: 2010.06.25/outbox.cif.g09.slc.cpg/sg9_9_cif.got.tgz:16510.got - 2010.06.27 21:40:51.
