data_PCOD8056375
_publ_section_title
;
Structure prediction by ZEFSAII (Michael W. Deem and Ramdas Pophale) SiO2 
 PCOD8056375
Probable space group: C C
;
_chemical_formula_sum "Si O2"
_cell_formula_units_Z 32
_cell_length_a 9.483451
_cell_length_b 15.962557
_cell_length_c 11.101240
_cell_angle_alpha 90.000000
_cell_angle_beta 123.797100
_cell_angle_gamma 90.000000
_cell_volume 1396.522635
_symmetry_space_group_name_H-M "C C"
_symmetry_group_IT_number 9
_symmetry_cell_setting 'monoclinic'
loop_
_space_group_symop_operation_xyz
x,y,z
x,-y,1/2+z
1/2+x,1/2+y,z
1/2+x,1/2-y,1/2+z
loop_
_atom_site_type_symbol
_atom_site_label
_atom_site_fract_x
_atom_site_fract_y
_atom_site_fract_z
Si Si1 0.950810 0.857716 0.952830
Si Si2 0.667851 0.062475 0.174775
Si Si3 0.029870 0.677594 0.902983
Si Si4 0.890786 0.418325 0.745426
Si Si5 0.221256 0.923112 0.253779
Si Si6 0.089338 0.119525 0.936881
Si Si7 0.148171 0.304842 0.975907
Si Si8 0.708729 0.875355 0.247321
O O1 0.858412 0.909704 0.803457
O O2 0.810361 0.841895 0.986510
O O3 0.048913 0.774937 0.950659
O O4 0.089213 0.918420 0.080787
O O5 0.524671 0.087279 0.201560
O O6 0.652166 0.962175 0.155565
O O7 0.631495 0.113253 0.036178
O O8 0.091731 0.658662 0.797941
O O9 0.827741 0.662779 0.813020
O O10 0.866268 0.507314 0.798608
O O11 0.705321 0.395817 0.608126
O O12 0.969436 0.354773 0.879815
O O13 0.130881 0.938902 0.340262
O O14 0.116453 0.214114 0.906579
O O15 0.896643 0.108596 0.888300
O O16 0.199066 0.303941 0.140770
#
# Coordination Sequence:
#
# PCOD8056375 Si02
#       8
#     4   4   4   4   4   4   4   4
#     4  11  24  44  74 103 138 189 240 287 351 428
#     4  11  24  44  69 103 146 186 231 292 358 415
#     4  12  25  45  74 102 143 191 237 289 356 424
#     4  11  24  42  72 106 139 185 240 291 345 423
#     4  12  23  43  71 105 137 185 239 288 346 428
#     4  12  25  44  71 104 142 186 236 289 353 425
#     4  11  24  45  72 102 143 187 235 290 359 418
#     4  12  27  45  69 105 150 183 234 298 360 415
#
# _framework density 22.914059000000002
#
# number of rings (size 3 to 8) (size 9 to 14) (size 15 to 20)
#    0.000    0.500    5.000    3.000    3.500    3.000 
#    0.000    3.750    0.000    0.000    0.000    0.000 
#    0.000    0.000    0.000    0.000    0.000    0.000 
#
# Total GULP energy -198379.166459 kJ/mol
# GULP energy per Si atom -12398.697904 kJ/mol
# Density = 2.286191 g / cm^3
# Si number density = 22.914059 Si / 1000 Ang^3
#
#
#
# Elastic Constant Matrix: (Units=GPa)
#
#
# Indices 1 2 3 4 5 6 
#
# 1 72.2573 11.9438 18.9640 0.0000 -4.3247 0.0000
# 2 11.9438 82.0606 16.5966 0.0000 -6.6812 0.0000
# 3 18.9640 16.5966 105.2870 0.0000 7.8751 0.0000
# 4 0.0000 0.0000 0.0000 39.4303 0.0000 5.2222
# 5 -4.3247 -6.6812 7.8751 0.0000 44.0547 0.0000
# 6 0.0000 0.0000 0.0000 5.2222 0.0000 30.3434
#
#
#
# Elastic Compliance Matrix: (Units=1/GPa)
#
#
# Indices 1 2 3 4 5 6 
#
# 1 0.014863 -0.001507 -0.002566 0.000000 0.001689 0.000000
# 2 -0.001507 0.012973 -0.001936 0.000000 0.002166 0.000000
# 3 -0.002566 -0.001936 0.010446 0.000000 -0.002413 0.000000
# 4 0.000000 0.000000 0.000000 0.025953 0.000000 -0.004467
# 5 0.001689 0.002166 -0.002413 0.000000 0.023625 0.000000
# 6 0.000000 0.000000 0.000000 -0.004467 0.000000 0.033725
#
#
# Mechanical properties :
#
#
# Convention : Reuss Voigt Hill
#
# Bulk Modulus (GPa) = 38.07313 39.40152 38.73733
# Shear Modulus (GPa) = 35.12332 36.90572 36.01452
#
# Velocity S-wave (km/s) = 3.91938 4.01760 3.96880
# Velocity P-wave (km/s) = 6.09375 6.22528 6.15987
#
# Compressibility (1/GPa) = 0.02626524
#
# Stress axis : x y z
#
# Youngs Moduli (GPa) = 67.28108 77.08199 95.73425
#
# Poissons Ratio (x) = 0.11615 0.24565
# Poissons Ratio (y) = 0.10138 0.18530
# Poissons Ratio (z) = 0.17264 0.14920
#
# Static dielectric constant tensor:
#      x y z
#    x 3.867110 0.000000 0.220810 
#    y 0.000000 4.116240 0.000000 
#    z 0.220810 0.000000 4.206840 
# 
# 
# High freq. dielectric constant tensor:
#      x y z
#    x 1.896140 0.000000 0.012210 
#    y 0.000000 1.903730 0.000000 
#    z 0.012210 0.000000 1.917250 
# 
# From -- ./inp_files/14809.got.cif
#   From: 2010.06.25/outbox.cif.g09.slc.cpg/sg9_8_cif.got.tgz:14809.got - 2010.06.27 21:40:51.
