data_PCOD8056762
_publ_section_title
;
Structure prediction by ZEFSAII (Michael W. Deem and Ramdas Pophale) SiO2 
 PCOD8056762
Probable space group: C C
;
_chemical_formula_sum "Si O2"
_cell_formula_units_Z 32
_cell_length_a 14.368044
_cell_length_b 11.368053
_cell_length_c 8.226500
_cell_angle_alpha 90.000000
_cell_angle_beta 106.986595
_cell_angle_gamma 90.000000
_cell_volume 1285.068294
_symmetry_space_group_name_H-M "C C"
_symmetry_group_IT_number 9
_symmetry_cell_setting 'monoclinic'
loop_
_space_group_symop_operation_xyz
x,y,z
x,-y,1/2+z
1/2+x,1/2+y,z
1/2+x,1/2-y,1/2+z
loop_
_atom_site_type_symbol
_atom_site_label
_atom_site_fract_x
_atom_site_fract_y
_atom_site_fract_z
Si Si1 0.805940 0.327269 0.565450
Si Si2 0.488987 0.551225 0.272627
Si Si3 0.161913 0.573172 0.863184
Si Si4 0.839826 0.558434 0.431456
Si Si5 0.855356 0.076887 0.477072
Si Si6 0.049210 0.603630 0.492645
Si Si7 0.097369 0.178158 0.832597
Si Si8 0.660915 0.680396 0.491948
O O1 0.839642 0.415673 0.438146
O O2 0.822701 0.390959 0.744311
O O3 0.857327 0.198617 0.580901
O O4 0.692871 0.305288 0.487490
O O5 0.395698 0.603357 0.319517
O O6 0.438369 0.515012 0.078447
O O7 0.539719 0.433925 0.370640
O O8 0.575737 0.648070 0.316462
O O9 0.136835 0.614749 0.667736
O O10 0.248900 0.478500 0.907382
O O11 0.067878 0.514838 0.898823
O O12 0.193952 0.685866 0.983191
O O13 0.756687 0.601498 0.514255
O O14 0.947732 0.598508 0.539380
O O15 0.038164 0.705141 0.350311
O O16 0.118591 0.163960 0.651300
#
# Coordination Sequence:
#
# PCOD8056762 Si02
#       8
#     4   4   4   4   4   4   4   4
#     4  12  27  52  80 115 162 209 262 336 396 476
#     4  12  28  50  80 113 157 209 269 324 398 471
#     4  12  28  48  77 116 160 210 263 325 402 470
#     4  12  28  49  82 115 155 208 267 325 404 475
#     4  12  29  51  81 117 161 210 267 330 400 474
#     4  12  27  50  78 111 158 207 263 332 393 479
#     4  12  26  51  77 109 163 206 265 334 394 467
#     4  12  29  49  77 116 160 211 264 330 397 472
#
# _framework density 24.901402999999998
#
# number of rings (size 3 to 8) (size 9 to 14) (size 15 to 20)
#    0.000    0.000    3.750    4.500   10.500    0.000 
#    0.000    0.000    0.000    0.000    0.000    0.000 
#    0.000    0.000    0.000    0.000    0.000    0.000 
#
# Total GULP energy -198328.406722 kJ/mol
# GULP energy per Si atom -12395.525420 kJ/mol
# Density = 2.484473 g / cm^3
# Si number density = 24.901403 Si / 1000 Ang^3
#
#
#
# Elastic Constant Matrix: (Units=GPa)
#
#
# Indices 1 2 3 4 5 6 
#
# 1 141.7689 45.7318 23.0973 0.0000 -7.4526 0.0000
# 2 45.7318 123.2643 33.3208 0.0000 -11.1953 0.0000
# 3 23.0973 33.3208 79.8166 0.0000 -5.7744 0.0000
# 4 0.0000 0.0000 0.0000 40.8769 0.0000 -4.2658
# 5 -7.4526 -11.1953 -5.7744 0.0000 34.1648 0.0000
# 6 0.0000 0.0000 0.0000 -4.2658 0.0000 37.2988
#
#
#
# Elastic Compliance Matrix: (Units=1/GPa)
#
#
# Indices 1 2 3 4 5 6 
#
# 1 0.008135 -0.002628 -0.001206 0.000000 0.000710 0.000000
# 2 -0.002628 0.010189 -0.003334 0.000000 0.002202 0.000000
# 3 -0.001206 -0.003334 0.014347 0.000000 0.001069 0.000000
# 4 0.000000 0.000000 0.000000 0.024759 0.000000 0.002832
# 5 0.000710 0.002202 0.001069 0.000000 0.030327 0.000000
# 6 0.000000 0.000000 0.000000 0.002832 0.000000 0.027134
#
#
# Mechanical properties :
#
#
# Convention : Reuss Voigt Hill
#
# Bulk Modulus (GPa) = 54.53744 61.01662 57.77703
# Shear Modulus (GPa) = 36.94459 38.64809 37.79634
#
# Velocity S-wave (km/s) = 3.85598 3.94387 3.90017
# Velocity P-wave (km/s) = 6.46325 6.73018 6.59807
#
# Compressibility (1/GPa) = 0.01833603
#
# Stress axis : x y z
#
# Youngs Moduli (GPa) = 122.92312 98.14756 69.70230
#
# Poissons Ratio (x) = 0.25791 0.08405
# Poissons Ratio (y) = 0.32302 0.23237
# Poissons Ratio (z) = 0.14822 0.32720
#
# Static dielectric constant tensor:
#      x y z
#    x 4.635600 0.000000 0.076200 
#    y 0.000000 4.593200 0.000000 
#    z 0.076200 0.000000 4.229430 
# 
# 
# High freq. dielectric constant tensor:
#      x y z
#    x 2.005490 0.000000 0.004740 
#    y 0.000000 1.998420 0.000000 
#    z 0.004740 0.000000 1.985580 
# 
# From -- ./inp_files/9297.got.cif
#   From: 2010.06.25/outbox.cif.g09.slc.cpg/sg9_5_cif.got.tgz:9297.got - 2010.06.27 21:40:51.
