data_PCOD8056065
_publ_section_title
;
Structure prediction by ZEFSAII (Michael W. Deem and Ramdas Pophale) SiO2 
 PCOD8056065
Probable space group: C C
;
_chemical_formula_sum "Si O2"
_cell_formula_units_Z 28
_cell_length_a 15.879769
_cell_length_b 18.555276
_cell_length_c 5.385709
_cell_angle_alpha 90.000000
_cell_angle_beta 61.468175
_cell_angle_gamma 90.000000
_cell_volume 1394.189876
_symmetry_space_group_name_H-M "C C"
_symmetry_group_IT_number 9
_symmetry_cell_setting 'monoclinic'
loop_
_space_group_symop_operation_xyz
x,y,z
x,-y,1/2+z
1/2+x,1/2+y,z
1/2+x,1/2-y,1/2+z
loop_
_atom_site_type_symbol
_atom_site_label
_atom_site_fract_x
_atom_site_fract_y
_atom_site_fract_z
Si Si1 0.312180 0.955570 0.470860
Si Si2 0.237534 0.185688 0.906872
Si Si3 0.172391 0.455784 0.261385
Si Si4 0.497610 0.877628 0.338562
Si Si5 0.397763 0.230684 0.344023
Si Si6 0.584592 0.768608 0.856588
Si Si7 0.251694 0.689693 0.765291
O O1 0.236542 0.888865 0.561493
O O2 0.421362 0.927120 0.301061
O O3 0.293169 0.992805 0.762753
O O4 0.321257 0.177922 0.583820
O O5 0.133389 0.201961 0.934552
O O6 0.268620 0.254051 0.023151
O O7 0.190235 0.504804 0.475677
O O8 0.062832 0.426657 0.426588
O O9 0.249314 0.390915 0.163747
O O10 0.441152 0.816221 0.562822
O O11 0.570686 0.839569 0.044544
O O12 0.481714 0.258886 0.405605
O O13 0.341482 0.301297 0.325603
O O14 0.650368 0.792933 0.536297
#
# Coordination Sequence:
#
# PCOD8056065 Si02
#       7
#     4   4   4   4   4   4   4
#     4  12  26  41  64  98 142 177 210 271 342 410
#     4  11  23  40  65  91 132 178 227 267 322 394
#     4  12  26  41  64  98 142 177 210 271 342 410
#     4  12  22  40  62 104 132 176 206 274 346 402
#     4  11  21  38  67  95 129 169 227 276 321 380
#     4  11  21  38  67  95 129 169 227 276 321 380
#     4  11  23  40  65  91 132 178 227 267 322 394
#
# _framework density 20.083345999999999
#
# number of rings (size 3 to 8) (size 9 to 14) (size 15 to 20)
#    0.000    0.571    5.714    2.571    4.000    0.000 
#    0.000    0.000    0.000    1.714    0.000    0.000 
#    0.000    0.000    0.000    0.000    0.000    0.000 
#
# Total GULP energy -173613.111773 kJ/mol
# GULP energy per Si atom -12400.936555 kJ/mol
# Density = 2.003764 g / cm^3
# Si number density = 20.083346 Si / 1000 Ang^3
#
#
#
# Elastic Constant Matrix: (Units=GPa)
#
#
# Indices 1 2 3 4 5 6 
#
# 1 149.9257 68.8764 19.1502 0.0000 15.6663 0.0000
# 2 68.8764 126.3618 24.0857 0.0000 14.8264 0.0000
# 3 19.1502 24.0857 61.7855 0.0000 16.0002 0.0000
# 4 0.0000 0.0000 0.0000 27.2637 0.0000 13.2173
# 5 15.6663 14.8264 16.0002 0.0000 28.1520 0.0000
# 6 0.0000 0.0000 0.0000 13.2173 0.0000 40.1912
#
#
#
# Elastic Compliance Matrix: (Units=1/GPa)
#
#
# Indices 1 2 3 4 5 6 
#
# 1 0.009082 -0.004591 -0.000402 0.000000 -0.002408 0.000000
# 2 -0.004591 0.011101 -0.002406 0.000000 -0.001924 0.000000
# 3 -0.000402 -0.002406 0.019771 0.000000 -0.009746 0.000000
# 4 0.000000 0.000000 0.000000 0.043636 0.000000 -0.014350
# 5 -0.002408 -0.001924 -0.009746 0.000000 0.043414 0.000000
# 6 0.000000 0.000000 0.000000 -0.014350 0.000000 0.029600
#
#
# Mechanical properties :
#
#
# Convention : Reuss Voigt Hill
#
# Bulk Modulus (GPa) = 39.75169 62.47750 51.11460
# Shear Modulus (GPa) = 27.81058 34.18544 30.99801
#
# Velocity S-wave (km/s) = 3.72527 4.13022 3.93296
# Velocity P-wave (km/s) = 6.19192 7.34313 6.79196
#
# Compressibility (1/GPa) = 0.02515616
#
# Stress axis : x y z
#
# Youngs Moduli (GPa) = 110.10591 90.08386 50.57795
#
# Poissons Ratio (x) = 0.41361 0.02031
# Poissons Ratio (y) = 0.50554 0.12170
# Poissons Ratio (z) = 0.04422 0.21675
#
# Static dielectric constant tensor:
#      x y z
#    x 4.035840 0.000000 0.200980 
#    y 0.000000 3.681430 0.000000 
#    z 0.200980 0.000000 3.551960 
# 
# 
# High freq. dielectric constant tensor:
#      x y z
#    x 1.791840 0.000000 0.024090 
#    y 0.000000 1.768050 0.000000 
#    z 0.024090 0.000000 1.780580 
# 
# From -- ./inp_files/1642.got.cif
#   From: 2010.06.25/outbox.cif.g09.slc.cpg/sg9_1_cif.got.tgz:1642.got - 2010.06.27 21:40:51.
