data_PCOD8056642
_publ_section_title
;
Structure prediction by ZEFSAII (Michael W. Deem and Ramdas Pophale) SiO2 
 PCOD8056642
Probable space group: C C
;
_chemical_formula_sum "Si O2"
_cell_formula_units_Z 28
_cell_length_a 19.505474
_cell_length_b 6.688896
_cell_length_c 10.020090
_cell_angle_alpha 90.000000
_cell_angle_beta 77.801611
_cell_angle_gamma 90.000000
_cell_volume 1277.805083
_symmetry_space_group_name_H-M "C C"
_symmetry_group_IT_number 9
_symmetry_cell_setting 'monoclinic'
loop_
_space_group_symop_operation_xyz
x,y,z
x,-y,1/2+z
1/2+x,1/2+y,z
1/2+x,1/2-y,1/2+z
loop_
_atom_site_type_symbol
_atom_site_label
_atom_site_fract_x
_atom_site_fract_y
_atom_site_fract_z
Si Si1 0.921940 0.339103 0.125000
Si Si2 0.307099 0.080693 0.048609
Si Si3 0.536811 0.068085 0.203995
Si Si4 0.097455 0.698848 0.905608
Si Si5 0.756775 0.704055 0.350121
Si Si6 0.003735 0.074393 0.896577
Si Si7 0.356795 0.425891 0.857188
O O1 0.883045 0.474224 0.030647
O O2 0.862484 0.202567 0.219030
O O3 0.957792 0.482483 0.220459
O O4 0.982811 0.207618 0.032519
O O5 0.269503 0.089689 0.206545
O O6 0.316499 0.303686 0.988145
O O7 0.258978 0.954528 0.968687
O O8 0.534923 0.288538 0.266774
O O9 0.580792 0.919355 0.277656
O O10 0.570353 0.076577 0.043809
O O11 0.180651 0.701367 0.881912
O O12 0.063460 0.918879 0.915597
O O13 0.816150 0.870960 0.345777
O O14 0.935773 0.961132 0.871907
#
# Coordination Sequence:
#
# PCOD8056642 Si02
#       7
#     4   4   4   4   4   4   4
#     4  12  22  46  74 112 142 188 244 306 362 426
#     4  12  26  48  73 108 146 188 244 304 358 437
#     4  12  26  48  73 108 146 188 244 304 358 437
#     4  12  30  47  74 107 148 197 241 298 369 439
#     4  12  30  47  74 107 148 197 241 298 369 439
#     4  12  24  45  74 105 144 187 243 297 364 425
#     4  12  24  45  74 105 144 187 243 297 364 425
#
# _framework density 21.912576999999999
#
# number of rings (size 3 to 8) (size 9 to 14) (size 15 to 20)
#    0.000    0.000    5.714    4.286    4.000    1.143 
#    0.000    0.000    0.000    0.000    0.000    0.000 
#    0.000    0.000    0.000    0.000    0.000    0.000 
#
# Total GULP energy -173712.275619 kJ/mol
# GULP energy per Si atom -12408.019687 kJ/mol
# Density = 2.186270 g / cm^3
# Si number density = 21.912577 Si / 1000 Ang^3
#
#
#
# Elastic Constant Matrix: (Units=GPa)
#
#
# Indices 1 2 3 4 5 6 
#
# 1 79.4548 17.0533 23.7249 0.0000 3.3646 0.0000
# 2 17.0533 95.2159 45.6214 0.0000 5.0823 0.0000
# 3 23.7249 45.6214 117.5305 0.0000 15.8828 0.0000
# 4 0.0000 0.0000 0.0000 42.9215 0.0000 6.5025
# 5 3.3646 5.0823 15.8828 0.0000 29.6165 0.0000
# 6 0.0000 0.0000 0.0000 6.5025 0.0000 27.5841
#
#
#
# Elastic Compliance Matrix: (Units=1/GPa)
#
#
# Indices 1 2 3 4 5 6 
#
# 1 0.013537 -0.001372 -0.002182 0.000000 -0.000132 0.000000
# 2 -0.001372 0.013048 -0.004859 0.000000 0.000522 0.000000
# 3 -0.002182 -0.004859 0.011524 0.000000 -0.005098 0.000000
# 4 0.000000 0.000000 0.000000 0.024161 0.000000 -0.005696
# 5 -0.000132 0.000522 -0.005098 0.000000 0.036424 0.000000
# 6 0.000000 0.000000 0.000000 -0.005696 0.000000 0.037595
#
#
# Mechanical properties :
#
#
# Convention : Reuss Voigt Hill
#
# Bulk Modulus (GPa) = 46.98358 51.66671 49.32515
# Shear Modulus (GPa) = 31.20890 33.74454 32.47672
#
# Velocity S-wave (km/s) = 3.77801 3.92849 3.85399
# Velocity P-wave (km/s) = 6.36546 6.64885 6.50870
#
# Compressibility (1/GPa) = 0.02128403
#
# Stress axis : x y z
#
# Youngs Moduli (GPa) = 73.86922 76.63915 86.77660
#
# Poissons Ratio (x) = 0.10514 0.18937
# Poissons Ratio (y) = 0.10134 0.42160
# Poissons Ratio (z) = 0.16120 0.37235
#
# Static dielectric constant tensor:
#      x y z
#    x 3.802220 0.000000 0.151010 
#    y 0.000000 4.125480 0.000000 
#    z 0.151010 0.000000 4.041780 
# 
# 
# High freq. dielectric constant tensor:
#      x y z
#    x 1.851040 0.000000 0.011870 
#    y 0.000000 1.877230 0.000000 
#    z 0.011870 0.000000 1.876110 
# 
# From -- ./inp_files/19580.got.cif
#   From: 2010.06.25/outbox.cif.g09.slc.cpg/sg9_10_cif.got.tgz:19580.got - 2010.06.27 21:40:51.
