data_PCOD8056843
_publ_section_title
;
Structure prediction by ZEFSAII (Michael W. Deem and Ramdas Pophale) SiO2 
 PCOD8056843
Probable space group: P 2/M
;
_chemical_formula_sum "Si O2"
_cell_formula_units_Z 28
_cell_length_a 28.017315
_cell_length_b 9.623434
_cell_length_c 13.904176
_cell_angle_alpha 90.000000
_cell_angle_beta 29.608127
_cell_angle_gamma 90.000000
_cell_volume 1852.192412
_symmetry_space_group_name_H-M "P 2/M"
_symmetry_group_IT_number 10
_symmetry_cell_setting 'monoclinic'
loop_
_space_group_symop_operation_xyz
x,y,z
-x,y,-z
-x,-y,-z
x,-y,z
loop_
_atom_site_type_symbol
_atom_site_label
_atom_site_fract_x
_atom_site_fract_y
_atom_site_fract_z
Si Si1 0.732324 0.335720 0.665240
Si Si2 0.114982 0.839680 0.904571
Si Si3 0.569374 0.335757 0.087364
Si Si4 0.106380 0.839305 0.698813
Si Si5 0.611240 0.655778 0.702668
Si Si6 0.277487 0.343859 0.688563
Si Si7 0.470292 0.665626 0.448973
O O1 0.752749 0.500000 0.618145
O O2 0.833092 0.253997 0.482340
O O3 0.663193 0.272812 0.702474
O O4 0.678174 0.302154 0.861502
O O5 0.127523 0.793307 0.771531
O O6 0.183203 0.753065 0.857053
O O7 0.143326 0.000000 0.865210
O O8 0.005494 0.814018 0.129707
O O9 0.550329 0.500000 0.122427
O O10 0.490432 0.272614 0.150030
O O11 0.546941 0.278931 0.234164
O O12 0.133669 0.000000 0.636437
O O13 0.589291 0.500000 0.775397
O O14 0.683590 0.658547 0.487193
O O15 0.247064 0.500000 0.771417
O O16 0.361206 0.287187 0.613459
O O17 0.500000 0.729665 0.500000
O O18 0.473371 0.500000 0.446804
#
# Coordination Sequence:
#
# PCOD8056843 Si02
#       7
#     4   4   4   4   4   4   4
#     4  10  16  23  38  59  80 106 137 167 195 224
#     4   9  17  29  41  54  77 111 142 165 197 240
#     4   8  14  22  35  56  81 108 135 159 191 240
#     4   9  18  29  39  53  79 113 141 164 197 240
#     4   8  13  21  33  54  81 105 129 158 190 225
#     4   9  15  24  41  63  82 103 135 169 198 231
#     4   8  14  25  41  63  88 108 128 161 204 244
#
# _framework density 15.11722
#
# number of rings (size 3 to 8) (size 9 to 14) (size 15 to 20)
#    0.000    3.286    1.429    3.000    0.000    2.286 
#    0.000    1.429    0.000    5.571    0.000    1.000 
#    0.000    8.000    0.000    0.000    0.000    0.000 
#
# Total GULP energy -346898.027507 kJ/mol
# GULP energy per Si atom -12389.215268 kJ/mol
# Density = 1.508281 g / cm^3
# Si number density = 15.117220 Si / 1000 Ang^3
#
#
#
# Elastic Constant Matrix: (Units=GPa)
#
#
# Indices 1 2 3 4 5 6 
#
# 1 82.5030 25.2999 43.3883 0.0000 -4.7275 0.0000
# 2 25.2999 36.5283 38.8181 0.0000 -7.8366 0.0000
# 3 43.3883 38.8181 99.9652 0.0000 -8.4788 0.0000
# 4 0.0000 0.0000 0.0000 5.9636 0.0000 0.5661
# 5 -4.7275 -7.8366 -8.4788 0.0000 15.5620 0.0000
# 6 0.0000 0.0000 0.0000 0.5661 0.0000 8.7349
#
#
#
# Elastic Compliance Matrix: (Units=1/GPa)
#
#
# Indices 1 2 3 4 5 6 
#
# 1 0.016583 -0.006721 -0.004663 0.000000 -0.000887 0.000000
# 2 -0.006721 0.052566 -0.016170 0.000000 0.015619 0.000000
# 3 -0.004663 -0.016170 0.018344 0.000000 0.000435 0.000000
# 4 0.000000 0.000000 0.000000 0.168720 0.000000 -0.010934
# 5 -0.000887 0.015619 0.000435 0.000000 0.072091 0.000000
# 6 0.000000 0.000000 0.000000 -0.010934 0.000000 0.115192
#
#
# Mechanical properties :
#
#
# Convention : Reuss Voigt Hill
#
# Bulk Modulus (GPa) = 30.87942 48.22326 39.55134
# Shear Modulus (GPa) = 9.81548 13.48479 11.65013
#
# Velocity S-wave (km/s) = 2.55088 2.98990 2.77908
# Velocity P-wave (km/s) = 5.39880 6.62481 6.04298
#
# Compressibility (1/GPa) = 0.03238403
#
# Stress axis : x y z
#
# Youngs Moduli (GPa) = 60.30195 19.02388 54.51500
#
# Poissons Ratio (x) = 0.12785 0.25422
# Poissons Ratio (y) = 0.40526 0.88153
# Poissons Ratio (z) = 0.28120 0.30762
#
# Static dielectric constant tensor:
#      x y z
#    x 2.874120 0.000000 -0.011420 
#    y 0.000000 2.531180 0.000000 
#    z -0.011420 0.000000 2.921510 
# 
# 
# High freq. dielectric constant tensor:
#      x y z
#    x 1.547340 0.000000 -0.010590 
#    y 0.000000 1.534030 0.000000 
#    z -0.010590 0.000000 1.576680 
# 
# From -- ./inp_files/50339.got.cif
#   From: 2010.06.25/outbox.cif.g09.slc.cpg/sg10_26_cif.got.tgz:50339.got - 2010.06.27 22:07:45.
