data_PCOD8056421
_publ_section_title
;
Structure prediction by ZEFSAII (Michael W. Deem and Ramdas Pophale) SiO2 
 PCOD8056421
Probable space group: C C
;
_chemical_formula_sum "Si O2"
_cell_formula_units_Z 32
_cell_length_a 14.685488
_cell_length_b 21.237134
_cell_length_c 9.973088
_cell_angle_alpha 90.000000
_cell_angle_beta 155.254545
_cell_angle_gamma 90.000000
_cell_volume 1301.968273
_symmetry_space_group_name_H-M "C C"
_symmetry_group_IT_number 9
_symmetry_cell_setting 'monoclinic'
loop_
_space_group_symop_operation_xyz
x,y,z
x,-y,1/2+z
1/2+x,1/2+y,z
1/2+x,1/2-y,1/2+z
loop_
_atom_site_type_symbol
_atom_site_label
_atom_site_fract_x
_atom_site_fract_y
_atom_site_fract_z
Si Si1 0.962370 0.681498 0.227220
Si Si2 0.268032 0.188045 0.518364
Si Si3 0.134132 0.989753 0.109376
Si Si4 0.852602 0.447534 0.140137
Si Si5 0.199830 0.258468 0.659296
Si Si6 0.694134 0.301155 0.618674
Si Si7 0.323624 0.605462 0.308246
Si Si8 0.331405 0.400707 0.124065
O O1 0.851452 0.664146 0.221959
O O2 0.151107 0.732308 0.502976
O O3 0.083942 0.617720 0.338101
O O4 0.785982 0.710370 0.887694
O O5 0.203729 0.114982 0.437606
O O6 0.102710 0.227314 0.389840
O O7 0.299872 0.207944 0.406810
O O8 0.475889 0.204949 0.900180
O O9 0.287435 0.986685 0.184352
O O10 0.304308 0.008248 0.450821
O O11 0.026827 0.922456 0.997753
O O12 0.934669 0.039745 0.838413
O O13 0.097378 0.421781 0.448919
O O14 0.359310 0.318779 0.846559
O O15 0.473864 0.339256 0.342626
O O16 0.334461 0.580719 0.473692
#
# Coordination Sequence:
#
# PCOD8056421 Si02
#       8
#     4   4   4   4   4   4   4   4
#     4  12  24  44  74 105 144 200 239 298 365 439
#     4  11  25  44  67 111 148 183 237 302 369 435
#     4  12  27  51  76 102 149 202 247 306 363 437
#     4  11  27  49  74 107 147 191 251 305 368 429
#     4  11  24  45  71 106 151 182 239 302 368 437
#     4  12  23  43  70 104 151 190 238 298 367 429
#     4  11  26  49  75 112 142 195 251 301 365 450
#     4  12  26  47  73 111 148 189 258 296 359 456
#
# _framework density 24.578171000000001
#
# number of rings (size 3 to 8) (size 9 to 14) (size 15 to 20)
#    0.000    0.500    5.000    3.000    3.500    2.000 
#    4.500    0.000    0.000    0.000    0.000    0.000 
#    0.000    0.000    0.000    0.000    0.000    0.000 
#
# Total GULP energy -198272.570902 kJ/mol
# GULP energy per Si atom -12392.035681 kJ/mol
# Density = 2.452223 g / cm^3
# Si number density = 24.578171 Si / 1000 Ang^3
#
#
#
# Elastic Constant Matrix: (Units=GPa)
#
#
# Indices 1 2 3 4 5 6 
#
# 1 115.5495 3.9881 26.5483 -0.0001 -31.3697 -0.0001
# 2 3.9881 55.8196 11.6881 -0.0001 -9.0176 -0.0001
# 3 26.5483 11.6881 86.8402 -0.0003 -18.2428 -0.0002
# 4 -0.0001 -0.0001 -0.0003 29.0420 -0.0001 -0.9170
# 5 -31.3697 -9.0176 -18.2428 -0.0001 42.1475 -0.0001
# 6 -0.0001 -0.0001 -0.0002 -0.9170 -0.0001 34.4628
#
#
#
# Elastic Compliance Matrix: (Units=1/GPa)
#
#
# Indices 1 2 3 4 5 6 
#
# 1 0.011140 0.000839 -0.001913 0.000000 0.007643 0.000000
# 2 0.000839 0.018888 -0.002000 0.000000 0.003800 0.000000
# 3 -0.001913 -0.002000 0.013179 0.000000 0.003852 0.000000
# 4 0.000000 0.000000 0.000000 0.034462 0.000000 0.000917
# 5 0.007643 0.003800 0.003852 0.000000 0.031895 0.000000
# 6 0.000000 0.000000 0.000000 0.000917 0.000000 0.029041
#
#
# Mechanical properties :
#
#
# Convention : Reuss Voigt Hill
#
# Bulk Modulus (GPa) = 26.98487 38.07314 32.52900
# Shear Modulus (GPa) = 31.82583 35.52944 33.67764
#
# Velocity S-wave (km/s) = 3.60235 3.80619 3.70567
# Velocity P-wave (km/s) = 5.32030 5.90257 5.61898
#
# Compressibility (1/GPa) = 0.03705780
#
# Stress axis : x y z
#
# Youngs Moduli (GPa) = 89.76888 52.94465 75.87964
#
# Poissons Ratio (x) = -0.04444 0.14516
# Poissons Ratio (y) = -0.07535 0.15180
# Poissons Ratio (z) = 0.17173 0.10592
#
# Static dielectric constant tensor:
#      x y z
#    x 4.369450 0.000000 -0.038610 
#    y 0.000000 4.717060 0.000000 
#    z -0.038610 0.000000 4.446340 
# 
# 
# High freq. dielectric constant tensor:
#      x y z
#    x 1.982430 0.000000 -0.003020 
#    y 0.000000 1.976410 0.000000 
#    z -0.003020 0.000000 1.979680 
# 
# From -- ./inp_files/10112.got.cif
#   From: 2010.06.25/outbox.cif.g09.slc.cpg/sg9_6_cif.got.tgz:10112.got - 2010.06.27 21:40:51.
