data_PCOD8056392
_publ_section_title
;
Structure prediction by ZEFSAII (Michael W. Deem and Ramdas Pophale) SiO2 
 PCOD8056392
Probable space group: C C
;
_chemical_formula_sum "Si O2"
_cell_formula_units_Z 32
_cell_length_a 9.398479
_cell_length_b 9.482591
_cell_length_c 18.045678
_cell_angle_alpha 90.000000
_cell_angle_beta 74.349414
_cell_angle_gamma 90.000000
_cell_volume 1548.638865
_symmetry_space_group_name_H-M "C C"
_symmetry_group_IT_number 9
_symmetry_cell_setting 'monoclinic'
loop_
_space_group_symop_operation_xyz
x,y,z
x,-y,1/2+z
1/2+x,1/2+y,z
1/2+x,1/2-y,1/2+z
loop_
_atom_site_type_symbol
_atom_site_label
_atom_site_fract_x
_atom_site_fract_y
_atom_site_fract_z
Si Si1 0.579740 0.052798 0.781290
Si Si2 0.559215 0.265600 0.282810
Si Si3 0.901228 0.948271 0.184864
Si Si4 0.961070 0.086421 0.939951
Si Si5 0.411327 0.853668 0.037432
Si Si6 0.637335 0.928171 0.441553
Si Si7 0.093599 0.866147 0.023203
Si Si8 0.397475 0.231700 0.699905
O O1 0.723862 0.054466 0.708554
O O2 0.616607 0.106895 0.858238
O O3 0.462240 0.159613 0.763623
O O4 0.507679 0.897055 0.794299
O O5 0.451959 0.351021 0.244893
O O6 0.553393 0.331509 0.365026
O O7 0.722380 0.271000 0.228433
O O8 0.960353 0.884914 0.099776
O O9 0.958156 0.108368 0.187872
O O10 0.807407 0.025871 0.929172
O O11 0.924322 0.191062 0.012382
O O12 0.063555 0.961077 0.955331
O O13 0.440079 0.858463 0.121287
O O14 0.248825 0.911373 0.038541
O O15 0.534741 0.943498 0.979287
O O16 0.595878 0.794707 0.497123
#
# Coordination Sequence:
#
# PCOD8056392 Si02
#       8
#     4   4   4   4   4   4   4   4
#     4  11  26  43  67  98 131 171 217 272 324 384
#     4  11  24  44  66  92 133 173 215 271 322 380
#     4  11  24  46  64  96 131 176 218 263 326 386
#     4  11  24  45  66  90 134 173 209 272 322 384
#     4  11  24  45  62  96 133 168 214 271 322 382
#     4  11  26  42  65 100 130 170 220 262 328 387
#     4  11  26  42  68  95 132 170 222 263 320 394
#     4  11  26  41  68  95 132 169 221 266 326 387
#
# _framework density 20.663308000000001
#
# number of rings (size 3 to 8) (size 9 to 14) (size 15 to 20)
#    0.000    1.000    5.000    0.000    7.000    3.000 
#    0.000    0.000    0.000    0.000    0.000    0.000 
#    0.000    0.000    0.000    0.000    0.000    0.000 
#
# Total GULP energy -198493.950893 kJ/mol
# GULP energy per Si atom -12405.871931 kJ/mol
# Density = 2.061628 g / cm^3
# Si number density = 20.663308 Si / 1000 Ang^3
#
#
#
# Elastic Constant Matrix: (Units=GPa)
#
#
# Indices 1 2 3 4 5 6 
#
# 1 64.8708 32.9517 13.8688 0.0000 12.2447 0.0000
# 2 32.9517 86.1971 19.5458 0.0000 10.6604 0.0000
# 3 13.8688 19.5458 91.8194 0.0000 5.5151 0.0000
# 4 0.0000 0.0000 0.0000 39.5565 0.0000 3.8361
# 5 12.2447 10.6604 5.5151 0.0000 39.3593 0.0000
# 6 0.0000 0.0000 0.0000 3.8361 0.0000 29.6847
#
#
#
# Elastic Compliance Matrix: (Units=1/GPa)
#
#
# Indices 1 2 3 4 5 6 
#
# 1 0.019943 -0.006810 -0.001312 0.000000 -0.004176 0.000000
# 2 -0.006810 0.014868 -0.002039 0.000000 -0.001623 0.000000
# 3 -0.001312 -0.002039 0.011563 0.000000 -0.000660 0.000000
# 4 0.000000 0.000000 0.000000 0.025601 0.000000 -0.003308
# 5 -0.004176 -0.001623 -0.000660 0.000000 0.027238 0.000000
# 6 0.000000 0.000000 0.000000 -0.003308 0.000000 0.034115
#
#
# Mechanical properties :
#
#
# Convention : Reuss Voigt Hill
#
# Bulk Modulus (GPa) = 38.38439 41.73556 40.05998
# Shear Modulus (GPa) = 30.80085 33.48815 32.14450
#
# Velocity S-wave (km/s) = 3.86503 4.03011 3.94843
# Velocity P-wave (km/s) = 6.20760 6.47282 6.34160
#
# Compressibility (1/GPa) = 0.02605225
#
# Stress axis : x y z
#
# Youngs Moduli (GPa) = 50.14250 67.26005 86.48473
#
# Poissons Ratio (x) = 0.45804 0.11345
# Poissons Ratio (y) = 0.34147 0.17633
# Poissons Ratio (z) = 0.06578 0.13713
#
# Static dielectric constant tensor:
#      x y z
#    x 3.693590 0.000000 0.008430 
#    y 0.000000 3.742250 0.000000 
#    z 0.008430 0.000000 3.806460 
# 
# 
# High freq. dielectric constant tensor:
#      x y z
#    x 1.806470 0.000000 -0.000770 
#    y 0.000000 1.809740 0.000000 
#    z -0.000770 0.000000 1.824730 
# 
# From -- ./inp_files/29000.got.cif
#   From: 2010.06.25/outbox.cif.g09.slc.cpg/sg9_15_cif.got.tgz:29000.got - 2010.06.27 21:40:51.
