data_PCOD8056547
_publ_section_title
;
Structure prediction by ZEFSAII (Michael W. Deem and Ramdas Pophale) SiO2 
 PCOD8056547
Probable space group: C C
;
_chemical_formula_sum "Si O2"
_cell_formula_units_Z 28
_cell_length_a 6.815973
_cell_length_b 20.715148
_cell_length_c 12.333199
_cell_angle_alpha 90.000000
_cell_angle_beta 44.617803
_cell_angle_gamma 90.000000
_cell_volume 1223.095107
_symmetry_space_group_name_H-M "C C"
_symmetry_group_IT_number 9
_symmetry_cell_setting 'monoclinic'
loop_
_space_group_symop_operation_xyz
x,y,z
x,-y,1/2+z
1/2+x,1/2+y,z
1/2+x,1/2-y,1/2+z
loop_
_atom_site_type_symbol
_atom_site_label
_atom_site_fract_x
_atom_site_fract_y
_atom_site_fract_z
Si Si1 0.776420 0.439528 0.837130
Si Si2 0.937760 0.689984 0.170631
Si Si3 0.180028 0.506531 0.527000
Si Si4 0.205010 0.613675 0.877074
Si Si5 0.970841 0.704156 0.811583
Si Si6 0.914032 0.738934 0.595808
Si Si7 0.321515 0.108260 0.558720
O O1 0.758565 0.370140 0.785694
O O2 0.050170 0.478284 0.689338
O O3 0.508113 0.482686 0.913973
O O4 0.793766 0.429954 0.958162
O O5 0.727421 0.747242 0.226686
O O6 0.159261 0.712375 0.174483
O O7 0.115240 0.670542 0.994852
O O8 0.108961 0.455900 0.458377
O O9 0.044513 0.573822 0.547936
O O10 0.066615 0.632760 0.815184
O O11 0.534718 0.611508 0.736569
O O12 0.872362 0.702343 0.726526
O O13 0.703890 0.723285 0.988001
O O14 0.923291 0.682227 0.500841
#
# Coordination Sequence:
#
# PCOD8056547 Si02
#       7
#     4   4   4   4   4   4   4
#     4  11  27  46  77 103 146 187 242 304 353 437
#     4  11  25  48  69 110 151 186 244 301 361 442
#     4  11  26  51  71 106 141 194 240 297 370 425
#     4  11  25  48  72 102 150 186 238 306 354 434
#     4  12  25  44  71 109 145 189 233 304 366 439
#     4  12  26  43  75 107 145 192 238 292 381 428
#     4  12  26  44  75 103 142 188 243 294 359 435
#
# _framework density 22.892742999999999
#
# number of rings (size 3 to 8) (size 9 to 14) (size 15 to 20)
#    0.000    0.571    4.286    2.571    8.000    0.000 
#    5.143    0.000    0.000    0.000    0.000    0.000 
#    0.000    0.000    0.000    0.000    0.000    0.000 
#
# Total GULP energy -173645.946634 kJ/mol
# GULP energy per Si atom -12403.281902 kJ/mol
# Density = 2.284064 g / cm^3
# Si number density = 22.892743 Si / 1000 Ang^3
#
#
#
# Elastic Constant Matrix: (Units=GPa)
#
#
# Indices 1 2 3 4 5 6 
#
# 1 98.9794 31.4353 43.3765 0.0000 -4.1929 0.0000
# 2 31.4353 101.1190 32.6930 0.0000 -10.9928 0.0000
# 3 43.3765 32.6930 104.2572 0.0000 -10.3182 0.0000
# 4 0.0000 0.0000 0.0000 31.4064 0.0000 -5.4438
# 5 -4.1929 -10.9928 -10.3182 0.0000 39.0928 0.0000
# 6 0.0000 0.0000 0.0000 -5.4438 0.0000 43.2501
#
#
#
# Elastic Compliance Matrix: (Units=1/GPa)
#
#
# Indices 1 2 3 4 5 6 
#
# 1 0.012926 -0.002585 -0.004623 0.000000 -0.000561 0.000000
# 2 -0.002585 0.011717 -0.002362 0.000000 0.002394 0.000000
# 3 -0.004623 -0.002362 0.012467 0.000000 0.002130 0.000000
# 4 0.000000 0.000000 0.000000 0.032551 0.000000 0.004097
# 5 -0.000561 0.002394 0.002130 0.000000 0.026756 0.000000
# 6 0.000000 0.000000 0.000000 0.004097 0.000000 0.023637
#
#
# Mechanical properties :
#
#
# Convention : Reuss Voigt Hill
#
# Bulk Modulus (GPa) = 55.64675 57.70724 56.67700
# Shear Modulus (GPa) = 34.43953 35.87325 35.15639
#
# Velocity S-wave (km/s) = 3.88285 3.96285 3.92305
# Velocity P-wave (km/s) = 6.66801 6.79715 6.73289
#
# Compressibility (1/GPa) = 0.01797050
#
# Stress axis : x y z
#
# Youngs Moduli (GPa) = 77.36224 85.34806 80.21479
#
# Poissons Ratio (x) = 0.22060 0.37083
# Poissons Ratio (y) = 0.19996 0.18945
# Poissons Ratio (z) = 0.35764 0.20158
#
# Static dielectric constant tensor:
#      x y z
#    x 3.961900 0.000000 0.022580 
#    y 0.000000 4.274350 0.000000 
#    z 0.022580 0.000000 4.178240 
# 
# 
# High freq. dielectric constant tensor:
#      x y z
#    x 1.901100 0.000000 -0.002310 
#    y 0.000000 1.909450 0.000000 
#    z -0.002310 0.000000 1.914640 
# 
# From -- ./inp_files/4011.got.cif
#   From: 2010.06.25/outbox.cif.g09.slc.cpg/sg9_3_cif.got.tgz:4011.got - 2010.06.27 21:40:51.
