data_PCOD8056059
_publ_section_title
;
Structure prediction by ZEFSAII (Michael W. Deem and Ramdas Pophale) SiO2 
 PCOD8056059
Probable space group: C C
;
_chemical_formula_sum "Si O2"
_cell_formula_units_Z 32
_cell_length_a 8.737352
_cell_length_b 12.785294
_cell_length_c 16.542400
_cell_angle_alpha 90.000000
_cell_angle_beta 55.823251
_cell_angle_gamma 90.000000
_cell_volume 1528.820896
_symmetry_space_group_name_H-M "C C"
_symmetry_group_IT_number 9
_symmetry_cell_setting 'monoclinic'
loop_
_space_group_symop_operation_xyz
x,y,z
x,-y,1/2+z
1/2+x,1/2+y,z
1/2+x,1/2-y,1/2+z
loop_
_atom_site_type_symbol
_atom_site_label
_atom_site_fract_x
_atom_site_fract_y
_atom_site_fract_z
Si Si1 0.954280 0.619872 0.635900
Si Si2 0.833216 0.057433 0.961685
Si Si3 0.925843 0.606447 0.095552
Si Si4 0.360401 0.600568 0.579212
Si Si5 0.343080 0.285113 0.235683
Si Si6 0.686429 0.848226 0.924175
Si Si7 0.962051 0.279627 0.435604
Si Si8 0.102092 0.776872 0.303177
O O1 0.864682 0.505964 0.646418
O O2 0.811147 0.689622 0.726060
O O3 0.140529 0.616985 0.633004
O O4 0.004847 0.667274 0.533341
O O5 0.991083 0.129620 0.878732
O O6 0.779499 0.961605 0.915257
O O7 0.648514 0.122879 0.035962
O O8 0.910722 0.011281 0.024262
O O9 0.812556 0.689642 0.182820
O O10 0.880185 0.623139 0.013038
O O11 0.398056 0.612635 0.664484
O O12 0.481930 0.685453 0.494411
O O13 0.161545 0.310320 0.341255
O O14 0.507607 0.251409 0.246197
O O15 0.617213 0.828708 0.852983
O O16 0.828182 0.753698 0.902517
#
# Coordination Sequence:
#
# PCOD8056059 Si02
#       8
#     4   4   4   4   4   4   4   4
#     4   9  21  40  59  85 118 156 199 244 306 373
#     4   9  20  42  57  81 127 161 194 259 305 361
#     4   9  19  38  58  84 117 151 196 253 296 356
#     4   8  19  39  58  78 122 156 195 243 300 372
#     4  11  21  33  63  92 113 155 202 248 306 368
#     4   9  22  41  59  82 126 161 197 251 314 365
#     4   9  17  36  62  83 112 158 195 241 306 369
#     4  12  23  37  62  93 121 154 208 257 309 376
#
# _framework density 20.931162
#
# number of rings (size 3 to 8) (size 9 to 14) (size 15 to 20)
#    0.000    3.000    1.250    0.750    5.250    0.000 
#    6.750    1.250    0.000    0.000    0.000    0.000 
#    0.000    0.000    0.000    0.000    0.000    0.000 
#
# Total GULP energy -198226.774805 kJ/mol
# GULP energy per Si atom -12389.173425 kJ/mol
# Density = 2.088352 g / cm^3
# Si number density = 20.931162 Si / 1000 Ang^3
#
#
#
# Elastic Constant Matrix: (Units=GPa)
#
#
# Indices 1 2 3 4 5 6 
#
# 1 45.0562 9.7752 19.5198 0.0000 17.4907 0.0001
# 2 9.7752 53.0682 17.4432 0.0000 3.4735 0.0000
# 3 19.5198 17.4432 93.4872 0.0000 4.9649 0.0000
# 4 0.0000 0.0000 0.0000 34.4306 0.0000 -0.2881
# 5 17.4907 3.4735 4.9649 0.0000 38.9995 0.0000
# 6 0.0001 0.0000 0.0000 -0.2881 0.0000 24.9650
#
#
#
# Elastic Compliance Matrix: (Units=1/GPa)
#
#
# Indices 1 2 3 4 5 6 
#
# 1 0.029871 -0.003039 -0.005007 0.000000 -0.012489 0.000000
# 2 -0.003039 0.020452 -0.003179 0.000000 -0.000054 0.000000
# 3 -0.005007 -0.003179 0.012284 0.000000 0.000965 0.000000
# 4 0.000000 0.000000 0.000000 0.029047 0.000000 0.000335
# 5 -0.012489 -0.000054 0.000965 0.000000 0.031124 0.000000
# 6 0.000000 0.000000 0.000000 0.000335 0.000000 0.040060
#
#
# Mechanical properties :
#
#
# Convention : Reuss Voigt Hill
#
# Bulk Modulus (GPa) = 24.90174 31.67646 28.28910
# Shear Modulus (GPa) = 25.16709 29.33725 27.25217
#
# Velocity S-wave (km/s) = 3.47129 3.74786 3.61222
# Velocity P-wave (km/s) = 5.29049 5.82195 5.56257
#
# Compressibility (1/GPa) = 0.04015783
#
# Stress axis : x y z
#
# Youngs Moduli (GPa) = 33.47738 48.89545 81.40771
#
# Poissons Ratio (x) = 0.14860 0.40758
# Poissons Ratio (y) = 0.10174 0.25876
# Poissons Ratio (z) = 0.16761 0.15542
#
# Static dielectric constant tensor:
#      x y z
#    x 3.605250 0.000000 0.176460 
#    y 0.000000 3.638910 0.000000 
#    z 0.176460 0.000000 3.912490 
# 
# 
# High freq. dielectric constant tensor:
#      x y z
#    x 1.793230 0.000000 0.001770 
#    y 0.000000 1.798620 0.000000 
#    z 0.001770 0.000000 1.832490 
# 
# From -- ./inp_files/23238.got.cif
#   From: 2010.06.25/outbox.cif.g09.slc.cpg/sg9_12_cif.got.tgz:23238.got - 2010.06.27 21:40:51.
