data_PCOD8056716
_publ_section_title
;
Structure prediction by ZEFSAII (Michael W. Deem and Ramdas Pophale) SiO2 
 PCOD8056716
Probable space group: C C
;
_chemical_formula_sum "Si O2"
_cell_formula_units_Z 32
_cell_length_a 19.249859
_cell_length_b 14.395712
_cell_length_c 13.253214
_cell_angle_alpha 90.000000
_cell_angle_beta 21.984686
_cell_angle_gamma 90.000000
_cell_volume 1374.896214
_symmetry_space_group_name_H-M "C C"
_symmetry_group_IT_number 9
_symmetry_cell_setting 'monoclinic'
loop_
_space_group_symop_operation_xyz
x,y,z
x,-y,1/2+z
1/2+x,1/2+y,z
1/2+x,1/2-y,1/2+z
loop_
_atom_site_type_symbol
_atom_site_label
_atom_site_fract_x
_atom_site_fract_y
_atom_site_fract_z
Si Si1 0.054360 0.382459 0.075400
Si Si2 0.711585 0.532480 0.120947
Si Si3 0.949484 0.077720 0.308563
Si Si4 0.591638 0.933518 0.412546
Si Si5 0.419698 0.293118 0.664094
Si Si6 0.170000 0.927803 0.899791
Si Si7 0.212975 0.822874 0.097268
Si Si8 0.590490 0.766120 0.566593
O O1 0.139717 0.466481 0.895848
O O2 0.914899 0.421609 0.347307
O O3 0.933275 0.316768 0.164817
O O4 0.212795 0.324326 0.917431
O O5 0.567198 0.596369 0.252437
O O6 0.651837 0.521765 0.316659
O O7 0.726150 0.431169 0.049389
O O8 0.991356 0.155479 0.168278
O O9 0.731299 0.077707 0.629894
O O10 0.020495 0.978981 0.171602
O O11 0.381000 0.931348 0.656893
O O12 0.638403 0.855573 0.434187
O O13 0.544734 0.311838 0.398824
O O14 0.095757 0.822929 0.985309
O O15 0.223748 0.762783 0.979021
O O16 0.405634 0.786049 0.883108
#
# Coordination Sequence:
#
# PCOD8056716 Si02
#       8
#     4   4   4   4   4   4   4   4
#     4  12  26  50  73 112 152 203 257 314 391 460
#     4  12  25  51  77 107 159 200 259 324 383 461
#     4  12  26  49  78 114 150 206 259 316 396 460
#     4  12  28  50  76 113 159 204 256 322 393 457
#     4  12  28  47  76 113 152 205 256 318 392 464
#     4  12  27  51  76 110 159 202 256 327 381 470
#     4  12  25  48  75 113 151 203 252 318 381 453
#     4  12  25  48  77 112 152 197 257 313 387 453
#
# _framework density 23.274484000000001
#
# number of rings (size 3 to 8) (size 9 to 14) (size 15 to 20)
#    0.000    0.000    6.250    3.000    5.250    1.000 
#    0.000    0.000    0.000    0.000    0.000    0.000 
#    0.000    0.000    0.000    0.000    0.000    0.000 
#
# Total GULP energy -198327.193289 kJ/mol
# GULP energy per Si atom -12395.449581 kJ/mol
# Density = 2.322151 g / cm^3
# Si number density = 23.274484 Si / 1000 Ang^3
#
#
#
# Elastic Constant Matrix: (Units=GPa)
#
#
# Indices 1 2 3 4 5 6 
#
# 1 118.1864 49.4938 39.8649 0.0008 13.6481 -0.0016
# 2 49.4938 147.5920 40.5411 -0.0006 3.6563 -0.0020
# 3 39.8649 40.5411 136.6271 -0.0030 15.4634 -0.0020
# 4 0.0008 -0.0006 -0.0030 36.7929 0.0003 -2.8197
# 5 13.6481 3.6563 15.4634 0.0003 24.4377 0.0011
# 6 -0.0016 -0.0020 -0.0020 -2.8197 0.0011 34.4897
#
#
#
# Elastic Compliance Matrix: (Units=1/GPa)
#
#
# Indices 1 2 3 4 5 6 
#
# 1 0.010846 -0.003044 -0.001753 0.000000 -0.004493 0.000000
# 2 -0.003044 0.008233 -0.001732 0.000000 0.001564 0.000000
# 3 -0.001753 -0.001732 0.008837 0.000001 -0.004354 0.000001
# 4 0.000000 0.000000 0.000001 0.027351 -0.000001 0.002236
# 5 -0.004493 0.001564 -0.004354 -0.000001 0.045951 -0.000002
# 6 0.000000 0.000000 0.000001 0.002236 -0.000002 0.029177
#
#
# Mechanical properties :
#
#
# Convention : Reuss Voigt Hill
#
# Bulk Modulus (GPa) = 67.30063 73.57832 70.43948
# Shear Modulus (GPa) = 33.69141 37.31112 35.50127
#
# Velocity S-wave (km/s) = 3.80882 4.00821 3.90978
# Velocity P-wave (km/s) = 6.95138 7.28717 7.12125
#
# Compressibility (1/GPa) = 0.01485870
#
# Stress axis : x y z
#
# Youngs Moduli (GPa) = 92.19803 121.45801 113.15699
#
# Poissons Ratio (x) = 0.36977 0.19835
# Poissons Ratio (y) = 0.28069 0.19596
# Poissons Ratio (z) = 0.16161 0.21034
#
# Static dielectric constant tensor:
#      x y z
#    x 4.093620 0.000000 0.048240 
#    y 0.000000 4.421790 0.000010 
#    z 0.048240 0.000010 4.190460 
# 
# 
# High freq. dielectric constant tensor:
#      x y z
#    x 1.922450 0.000000 0.005610 
#    y 0.000000 1.925500 0.000000 
#    z 0.005610 0.000000 1.932260 
# 
# From -- ./inp_files/27457.got.cif
#   From: 2010.06.25/outbox.cif.g09.slc.cpg/sg9_14_cif.got.tgz:27457.got - 2010.06.27 21:40:51.
