data_PCOD8056409
_publ_section_title
;
Structure prediction by ZEFSAII (Michael W. Deem and Ramdas Pophale) SiO2 
 PCOD8056409
Probable space group: C C
;
_chemical_formula_sum "Si O2"
_cell_formula_units_Z 32
_cell_length_a 10.822238
_cell_length_b 13.721285
_cell_length_c 16.883038
_cell_angle_alpha 90.000000
_cell_angle_beta 34.082261
_cell_angle_gamma 90.000000
_cell_volume 1404.905469
_symmetry_space_group_name_H-M "C C"
_symmetry_group_IT_number 9
_symmetry_cell_setting 'monoclinic'
loop_
_space_group_symop_operation_xyz
x,y,z
x,-y,1/2+z
1/2+x,1/2+y,z
1/2+x,1/2-y,1/2+z
loop_
_atom_site_type_symbol
_atom_site_label
_atom_site_fract_x
_atom_site_fract_y
_atom_site_fract_z
Si Si1 0.466160 0.449291 0.211460
Si Si2 0.320973 0.684808 0.502010
Si Si3 0.712623 0.281879 0.039051
Si Si4 0.367489 0.090177 0.754451
Si Si5 0.550661 0.167228 0.983069
Si Si6 0.582240 0.631690 0.051847
Si Si7 0.168095 0.046590 0.241726
Si Si8 0.681416 0.750939 0.735311
O O1 0.604660 0.385672 0.073924
O O2 0.484046 0.559839 0.170790
O O3 0.571117 0.453863 0.244716
O O4 0.222900 0.401552 0.345062
O O5 0.495291 0.727923 0.473015
O O6 0.219863 0.777166 0.511087
O O7 0.462399 0.615376 0.370913
O O8 0.123021 0.615226 0.639856
O O9 0.632046 0.191515 0.028781
O O10 0.615624 0.275851 0.180454
O O11 0.973780 0.293197 0.893601
O O12 0.281843 0.169550 0.738286
O O13 0.319295 0.987826 0.735644
O O14 0.236528 0.080574 0.905589
O O15 0.325367 0.107712 0.100946
O O16 0.363115 0.666686 0.123938
#
# Coordination Sequence:
#
# PCOD8056409 Si02
#       8
#     4   4   4   4   4   4   4   4
#     4  12  27  45  71 110 144 193 252 305 369 448
#     4  11  26  48  74 103 149 194 241 311 380 440
#     4  12  24  47  70 105 142 195 241 305 375 441
#     4  11  24  46  72 107 142 188 249 305 366 443
#     4  12  26  47  72 104 149 192 243 305 381 441
#     4  11  26  45  72 108 143 194 246 305 376 443
#     4  12  25  46  69 105 143 192 246 305 368 440
#     4  11  24  44  76 100 144 188 246 301 369 444
#
# _framework density 22.777334
#
# number of rings (size 3 to 8) (size 9 to 14) (size 15 to 20)
#    0.000    0.500    5.000    2.250    5.250    0.000 
#    2.250    0.000    0.000    0.000    0.000    0.000 
#    0.000    0.000    0.000    0.000    0.000    0.000 
#
# Total GULP energy -198296.836196 kJ/mol
# GULP energy per Si atom -12393.552262 kJ/mol
# Density = 2.272549 g / cm^3
# Si number density = 22.777334 Si / 1000 Ang^3
#
#
#
# Elastic Constant Matrix: (Units=GPa)
#
#
# Indices 1 2 3 4 5 6 
#
# 1 72.4017 26.0148 34.2673 -0.0002 -4.0391 -0.0003
# 2 26.0148 98.2185 56.3907 -0.0024 -10.1816 0.0001
# 3 34.2673 56.3907 154.6011 0.0034 -11.2398 -0.0022
# 4 -0.0002 -0.0024 0.0034 43.1690 -0.0014 1.8058
# 5 -4.0391 -10.1816 -11.2398 -0.0014 37.6464 0.0006
# 6 -0.0003 0.0001 -0.0022 1.8058 0.0006 33.5014
#
#
#
# Elastic Compliance Matrix: (Units=1/GPa)
#
#
# Indices 1 2 3 4 5 6 
#
# 1 0.016014 -0.002770 -0.002523 0.000000 0.000215 0.000000
# 2 -0.002770 0.013526 -0.004166 0.000001 0.002117 0.000000
# 3 -0.002523 -0.004166 0.008633 -0.000001 0.001180 0.000001
# 4 0.000000 0.000001 -0.000001 0.023217 0.000001 -0.001251
# 5 0.000215 0.002117 0.001180 0.000001 0.027511 0.000000
# 6 0.000000 0.000000 0.000001 -0.001251 0.000000 0.029917
#
#
# Mechanical properties :
#
#
# Convention : Reuss Voigt Hill
#
# Bulk Modulus (GPa) = 51.93761 62.06297 57.00029
# Shear Modulus (GPa) = 34.68501 36.76659 35.72580
#
# Velocity S-wave (km/s) = 3.90652 4.02204 3.96470
# Velocity P-wave (km/s) = 6.57265 6.99113 6.78512
#
# Compressibility (1/GPa) = 0.01925387
#
# Stress axis : x y z
#
# Youngs Moduli (GPa) = 62.44722 73.92972 115.83772
#
# Poissons Ratio (x) = 0.20482 0.29228
# Poissons Ratio (y) = 0.17301 0.48255
# Poissons Ratio (z) = 0.15757 0.30797
#
# Static dielectric constant tensor:
#      x y z
#    x 4.097280 0.000000 -0.219180 
#    y 0.000000 4.059160 0.000010 
#    z -0.219180 0.000010 4.093820 
# 
# 
# High freq. dielectric constant tensor:
#      x y z
#    x 1.895610 0.000000 -0.008990 
#    y 0.000000 1.902620 0.000000 
#    z -0.008990 0.000000 1.907580 
# 
# From -- ./inp_files/7422.got.cif
#   From: 2010.06.25/outbox.cif.g09.slc.cpg/sg9_4_cif.got.tgz:7422.got - 2010.06.27 21:40:51.
