data_PCOD8056289
_publ_section_title
;
Structure prediction by ZEFSAII (Michael W. Deem and Ramdas Pophale) SiO2 
 PCOD8056289
Probable space group: C C
;
_chemical_formula_sum "Si O2"
_cell_formula_units_Z 28
_cell_length_a 11.301343
_cell_length_b 8.627785
_cell_length_c 13.804496
_cell_angle_alpha 90.000000
_cell_angle_beta 63.951752
_cell_angle_gamma 90.000000
_cell_volume 1209.293035
_symmetry_space_group_name_H-M "C C"
_symmetry_group_IT_number 9
_symmetry_cell_setting 'monoclinic'
loop_
_space_group_symop_operation_xyz
x,y,z
x,-y,1/2+z
1/2+x,1/2+y,z
1/2+x,1/2-y,1/2+z
loop_
_atom_site_type_symbol
_atom_site_label
_atom_site_fract_x
_atom_site_fract_y
_atom_site_fract_z
Si Si1 0.479630 0.340306 0.024400
Si Si2 0.219863 0.522710 0.553626
Si Si3 0.440672 0.969200 0.645195
Si Si4 0.768539 0.254716 0.155465
Si Si5 0.547036 0.520395 0.696126
Si Si6 0.262138 0.487334 0.823532
Si Si7 0.683472 0.311607 0.784647
O O1 0.324354 0.348820 0.051589
O O2 0.495622 0.164576 0.054287
O O3 0.515945 0.470928 0.092089
O O4 0.579586 0.371463 0.901126
O O5 0.288119 0.358840 0.557015
O O6 0.187652 0.539357 0.450951
O O7 0.072285 0.529349 0.655509
O O8 0.325207 0.895261 0.754191
O O9 0.382060 0.116085 0.608595
O O10 0.624853 0.328270 0.200016
O O11 0.768991 0.167237 0.257811
O O12 0.410141 0.529407 0.802673
O O13 0.628321 0.365373 0.698591
O O14 0.199895 0.626173 0.781440
#
# Coordination Sequence:
#
# PCOD8056289 Si02
#       7
#     4   4   4   4   4   4   4
#     4  12  23  47  75 104 148 198 236 304 368 433
#     4  12  24  47  73 102 147 190 238 299 365 436
#     4  11  25  46  72 106 146 192 243 299 366 429
#     4  11  25  44  70 104 140 189 241 297 359 426
#     4  11  23  45  70 103 145 184 240 303 353 429
#     4  12  23  44  72 104 140 186 240 300 361 424
#     4  11  23  45  76 105 144 195 244 302 362 421
#
# _framework density 23.154025000000001
#
# number of rings (size 3 to 8) (size 9 to 14) (size 15 to 20)
#    0.000    0.571    7.143    0.000    0.000    4.571 
#    0.000    5.714    0.000    0.000    0.000    0.000 
#    0.000    0.000    0.000    0.000    0.000    0.000 
#
# Total GULP energy -173511.026798 kJ/mol
# GULP energy per Si atom -12393.644771 kJ/mol
# Density = 2.310133 g / cm^3
# Si number density = 23.154025 Si / 1000 Ang^3
#
#
#
# Elastic Constant Matrix: (Units=GPa)
#
#
# Indices 1 2 3 4 5 6 
#
# 1 148.5165 33.8181 48.5084 0.0000 -14.3449 0.0000
# 2 33.8181 70.1839 14.9324 0.0000 12.6068 0.0000
# 3 48.5084 14.9324 81.7561 0.0000 -1.2976 0.0000
# 4 0.0000 0.0000 0.0000 24.4461 0.0000 -1.5128
# 5 -14.3449 12.6068 -1.2976 0.0000 42.6267 0.0000
# 6 0.0000 0.0000 0.0000 -1.5128 0.0000 37.4760
#
#
#
# Elastic Compliance Matrix: (Units=1/GPa)
#
#
# Indices 1 2 3 4 5 6 
#
# 1 0.009791 -0.004473 -0.004921 0.000000 0.004468 0.000000
# 2 -0.004473 0.017771 -0.000699 0.000000 -0.006782 0.000000
# 3 -0.004921 -0.000699 0.015264 0.000000 -0.000985 0.000000
# 4 0.000000 0.000000 0.000000 0.041009 0.000000 0.001655
# 5 0.004468 -0.006782 -0.000985 0.000000 0.026939 0.000000
# 6 0.000000 0.000000 0.000000 0.001655 0.000000 0.026751
#
#
# Mechanical properties :
#
#
# Convention : Reuss Voigt Hill
#
# Bulk Modulus (GPa) = 44.17440 54.99714 49.58577
# Shear Modulus (GPa) = 30.25599 34.45628 32.35613
#
# Velocity S-wave (km/s) = 3.61879 3.86182 3.74228
# Velocity P-wave (km/s) = 6.04820 6.60978 6.33522
#
# Compressibility (1/GPa) = 0.02263755
#
# Stress axis : x y z
#
# Youngs Moduli (GPa) = 102.13728 56.27225 65.51574
#
# Poissons Ratio (x) = 0.25172 0.32242
# Poissons Ratio (y) = 0.45688 0.04582
# Poissons Ratio (z) = 0.50264 0.03935
#
# Static dielectric constant tensor:
#      x y z
#    x 4.480670 0.000000 -0.173740 
#    y 0.000000 4.128370 0.000000 
#    z -0.173740 0.000000 3.930740 
# 
# 
# High freq. dielectric constant tensor:
#      x y z
#    x 1.936700 0.000000 -0.017190 
#    y 0.000000 1.914700 0.000000 
#    z -0.017190 0.000000 1.890880 
# 
# From -- ./inp_files/24123.got.cif
#   From: 2010.06.25/outbox.cif.g09.slc.cpg/sg9_13_cif.got.tgz:24123.got - 2010.06.27 21:40:51.
