data_PCOD8056227
_publ_section_title
;
Structure prediction by ZEFSAII (Michael W. Deem and Ramdas Pophale) SiO2 
 PCOD8056227
Probable space group: C C
;
_chemical_formula_sum "Si O2"
_cell_formula_units_Z 28
_cell_length_a 20.409725
_cell_length_b 6.566662
_cell_length_c 10.130312
_cell_angle_alpha 90.000000
_cell_angle_beta 69.105003
_cell_angle_gamma 90.000000
_cell_volume 1268.414095
_symmetry_space_group_name_H-M "C C"
_symmetry_group_IT_number 9
_symmetry_cell_setting 'monoclinic'
loop_
_space_group_symop_operation_xyz
x,y,z
x,-y,1/2+z
1/2+x,1/2+y,z
1/2+x,1/2-y,1/2+z
loop_
_atom_site_type_symbol
_atom_site_label
_atom_site_fract_x
_atom_site_fract_y
_atom_site_fract_z
Si Si1 0.278810 0.667069 0.193970
Si Si2 0.034459 0.914859 0.922355
Si Si3 0.674653 0.487809 0.182728
Si Si4 0.975942 0.581069 0.801321
Si Si5 0.217701 0.389110 0.009984
Si Si6 0.592395 0.149940 0.094055
Si Si7 0.933318 0.713495 0.551644
O O1 0.242661 0.511533 0.119995
O O2 0.273486 0.598867 0.350874
O O3 0.360134 0.669596 0.098833
O O4 0.240430 0.885757 0.210306
O O5 0.116426 0.944436 0.830166
O O6 0.990391 0.814647 0.834734
O O7 0.035225 0.737863 0.032724
O O8 0.997223 0.124956 0.991383
O O9 0.704638 0.662878 0.068766
O O10 0.637562 0.335376 0.111229
O O11 0.939319 0.593527 0.685330
O O12 0.049378 0.459581 0.741289
O O13 0.929448 0.453731 0.937971
O O14 0.145829 0.480619 0.998905
#
# Coordination Sequence:
#
# PCOD8056227 Si02
#       7
#     4   4   4   4   4   4   4
#     4  11  29  46  72 103 146 192 239 287 363 433
#     4  12  24  43  75 108 142 188 240 299 359 425
#     4  11  23  43  74 105 141 185 239 297 357 418
#     4  12  26  47  72 106 147 184 242 298 363 426
#     4  11  25  48  72 105 143 187 243 302 352 421
#     4  11  23  41  71 111 137 180 237 299 355 414
#     4  12  30  48  72 106 148 194 238 296 363 439
#
# _framework density 22.074809999999999
#
# number of rings (size 3 to 8) (size 9 to 14) (size 15 to 20)
#    0.000    0.571    4.286    2.571    8.000    1.143 
#    0.000    0.000    0.000    0.000    0.000    0.000 
#    0.000    0.000    0.000    0.000    0.000    0.000 
#
# Total GULP energy -173608.249205 kJ/mol
# GULP energy per Si atom -12400.589229 kJ/mol
# Density = 2.202457 g / cm^3
# Si number density = 22.074810 Si / 1000 Ang^3
#
#
#
# Elastic Constant Matrix: (Units=GPa)
#
#
# Indices 1 2 3 4 5 6 
#
# 1 73.0484 21.7955 31.8546 0.0000 -4.8774 0.0000
# 2 21.7955 94.6429 39.6017 0.0000 9.6471 0.0000
# 3 31.8546 39.6017 128.4308 0.0000 5.9732 0.0000
# 4 0.0000 0.0000 0.0000 38.8666 0.0000 -1.1069
# 5 -4.8774 9.6471 5.9732 0.0000 33.9535 0.0000
# 6 0.0000 0.0000 0.0000 -1.1069 0.0000 23.7041
#
#
#
# Elastic Compliance Matrix: (Units=1/GPa)
#
#
# Indices 1 2 3 4 5 6 
#
# 1 0.016206 -0.002703 -0.003358 0.000000 0.003687 0.000000
# 2 -0.002703 0.012854 -0.003131 0.000000 -0.003490 0.000000
# 3 -0.003358 -0.003131 0.009644 0.000000 -0.001289 0.000000
# 4 0.000000 0.000000 0.000000 0.025763 0.000000 0.001203
# 5 0.003687 -0.003490 -0.001289 0.000000 0.031200 0.000000
# 6 0.000000 0.000000 0.000000 0.001203 0.000000 0.042243
#
#
# Mechanical properties :
#
#
# Convention : Reuss Voigt Hill
#
# Bulk Modulus (GPa) = 49.20772 53.62508 51.41640
# Shear Modulus (GPa) = 30.66191 32.82951 31.74571
#
# Velocity S-wave (km/s) = 3.73097 3.86060 3.79634
# Velocity P-wave (km/s) = 6.39531 6.64962 6.52370
#
# Compressibility (1/GPa) = 0.02032202
#
# Stress axis : x y z
#
# Youngs Moduli (GPa) = 61.70397 77.79490 103.68641
#
# Poissons Ratio (x) = 0.21028 0.34814
# Poissons Ratio (y) = 0.16679 0.32463
# Poissons Ratio (z) = 0.20718 0.24357
#
# Static dielectric constant tensor:
#      x y z
#    x 3.874070 0.000000 -0.051120 
#    y 0.000000 4.147140 0.000000 
#    z -0.051120 0.000000 4.020390 
# 
# 
# High freq. dielectric constant tensor:
#      x y z
#    x 1.856810 0.000000 0.003020 
#    y 0.000000 1.881160 0.000000 
#    z 0.003020 0.000000 1.877670 
# 
# From -- ./inp_files/19646.got.cif
#   From: 2010.06.25/outbox.cif.g09.slc.cpg/sg9_10_cif.got.tgz:19646.got - 2010.06.27 21:40:51.
