data_PCOD8056323
_publ_section_title
;
Structure prediction by ZEFSAII (Michael W. Deem and Ramdas Pophale) SiO2 
 PCOD8056323
Probable space group: C C
;
_chemical_formula_sum "Si O2"
_cell_formula_units_Z 32
_cell_length_a 8.653191
_cell_length_b 14.415256
_cell_length_c 11.923348
_cell_angle_alpha 90.000000
_cell_angle_beta 108.242367
_cell_angle_gamma 90.000000
_cell_volume 1412.543990
_symmetry_space_group_name_H-M "C C"
_symmetry_group_IT_number 9
_symmetry_cell_setting 'monoclinic'
loop_
_space_group_symop_operation_xyz
x,y,z
x,-y,1/2+z
1/2+x,1/2+y,z
1/2+x,1/2-y,1/2+z
loop_
_atom_site_type_symbol
_atom_site_label
_atom_site_fract_x
_atom_site_fract_y
_atom_site_fract_z
Si Si1 0.796470 0.370814 0.426930
Si Si2 0.837717 0.726690 0.486750
Si Si3 0.473344 0.683000 0.426010
Si Si4 0.513096 0.639285 0.185241
Si Si5 0.430938 0.665920 0.793126
Si Si6 0.840871 0.957750 0.079929
Si Si7 0.987253 0.455047 0.915175
Si Si8 0.375204 0.145370 0.195241
O O1 0.857325 0.271988 0.398974
O O2 0.603486 0.373942 0.371062
O O3 0.871344 0.455970 0.376136
O O4 0.847822 0.391707 0.565694
O O5 0.656621 0.715419 0.492389
O O6 0.947635 0.768054 0.610828
O O7 0.834969 0.797780 0.380592
O O8 0.914347 0.627390 0.474277
O O9 0.456806 0.634943 0.301244
O O10 0.419921 0.611630 0.508892
O O11 0.447545 0.550286 0.104051
O O12 0.707933 0.642532 0.228415
O O13 0.335629 0.586042 0.703905
O O14 0.448173 0.750894 0.708916
O O15 0.660049 0.985702 0.002752
O O16 0.004784 0.418523 0.791116
#
# Coordination Sequence:
#
# PCOD8056323 Si02
#       8
#     4   4   4   4   4   4   4   4
#     4  12  26  47  74 107 143 192 246 299 361 433
#     4  11  25  44  73 102 145 187 243 296 362 430
#     4  12  27  45  71 110 143 186 247 297 362 433
#     4  12  26  45  73 107 147 187 241 301 365 432
#     4  11  23  46  75  99 141 194 237 294 367 424
#     4  12  28  45  73 106 147 191 240 303 360 434
#     4  11  26  47  70 105 143 193 242 292 367 427
#     4  11  23  47  73 102 143 192 236 296 364 429
#
# _framework density 22.654161999999999
#
# number of rings (size 3 to 8) (size 9 to 14) (size 15 to 20)
#    0.000    0.500    5.000    3.750    5.250    4.000 
#    0.000    0.000    0.000    0.000    0.000    0.000 
#    0.000    0.000    0.000    0.000    0.000    0.000 
#
# Total GULP energy -198470.128461 kJ/mol
# GULP energy per Si atom -12404.383029 kJ/mol
# Density = 2.260260 g / cm^3
# Si number density = 22.654162 Si / 1000 Ang^3
#
#
#
# Elastic Constant Matrix: (Units=GPa)
#
#
# Indices 1 2 3 4 5 6 
#
# 1 62.9744 16.5794 1.0811 0.0000 2.9062 0.0000
# 2 16.5794 115.6857 18.8835 0.0000 5.4200 0.0000
# 3 1.0811 18.8835 79.2115 0.0000 10.3483 0.0000
# 4 0.0000 0.0000 0.0000 26.4770 0.0000 7.2134
# 5 2.9062 5.4200 10.3483 0.0000 38.6792 0.0000
# 6 0.0000 0.0000 0.0000 7.2134 0.0000 36.2271
#
#
#
# Elastic Compliance Matrix: (Units=1/GPa)
#
#
# Indices 1 2 3 4 5 6 
#
# 1 0.016551 -0.002402 0.000482 0.000000 -0.001036 0.000000
# 2 -0.002402 0.009362 -0.002125 0.000000 -0.000563 0.000000
# 3 0.000482 -0.002125 0.013564 0.000000 -0.003367 0.000000
# 4 0.000000 0.000000 0.000000 0.039935 0.000000 -0.007952
# 5 -0.001036 -0.000563 -0.003367 0.000000 0.026911 0.000000
# 6 0.000000 0.000000 0.000000 -0.007952 0.000000 0.029187
#
#
# Mechanical properties :
#
#
# Convention : Reuss Voigt Hill
#
# Bulk Modulus (GPa) = 31.86088 36.77330 34.31709
# Shear Modulus (GPa) = 32.45403 35.03184 33.74293
#
# Velocity S-wave (km/s) = 3.78906 3.93666 3.86357
# Velocity P-wave (km/s) = 5.76517 6.07707 5.92317
#
# Compressibility (1/GPa) = 0.03138645
#
# Stress axis : x y z
#
# Youngs Moduli (GPa) = 60.41777 106.81841 73.72202
#
# Poissons Ratio (x) = 0.25660 -0.03554
# Poissons Ratio (y) = 0.14514 0.15669
# Poissons Ratio (z) = -0.02913 0.22704
#
# Static dielectric constant tensor:
#      x y z
#    x 3.953600 0.000000 0.121410 
#    y 0.000000 4.102180 0.000000 
#    z 0.121410 0.000000 4.232940 
# 
# 
# High freq. dielectric constant tensor:
#      x y z
#    x 1.883270 0.000000 0.012060 
#    y 0.000000 1.901110 0.000000 
#    z 0.012060 0.000000 1.911630 
# 
# From -- ./inp_files/14599.got.cif
#   From: 2010.06.25/outbox.cif.g09.slc.cpg/sg9_8_cif.got.tgz:14599.got - 2010.06.27 21:40:51.
