data_PCOD8056983
_publ_section_title
;
Structure prediction by ZEFSAII (Michael W. Deem and Ramdas Pophale) SiO2 
 PCOD8056983
Probable space group: P 2/M
;
_chemical_formula_sum "Si O2"
_cell_formula_units_Z 32
_cell_length_a 13.841957
_cell_length_b 8.902521
_cell_length_c 16.228942
_cell_angle_alpha 90.000000
_cell_angle_beta 86.888737
_cell_angle_gamma 90.000000
_cell_volume 1996.917382
_symmetry_space_group_name_H-M "P 2/M"
_symmetry_group_IT_number 10
_symmetry_cell_setting 'monoclinic'
loop_
_space_group_symop_operation_xyz
x,y,z
-x,y,-z
-x,-y,-z
x,-y,z
loop_
_atom_site_type_symbol
_atom_site_label
_atom_site_fract_x
_atom_site_fract_y
_atom_site_fract_z
Si Si1 0.012730 0.171440 0.774294
Si Si2 0.866636 0.677645 0.554871
Si Si3 0.803466 0.824439 0.712908
Si Si4 0.280831 0.823159 0.970554
Si Si5 0.649271 0.176655 0.854080
Si Si6 0.917802 0.675059 0.068358
Si Si7 0.464026 0.669621 0.908637
Si Si8 0.066680 0.825668 0.595663
O O1 0.046295 0.285453 0.842280
O O2 0.085431 0.190855 0.692638
O O3 0.903842 0.214300 0.753579
O O4 0.016347 0.000000 0.806847
O O5 0.860323 0.500000 0.546427
O O6 0.790927 0.734881 0.627372
O O7 0.847805 0.754538 0.465361
O O8 0.971146 0.731423 0.579879
O O9 0.716552 0.772051 0.775685
O O10 0.799075 0.000000 0.692777
O O11 0.176720 0.768323 0.948086
O O12 0.361714 0.754215 0.905976
O O13 0.285938 0.000000 0.961143
O O14 0.299403 0.771319 0.063645
O O15 0.544823 0.253608 0.847240
O O16 0.632784 0.000000 0.855858
O O17 0.893336 0.500000 0.064466
O O18 0.000000 0.721642 0.000000
O O19 0.449340 0.500000 0.879520
O O20 0.500000 0.680195 0.000000
O O21 0.050457 0.000000 0.574010
#
# Coordination Sequence:
#
# PCOD8056983 Si02
#       8
#     4   4   4   4   4   4   4   4
#     4   9  18  31  46  62  81 113 154 187 215 251
#     4  10  17  24  38  61  85 110 141 174 213 259
#     4   9  17  29  43  61  88 118 147 179 215 256
#     4  10  19  32  49  64  82 112 151 188 216 252
#     4   9  17  29  46  66  86 113 148 181 215 257
#     4  11  23  34  44  62  89 118 147 182 223 260
#     4   9  17  29  45  65  88 111 137 175 223 267
#     4   9  16  28  43  57  78 109 144 179 215 254
#
# _framework density 16.024699999999999
#
# number of rings (size 3 to 8) (size 9 to 14) (size 15 to 20)
#    0.000    2.500    0.000    4.875    0.000    7.000 
#    0.000    0.000    0.000    0.000    0.000    0.000 
#    0.000    1.000    0.000   10.500    0.000    5.250 
#
# Total GULP energy -396679.063224 kJ/mol
# GULP energy per Si atom -12396.220726 kJ/mol
# Density = 1.598823 g / cm^3
# Si number density = 16.024700 Si / 1000 Ang^3
#
#
#
# Elastic Constant Matrix: (Units=GPa)
#
#
# Indices 1 2 3 4 5 6 
#
# 1 81.1556 33.2747 42.0131 0.0000 -23.5660 0.0000
# 2 33.2747 64.6573 41.0167 0.0000 -14.3654 0.0000
# 3 42.0131 41.0167 99.7519 0.0000 -26.9358 0.0000
# 4 0.0000 0.0000 0.0000 23.3718 0.0000 -4.9057
# 5 -23.5660 -14.3654 -26.9358 0.0000 22.7848 0.0000
# 6 0.0000 0.0000 0.0000 -4.9057 0.0000 21.6172
#
#
#
# Elastic Compliance Matrix: (Units=1/GPa)
#
#
# Indices 1 2 3 4 5 6 
#
# 1 0.019994 -0.005692 -0.002153 0.000000 0.014546 0.000000
# 2 -0.005692 0.022855 -0.006902 0.000000 0.000362 0.000000
# 3 -0.002153 -0.006902 0.017617 0.000000 0.014248 0.000000
# 4 0.000000 0.000000 0.000000 0.044927 0.000000 0.010195
# 5 0.014546 0.000362 0.014248 0.000000 0.076006 0.000000
# 6 0.000000 0.000000 0.000000 0.010195 0.000000 0.048573
#
#
# Mechanical properties :
#
#
# Convention : Reuss Voigt Hill
#
# Bulk Modulus (GPa) = 32.28775 53.13042 42.70909
# Shear Modulus (GPa) = 18.53294 22.17213 20.35254
#
# Velocity S-wave (km/s) = 3.40446 3.72374 3.56767
# Velocity P-wave (km/s) = 5.97045 7.19136 6.60916
#
# Compressibility (1/GPa) = 0.03097149
#
# Stress axis : x y z
#
# Youngs Moduli (GPa) = 50.01467 43.75474 56.76294
#
# Poissons Ratio (x) = 0.24906 0.12219
# Poissons Ratio (y) = 0.28470 0.39179
# Poissons Ratio (z) = 0.10766 0.30201
#
# Static dielectric constant tensor:
#      x y z
#    x 2.851350 0.000000 -0.380020 
#    y 0.000000 3.057620 0.000000 
#    z -0.380020 0.000000 3.363570 
# 
# 
# High freq. dielectric constant tensor:
#      x y z
#    x 1.576950 0.000000 -0.031180 
#    y 0.000000 1.625770 0.000000 
#    z -0.031180 0.000000 1.605530 
# 
# From -- ./inp_files/75990.got.cif
#   From: 2010.06.25/outbox.cif.g09.slc.cpg/sg10_38_cif.got.tgz:75990.got - 2010.06.27 22:07:45.
