data_PCOD8056365
_publ_section_title
;
Structure prediction by ZEFSAII (Michael W. Deem and Ramdas Pophale) SiO2 
 PCOD8056365
Probable space group: C C
;
_chemical_formula_sum "Si O2"
_cell_formula_units_Z 24
_cell_length_a 8.275260
_cell_length_b 23.363317
_cell_length_c 9.709638
_cell_angle_alpha 90.000000
_cell_angle_beta 31.636240
_cell_angle_gamma 90.000000
_cell_volume 984.657032
_symmetry_space_group_name_H-M "C C"
_symmetry_group_IT_number 9
_symmetry_cell_setting 'monoclinic'
loop_
_space_group_symop_operation_xyz
x,y,z
x,-y,1/2+z
1/2+x,1/2+y,z
1/2+x,1/2-y,1/2+z
loop_
_atom_site_type_symbol
_atom_site_label
_atom_site_fract_x
_atom_site_fract_y
_atom_site_fract_z
Si Si1 0.649130 0.933248 0.312350
Si Si2 0.537041 0.141363 0.148511
Si Si3 0.218729 0.213662 0.166608
Si Si4 0.712487 0.616238 0.671800
Si Si5 0.769784 0.117013 0.460915
Si Si6 0.078952 0.000593 0.168903
O O1 0.511268 0.910768 0.556938
O O2 0.409941 0.971923 0.401038
O O3 0.726195 0.878574 0.158948
O O4 0.952682 0.971136 0.120948
O O5 0.389639 0.197421 0.185349
O O6 0.346650 0.125785 0.421916
O O7 0.898670 0.152789 0.921332
O O8 0.960361 0.261513 0.382562
O O9 0.052399 0.158607 0.216250
O O10 0.618873 0.549207 0.755876
O O11 0.961885 0.635238 0.603518
O O12 0.842346 0.050348 0.382634
#
# Coordination Sequence:
#
# PCOD8056365 Si02
#       6
#     4   4   4   4   4   4
#     4  11  25  40  70  99 152 194 238 277 354 431
#     4  11  25  50  69 105 139 189 241 299 352 431
#     4  12  26  49  78 103 134 189 248 306 365 418
#     4  11  27  44  74 107 152 186 232 288 367 433
#     4  12  27  45  69 109 147 191 241 302 346 429
#     4  11  24  38  66 105 150 191 230 274 354 428
#
# _framework density 24.373968999999999
#
# number of rings (size 3 to 8) (size 9 to 14) (size 15 to 20)
#    0.000    0.667    3.333    4.000    9.333    0.000 
#    0.000    5.000    0.000    0.000    0.000    0.000 
#    0.000    0.000    0.000    0.000    0.000    0.000 
#
# Total GULP energy -148782.397423 kJ/mol
# GULP energy per Si atom -12398.533119 kJ/mol
# Density = 2.431849 g / cm^3
# Si number density = 24.373969 Si / 1000 Ang^3
#
#
#
# Elastic Constant Matrix: (Units=GPa)
#
#
# Indices 1 2 3 4 5 6 
#
# 1 109.1956 21.3712 25.6313 0.0000 -29.0933 0.0000
# 2 21.3712 63.1622 19.5873 0.0000 -11.5383 0.0000
# 3 25.6313 19.5873 95.0839 0.0000 -26.4777 0.0000
# 4 0.0000 0.0000 0.0000 44.6949 0.0000 -10.2221
# 5 -29.0933 -11.5383 -26.4777 0.0000 52.0924 0.0000
# 6 0.0000 0.0000 0.0000 -10.2221 0.0000 30.0776
#
#
#
# Elastic Compliance Matrix: (Units=1/GPa)
#
#
# Indices 1 2 3 4 5 6 
#
# 1 0.011292 -0.002538 -0.001073 0.000000 0.005199 0.000000
# 2 -0.002538 0.017723 -0.002642 0.000000 0.001165 0.000000
# 3 -0.001073 -0.002642 0.012838 0.000000 0.005341 0.000000
# 4 0.000000 0.000000 0.000000 0.024260 0.000000 0.008245
# 5 0.005199 0.001165 0.005341 0.000000 0.025073 0.000000
# 6 0.000000 0.000000 0.000000 0.008245 0.000000 0.036049
#
#
# Mechanical properties :
#
#
# Convention : Reuss Voigt Hill
#
# Bulk Modulus (GPa) = 34.07715 44.51346 39.29531
# Shear Modulus (GPa) = 33.43953 38.76311 36.10132
#
# Velocity S-wave (km/s) = 3.70798 3.99224 3.85274
# Velocity P-wave (km/s) = 5.68714 6.28912 5.99569
#
# Compressibility (1/GPa) = 0.02934517
#
# Stress axis : x y z
#
# Youngs Moduli (GPa) = 88.56124 56.42293 77.89465
#
# Poissons Ratio (x) = 0.14320 0.08361
# Poissons Ratio (y) = 0.22477 0.20583
# Poissons Ratio (z) = 0.09506 0.14909
#
# Static dielectric constant tensor:
#      x y z
#    x 4.434800 0.000000 -0.415960 
#    y 0.000000 4.260170 0.000000 
#    z -0.415960 0.000000 4.415260 
# 
# 
# High freq. dielectric constant tensor:
#      x y z
#    x 1.964750 0.000000 -0.026090 
#    y 0.000000 1.946420 0.000000 
#    z -0.026090 0.000000 1.980480 
# 
# From -- ./inp_files/15606.got.cif
#   From: 2010.06.25/outbox.cif.g09.slc.cpg/sg9_8_cif.got.tgz:15606.got - 2010.06.27 21:40:51.
