data_PCOD8056733
_publ_section_title
;
Structure prediction by ZEFSAII (Michael W. Deem and Ramdas Pophale) SiO2 
 PCOD8056733
Probable space group: C C
;
_chemical_formula_sum "Si O2"
_cell_formula_units_Z 16
_cell_length_a 7.387881
_cell_length_b 15.942862
_cell_length_c 4.983922
_cell_angle_alpha 90.000000
_cell_angle_beta 92.853810
_cell_angle_gamma 90.000000
_cell_volume 586.298087
_symmetry_space_group_name_H-M "C C"
_symmetry_group_IT_number 9
_symmetry_cell_setting 'monoclinic'
loop_
_space_group_symop_operation_xyz
x,y,z
x,-y,1/2+z
1/2+x,1/2+y,z
1/2+x,1/2-y,1/2+z
loop_
_atom_site_type_symbol
_atom_site_label
_atom_site_fract_x
_atom_site_fract_y
_atom_site_fract_z
Si Si1 0.397270 0.055117 0.417010
Si Si2 0.989630 0.320355 0.509653
Si Si3 0.118993 0.142540 0.676040
Si Si4 0.771382 0.057719 0.807752
O O1 0.498760 0.136964 0.306952
O O2 0.186242 0.082559 0.433732
O O3 0.441605 0.024877 0.729085
O O4 0.023681 0.222182 0.537093
O O5 0.143815 0.360877 0.332853
O O6 0.791004 0.331849 0.367661
O O7 0.976961 0.090414 0.845057
O O8 0.731215 0.018934 0.509346
#
# Coordination Sequence:
#
# PCOD8056733 Si02
#       4
#     4   4   4   4
#     4  12  25  50  83 114 156 212 268 336 403 470
#     4  12  30  54  82 121 169 217 270 338 410 488
#     4  12  30  54  82 121 169 217 270 338 410 488
#     4  12  31  52  85 122 160 212 280 338 409 486
#
# _framework density 27.289868999999999
#
# number of rings (size 3 to 8) (size 9 to 14) (size 15 to 20)
#    0.000    0.000    2.500    4.500   10.500    4.000 
#    0.000    0.000    0.000    0.000    0.000    0.000 
#    0.000    0.000    0.000    0.000    0.000    0.000 
#
# Total GULP energy -99157.507450 kJ/mol
# GULP energy per Si atom -12394.688431 kJ/mol
# Density = 2.722776 g / cm^3
# Si number density = 27.289869 Si / 1000 Ang^3
#
#
#
# Elastic Constant Matrix: (Units=GPa)
#
#
# Indices 1 2 3 4 5 6 
#
# 1 153.0468 33.7059 66.1297 0.0000 -8.9766 0.0000
# 2 33.7059 102.1412 51.6028 0.0000 -1.0579 0.0000
# 3 66.1297 51.6028 160.2539 0.0000 -8.2764 0.0000
# 4 0.0000 0.0000 0.0000 45.9267 0.0000 -6.1116
# 5 -8.9766 -1.0579 -8.2764 0.0000 54.7319 0.0000
# 6 0.0000 0.0000 0.0000 -6.1116 0.0000 64.3567
#
#
#
# Elastic Compliance Matrix: (Units=1/GPa)
#
#
# Indices 1 2 3 4 5 6 
#
# 1 0.008108 -0.001193 -0.002917 0.000000 0.000866 0.000000
# 2 -0.001193 0.011875 -0.003356 0.000000 -0.000474 0.000000
# 3 -0.002917 -0.003356 0.008563 0.000000 0.000752 0.000000
# 4 0.000000 0.000000 0.000000 0.022053 0.000000 0.002094
# 5 0.000866 -0.000474 0.000752 0.000000 0.018517 0.000000
# 6 0.000000 0.000000 0.000000 0.002094 0.000000 0.015737
#
#
# Mechanical properties :
#
#
# Convention : Reuss Voigt Hill
#
# Bulk Modulus (GPa) = 73.45285 79.81318 76.63301
# Shear Modulus (GPa) = 47.92848 50.60329 49.26588
#
# Velocity S-wave (km/s) = 4.19534 4.31082 4.25347
# Velocity P-wave (km/s) = 7.10226 7.35442 7.22944
#
# Compressibility (1/GPa) = 0.01361418
#
# Stress axis : x y z
#
# Youngs Moduli (GPa) = 123.33811 84.21386 116.77871
#
# Poissons Ratio (x) = 0.10046 0.34063
# Poissons Ratio (y) = 0.14713 0.39189
# Poissons Ratio (z) = 0.35977 0.28261
#
# Static dielectric constant tensor:
#      x y z
#    x 5.405360 0.000000 -0.694250 
#    y 0.000000 5.176070 0.000000 
#    z -0.694250 0.000000 5.366050 
# 
# 
# High freq. dielectric constant tensor:
#      x y z
#    x 2.123340 0.000000 -0.025720 
#    y 0.000000 2.110680 0.000000 
#    z -0.025720 0.000000 2.113080 
# 
# From -- ./inp_files/438.got.cif
#   From: 2010.06.25/outbox.cif.g09.slc.cpg/sg9_1_cif.got.tgz:438.got - 2010.06.27 21:40:51.
