data_PCOD8056149
_publ_section_title
;
Structure prediction by ZEFSAII (Michael W. Deem and Ramdas Pophale) SiO2 
 PCOD8056149
Probable space group: C C
;
_chemical_formula_sum "Si O2"
_cell_formula_units_Z 32
_cell_length_a 19.852803
_cell_length_b 15.165394
_cell_length_c 13.881182
_cell_angle_alpha 90.000000
_cell_angle_beta 20.306916
_cell_angle_gamma 90.000000
_cell_volume 1450.416060
_symmetry_space_group_name_H-M "C C"
_symmetry_group_IT_number 9
_symmetry_cell_setting 'monoclinic'
loop_
_space_group_symop_operation_xyz
x,y,z
x,-y,1/2+z
1/2+x,1/2+y,z
1/2+x,1/2-y,1/2+z
loop_
_atom_site_type_symbol
_atom_site_label
_atom_site_fract_x
_atom_site_fract_y
_atom_site_fract_z
Si Si1 0.856710 0.968633 0.579540
Si Si2 0.035463 0.719236 0.232413
Si Si3 0.400272 0.383782 0.330251
Si Si4 0.270439 0.953553 0.538591
Si Si5 0.298980 0.852347 0.317521
Si Si6 0.515971 0.915346 0.594179
Si Si7 0.210249 0.284647 0.803237
Si Si8 0.260251 0.960047 0.768842
O O1 0.812596 0.877207 0.695416
O O2 0.813897 0.953006 0.522980
O O3 0.080392 0.987334 0.296902
O O4 0.734205 0.054091 0.775517
O O5 0.842845 0.719232 0.558467
O O6 0.057823 0.822285 0.175545
O O7 0.002526 0.672991 0.173625
O O8 0.225111 0.675525 0.025047
O O9 0.529494 0.435291 0.078536
O O10 0.243675 0.868362 0.504388
O O11 0.335288 0.936074 0.561309
O O12 0.444200 0.004950 0.256240
O O13 0.159365 0.774398 0.465519
O O14 0.282352 0.939132 0.273297
O O15 0.513569 0.811972 0.013618
O O16 0.389244 0.901195 0.667951
#
# Coordination Sequence:
#
# PCOD8056149 Si02
#       8
#     4   4   4   4   4   4   4   4
#     4  11  22  42  70 101 140 184 235 296 355 423
#     4  11  24  38  71 105 137 181 238 296 353 407
#     4  11  23  43  70 106 139 185 236 297 354 427
#     4  11  24  42  67 100 141 190 229 295 362 431
#     4  11  24  45  66 107 142 184 240 294 361 422
#     4  11  23  43  67 105 137 184 245 289 357 427
#     4  11  23  42  72 107 141 176 240 302 350 421
#     4  11  23  45  69  97 149 186 241 291 358 440
#
# _framework density 22.062635
#
# number of rings (size 3 to 8) (size 9 to 14) (size 15 to 20)
#    0.000    1.000    5.000    3.750    7.000    0.000 
#    0.000    5.000    0.000    0.000    0.000    0.000 
#    0.000    0.000    0.000    0.000    0.000    0.000 
#
# Total GULP energy -198232.937160 kJ/mol
# GULP energy per Si atom -12389.558573 kJ/mol
# Density = 2.201242 g / cm^3
# Si number density = 22.062635 Si / 1000 Ang^3
#
#
#
# Elastic Constant Matrix: (Units=GPa)
#
#
# Indices 1 2 3 4 5 6 
#
# 1 132.9142 34.3922 38.5213 0.0055 20.0277 -0.0049
# 2 34.3922 65.3070 34.1875 0.0013 5.5316 -0.0018
# 3 38.5213 34.1875 83.6763 0.0038 -4.3822 -0.0013
# 4 0.0055 0.0013 0.0038 46.1657 0.0004 -0.9379
# 5 20.0277 5.5316 -4.3822 0.0004 36.6375 0.0018
# 6 -0.0049 -0.0018 -0.0013 -0.9379 0.0018 38.4134
#
#
#
# Elastic Compliance Matrix: (Units=1/GPa)
#
#
# Indices 1 2 3 4 5 6 
#
# 1 0.010227 -0.002916 -0.003810 -0.000001 -0.005606 0.000001
# 2 -0.002916 0.020885 -0.007318 0.000000 -0.002434 0.000000
# 3 -0.003810 -0.007318 0.016968 -0.000001 0.005217 -0.000001
# 4 -0.000001 0.000000 -0.000001 0.021672 0.000000 0.000529
# 5 -0.005606 -0.002434 0.005217 0.000000 0.031351 -0.000002
# 6 0.000001 0.000000 -0.000001 0.000529 -0.000002 0.026045
#
#
# Mechanical properties :
#
#
# Convention : Reuss Voigt Hill
#
# Bulk Modulus (GPa) = 50.02187 55.12218 52.57202
# Shear Modulus (GPa) = 30.88296 35.89642 33.38969
#
# Velocity S-wave (km/s) = 3.74543 4.03801 3.89447
# Velocity P-wave (km/s) = 6.43632 6.83955 6.64099
#
# Compressibility (1/GPa) = 0.01999126
#
# Stress axis : x y z
#
# Youngs Moduli (GPa) = 97.77705 47.88079 58.93442
#
# Poissons Ratio (x) = 0.13964 0.22456
# Poissons Ratio (y) = 0.28516 0.43128
# Poissons Ratio (z) = 0.37256 0.35039
#
# Static dielectric constant tensor:
#      x y z
#    x 4.395990 -0.000020 0.191200 
#    y -0.000020 4.187700 0.000020 
#    z 0.191200 0.000020 3.972970 
# 
# 
# High freq. dielectric constant tensor:
#      x y z
#    x 1.869810 0.000000 -0.002070 
#    y 0.000000 1.854690 0.000000 
#    z -0.002070 0.000000 1.863050 
# 
# From -- ./inp_files/27468.got.cif
#   From: 2010.06.25/outbox.cif.g09.slc.cpg/sg9_14_cif.got.tgz:27468.got - 2010.06.27 21:40:51.
