data_PCOD8056568
_publ_section_title
;
Structure prediction by ZEFSAII (Michael W. Deem and Ramdas Pophale) SiO2 
 PCOD8056568
Probable space group: C C
;
_chemical_formula_sum "Si O2"
_cell_formula_units_Z 28
_cell_length_a 13.719619
_cell_length_b 9.929027
_cell_length_c 13.333607
_cell_angle_alpha 90.000000
_cell_angle_beta 141.819236
_cell_angle_gamma 90.000000
_cell_volume 1122.758674
_symmetry_space_group_name_H-M "C C"
_symmetry_group_IT_number 9
_symmetry_cell_setting 'monoclinic'
loop_
_space_group_symop_operation_xyz
x,y,z
x,-y,1/2+z
1/2+x,1/2+y,z
1/2+x,1/2-y,1/2+z
loop_
_atom_site_type_symbol
_atom_site_label
_atom_site_fract_x
_atom_site_fract_y
_atom_site_fract_z
Si Si1 0.826130 0.177280 0.022410
Si Si2 0.934790 0.340533 0.746725
Si Si3 0.812453 0.974186 0.855465
Si Si4 0.663373 0.569390 0.342842
Si Si5 0.359228 0.174012 0.952334
Si Si6 0.592659 0.586147 0.974301
Si Si7 0.613475 0.067038 0.010914
O O1 0.730770 0.170799 0.049762
O O2 0.010125 0.142939 0.176019
O O3 0.809351 0.325577 0.960834
O O4 0.740068 0.067396 0.882990
O O5 0.933549 0.341625 0.623821
O O6 0.758199 0.355417 0.648921
O O7 0.000550 0.199602 0.837435
O O8 0.041013 0.461354 0.874519
O O9 0.791419 0.822487 0.878986
O O10 0.719331 0.008053 0.678773
O O11 0.993334 0.023670 0.985433
O O12 0.717088 0.434943 0.326233
O O13 0.626826 0.536211 0.427906
O O14 0.482414 0.151998 0.963056
#
# Coordination Sequence:
#
# PCOD8056568 Si02
#       7
#     4   4   4   4   4   4   4
#     4  12  29  50  78 115 164 207 272 332 406 481
#     4  11  27  49  82 119 166 208 271 338 409 483
#     4  12  28  48  83 116 157 211 276 332 407 488
#     4  11  28  50  78 112 162 208 267 334 401 475
#     4  11  29  50  85 117 161 215 275 336 408 484
#     4  11  25  49  80 115 162 210 267 333 409 478
#     4  12  28  48  80 116 160 209 266 335 404 481
#
# _framework density 24.938575
#
# number of rings (size 3 to 8) (size 9 to 14) (size 15 to 20)
#    0.000    0.571    1.429    3.429   20.000    0.000 
#    0.000    0.000    0.000    0.000    0.000    0.000 
#    0.000    0.000    0.000    0.000    0.000    0.000 
#
# Total GULP energy -173605.209652 kJ/mol
# GULP energy per Si atom -12400.372118 kJ/mol
# Density = 2.488181 g / cm^3
# Si number density = 24.938575 Si / 1000 Ang^3
#
#
#
# Elastic Constant Matrix: (Units=GPa)
#
#
# Indices 1 2 3 4 5 6 
#
# 1 83.1163 20.7425 19.5506 0.0000 6.1873 0.0000
# 2 20.7425 153.9962 53.0438 0.0000 5.0586 0.0000
# 3 19.5506 53.0438 135.3681 0.0000 4.9922 0.0000
# 4 0.0000 0.0000 0.0000 43.3837 0.0000 5.7123
# 5 6.1873 5.0586 4.9922 0.0000 37.8539 0.0000
# 6 0.0000 0.0000 0.0000 5.7123 0.0000 42.0685
#
#
#
# Elastic Compliance Matrix: (Units=1/GPa)
#
#
# Indices 1 2 3 4 5 6 
#
# 1 0.012771 -0.001213 -0.001304 0.000000 -0.001753 0.000000
# 2 -0.001213 0.007637 -0.002800 0.000000 -0.000453 0.000000
# 3 -0.001304 -0.002800 0.008694 0.000000 -0.000559 0.000000
# 4 0.000000 0.000000 0.000000 0.023470 0.000000 -0.003187
# 5 -0.001753 -0.000453 -0.000559 0.000000 0.026838 0.000000
# 6 0.000000 0.000000 0.000000 -0.003187 0.000000 0.024203
#
#
# Mechanical properties :
#
#
# Convention : Reuss Voigt Hill
#
# Bulk Modulus (GPa) = 54.15570 62.12825 58.14198
# Shear Modulus (GPa) = 41.52663 43.27080 42.39872
#
# Velocity S-wave (km/s) = 4.08506 4.16997 4.12773
# Velocity P-wave (km/s) = 6.63423 6.93912 6.78839
#
# Compressibility (1/GPa) = 0.01846528
#
# Stress axis : x y z
#
# Youngs Moduli (GPa) = 78.29942 130.94859 115.02687
#
# Poissons Ratio (x) = 0.15889 0.15004
# Poissons Ratio (y) = 0.09500 0.32213
# Poissons Ratio (z) = 0.10213 0.36671
#
# Static dielectric constant tensor:
#      x y z
#    x 4.681960 0.000000 0.113830 
#    y 0.000000 4.428110 0.000000 
#    z 0.113830 0.000000 4.569150 
# 
# 
# High freq. dielectric constant tensor:
#      x y z
#    x 2.006930 0.000000 0.001720 
#    y 0.000000 1.997850 0.000000 
#    z 0.001720 0.000000 1.996200 
# 
# From -- ./inp_files/25761.got.cif
#   From: 2010.06.25/outbox.cif.g09.slc.cpg/sg9_13_cif.got.tgz:25761.got - 2010.06.27 21:40:51.
