data_PCOD8056025
_publ_section_title
;
Structure prediction by ZEFSAII (Michael W. Deem and Ramdas Pophale) SiO2 
 PCOD8056025
Probable space group: C C
;
_chemical_formula_sum "Si O2"
_cell_formula_units_Z 20
_cell_length_a 21.073118
_cell_length_b 4.921196
_cell_length_c 8.826679
_cell_angle_alpha 90.000000
_cell_angle_beta 124.069653
_cell_angle_gamma 90.000000
_cell_volume 758.253505
_symmetry_space_group_name_H-M "C C"
_symmetry_group_IT_number 9
_symmetry_cell_setting 'monoclinic'
loop_
_space_group_symop_operation_xyz
x,y,z
x,-y,1/2+z
1/2+x,1/2+y,z
1/2+x,1/2-y,1/2+z
loop_
_atom_site_type_symbol
_atom_site_label
_atom_site_fract_x
_atom_site_fract_y
_atom_site_fract_z
Si Si1 0.127480 0.665661 0.533040
Si Si2 0.975716 0.325475 0.351770
Si Si3 0.679695 0.654161 0.431317
Si Si4 0.837499 0.667861 0.170251
Si Si5 0.910372 0.000186 0.502270
O O1 0.181885 0.434590 0.530129
O O2 0.163141 0.763469 0.737932
O O3 0.044583 0.536637 0.442447
O O4 0.117858 0.938294 0.416702
O O5 0.899430 0.460366 0.315981
O O6 0.957774 0.222433 0.159932
O O7 0.981832 0.094616 0.489219
O O8 0.758276 0.487860 0.544370
O O9 0.838178 0.892470 0.304705
O O10 0.868366 0.783728 0.053081
#
# Coordination Sequence:
#
# PCOD8056025 Si02
#       5
#     4   4   4   4   4
#     4  12  32  56  86 124 176 226 284 351 436 509
#     4  11  27  48  85 118 166 223 287 350 417 510
#     4  12  32  56  86 124 176 226 284 351 436 509
#     4  11  27  48  85 118 166 223 287 350 417 510
#     4  10  26  50  82 120 168 214 300 342 426 488
#
# _framework density 26.376401000000001
#
# number of rings (size 3 to 8) (size 9 to 14) (size 15 to 20)
#    0.000    0.800    0.000    2.400   22.400    0.000 
#    0.000    0.000    0.000    0.000    0.000    0.000 
#    0.000    0.000    0.000    0.000    0.000    0.000 
#
# Total GULP energy -123930.163393 kJ/mol
# GULP energy per Si atom -12393.016339 kJ/mol
# Density = 2.631637 g / cm^3
# Si number density = 26.376401 Si / 1000 Ang^3
#
#
#
# Elastic Constant Matrix: (Units=GPa)
#
#
# Indices 1 2 3 4 5 6 
#
# 1 60.3570 29.9143 56.1688 0.0000 -18.5746 0.0000
# 2 29.9143 150.1732 72.6868 0.0000 -22.2815 0.0000
# 3 56.1688 72.6868 137.4967 0.0000 -24.6272 0.0000
# 4 0.0000 0.0000 0.0000 51.0311 0.0000 4.4821
# 5 -18.5746 -22.2815 -24.6272 0.0000 46.1122 0.0000
# 6 0.0000 0.0000 0.0000 4.4821 0.0000 62.5723
#
#
#
# Elastic Compliance Matrix: (Units=1/GPa)
#
#
# Indices 1 2 3 4 5 6 
#
# 1 0.028052 0.000427 -0.010643 0.000000 0.005822 0.000000
# 2 0.000427 0.009123 -0.004619 0.000000 0.002114 0.000000
# 3 -0.010643 -0.004619 0.014259 0.000000 0.001096 0.000000
# 4 0.000000 0.000000 0.000000 0.019720 0.000000 -0.001413
# 5 0.005822 0.002114 0.001096 0.000000 0.025638 0.000000
# 6 0.000000 0.000000 0.000000 -0.001413 0.000000 0.016083
#
#
# Mechanical properties :
#
#
# Convention : Reuss Voigt Hill
#
# Bulk Modulus (GPa) = 45.94452 73.95186 59.94819
# Shear Modulus (GPa) = 33.37820 44.56027 38.96924
#
# Velocity S-wave (km/s) = 3.56119 4.11469 3.84790
# Velocity P-wave (km/s) = 5.86225 7.11844 6.52067
#
# Compressibility (1/GPa) = 0.02176538
#
# Stress axis : x y z
#
# Youngs Moduli (GPa) = 35.64780 109.61231 70.13341
#
# Poissons Ratio (x) = -0.04682 0.74640
# Poissons Ratio (y) = -0.01523 0.32393
# Poissons Ratio (z) = 0.37938 0.50627
#
# Static dielectric constant tensor:
#      x y z
#    x 4.891800 0.000000 -0.224370 
#    y 0.000000 5.452900 0.000000 
#    z -0.224370 0.000000 4.844000 
# 
# 
# High freq. dielectric constant tensor:
#      x y z
#    x 2.064400 0.000000 -0.017190 
#    y 0.000000 2.085610 0.000000 
#    z -0.017190 0.000000 2.066890 
# 
# From -- ./inp_files/10239.got.cif
#   From: 2010.06.25/outbox.cif.g09.slc.cpg/sg9_6_cif.got.tgz:10239.got - 2010.06.27 21:40:51.
