data_PCOD8056923
_publ_section_title
;
Structure prediction by ZEFSAII (Michael W. Deem and Ramdas Pophale) SiO2 
 PCOD8056923
Probable space group: P 2/M
;
_chemical_formula_sum "Si O2"
_cell_formula_units_Z 30
_cell_length_a 31.907064
_cell_length_b 9.310031
_cell_length_c 12.388612
_cell_angle_alpha 90.000000
_cell_angle_beta 26.256070
_cell_angle_gamma 90.000000
_cell_volume 1628.020024
_symmetry_space_group_name_H-M "P 2/M"
_symmetry_group_IT_number 10
_symmetry_cell_setting 'monoclinic'
loop_
_space_group_symop_operation_xyz
x,y,z
-x,y,-z
-x,-y,-z
x,-y,z
loop_
_atom_site_type_symbol
_atom_site_label
_atom_site_fract_x
_atom_site_fract_y
_atom_site_fract_z
Si Si1 0.507571 0.833562 0.107499
Si Si2 0.669446 0.327970 0.423198
Si Si3 0.182283 0.671337 0.347722
Si Si4 0.000000 0.244747 0.500000
Si Si5 0.999800 0.159858 0.738824
Si Si6 0.282511 0.163287 0.299008
Si Si7 0.796197 0.165762 0.291158
Si Si8 0.204477 0.660835 0.059830
O O1 0.436467 0.734128 0.340580
O O2 0.480734 0.000000 0.186198
O O3 0.500000 0.791207 0.000000
O O4 0.611971 0.798790 0.907904
O O5 0.668351 0.500000 0.431167
O O6 0.717316 0.266265 0.420209
O O7 0.728900 0.264719 0.183587
O O8 0.176192 0.500000 0.366088
O O9 0.255241 0.728434 0.267151
O O10 0.217155 0.729192 0.149665
O O11 0.077283 0.733437 0.609992
O O12 0.001106 0.149815 0.605614
O O13 0.905556 0.340956 0.721432
O O14 0.019571 0.000000 0.737781
O O15 0.899100 0.216500 0.014057
O O16 0.210711 0.185453 0.564316
O O17 0.276360 0.000000 0.270539
O O18 0.776052 0.000000 0.305534
O O19 0.241133 0.500000 0.982586
#
# Coordination Sequence:
#
# PCOD8056923 Si02
#       8
#     4   4   4   2   4   4   4   4
#     4  10  20  38  61  83 110 145 181 223 282 338
#     4  11  21  34  55  87 117 140 180 230 277 327
#     4  10  22  39  57  77 111 153 191 225 272 328
#     4  10  16  30  54  80 111 144 191 228 269 320
#     4  10  20  33  53  83 114 146 188 229 273 323
#     4  10  21  39  61  79 106 145 188 228 272 331
#     4  10  20  36  56  81 114 150 181 222 281 334
#     4   9  19  34  53  79 113 152 182 221 277 330
#
# _framework density 18.427292999999999
#
# number of rings (size 3 to 8) (size 9 to 14) (size 15 to 20)
#    0.000    2.000    2.667    1.200    0.000    2.933 
#    0.000    5.333    0.000    4.000    0.000    0.000 
#    0.000    0.000    0.000    0.000    0.000    0.000 
#
# Total GULP energy -371959.829940 kJ/mol
# GULP energy per Si atom -12398.660998 kJ/mol
# Density = 1.838535 g / cm^3
# Si number density = 18.427293 Si / 1000 Ang^3
#
#
#
# Elastic Constant Matrix: (Units=GPa)
#
#
# Indices 1 2 3 4 5 6 
#
# 1 106.3626 40.1762 48.0539 0.0000 -7.2069 0.0000
# 2 40.1762 71.9426 37.7554 0.0000 -4.2465 0.0000
# 3 48.0539 37.7554 123.5564 0.0000 0.4881 0.0000
# 4 0.0000 0.0000 0.0000 28.1513 0.0000 -3.9932
# 5 -7.2069 -4.2465 0.4881 0.0000 22.3358 0.0000
# 6 0.0000 0.0000 0.0000 -3.9932 0.0000 29.1102
#
#
#
# Elastic Compliance Matrix: (Units=1/GPa)
#
#
# Indices 1 2 3 4 5 6 
#
# 1 0.013242 -0.005346 -0.003530 0.000000 0.003333 0.000000
# 2 -0.005346 0.018953 -0.003720 0.000000 0.001960 0.000000
# 3 -0.003530 -0.003720 0.010611 0.000000 -0.002078 0.000000
# 4 0.000000 0.000000 0.000000 0.036227 0.000000 0.004970
# 5 0.003333 0.001960 -0.002078 0.000000 0.046265 0.000000
# 6 0.000000 0.000000 0.000000 0.004970 0.000000 0.035034
#
#
# Mechanical properties :
#
#
# Convention : Reuss Voigt Hill
#
# Bulk Modulus (GPa) = 56.76984 61.53696 59.15340
# Shear Modulus (GPa) = 26.12402 27.64454 26.88428
#
# Velocity S-wave (km/s) = 3.76929 3.87744 3.82375
# Velocity P-wave (km/s) = 7.05817 7.31526 7.18786
#
# Compressibility (1/GPa) = 0.01761499
#
# Stress axis : x y z
#
# Youngs Moduli (GPa) = 75.51999 52.76121 94.23947
#
# Poissons Ratio (x) = 0.28204 0.33263
# Poissons Ratio (y) = 0.40370 0.35060
# Poissons Ratio (z) = 0.26656 0.19629
#
# Static dielectric constant tensor:
#      x y z
#    x 3.291540 0.000000 0.118050 
#    y 0.000000 3.210310 0.000000 
#    z 0.118050 0.000000 3.599210 
# 
# 
# High freq. dielectric constant tensor:
#      x y z
#    x 1.702720 0.000000 0.004490 
#    y 0.000000 1.702940 0.000000 
#    z 0.004490 0.000000 1.722150 
# 
# From -- ./inp_files/57990.got.cif
#   From: 2010.06.25/outbox.cif.g09.slc.cpg/sg10_29_cif.got.tgz:57990.got - 2010.06.27 22:07:45.
