data_PCOD8056099
_publ_section_title
;
Structure prediction by ZEFSAII (Michael W. Deem and Ramdas Pophale) SiO2 
 PCOD8056099
Probable space group: C C
;
_chemical_formula_sum "Si O2"
_cell_formula_units_Z 32
_cell_length_a 14.320022
_cell_length_b 11.141064
_cell_length_c 9.203468
_cell_angle_alpha 90.000000
_cell_angle_beta 70.560790
_cell_angle_gamma 90.000000
_cell_volume 1384.622257
_symmetry_space_group_name_H-M "C C"
_symmetry_group_IT_number 9
_symmetry_cell_setting 'monoclinic'
loop_
_space_group_symop_operation_xyz
x,y,z
x,-y,1/2+z
1/2+x,1/2+y,z
1/2+x,1/2-y,1/2+z
loop_
_atom_site_type_symbol
_atom_site_label
_atom_site_fract_x
_atom_site_fract_y
_atom_site_fract_z
Si Si1 0.599170 0.379325 0.284300
Si Si2 0.195119 0.952438 0.527484
Si Si3 0.688897 0.906187 0.318941
Si Si4 0.208377 0.644828 0.140952
Si Si5 0.932171 0.773464 0.532714
Si Si6 0.830866 0.725976 0.114642
Si Si7 0.388518 0.928601 0.851409
Si Si8 0.987010 0.315797 0.305577
O O1 0.671413 0.410441 0.378771
O O2 0.604204 0.484709 0.160864
O O3 0.631566 0.252716 0.199856
O O4 0.487726 0.372280 0.404337
O O5 0.236129 0.840025 0.595505
O O6 0.278114 0.054836 0.469648
O O7 0.694011 0.909892 0.489324
O O8 0.790812 0.848224 0.206321
O O9 0.596279 0.825984 0.314596
O O10 0.680224 0.042354 0.270448
O O11 0.319459 0.688719 0.112640
O O12 0.944267 0.646041 0.446222
O O13 0.989740 0.761134 0.655935
O O14 0.885872 0.642966 0.202818
O O15 0.914470 0.755814 0.952305
O O16 0.442929 0.053282 0.795083
#
# Coordination Sequence:
#
# PCOD8056099 Si02
#       8
#     4   4   4   4   4   4   4   4
#     4  12  26  47  76 104 149 182 249 300 362 435
#     4  11  22  44  75 106 138 187 238 304 361 417
#     4  12  29  48  73 107 153 195 244 294 374 437
#     4  12  29  49  73 108 155 195 238 305 369 440
#     4  12  26  47  70 106 149 190 239 301 373 431
#     4  11  23  45  72 104 143 184 245 302 356 428
#     4  11  21  44  72 104 139 183 245 307 353 427
#     4  11  26  42  79 107 136 192 256 297 362 429
#
# _framework density 23.110996
#
# number of rings (size 3 to 8) (size 9 to 14) (size 15 to 20)
#    0.000    0.500    3.750    4.500   10.500    1.000 
#    2.250    0.000    0.000    0.000    0.000    0.000 
#    0.000    0.000    0.000    0.000    0.000    0.000 
#
# Total GULP energy -198489.673983 kJ/mol
# GULP energy per Si atom -12405.604624 kJ/mol
# Density = 2.305839 g / cm^3
# Si number density = 23.110996 Si / 1000 Ang^3
#
#
#
# Elastic Constant Matrix: (Units=GPa)
#
#
# Indices 1 2 3 4 5 6 
#
# 1 65.7035 0.0947 9.1316 0.0000 0.2641 0.0000
# 2 0.0947 53.1370 33.4247 0.0000 1.2316 0.0000
# 3 9.1316 33.4247 114.1576 0.0000 10.4883 0.0000
# 4 0.0000 0.0000 0.0000 39.1269 0.0000 -1.8767
# 5 0.2641 1.2316 10.4883 0.0000 49.0346 0.0000
# 6 0.0000 0.0000 0.0000 -1.8767 0.0000 20.2401
#
#
#
# Elastic Compliance Matrix: (Units=1/GPa)
#
#
# Indices 1 2 3 4 5 6 
#
# 1 0.015430 0.000927 -0.001526 0.000000 0.000220 0.000000
# 2 0.000927 0.023161 -0.006938 0.000000 0.000897 0.000000
# 3 -0.001526 -0.006938 0.011115 0.000000 -0.002195 0.000000
# 4 0.000000 0.000000 0.000000 0.025672 0.000000 0.002380
# 5 0.000220 0.000897 -0.002195 0.000000 0.020840 0.000000
# 6 0.000000 0.000000 0.000000 0.002380 0.000000 0.049628
#
#
# Mechanical properties :
#
#
# Convention : Reuss Voigt Hill
#
# Bulk Modulus (GPa) = 28.87479 35.36670 32.12074
# Shear Modulus (GPa) = 28.99183 34.37013 31.68098
#
# Velocity S-wave (km/s) = 3.54568 3.86058 3.70647
# Velocity P-wave (km/s) = 5.41143 5.93366 5.67855
#
# Compressibility (1/GPa) = 0.03463229
#
# Stress axis : x y z
#
# Youngs Moduli (GPa) = 64.80991 43.17596 89.96888
#
# Poissons Ratio (x) = -0.04004 0.13729
# Poissons Ratio (y) = -0.06010 0.62421
# Poissons Ratio (z) = 0.09890 0.29956
#
# Static dielectric constant tensor:
#      x y z
#    x 4.157200 0.000000 -0.099220 
#    y 0.000000 4.017090 0.000000 
#    z -0.099220 0.000000 4.395560 
# 
# 
# High freq. dielectric constant tensor:
#      x y z
#    x 1.910710 0.000000 -0.000580 
#    y 0.000000 1.903340 0.000000 
#    z -0.000580 0.000000 1.933360 
# 
# From -- ./inp_files/9082.got.cif
#   From: 2010.06.25/outbox.cif.g09.slc.cpg/sg9_5_cif.got.tgz:9082.got - 2010.06.27 21:40:51.
