data_PCOD8056662
_publ_section_title
;
Structure prediction by ZEFSAII (Michael W. Deem and Ramdas Pophale) SiO2 
 PCOD8056662
Probable space group: C C
;
_chemical_formula_sum "Si O2"
_cell_formula_units_Z 32
_cell_length_a 13.311671
_cell_length_b 13.957402
_cell_length_c 10.227596
_cell_angle_alpha 90.000000
_cell_angle_beta 43.312628
_cell_angle_gamma 90.000000
_cell_volume 1303.531054
_symmetry_space_group_name_H-M "C C"
_symmetry_group_IT_number 9
_symmetry_cell_setting 'monoclinic'
loop_
_space_group_symop_operation_xyz
x,y,z
x,-y,1/2+z
1/2+x,1/2+y,z
1/2+x,1/2-y,1/2+z
loop_
_atom_site_type_symbol
_atom_site_label
_atom_site_fract_x
_atom_site_fract_y
_atom_site_fract_z
Si Si1 0.259030 0.346410 0.931430
Si Si2 0.575478 0.430028 0.356961
Si Si3 0.757791 0.360897 0.431538
Si Si4 0.233253 0.606851 0.175517
Si Si5 0.513924 0.634126 0.354499
Si Si6 0.470406 0.208031 0.088631
Si Si7 0.712430 0.707890 0.527627
Si Si8 0.029123 0.429437 0.313275
O O1 0.325303 0.242083 0.827876
O O2 0.195044 0.398313 0.864222
O O3 0.395242 0.406050 0.861844
O O4 0.125237 0.344726 0.160106
O O5 0.659583 0.397994 0.406454
O O6 0.407536 0.401108 0.497262
O O7 0.576501 0.543920 0.374326
O O8 0.661702 0.390685 0.146451
O O9 0.655945 0.326681 0.647313
O O10 0.880232 0.436809 0.366435
O O11 0.126060 0.526812 0.213127
O O12 0.196703 0.709539 0.150321
O O13 0.421976 0.713062 0.525639
O O14 0.371732 0.194645 0.311433
O O15 0.619574 0.258550 0.991782
O O16 0.491863 0.104768 0.997191
#
# Coordination Sequence:
#
# PCOD8056662 Si02
#       8
#     4   4   4   4   4   4   4   4
#     4  12  23  49  83 108 155 207 266 319 388 469
#     4  12  28  50  79 114 156 211 262 323 395 472
#     4  12  25  49  78 115 153 203 268 326 380 460
#     4  12  28  50  79 113 157 210 262 323 396 470
#     4  12  26  47  80 111 154 208 261 319 392 468
#     4  12  26  48  79 116 161 206 256 326 399 470
#     4  12  28  48  80 112 164 209 260 319 401 471
#     4  12  28  47  80 121 156 204 265 329 389 464
#
# _framework density 24.548705000000002
#
# number of rings (size 3 to 8) (size 9 to 14) (size 15 to 20)
#    0.000    0.000    7.500    1.500    3.500    3.000 
#    0.000    0.000    0.000    0.000    0.000    0.000 
#    0.000    0.000    0.000    0.000    0.000    0.000 
#
# Total GULP energy -198237.682958 kJ/mol
# GULP energy per Si atom -12389.855185 kJ/mol
# Density = 2.449283 g / cm^3
# Si number density = 24.548705 Si / 1000 Ang^3
#
#
#
# Elastic Constant Matrix: (Units=GPa)
#
#
# Indices 1 2 3 4 5 6 
#
# 1 110.9752 22.6561 34.6711 0.0000 -13.6797 0.0000
# 2 22.6561 74.1434 37.6442 0.0000 -1.6925 0.0000
# 3 34.6711 37.6442 126.8689 0.0000 -1.2657 0.0000
# 4 0.0000 0.0000 0.0000 28.5059 0.0000 -6.5634
# 5 -13.6797 -1.6925 -1.2657 0.0000 36.5636 0.0000
# 6 0.0000 0.0000 0.0000 -6.5634 0.0000 24.0146
#
#
#
# Elastic Compliance Matrix: (Units=1/GPa)
#
#
# Indices 1 2 3 4 5 6 
#
# 1 0.010594 -0.002002 -0.002264 0.000000 0.003793 0.000000
# 2 -0.002002 0.016270 -0.004282 0.000000 -0.000144 0.000000
# 3 -0.002264 -0.004282 0.009764 0.000000 -0.000707 0.000000
# 4 0.000000 0.000000 0.000000 0.037436 0.000000 0.010232
# 5 0.003793 -0.000144 -0.000707 0.000000 0.028737 0.000000
# 6 0.000000 0.000000 0.000000 0.010232 0.000000 0.044438
#
#
# Mechanical properties :
#
#
# Convention : Reuss Voigt Hill
#
# Bulk Modulus (GPa) = 51.19205 55.77004 53.48105
# Shear Modulus (GPa) = 29.26623 32.28455 30.77539
#
# Velocity S-wave (km/s) = 3.45653 3.63040 3.54453
# Velocity P-wave (km/s) = 6.06866 6.35141 6.21165
#
# Compressibility (1/GPa) = 0.01953428
#
# Stress axis : x y z
#
# Youngs Moduli (GPa) = 94.39007 61.46378 102.41476
#
# Poissons Ratio (x) = 0.12302 0.23182
# Poissons Ratio (y) = 0.18892 0.43854
# Poissons Ratio (z) = 0.21366 0.26319
#
# Static dielectric constant tensor:
#      x y z
#    x 4.552270 0.000000 -0.038590 
#    y 0.000000 4.390330 0.000000 
#    z -0.038590 0.000000 4.349420 
# 
# 
# High freq. dielectric constant tensor:
#      x y z
#    x 1.992340 0.000000 -0.002880 
#    y 0.000000 1.971540 0.000000 
#    z -0.002880 0.000000 1.976010 
# 
# From -- ./inp_files/18441.got.cif
#   From: 2010.06.25/outbox.cif.g09.slc.cpg/sg9_10_cif.got.tgz:18441.got - 2010.06.27 21:40:51.
