data_PCOD8056873
_publ_section_title
;
Structure prediction by ZEFSAII (Michael W. Deem and Ramdas Pophale) SiO2 
 PCOD8056873
Probable space group: P 2/M
;
_chemical_formula_sum "Si O2"
_cell_formula_units_Z 32
_cell_length_a 9.367930
_cell_length_b 14.039259
_cell_length_c 15.193705
_cell_angle_alpha 90.000000
_cell_angle_beta 78.552522
_cell_angle_gamma 90.000000
_cell_volume 1958.506539
_symmetry_space_group_name_H-M "P 2/M"
_symmetry_group_IT_number 10
_symmetry_cell_setting 'monoclinic'
loop_
_space_group_symop_operation_xyz
x,y,z
-x,y,-z
-x,-y,-z
x,-y,z
loop_
_atom_site_type_symbol
_atom_site_label
_atom_site_fract_x
_atom_site_fract_y
_atom_site_fract_z
Si Si1 0.715073 0.711399 0.135485
Si Si2 0.613905 0.610605 0.645479
Si Si3 0.326282 0.393296 0.029022
Si Si4 0.159694 0.107016 0.959005
Si Si5 0.852454 0.611913 0.475373
Si Si6 0.725048 0.611639 0.309622
Si Si7 0.621010 0.105905 0.918353
Si Si8 0.376097 0.282276 0.186891
O O1 0.759883 0.822259 0.119231
O O2 0.783468 0.668303 0.216502
O O3 0.544916 0.692829 0.164386
O O4 0.760469 0.654149 0.041980
O O5 0.634413 0.500000 0.671195
O O6 0.708684 0.636401 0.548844
O O7 0.444591 0.632200 0.647192
O O8 0.680685 0.679876 0.712698
O O9 0.267556 0.500000 0.045271
O O10 0.285139 0.335263 0.121722
O O11 0.500000 0.391231 0.000000
O O12 0.160115 0.000000 0.917700
O O13 0.230871 0.103926 0.046295
O O14 0.000000 0.145202 0.000000
O O15 0.874454 0.500000 0.467491
O O16 0.822172 0.648981 0.379894
O O17 0.000000 0.657401 0.500000
O O18 0.747578 0.500000 0.289063
O O19 0.640178 0.168746 0.827933
O O20 0.570928 0.000000 0.895084
O O21 0.500000 0.151030 0.000000
#
# Coordination Sequence:
#
# PCOD8056873 Si02
#       8
#     4   4   4   4   4   4   4   4
#     4  10  17  28  44  66  91 120 154 187 225 267
#     4   9  17  28  45  67  92 120 153 188 222 267
#     4   9  15  23  38  62  93 123 150 179 215 259
#     4  10  20  33  47  64  90 124 159 194 231 271
#     4   9  17  31  47  64  88 118 150 189 232 268
#     4   9  17  29  47  68  90 118 153 189 225 269
#     4  10  17  29  48  67  89 119 155 194 231 265
#     4  10  16  26  43  69  92 118 152 189 226 265
#
# _framework density 16.338979999999999
#
# number of rings (size 3 to 8) (size 9 to 14) (size 15 to 20)
#    0.000    2.500    2.500    1.500    0.000    4.500 
#    2.250    0.000    0.000    1.500    0.000    0.875 
#    0.000    5.000    0.000    0.000    0.000    0.000 
#
# Total GULP energy -396559.829355 kJ/mol
# GULP energy per Si atom -12392.494667 kJ/mol
# Density = 1.630179 g / cm^3
# Si number density = 16.338980 Si / 1000 Ang^3
#
#
#
# Elastic Constant Matrix: (Units=GPa)
#
#
# Indices 1 2 3 4 5 6 
#
# 1 53.3869 9.6787 28.4364 0.0000 14.4614 0.0000
# 2 9.6787 80.8445 42.0712 0.0000 10.6747 0.0000
# 3 28.4364 42.0712 101.0524 0.0000 29.2328 0.0000
# 4 0.0000 0.0000 0.0000 15.2337 0.0000 1.8041
# 5 14.4614 10.6747 29.2328 0.0000 20.3738 0.0000
# 6 0.0000 0.0000 0.0000 1.8041 0.0000 11.4656
#
#
#
# Elastic Compliance Matrix: (Units=1/GPa)
#
#
# Indices 1 2 3 4 5 6 
#
# 1 0.023757 0.000518 -0.003324 0.000000 -0.012365 0.000000
# 2 0.000518 0.015849 -0.007241 0.000000 0.001718 0.000000
# 3 -0.003324 -0.007241 0.020628 0.000000 -0.023444 0.000000
# 4 0.000000 0.000000 0.000000 0.066890 0.000000 -0.010525
# 5 -0.012365 0.001718 -0.023444 0.000000 0.090597 0.000000
# 6 0.000000 0.000000 0.000000 -0.010525 0.000000 0.088874
#
#
# Mechanical properties :
#
#
# Convention : Reuss Voigt Hill
#
# Bulk Modulus (GPa) = 24.91279 43.96183 34.43731
# Shear Modulus (GPa) = 14.70287 19.75445 17.22866
#
# Velocity S-wave (km/s) = 3.00303 3.48089 3.25075
# Velocity P-wave (km/s) = 5.22540 6.56658 5.93400
#
# Compressibility (1/GPa) = 0.04014003
#
# Stress axis : x y z
#
# Youngs Moduli (GPa) = 42.09242 63.09619 48.47781
#
# Poissons Ratio (x) = -0.03271 0.16115
# Poissons Ratio (y) = -0.02182 0.35104
# Poissons Ratio (z) = 0.13992 0.45689
#
# Static dielectric constant tensor:
#      x y z
#    x 3.008650 0.000000 0.240270 
#    y 0.000000 3.027920 0.000000 
#    z 0.240270 0.000000 3.101950 
# 
# 
# High freq. dielectric constant tensor:
#      x y z
#    x 1.613090 0.000000 0.016640 
#    y 0.000000 1.607190 0.000000 
#    z 0.016640 0.000000 1.606870 
# 
# From -- ./inp_files/29023.got.cif
#   From: 2010.06.25/outbox.cif.g09.slc.cpg/sg10_15_cif.got.tgz:29023.got - 2010.06.27 22:07:45.
