data_PCOD8056155
_publ_section_title
;
Structure prediction by ZEFSAII (Michael W. Deem and Ramdas Pophale) SiO2 
 PCOD8056155
Probable space group: C C
;
_chemical_formula_sum "Si O2"
_cell_formula_units_Z 32
_cell_length_a 10.749361
_cell_length_b 14.286402
_cell_length_c 9.271429
_cell_angle_alpha 90.000000
_cell_angle_beta 89.801493
_cell_angle_gamma 90.000000
_cell_volume 1423.801955
_symmetry_space_group_name_H-M "C C"
_symmetry_group_IT_number 9
_symmetry_cell_setting 'monoclinic'
loop_
_space_group_symop_operation_xyz
x,y,z
x,-y,1/2+z
1/2+x,1/2+y,z
1/2+x,1/2-y,1/2+z
loop_
_atom_site_type_symbol
_atom_site_label
_atom_site_fract_x
_atom_site_fract_y
_atom_site_fract_z
Si Si1 0.083020 0.813573 0.609580
Si Si2 0.435713 0.284082 0.893131
Si Si3 0.451137 0.567303 0.882799
Si Si4 0.062540 0.091499 0.572341
Si Si5 0.417597 0.078506 0.908379
Si Si6 0.278876 0.022657 0.165691
Si Si7 0.202055 0.619841 0.512151
Si Si8 0.678078 0.965808 0.312414
O O1 0.189399 0.885927 0.664870
O O2 0.136874 0.712314 0.571691
O O3 0.977817 0.804748 0.731125
O O4 0.011529 0.846031 0.467093
O O5 0.366153 0.184531 0.903325
O O6 0.550451 0.302600 0.006591
O O7 0.339258 0.360671 0.953625
O O8 0.480777 0.576153 0.714466
O O9 0.301147 0.567748 0.898448
O O10 0.514543 0.474409 0.942771
O O11 0.205475 0.067406 0.604649
O O12 0.558536 0.095631 0.856710
O O13 0.331244 0.006700 0.820105
O O14 0.402916 0.041447 0.071121
O O15 0.138951 0.569920 0.372003
O O16 0.201396 0.542682 0.641392
#
# Coordination Sequence:
#
# PCOD8056155 Si02
#       8
#     4   4   4   4   4   4   4   4
#     4  11  25  48  72 103 142 183 243 300 343 436
#     4  12  24  45  70 104 142 181 236 296 348 426
#     4  11  22  43  74 105 133 186 238 293 359 410
#     4  11  22  42  74 103 134 178 240 297 346 414
#     4  12  26  46  67 102 146 189 226 292 369 427
#     4  11  24  46  71  99 139 189 234 290 361 425
#     4  12  26  48  69 107 144 187 236 298 362 431
#     4  12  25  48  71 101 148 185 233 296 374 429
#
# _framework density 22.475037
#
# number of rings (size 3 to 8) (size 9 to 14) (size 15 to 20)
#    0.000    0.500    5.000    4.500    1.750    0.000 
#    9.000    0.000    0.000    0.000    0.000    0.000 
#    0.000    0.000    0.000    0.000    0.000    0.000 
#
# Total GULP energy -198255.289587 kJ/mol
# GULP energy per Si atom -12390.955599 kJ/mol
# Density = 2.242388 g / cm^3
# Si number density = 22.475037 Si / 1000 Ang^3
#
#
#
# Elastic Constant Matrix: (Units=GPa)
#
#
# Indices 1 2 3 4 5 6 
#
# 1 79.9322 15.3409 18.1235 0.0000 -11.9319 0.0000
# 2 15.3409 107.4051 61.5692 0.0000 2.5539 0.0000
# 3 18.1235 61.5692 111.2587 0.0000 -18.9682 0.0000
# 4 0.0000 0.0000 0.0000 36.5130 0.0000 -1.0776
# 5 -11.9319 2.5539 -18.9682 0.0000 39.9216 0.0000
# 6 0.0000 0.0000 0.0000 -1.0776 0.0000 26.3908
#
#
#
# Elastic Compliance Matrix: (Units=1/GPa)
#
#
# Indices 1 2 3 4 5 6 
#
# 1 0.013549 -0.001668 -0.000626 0.000000 0.003859 0.000000
# 2 -0.001668 0.014763 -0.008862 0.000000 -0.005654 0.000000
# 3 -0.000626 -0.008862 0.015298 0.000000 0.007649 0.000000
# 4 0.000000 0.000000 0.000000 0.027421 0.000000 0.001120
# 5 0.003859 -0.005654 0.007649 0.000000 0.030198 0.000000
# 6 0.000000 0.000000 0.000000 0.001120 0.000000 0.037938
#
#
# Mechanical properties :
#
#
# Convention : Reuss Voigt Hill
#
# Bulk Modulus (GPa) = 46.95300 54.29595 50.62447
# Shear Modulus (GPa) = 29.65983 34.13591 31.89787
#
# Velocity S-wave (km/s) = 3.63668 3.90145 3.77139
# Velocity P-wave (km/s) = 6.21051 6.67127 6.44501
#
# Compressibility (1/GPa) = 0.02129790
#
# Stress axis : x y z
#
# Youngs Moduli (GPa) = 73.80779 67.73548 65.36739
#
# Poissons Ratio (x) = 0.11299 0.04092
# Poissons Ratio (y) = 0.12312 0.57929
# Poissons Ratio (z) = 0.04621 0.60027
#
# Static dielectric constant tensor:
#      x y z
#    x 4.074940 0.000000 -0.084680 
#    y 0.000000 4.061400 0.000000 
#    z -0.084680 0.000000 4.189230 
# 
# 
# High freq. dielectric constant tensor:
#      x y z
#    x 1.887680 0.000000 -0.020230 
#    y 0.000000 1.876230 0.000000 
#    z -0.020230 0.000000 1.896990 
# 
# From -- ./inp_files/7439.got.cif
#   From: 2010.06.25/outbox.cif.g09.slc.cpg/sg9_4_cif.got.tgz:7439.got - 2010.06.27 21:40:51.
