data_PCOD8056977
_publ_section_title
;
Structure prediction by ZEFSAII (Michael W. Deem and Ramdas Pophale) SiO2 
 PCOD8056977
Probable space group: P 2/M
;
_chemical_formula_sum "Si O2"
_cell_formula_units_Z 28
_cell_length_a 25.752445
_cell_length_b 9.005190
_cell_length_c 17.764293
_cell_angle_alpha 90.000000
_cell_angle_beta 25.304975
_cell_angle_gamma 90.000000
_cell_volume 1760.883981
_symmetry_space_group_name_H-M "P 2/M"
_symmetry_group_IT_number 10
_symmetry_cell_setting 'monoclinic'
loop_
_space_group_symop_operation_xyz
x,y,z
-x,y,-z
-x,-y,-z
x,-y,z
loop_
_atom_site_type_symbol
_atom_site_label
_atom_site_fract_x
_atom_site_fract_y
_atom_site_fract_z
Si Si1 0.362073 0.325290 0.179932
Si Si2 0.795908 0.674554 0.471560
Si Si3 0.079770 0.825673 0.287696
Si Si4 0.107239 0.325326 0.940714
Si Si5 0.932482 0.329377 0.843840
Si Si6 0.845964 0.822774 0.261352
Si Si7 0.178481 0.824921 0.314835
O O1 0.354442 0.500000 0.178441
O O2 0.300652 0.277718 0.338898
O O3 0.295557 0.252628 0.196206
O O4 0.500000 0.268084 0.000000
O O5 0.791924 0.500000 0.458532
O O6 0.761199 0.765379 0.440890
O O7 0.928874 0.723575 0.325740
O O8 0.127743 0.757756 0.146619
O O9 0.169498 0.780829 0.238326
O O10 0.943556 0.767950 0.483741
O O11 0.076956 0.000000 0.282582
O O12 0.098195 0.500000 0.934195
O O13 0.198201 0.242732 0.762415
O O14 0.146594 0.301262 0.976361
O O15 0.976586 0.249620 0.103780
O O16 0.931476 0.500000 0.822443
O O17 0.850554 0.000000 0.253032
O O18 0.191715 0.000000 0.307038
#
# Coordination Sequence:
#
# PCOD8056977 Si02
#       7
#     4   4   4   4   4   4   4
#     4  10  20  33  48  65  85 112 150 190 222 256
#     4   9  17  29  41  56  82 113 142 175 219 260
#     4   9  17  28  43  62  87 115 144 178 214 258
#     4   9  16  26  37  53  82 114 139 169 211 254
#     4   9  16  25  40  61  83 112 146 174 209 256
#     4  10  17  24  37  57  78 106 145 178 205 248
#     4   9  18  31  44  62  86 114 145 178 221 262
#
# _framework density 15.901104999999999
#
# number of rings (size 3 to 8) (size 9 to 14) (size 15 to 20)
#    0.000    2.714    1.429    4.286    0.000    4.286 
#    0.000    1.429    0.000    0.000    0.000    0.000 
#    0.000    1.143    0.000   12.857    0.000    6.714 
#
# Total GULP energy -346982.215027 kJ/mol
# GULP energy per Si atom -12392.221965 kJ/mol
# Density = 1.586491 g / cm^3
# Si number density = 15.901105 Si / 1000 Ang^3
#
#
#
# Elastic Constant Matrix: (Units=GPa)
#
#
# Indices 1 2 3 4 5 6 
#
# 1 135.1461 53.5133 55.6393 0.0000 25.4077 0.0000
# 2 53.5133 67.5629 27.2668 0.0000 12.2514 0.0000
# 3 55.6393 27.2668 54.7786 0.0000 9.9069 0.0000
# 4 0.0000 0.0000 0.0000 12.1883 0.0000 5.2276
# 5 25.4077 12.2514 9.9069 0.0000 27.5334 0.0000
# 6 0.0000 0.0000 0.0000 5.2276 0.0000 30.2649
#
#
#
# Elastic Compliance Matrix: (Units=1/GPa)
#
#
# Indices 1 2 3 4 5 6 
#
# 1 0.016497 -0.006818 -0.011934 0.000000 -0.007895 0.000000
# 2 -0.006818 0.022083 -0.003666 0.000000 -0.002215 0.000000
# 3 -0.011934 -0.003666 0.031997 0.000000 0.001131 0.000000
# 4 0.000000 0.000000 0.000000 0.088611 0.000000 -0.015306
# 5 -0.007895 -0.002215 0.001131 0.000000 0.044184 0.000000
# 6 0.000000 0.000000 0.000000 -0.015306 0.000000 0.035685
#
#
# Mechanical properties :
#
#
# Convention : Reuss Voigt Hill
#
# Bulk Modulus (GPa) = 38.85031 58.92513 48.88772
# Shear Modulus (GPa) = 17.09556 22.06851 19.58203
#
# Velocity S-wave (km/s) = 3.28246 3.72944 3.51306
# Velocity P-wave (km/s) = 6.23310 7.46208 6.87511
#
# Compressibility (1/GPa) = 0.02573982
#
# Stress axis : x y z
#
# Youngs Moduli (GPa) = 60.61771 45.28459 31.25265
#
# Poissons Ratio (x) = 0.30876 0.37298
# Poissons Ratio (y) = 0.41331 0.11457
# Poissons Ratio (z) = 0.72343 0.16601
#
# Static dielectric constant tensor:
#      x y z
#    x 3.402050 0.000000 0.581460 
#    y 0.000000 2.927550 0.000000 
#    z 0.581460 0.000000 2.900190 
# 
# 
# High freq. dielectric constant tensor:
#      x y z
#    x 1.611970 0.000000 0.044000 
#    y 0.000000 1.612070 0.000000 
#    z 0.044000 0.000000 1.554260 
# 
# From -- ./inp_files/79841.got.cif
#   From: 2010.06.25/outbox.cif.g09.slc.cpg/sg10_40_cif.got.tgz:79841.got - 2010.06.27 22:07:45.
