data_PCOD8056755
_publ_section_title
;
Structure prediction by ZEFSAII (Michael W. Deem and Ramdas Pophale) SiO2 
 PCOD8056755
Probable space group: C C
;
_chemical_formula_sum "Si O2"
_cell_formula_units_Z 32
_cell_length_a 26.517566
_cell_length_b 8.919431
_cell_length_c 8.837638
_cell_angle_alpha 90.000000
_cell_angle_beta 141.068167
_cell_angle_gamma 90.000000
_cell_volume 1313.529940
_symmetry_space_group_name_H-M "C C"
_symmetry_group_IT_number 9
_symmetry_cell_setting 'monoclinic'
loop_
_space_group_symop_operation_xyz
x,y,z
x,-y,1/2+z
1/2+x,1/2+y,z
1/2+x,1/2-y,1/2+z
loop_
_atom_site_type_symbol
_atom_site_label
_atom_site_fract_x
_atom_site_fract_y
_atom_site_fract_z
Si Si1 0.833820 0.897874 0.155040
Si Si2 0.169827 0.336803 0.624855
Si Si3 0.568224 0.354272 0.103169
Si Si4 0.934854 0.677451 0.228100
Si Si5 0.099376 0.667314 0.465310
Si Si6 0.889203 0.158368 0.121708
Si Si7 0.184045 0.129179 0.376457
Si Si8 0.861530 0.567118 0.746348
O O1 0.902399 0.841290 0.196546
O O2 0.852869 0.866846 0.372334
O O3 0.834445 0.074988 0.120304
O O4 0.745961 0.834288 0.913909
O O5 0.103260 0.232388 0.542316
O O6 0.135911 0.503907 0.516331
O O7 0.193460 0.258987 0.523256
O O8 0.562170 0.236949 0.226900
O O9 0.616825 0.504994 0.259227
O O10 0.479910 0.401455 0.845051
O O11 0.904415 0.587759 0.305067
O O12 0.030881 0.664306 0.436552
O O13 0.896409 0.628603 0.982002
O O14 0.166456 0.782976 0.679623
O O15 0.882260 0.331767 0.148800
O O16 0.266801 0.040527 0.544893
#
# Coordination Sequence:
#
# PCOD8056755 Si02
#       8
#     4   4   4   4   4   4   4   4
#     4  12  28  49  78 108 152 201 258 318 383 462
#     4  12  28  50  75 113 154 200 257 316 391 465
#     4  12  28  50  75 113 154 200 257 316 391 465
#     4  12  26  49  73 109 150 197 257 313 383 459
#     4  12  28  47  78 110 153 200 253 320 390 463
#     4  12  28  49  78 108 152 201 258 318 383 462
#     4  12  28  47  78 110 153 200 253 320 390 463
#     4  12  26  49  73 109 150 197 257 313 383 459
#
# _framework density 24.361834000000002
#
# number of rings (size 3 to 8) (size 9 to 14) (size 15 to 20)
#    0.000    0.000    2.500    6.000   14.000    0.000 
#    0.000    0.000    0.000    0.000    0.000    0.000 
#    0.000    0.000    0.000    0.000    0.000    0.000 
#
# Total GULP energy -198482.955506 kJ/mol
# GULP energy per Si atom -12405.184719 kJ/mol
# Density = 2.430639 g / cm^3
# Si number density = 24.361834 Si / 1000 Ang^3
#
#
#
# Elastic Constant Matrix: (Units=GPa)
#
#
# Indices 1 2 3 4 5 6 
#
# 1 78.5000 12.9874 8.6246 0.0000 0.3482 0.0000
# 2 12.9874 98.3091 18.5231 0.0000 1.8261 0.0000
# 3 8.6246 18.5231 110.5069 0.0000 -10.0991 0.0000
# 4 0.0000 0.0000 0.0000 34.1805 0.0000 0.7665
# 5 0.3482 1.8261 -10.0991 0.0000 46.4254 0.0000
# 6 0.0000 0.0000 0.0000 0.7665 0.0000 51.4561
#
#
#
# Elastic Compliance Matrix: (Units=1/GPa)
#
#
# Indices 1 2 3 4 5 6 
#
# 1 0.013086 -0.001579 -0.000775 0.000000 -0.000205 0.000000
# 2 -0.001579 0.010724 -0.001747 0.000000 -0.000790 0.000000
# 3 -0.000775 -0.001747 0.009600 0.000000 0.002163 0.000000
# 4 0.000000 0.000000 0.000000 0.029266 0.000000 -0.000436
# 5 -0.000205 -0.000790 0.002163 0.000000 0.022043 0.000000
# 6 0.000000 0.000000 0.000000 -0.000436 0.000000 0.019441
#
#
# Mechanical properties :
#
#
# Convention : Reuss Voigt Hill
#
# Bulk Modulus (GPa) = 39.66839 40.84290 40.25565
# Shear Modulus (GPa) = 41.40268 42.89112 42.14690
#
# Velocity S-wave (km/s) = 4.12696 4.20049 4.16388
# Velocity P-wave (km/s) = 6.24719 6.35035 6.29898
#
# Compressibility (1/GPa) = 0.02520899
#
# Stress axis : x y z
#
# Youngs Moduli (GPa) = 76.41654 93.24585 104.16503
#
# Poissons Ratio (x) = 0.14722 0.08077
# Poissons Ratio (y) = 0.12065 0.18193
# Poissons Ratio (z) = 0.05925 0.16286
#
# Static dielectric constant tensor:
#      x y z
#    x 4.406510 0.000000 0.206500 
#    y 0.000000 4.714390 0.000000 
#    z 0.206500 0.000000 4.395420 
# 
# 
# High freq. dielectric constant tensor:
#      x y z
#    x 1.974350 0.000000 0.002950 
#    y 0.000000 1.984280 0.000000 
#    z 0.002950 0.000000 1.977640 
# 
# From -- ./inp_files/11421.got.cif
#   From: 2010.06.25/outbox.cif.g09.slc.cpg/sg9_6_cif.got.tgz:11421.got - 2010.06.27 21:40:51.
