data_PCOD8056317
_publ_section_title
;
Structure prediction by ZEFSAII (Michael W. Deem and Ramdas Pophale) SiO2 
 PCOD8056317
Probable space group: C C
;
_chemical_formula_sum "Si O2"
_cell_formula_units_Z 32
_cell_length_a 11.358019
_cell_length_b 8.809062
_cell_length_c 14.656739
_cell_angle_alpha 90.000000
_cell_angle_beta 70.140893
_cell_angle_gamma 90.000000
_cell_volume 1379.248893
_symmetry_space_group_name_H-M "C C"
_symmetry_group_IT_number 9
_symmetry_cell_setting 'monoclinic'
loop_
_space_group_symop_operation_xyz
x,y,z
x,-y,1/2+z
1/2+x,1/2+y,z
1/2+x,1/2-y,1/2+z
loop_
_atom_site_type_symbol
_atom_site_label
_atom_site_fract_x
_atom_site_fract_y
_atom_site_fract_z
Si Si1 0.027070 0.439711 0.319030
Si Si2 0.774973 0.449680 0.946406
Si Si3 0.828392 0.647741 0.105438
Si Si4 0.193525 0.958729 0.277899
Si Si5 0.790128 0.048820 0.537300
Si Si6 0.257400 0.621429 0.211454
Si Si7 0.111674 0.345760 0.487589
Si Si8 0.439659 0.616021 0.320953
O O1 0.126867 0.530045 0.232643
O O2 0.100845 0.364062 0.383121
O O3 0.920743 0.561055 0.377512
O O4 0.963935 0.292978 0.287215
O O5 0.699493 0.539637 0.886528
O O6 0.710565 0.288395 0.981635
O O7 0.773903 0.540222 0.040821
O O8 0.795236 0.578527 0.212539
O O9 0.758134 0.807303 0.109579
O O10 0.976355 0.680645 0.067136
O O11 0.224452 0.796390 0.228472
O O12 0.059015 0.009762 0.275855
O O13 0.897930 0.097399 0.437438
O O14 0.831739 0.913512 0.596936
O O15 0.667142 0.000483 0.514323
O O16 0.333886 0.559706 0.278505
#
# Coordination Sequence:
#
# PCOD8056317 Si02
#       8
#     4   4   4   4   4   4   4   4
#     4  11  23  46  74 101 145 185 237 301 357 426
#     4  11  23  46  74 100 142 185 239 295 360 424
#     4  11  26  48  68 107 146 186 237 306 353 430
#     4  12  26  46  76 103 143 194 241 293 364 433
#     4  12  25  45  74 104 144 188 240 296 359 427
#     4  12  28  45  71 112 142 195 243 298 365 430
#     4  11  24  45  73 104 142 187 236 292 367 423
#     4  12  25  51  70 105 148 192 243 301 363 427
#
# _framework density 23.201032999999999
#
# number of rings (size 3 to 8) (size 9 to 14) (size 15 to 20)
#    0.000    0.500    6.250    1.500    3.500    4.000 
#    0.000    1.250    0.000    0.000    0.000    0.000 
#    0.000    0.000    0.000    0.000    0.000    0.000 
#
# Total GULP energy -198387.626631 kJ/mol
# GULP energy per Si atom -12399.226664 kJ/mol
# Density = 2.314823 g / cm^3
# Si number density = 23.201033 Si / 1000 Ang^3
#
#
#
# Elastic Constant Matrix: (Units=GPa)
#
#
# Indices 1 2 3 4 5 6 
#
# 1 108.4009 51.4045 19.9363 0.0000 -10.4968 0.0000
# 2 51.4045 110.1798 22.1845 0.0000 -18.0473 0.0000
# 3 19.9363 22.1845 73.8947 0.0000 -2.3450 0.0000
# 4 0.0000 0.0000 0.0000 35.2597 0.0000 2.2954
# 5 -10.4968 -18.0473 -2.3450 0.0000 22.5156 0.0000
# 6 0.0000 0.0000 0.0000 2.2954 0.0000 44.9612
#
#
#
# Elastic Compliance Matrix: (Units=1/GPa)
#
#
# Indices 1 2 3 4 5 6 
#
# 1 0.012072 -0.005063 -0.001693 0.000000 0.001393 0.000000
# 2 -0.005063 0.013220 -0.002349 0.000000 0.007992 0.000000
# 3 -0.001693 -0.002349 0.014658 0.000000 -0.001146 0.000000
# 4 0.000000 0.000000 0.000000 0.028456 0.000000 -0.001453
# 5 0.001393 0.007992 -0.001146 0.000000 0.051350 0.000000
# 6 0.000000 0.000000 0.000000 -0.001453 0.000000 0.022316
#
#
# Mechanical properties :
#
#
# Convention : Reuss Voigt Hill
#
# Bulk Modulus (GPa) = 45.99735 53.28069 49.63902
# Shear Modulus (GPa) = 29.84551 33.81063 31.82807
#
# Velocity S-wave (km/s) = 3.59051 3.82159 3.70785
# Velocity P-wave (km/s) = 6.08750 6.51823 6.30655
#
# Compressibility (1/GPa) = 0.02174038
#
# Stress axis : x y z
#
# Youngs Moduli (GPa) = 82.83419 75.64069 68.22022
#
# Poissons Ratio (x) = 0.38299 0.11548
# Poissons Ratio (y) = 0.41941 0.16027
# Poissons Ratio (z) = 0.14022 0.17771
#
# Static dielectric constant tensor:
#      x y z
#    x 4.234930 0.000000 0.035030 
#    y 0.000000 4.177180 0.000000 
#    z 0.035030 0.000000 4.153730 
# 
# 
# High freq. dielectric constant tensor:
#      x y z
#    x 1.920540 0.000000 0.007960 
#    y 0.000000 1.916480 0.000000 
#    z 0.007960 0.000000 1.918930 
# 
# From -- ./inp_files/24210.got.cif
#   From: 2010.06.25/outbox.cif.g09.slc.cpg/sg9_13_cif.got.tgz:24210.got - 2010.06.27 21:40:51.
