data_PCOD8056367
_publ_section_title
;
Structure prediction by ZEFSAII (Michael W. Deem and Ramdas Pophale) SiO2 
 PCOD8056367
Probable space group: C C
;
_chemical_formula_sum "Si O2"
_cell_formula_units_Z 20
_cell_length_a 6.409943
_cell_length_b 31.705849
_cell_length_c 5.806638
_cell_angle_alpha 90.000000
_cell_angle_beta 132.270396
_cell_angle_gamma 90.000000
_cell_volume 873.247890
_symmetry_space_group_name_H-M "C C"
_symmetry_group_IT_number 9
_symmetry_cell_setting 'monoclinic'
loop_
_space_group_symop_operation_xyz
x,y,z
x,-y,1/2+z
1/2+x,1/2+y,z
1/2+x,1/2-y,1/2+z
loop_
_atom_site_type_symbol
_atom_site_label
_atom_site_fract_x
_atom_site_fract_y
_atom_site_fract_z
Si Si1 0.638630 0.354346 0.571130
Si Si2 0.357175 0.579269 0.157223
Si Si3 0.842252 0.476117 0.164877
Si Si4 0.745616 0.153814 0.389406
Si Si5 0.424481 0.278409 0.695269
O O1 0.567766 0.399114 0.631456
O O2 0.459679 0.315630 0.538862
O O3 0.970598 0.345729 0.847107
O O4 0.539037 0.356696 0.233790
O O5 0.550141 0.549674 0.460710
O O6 0.196483 0.616075 0.174392
O O7 0.118154 0.552844 0.850510
O O8 0.847926 0.499233 0.420874
O O9 0.777795 0.200399 0.307533
O O10 0.231982 0.240149 0.470754
#
# Coordination Sequence:
#
# PCOD8056367 Si02
#       5
#     4   4   4   4   4
#     4  11  24  42  69  96 130 184 228 277 349 409
#     4  11  26  46  70  99 140 178 232 291 338 434
#     4  12  28  47  74 107 144 186 234 295 364 419
#     4  11  24  42  69  96 130 184 228 277 349 409
#     4  11  24  41  62  98 138 170 228 286 338 413
#
# _framework density 22.903002999999998
#
# number of rings (size 3 to 8) (size 9 to 14) (size 15 to 20)
#    0.000    0.800    0.000    6.000    8.400   11.200 
#    0.000    0.000    0.000    0.000    0.000    0.000 
#    0.000    0.000    0.000    0.000    0.000    0.000 
#
# Total GULP energy -123962.217902 kJ/mol
# GULP energy per Si atom -12396.221790 kJ/mol
# Density = 2.285087 g / cm^3
# Si number density = 22.903003 Si / 1000 Ang^3
#
#
#
# Elastic Constant Matrix: (Units=GPa)
#
#
# Indices 1 2 3 4 5 6 
#
# 1 93.4471 30.1796 23.0750 0.0000 10.7901 0.0000
# 2 30.1796 112.7690 42.6163 0.0000 -0.0335 0.0000
# 3 23.0750 42.6163 115.5483 0.0000 6.5940 0.0000
# 4 0.0000 0.0000 0.0000 38.4159 0.0000 13.2701
# 5 10.7901 -0.0335 6.5940 0.0000 45.1540 0.0000
# 6 0.0000 0.0000 0.0000 13.2701 0.0000 29.7509
#
#
#
# Elastic Compliance Matrix: (Units=1/GPa)
#
#
# Indices 1 2 3 4 5 6 
#
# 1 0.012232 -0.002801 -0.001253 0.000000 -0.002742 0.000000
# 2 -0.002801 0.010960 -0.003551 0.000000 0.001196 0.000000
# 3 -0.001253 -0.003551 0.010283 0.000000 -0.001205 0.000000
# 4 0.000000 0.000000 0.000000 0.030772 0.000000 -0.013726
# 5 -0.002742 0.001196 -0.001205 0.000000 0.022979 0.000000
# 6 0.000000 0.000000 0.000000 -0.013726 0.000000 0.039735
#
#
# Mechanical properties :
#
#
# Convention : Reuss Voigt Hill
#
# Bulk Modulus (GPa) = 54.75109 57.05623 55.90366
# Shear Modulus (GPa) = 33.72499 37.72373 35.72436
#
# Velocity S-wave (km/s) = 3.84150 4.06286 3.95373
# Velocity P-wave (km/s) = 6.60558 6.85385 6.73086
#
# Compressibility (1/GPa) = 0.01826448
#
# Stress axis : x y z
#
# Youngs Moduli (GPa) = 81.75382 91.24482 97.24695
#
# Poissons Ratio (x) = 0.25555 0.12188
# Poissons Ratio (y) = 0.22897 0.34533
# Poissons Ratio (z) = 0.10246 0.32401
#
# Static dielectric constant tensor:
#      x y z
#    x 3.981600 0.000000 -0.053440 
#    y 0.000000 4.212580 0.000000 
#    z -0.053440 0.000000 4.139220 
# 
# 
# High freq. dielectric constant tensor:
#      x y z
#    x 1.905950 0.000000 0.010190 
#    y 0.000000 1.917970 0.000000 
#    z 0.010190 0.000000 1.914230 
# 
# From -- ./inp_files/239.got.cif
#   From: 2010.06.25/outbox.cif.g09.slc.cpg/sg9_1_cif.got.tgz:239.got - 2010.06.27 21:40:51.
