data_PCOD8056698
_publ_section_title
;
Structure prediction by ZEFSAII (Michael W. Deem and Ramdas Pophale) SiO2 
 PCOD8056698
Probable space group: C C
;
_chemical_formula_sum "Si O2"
_cell_formula_units_Z 32
_cell_length_a 9.411661
_cell_length_b 13.157900
_cell_length_c 12.628852
_cell_angle_alpha 90.000000
_cell_angle_beta 57.092735
_cell_angle_gamma 90.000000
_cell_volume 1312.997219
_symmetry_space_group_name_H-M "C C"
_symmetry_group_IT_number 9
_symmetry_cell_setting 'monoclinic'
loop_
_space_group_symop_operation_xyz
x,y,z
x,-y,1/2+z
1/2+x,1/2+y,z
1/2+x,1/2-y,1/2+z
loop_
_atom_site_type_symbol
_atom_site_label
_atom_site_fract_x
_atom_site_fract_y
_atom_site_fract_z
Si Si1 0.287800 0.539336 0.386780
Si Si2 0.934775 0.151690 0.145947
Si Si3 0.761614 0.557027 0.363836
Si Si4 0.004000 0.569354 0.879234
Si Si5 0.653353 0.166433 0.627055
Si Si6 0.042533 0.897732 0.376169
Si Si7 0.507053 0.731481 0.517112
Si Si8 0.575414 0.204560 0.213134
O O1 0.432881 0.570526 0.242670
O O2 0.234099 0.631975 0.483411
O O3 0.362906 0.448807 0.425420
O O4 0.115191 0.503906 0.404551
O O5 0.740058 0.151504 0.190411
O O6 0.999866 0.257038 0.167701
O O7 0.050334 0.124825 0.998994
O O8 0.822448 0.488469 0.440952
O O9 0.701637 0.476101 0.296511
O O10 0.594555 0.626012 0.446931
O O11 0.917367 0.628435 0.269423
O O12 0.078054 0.576296 0.729365
O O13 0.002562 0.682536 0.928079
O O14 0.810873 0.214384 0.628552
O O15 0.045472 0.799674 0.301965
O O16 0.611614 0.762165 0.578677
#
# Coordination Sequence:
#
# PCOD8056698 Si02
#       8
#     4   4   4   4   4   4   4   4
#     4  12  25  45  74 104 152 188 249 309 376 454
#     4  12  26  48  74 107 147 195 248 312 375 448
#     4  12  27  49  76 108 156 200 251 311 388 444
#     4  12  27  48  74 111 149 197 251 313 381 445
#     4  12  26  48  74 107 147 195 248 312 375 448
#     4  12  27  48  74 111 149 197 251 313 381 445
#     4  12  27  48  76 110 150 197 256 312 375 454
#     4  12  27  48  76 110 150 197 256 312 375 454
#
# _framework density 24.37172
#
# number of rings (size 3 to 8) (size 9 to 14) (size 15 to 20)
#    0.000    0.000    2.500    7.500    7.000    1.000 
#    0.000    0.000    0.000    0.000    0.000    0.000 
#    0.000    0.000    0.000    0.000    0.000    0.000 
#
# Total GULP energy -198335.995525 kJ/mol
# GULP energy per Si atom -12395.999720 kJ/mol
# Density = 2.431625 g / cm^3
# Si number density = 24.371720 Si / 1000 Ang^3
#
#
#
# Elastic Constant Matrix: (Units=GPa)
#
#
# Indices 1 2 3 4 5 6 
#
# 1 106.6934 39.1292 14.7699 0.0000 2.6060 0.0000
# 2 39.1292 119.5842 35.2098 0.0000 4.1308 0.0000
# 3 14.7699 35.2098 72.1275 0.0000 9.2680 0.0000
# 4 0.0000 0.0000 0.0000 19.6666 0.0000 -7.1554
# 5 2.6060 4.1308 9.2680 0.0000 33.4769 0.0000
# 6 0.0000 0.0000 0.0000 -7.1554 0.0000 44.9099
#
#
#
# Elastic Compliance Matrix: (Units=1/GPa)
#
#
# Indices 1 2 3 4 5 6 
#
# 1 0.010673 -0.003328 -0.000526 0.000000 -0.000275 0.000000
# 2 -0.003328 0.010804 -0.004619 0.000000 0.000205 0.000000
# 3 -0.000526 -0.004619 0.016744 0.000000 -0.004025 0.000000
# 4 0.000000 0.000000 0.000000 0.053977 0.000000 0.008600
# 5 -0.000275 0.000205 -0.004025 0.000000 0.030982 0.000000
# 6 0.000000 0.000000 0.000000 0.008600 0.000000 0.023637
#
#
# Mechanical properties :
#
#
# Convention : Reuss Voigt Hill
#
# Bulk Modulus (GPa) = 47.00218 52.95812 49.98015
# Shear Modulus (GPa) = 29.26493 33.56376 31.41434
#
# Velocity S-wave (km/s) = 3.46898 3.71504 3.59411
# Velocity P-wave (km/s) = 5.94748 6.33865 6.14618
#
# Compressibility (1/GPa) = 0.02127561
#
# Stress axis : x y z
#
# Youngs Moduli (GPa) = 93.69764 92.55683 59.72310
#
# Poissons Ratio (x) = 0.30802 0.03139
# Poissons Ratio (y) = 0.31182 0.27586
# Poissons Ratio (z) = 0.04925 0.42752
#
# Static dielectric constant tensor:
#      x y z
#    x 4.750210 0.000000 -0.077170 
#    y 0.000000 4.547140 0.000000 
#    z -0.077170 0.000000 4.798560 
# 
# 
# High freq. dielectric constant tensor:
#      x y z
#    x 1.998660 0.000000 0.005650 
#    y 0.000000 1.982550 0.000000 
#    z 0.005650 0.000000 1.946710 
# 
# From -- ./inp_files/14722.got.cif
#   From: 2010.06.25/outbox.cif.g09.slc.cpg/sg9_8_cif.got.tgz:14722.got - 2010.06.27 21:40:51.
