data_PCOD8056390
_publ_section_title
;
Structure prediction by ZEFSAII (Michael W. Deem and Ramdas Pophale) SiO2 
 PCOD8056390
Probable space group: C C
;
_chemical_formula_sum "Si O2"
_cell_formula_units_Z 24
_cell_length_a 13.024123
_cell_length_b 4.938825
_cell_length_c 12.365473
_cell_angle_alpha 90.000000
_cell_angle_beta 90.628779
_cell_angle_gamma 90.000000
_cell_volume 795.347111
_symmetry_space_group_name_H-M "C C"
_symmetry_group_IT_number 9
_symmetry_cell_setting 'monoclinic'
loop_
_space_group_symop_operation_xyz
x,y,z
x,-y,1/2+z
1/2+x,1/2+y,z
1/2+x,1/2-y,1/2+z
loop_
_atom_site_type_symbol
_atom_site_label
_atom_site_fract_x
_atom_site_fract_y
_atom_site_fract_z
Si Si1 0.793460 0.332727 0.306890
Si Si2 0.848959 0.058348 0.988702
Si Si3 0.969699 0.356761 0.819027
Si Si4 0.093802 0.126399 0.356572
Si Si5 0.671046 0.994713 0.640936
Si Si6 0.543301 0.513082 0.598010
O O1 0.712280 0.569059 0.334884
O O2 0.744982 0.084143 0.240202
O O3 0.886228 0.488365 0.241508
O O4 0.849953 0.204669 0.411916
O O5 0.895443 0.314729 0.924346
O O6 0.730789 0.077455 0.030002
O O7 0.920019 0.022103 0.097712
O O8 0.067554 0.554856 0.844814
O O9 0.016296 0.063493 0.777958
O O10 0.068234 0.991970 0.470630
O O11 0.568399 0.814685 0.640652
O O12 0.623126 0.297237 0.656762
#
# Coordination Sequence:
#
# PCOD8056390 Si02
#       6
#     4   4   4   4   4   4
#     4  12  27  45  77 108 148 195 249 306 369 433
#     4  11  26  48  77 104 149 197 249 297 372 444
#     4  11  24  44  73 106 134 195 240 301 364 436
#     4  11  24  43  76 100 143 188 246 295 369 433
#     4  12  29  44  71 110 148 189 247 307 363 436
#     4  11  24  48  68 104 146 190 239 304 371 430
#
# _framework density 30.175502000000002
#
# number of rings (size 3 to 8) (size 9 to 14) (size 15 to 20)
#    0.000    0.667    5.000    3.000    4.667    2.667 
#    0.000    0.000    0.000    0.000    0.000    0.000 
#    0.000    0.000    0.000    0.000    0.000    0.000 
#
# Total GULP energy -148729.881981 kJ/mol
# GULP energy per Si atom -12394.156832 kJ/mol
# Density = 3.010682 g / cm^3
# Si number density = 30.175502 Si / 1000 Ang^3
#
#
#
# Elastic Constant Matrix: (Units=GPa)
#
#
# Indices 1 2 3 4 5 6 
#
# 1 150.9529 74.7171 22.0233 0.0000 13.8076 0.0000
# 2 74.7171 205.2216 34.4150 0.0000 1.3823 0.0000
# 3 22.0233 34.4150 55.8382 0.0000 5.2947 0.0000
# 4 0.0000 0.0000 0.0000 47.7592 0.0000 -14.0506
# 5 13.8076 1.3823 5.2947 0.0000 54.1093 0.0000
# 6 0.0000 0.0000 0.0000 -14.0506 0.0000 62.1684
#
#
#
# Elastic Compliance Matrix: (Units=1/GPa)
#
#
# Indices 1 2 3 4 5 6 
#
# 1 0.008396 -0.002810 -0.001396 0.000000 -0.001934 0.000000
# 2 -0.002810 0.006377 -0.002901 0.000000 0.000838 0.000000
# 3 -0.001396 -0.002901 0.020396 0.000000 -0.001565 0.000000
# 4 0.000000 0.000000 0.000000 0.022430 0.000000 0.005069
# 5 -0.001934 0.000838 -0.001565 0.000000 0.019106 0.000000
# 6 0.000000 0.000000 0.000000 0.005069 0.000000 0.017231
#
#
# Mechanical properties :
#
#
# Convention : Reuss Voigt Hill
#
# Bulk Modulus (GPa) = 47.72371 74.92483 61.32427
# Shear Modulus (GPa) = 43.42709 51.53121 47.47915
#
# Velocity S-wave (km/s) = 3.79773 4.13694 3.97096
# Velocity P-wave (km/s) = 5.92284 6.90671 6.43361
#
# Compressibility (1/GPa) = 0.02095395
#
# Stress axis : x y z
#
# Youngs Moduli (GPa) = 119.10609 156.82310 49.02845
#
# Poissons Ratio (x) = 0.44061 0.06846
# Poissons Ratio (y) = 0.33464 0.14225
# Poissons Ratio (z) = 0.16632 0.45501
#
# Static dielectric constant tensor:
#      x y z
#    x 6.238690 0.000000 -0.075480 
#    y 0.000000 5.375340 0.000000 
#    z -0.075480 0.000000 6.581030 
# 
# 
# High freq. dielectric constant tensor:
#      x y z
#    x 2.265960 0.000000 -0.014080 
#    y 0.000000 2.243630 0.000000 
#    z -0.014080 0.000000 2.249920 
# 
# From -- ./inp_files/25191.got.cif
#   From: 2010.06.25/outbox.cif.g09.slc.cpg/sg9_13_cif.got.tgz:25191.got - 2010.06.27 21:40:51.
