data_PCOD8056777
_publ_section_title
;
Structure prediction by ZEFSAII (Michael W. Deem and Ramdas Pophale) SiO2 
 PCOD8056777
Probable space group: C C
;
_chemical_formula_sum "Si O2"
_cell_formula_units_Z 28
_cell_length_a 10.451150
_cell_length_b 14.660647
_cell_length_c 7.585701
_cell_angle_alpha 90.000000
_cell_angle_beta 74.239575
_cell_angle_gamma 90.000000
_cell_volume 1118.590649
_symmetry_space_group_name_H-M "C C"
_symmetry_group_IT_number 9
_symmetry_cell_setting 'monoclinic'
loop_
_space_group_symop_operation_xyz
x,y,z
x,-y,1/2+z
1/2+x,1/2+y,z
1/2+x,1/2-y,1/2+z
loop_
_atom_site_type_symbol
_atom_site_label
_atom_site_fract_x
_atom_site_fract_y
_atom_site_fract_z
Si Si1 0.860870 0.097221 0.528180
Si Si2 0.848113 0.709158 0.924309
Si Si3 0.216072 0.872649 0.806031
Si Si4 0.136194 0.206955 0.707171
Si Si5 0.498387 0.893438 0.832826
Si Si6 0.067395 0.414869 0.204687
Si Si7 0.010967 0.971262 0.284611
O O1 0.914985 0.191469 0.425439
O O2 0.719613 0.118665 0.668702
O O3 0.986335 0.058134 0.592378
O O4 0.864043 0.013592 0.386368
O O5 0.771836 0.717770 0.766325
O O6 0.967584 0.634579 0.878815
O O7 0.749402 0.690539 0.124884
O O8 0.349875 0.918165 0.830548
O O9 0.162588 0.814393 0.991788
O O10 0.125821 0.953959 0.762644
O O11 0.048560 0.298332 0.734137
O O12 0.056035 0.126939 0.845427
O O13 0.583111 0.977463 0.727217
O O14 0.511938 0.887863 0.036252
#
# Coordination Sequence:
#
# PCOD8056777 Si02
#       7
#     4   4   4   4   4   4   4
#     4  12  28  49  79 118 163 225 274 348 417 508
#     4  12  28  51  85 118 165 216 280 349 425 508
#     4  12  28  50  83 119 161 217 283 343 420 504
#     4  12  27  54  81 124 163 218 283 350 425 505
#     4  12  27  50  82 119 169 216 276 359 420 506
#     4  12  27  50  80 122 167 221 278 347 430 504
#     4  12  27  50  78 116 164 217 280 342 423 505
#
# _framework density 25.031500000000001
#
# number of rings (size 3 to 8) (size 9 to 14) (size 15 to 20)
#    0.000    0.000    4.286    4.286    4.000    4.571 
#    0.000    0.000    0.000    0.000    0.000    0.000 
#    0.000    0.000    0.000    0.000    0.000    0.000 
#
# Total GULP energy -173434.525295 kJ/mol
# GULP energy per Si atom -12388.180378 kJ/mol
# Density = 2.497453 g / cm^3
# Si number density = 25.031500 Si / 1000 Ang^3
#
#
#
# Elastic Constant Matrix: (Units=GPa)
#
#
# Indices 1 2 3 4 5 6 
#
# 1 140.8337 63.9841 44.9933 0.0000 3.6076 0.0000
# 2 63.9841 216.4021 68.4425 0.0000 -11.1041 0.0000
# 3 44.9933 68.4425 122.2117 0.0000 -4.4456 0.0000
# 4 0.0000 0.0000 0.0000 36.5514 0.0000 2.7139
# 5 3.6076 -11.1041 -4.4456 0.0000 42.7972 0.0000
# 6 0.0000 0.0000 0.0000 2.7139 0.0000 31.3237
#
#
#
# Elastic Compliance Matrix: (Units=1/GPa)
#
#
# Indices 1 2 3 4 5 6 
#
# 1 0.008724 -0.001971 -0.002161 0.000000 -0.001471 0.000000
# 2 -0.001971 0.006117 -0.002646 0.000000 0.001478 0.000000
# 3 -0.002161 -0.002646 0.010481 0.000000 0.000584 0.000000
# 4 0.000000 0.000000 0.000000 0.027536 0.000000 -0.002386
# 5 -0.001471 0.001478 0.000584 0.000000 0.023934 0.000000
# 6 0.000000 0.000000 0.000000 -0.002386 0.000000 0.032131
#
#
# Mechanical properties :
#
#
# Convention : Reuss Voigt Hill
#
# Bulk Modulus (GPa) = 84.99936 92.69856 88.84896
# Shear Modulus (GPa) = 39.55590 42.26962 40.91276
#
# Velocity S-wave (km/s) = 3.97954 4.11379 4.04722
# Velocity P-wave (km/s) = 7.42606 7.72512 7.57706
#
# Compressibility (1/GPa) = 0.01176479
#
# Stress axis : x y z
#
# Youngs Moduli (GPa) = 114.61986 163.48858 95.40779
#
# Poissons Ratio (x) = 0.32232 0.20622
# Poissons Ratio (y) = 0.22597 0.25244
# Poissons Ratio (z) = 0.24774 0.43258
#
# Static dielectric constant tensor:
#      x y z
#    x 4.570560 0.000000 0.133310 
#    y 0.000000 5.795200 0.000000 
#    z 0.133310 0.000000 4.602390 
# 
# 
# High freq. dielectric constant tensor:
#      x y z
#    x 2.012000 0.000000 0.008760 
#    y 0.000000 2.013340 0.000000 
#    z 0.008760 0.000000 1.996290 
# 
# From -- ./inp_files/7362.got.cif
#   From: 2010.06.25/outbox.cif.g09.slc.cpg/sg9_4_cif.got.tgz:7362.got - 2010.06.27 21:40:51.
