data_PCOD8056829
_publ_section_title
;
Structure prediction by ZEFSAII (Michael W. Deem and Ramdas Pophale) SiO2 
 PCOD8056829
Probable space group: P 2/M
;
_chemical_formula_sum "Si O2"
_cell_formula_units_Z 32
_cell_length_a 13.442629
_cell_length_b 31.562069
_cell_length_c 5.321323
_cell_angle_alpha 90.000000
_cell_angle_beta 78.584362
_cell_angle_gamma 90.000000
_cell_volume 2213.051974
_symmetry_space_group_name_H-M "P 2/M"
_symmetry_group_IT_number 10
_symmetry_cell_setting 'monoclinic'
loop_
_space_group_symop_operation_xyz
x,y,z
-x,y,-z
-x,-y,-z
x,-y,z
loop_
_atom_site_type_symbol
_atom_site_label
_atom_site_fract_x
_atom_site_fract_y
_atom_site_fract_z
Si Si1 0.566405 0.323361 0.216798
Si Si2 0.380892 0.415288 0.809555
Si Si3 0.562700 0.097133 0.718650
Si Si4 0.381472 0.231033 0.809262
Si Si5 0.227407 0.949634 0.386301
Si Si6 0.392027 0.804338 0.303985
Si Si7 0.885505 0.949591 0.057244
Si Si8 0.606616 0.549634 0.696691
O O1 0.500000 0.323557 0.500000
O O2 0.637812 0.364847 0.181088
O O3 0.636205 0.281494 0.181906
O O4 0.500000 0.323554 0.000000
O O5 0.331524 0.436364 0.584265
O O6 0.500910 0.425166 0.749545
O O7 0.331525 0.436365 0.084209
O O8 0.500000 0.086379 0.500000
O O9 0.659546 0.067453 0.670227
O O10 0.594849 0.145765 0.702580
O O11 0.500000 0.086378 0.000000
O O12 0.500791 0.219896 0.749604
O O13 0.331219 0.210299 0.584726
O O14 0.331219 0.210299 0.084052
O O15 0.170278 0.932726 0.664132
O O16 0.231626 0.000000 0.384192
O O17 0.170275 0.932726 0.165603
O O18 0.886520 0.000000 0.056740
O O19 0.000000 0.931848 0.000000
O O20 0.584458 0.500000 0.707766
#
# Coordination Sequence:
#
# PCOD8056829 Si02
#       8
#     4   4   4   4   4   4   4   4
#     4  12  16  22  31  42  54  66  83 129 171 190
#     4  10  16  22  26  37  48  58  79 107 150 189
#     4  12  21  31  45  58  85 119 140 161 183 211
#     4  10  16  25  38  48  60  79 116 147 169 204
#     4  10  21  33  46  69  89 107 139 164 189 233
#     4  10  16  27  37  51  64  89 125 146 165 198
#     4   9  17  33  54  70  85 103 126 166 209 235
#     4  10  16  22  28  32  43  63  82 100 127 185
#
# _framework density 14.459669999999999
#
# number of rings (size 3 to 8) (size 9 to 14) (size 15 to 20)
#    0.000    1.625    7.500    3.000    0.000    2.000 
#    0.000    0.000    0.000    0.000    0.000    0.000 
#    0.000    0.000    0.000    0.000    0.000    0.000 
#
# Total GULP energy -396572.115426 kJ/mol
# GULP energy per Si atom -12392.878607 kJ/mol
# Density = 1.442676 g / cm^3
# Si number density = 14.459670 Si / 1000 Ang^3
#
#
#
# Elastic Constant Matrix: (Units=GPa)
#
#
# Indices 1 2 3 4 5 6 
#
# 1 41.4512 21.5995 42.6209 0.0000 8.9004 0.0000
# 2 21.5995 41.7126 26.6210 0.0000 1.7688 0.0000
# 3 42.6209 26.6210 159.1930 0.0000 32.5658 0.0000
# 4 0.0000 0.0000 0.0000 7.8786 0.0000 2.4859
# 5 8.9004 1.7688 32.5658 0.0000 20.3871 0.0000
# 6 0.0000 0.0000 0.0000 2.4859 0.0000 0.8218
#
#
#
# Elastic Compliance Matrix: (Units=1/GPa)
#
#
# Indices 1 2 3 4 5 6 
#
# 1 0.041279 -0.016524 -0.007271 0.000000 -0.004973 0.000000
# 2 -0.016524 0.034181 -0.003210 0.000000 0.009376 0.000000
# 3 -0.007271 -0.003210 0.011970 0.000000 -0.015668 0.000000
# 4 0.000000 0.000000 0.000000 2.789056 0.000000 -8.437180
# 5 -0.004973 0.009376 -0.015668 0.000000 0.075437 0.000000
# 6 0.000000 0.000000 0.000000 -8.437180 0.000000 26.740241
#
#
# Mechanical properties :
#
#
# Convention : Reuss Voigt Hill
#
# Bulk Modulus (GPa) = 29.92157 47.11550 38.51854
# Shear Modulus (GPa) = 0.16803 15.91851 8.04327
#
# Velocity S-wave (km/s) = 0.34126 3.32157 2.36107
# Velocity P-wave (km/s) = 4.57092 6.88224 5.84203
#
# Compressibility (1/GPa) = 0.03342070
#
# Stress axis : x y z
#
# Youngs Moduli (GPa) = 24.22527 29.25612 83.53899
#
# Poissons Ratio (x) = 0.48342 0.60743
# Poissons Ratio (y) = 0.40029 0.26816
# Poissons Ratio (z) = 0.17615 0.09391
#
# Static dielectric constant tensor:
#      x y z
#    x 2.417490 0.000000 0.703570 
#    y 0.000000 2.897390 0.000000 
#    z 0.703570 0.000000 4.415030 
# 
# 
# High freq. dielectric constant tensor:
#      x y z
#    x 1.460680 0.000000 0.043410 
#    y 0.000000 1.553110 0.000000 
#    z 0.043410 0.000000 1.583940 
# 
# From -- ./inp_files/8181.got.cif
#   From: 2010.06.25/outbox.cif.g09.slc.cpg/sg10_5_cif.got.tgz:8181.got - 2010.06.27 22:07:45.
