data_PCOD8056911
_publ_section_title
;
Structure prediction by ZEFSAII (Michael W. Deem and Ramdas Pophale) SiO2 
 PCOD8056911
Probable space group: P 2/M
;
_chemical_formula_sum "Si O2"
_cell_formula_units_Z 28
_cell_length_a 9.560011
_cell_length_b 12.804565
_cell_length_c 14.483657
_cell_angle_alpha 90.000000
_cell_angle_beta 95.834721
_cell_angle_gamma 90.000000
_cell_volume 1763.785016
_symmetry_space_group_name_H-M "P 2/M"
_symmetry_group_IT_number 10
_symmetry_cell_setting 'monoclinic'
loop_
_space_group_symop_operation_xyz
x,y,z
-x,y,-z
-x,-y,-z
x,-y,z
loop_
_atom_site_type_symbol
_atom_site_label
_atom_site_fract_x
_atom_site_fract_y
_atom_site_fract_z
Si Si1 0.642131 0.879545 0.787146
Si Si2 0.130550 0.119481 0.946080
Si Si3 0.077337 0.878484 0.413809
Si Si4 0.364027 0.257984 0.045911
Si Si5 0.603371 0.878783 0.581510
Si Si6 0.106908 0.619407 0.091062
Si Si7 0.050325 0.194630 0.216171
O O1 0.577466 0.807206 0.862416
O O2 0.586047 0.835201 0.684769
O O3 0.811642 0.872161 0.801246
O O4 0.599379 0.000000 0.800079
O O5 0.084911 0.137704 0.837329
O O6 0.164702 0.000000 0.969506
O O7 0.271626 0.182164 0.975894
O O8 0.000000 0.160381 0.000000
O O9 0.240561 0.860457 0.444556
O O10 0.027140 0.806887 0.324774
O O11 0.000000 0.839187 0.500000
O O12 0.044934 0.000000 0.389549
O O13 0.266509 0.354543 0.070347
O O14 0.500000 0.300012 0.000000
O O15 0.500000 0.823700 0.500000
O O16 0.566320 0.000000 0.585363
O O17 0.101704 0.500000 0.122976
O O18 0.063664 0.687923 0.177383
O O19 0.000000 0.640229 0.000000
#
# Coordination Sequence:
#
# PCOD8056911 Si02
#       7
#     4   4   4   4   4   4   4
#     4   9  16  27  44  63  89 127 159 189 222 266
#     4  11  18  28  47  68  94 132 164 188 219 276
#     4   9  17  28  44  68  97 125 152 188 228 271
#     4  11  21  32  43  67 101 124 152 192 239 289
#     4   8  14  26  41  56  81 118 159 188 212 254
#     4  10  19  35  55  71  87 116 163 207 243 285
#     4  10  16  30  49  70  89 121 164 199 229 274
#
# _framework density 15.874950999999999
#
# number of rings (size 3 to 8) (size 9 to 14) (size 15 to 20)
#    0.000    2.286    4.286    2.571    0.000    1.429 
#    2.571    0.000    0.000    0.429    0.000    0.000 
#    0.000   46.286    0.000    0.000    0.000    0.000 
#
# Total GULP energy -347094.169239 kJ/mol
# GULP energy per Si atom -12396.220330 kJ/mol
# Density = 1.583882 g / cm^3
# Si number density = 15.874951 Si / 1000 Ang^3
#
#
#
# Elastic Constant Matrix: (Units=GPa)
#
#
# Indices 1 2 3 4 5 6 
#
# 1 56.4362 15.9325 43.0873 0.0000 -1.5418 0.0000
# 2 15.9325 67.2729 33.9959 0.0000 -1.6582 0.0000
# 3 43.0873 33.9959 125.1291 0.0000 2.8480 0.0000
# 4 0.0000 0.0000 0.0000 15.4324 0.0000 0.6047
# 5 -1.5418 -1.6582 2.8480 0.0000 29.1400 0.0000
# 6 0.0000 0.0000 0.0000 0.6047 0.0000 11.3054
#
#
#
# Elastic Compliance Matrix: (Units=1/GPa)
#
#
# Indices 1 2 3 4 5 6 
#
# 1 0.024330 -0.001689 -0.007964 0.000000 0.001970 0.000000
# 2 -0.001689 0.017408 -0.004178 0.000000 0.001310 0.000000
# 3 -0.007964 -0.004178 0.011911 0.000000 -0.001823 0.000000
# 4 0.000000 0.000000 0.000000 0.064935 0.000000 -0.003473
# 5 0.001970 0.001310 -0.001823 0.000000 0.034674 0.000000
# 6 0.000000 0.000000 0.000000 -0.003473 0.000000 0.088639
#
#
# Mechanical properties :
#
#
# Convention : Reuss Voigt Hill
#
# Bulk Modulus (GPa) = 38.48014 48.31885 43.39949
# Shear Modulus (GPa) = 17.97138 21.56374 19.76756
#
# Velocity S-wave (km/s) = 3.36826 3.68958 3.53257
# Velocity P-wave (km/s) = 6.27846 6.97523 6.63600
#
# Compressibility (1/GPa) = 0.02598743
#
# Stress axis : x y z
#
# Youngs Moduli (GPa) = 41.10181 57.44366 83.95931
#
# Poissons Ratio (x) = 0.09703 0.66863
# Poissons Ratio (y) = 0.06943 0.35076
# Poissons Ratio (z) = 0.32732 0.23999
#
# Static dielectric constant tensor:
#      x y z
#    x 2.858970 0.000000 0.173330 
#    y 0.000000 2.717130 0.000000 
#    z 0.173330 0.000000 3.338890 
# 
# 
# High freq. dielectric constant tensor:
#      x y z
#    x 1.590290 0.000000 0.012650 
#    y 0.000000 1.568590 0.000000 
#    z 0.012650 0.000000 1.615470 
# 
# From -- ./inp_files/61415.got.cif
#   From: 2010.06.25/outbox.cif.g09.slc.cpg/sg10_31_cif.got.tgz:61415.got - 2010.06.27 22:07:45.
