data_PCOD8056803
_publ_section_title
;
Structure prediction by ZEFSAII (Michael W. Deem and Ramdas Pophale) SiO2 
 PCOD8056803
Probable space group: P 2/M
;
_chemical_formula_sum "Si O2"
_cell_formula_units_Z 24
_cell_length_a 9.713110
_cell_length_b 16.456606
_cell_length_c 8.667537
_cell_angle_alpha 90.000000
_cell_angle_beta 91.860957
_cell_angle_gamma 90.000000
_cell_volume 1384.730205
_symmetry_space_group_name_H-M "P 2/M"
_symmetry_group_IT_number 10
_symmetry_cell_setting 'monoclinic'
loop_
_space_group_symop_operation_xyz
x,y,z
-x,y,-z
-x,-y,-z
x,-y,z
loop_
_atom_site_type_symbol
_atom_site_label
_atom_site_fract_x
_atom_site_fract_y
_atom_site_fract_z
Si Si1 0.151456 0.000000 0.939184
Si Si2 0.512353 0.169784 0.819390
Si Si3 0.406569 0.000000 0.147674
Si Si4 0.792204 0.828323 0.178551
Si Si5 0.980286 0.294995 0.322534
Si Si6 0.238736 0.726116 0.120100
Si Si7 0.144250 0.409407 0.918428
O O1 0.181740 0.923877 0.829823
O O2 0.000000 0.000000 0.000000
O O3 0.247746 0.000000 0.092810
O O4 0.564207 0.082678 0.752269
O O5 0.359308 0.191200 0.754655
O O6 0.619214 0.244031 0.793325
O O7 0.500000 0.156121 0.000000
O O8 0.500000 0.000000 0.000000
O O9 0.901860 0.790561 0.300493
O O10 0.813008 0.792494 0.006362
O O11 0.128748 0.286558 0.249991
O O12 0.000000 0.317906 0.500000
O O13 0.884167 0.365106 0.245009
O O14 0.254853 0.641191 0.025695
O O15 0.202851 0.500000 0.892326
O O16 0.000000 0.412369 0.000000
#
# Coordination Sequence:
#
# PCOD8056803 Si02
#       7
#     2   4   2   4   4   4   4
#     4  12  18  24  45  75  98 122 156 200 245 277
#     4   9  15  26  46  69  96 117 152 196 241 274
#     4  10  14  26  40  71 100 115 153 200 239 278
#     4  10  18  30  47  69  95 121 158 201 239 273
#     4  10  20  32  45  66  97 128 159 190 228 283
#     4   9  16  29  49  71  92 119 151 194 238 279
#     4   8  15  29  50  74  96 117 149 194 237 278
#
# _framework density 17.331897000000001
#
# number of rings (size 3 to 8) (size 9 to 14) (size 15 to 20)
#    0.000    2.500    5.000    2.500    0.000    0.333 
#    0.000    1.250    0.000   12.500    0.000    2.333 
#    0.000   26.667    0.000    0.000    0.000    0.000 
#
# Total GULP energy -297406.142450 kJ/mol
# GULP energy per Si atom -12391.922602 kJ/mol
# Density = 1.729245 g / cm^3
# Si number density = 17.331897 Si / 1000 Ang^3
#
#
#
# Elastic Constant Matrix: (Units=GPa)
#
#
# Indices 1 2 3 4 5 6 
#
# 1 104.5002 41.0216 29.8311 0.0000 -2.8923 0.0000
# 2 41.0216 138.0733 34.9125 0.0000 -1.0179 0.0000
# 3 29.8311 34.9125 63.6388 0.0000 3.4208 0.0000
# 4 0.0000 0.0000 0.0000 6.4900 0.0000 -2.9282
# 5 -2.8923 -1.0179 3.4208 0.0000 8.3911 0.0000
# 6 0.0000 0.0000 0.0000 -2.9282 0.0000 18.3014
#
#
#
# Elastic Compliance Matrix: (Units=1/GPa)
#
#
# Indices 1 2 3 4 5 6 
#
# 1 0.011970 -0.002342 -0.004634 0.000000 0.005731 0.000000
# 2 -0.002342 0.008940 -0.003907 0.000000 0.001870 0.000000
# 3 -0.004634 -0.003907 0.020592 0.000000 -0.010466 0.000000
# 4 0.000000 0.000000 0.000000 0.166071 0.000000 0.026571
# 5 0.005731 0.001870 -0.010466 0.000000 0.125642 0.000000
# 6 0.000000 0.000000 0.000000 0.026571 0.000000 0.058892
#
#
# Mechanical properties :
#
#
# Convention : Reuss Voigt Hill
#
# Bulk Modulus (GPa) = 50.67098 57.52697 54.09897
# Shear Modulus (GPa) = 11.89191 19.99965 15.94578
#
# Velocity S-wave (km/s) = 2.62225 3.40063 3.03648
# Velocity P-wave (km/s) = 6.20221 6.97728 6.60113
#
# Compressibility (1/GPa) = 0.01973516
#
# Stress axis : x y z
#
# Youngs Moduli (GPa) = 83.53944 111.85469 48.56240
#
# Poissons Ratio (x) = 0.26200 0.22505
# Poissons Ratio (y) = 0.19568 0.18974
# Poissons Ratio (z) = 0.38714 0.43703
#
# Static dielectric constant tensor:
#      x y z
#    x 8.108990 0.000000 -0.221670 
#    y 0.000000 3.656770 0.000000 
#    z -0.221670 0.000000 2.670620 
# 
# 
# High freq. dielectric constant tensor:
#      x y z
#    x 1.665810 0.000000 0.003360 
#    y 0.000000 1.674940 0.000000 
#    z 0.003360 0.000000 1.604850 
# 
# From -- ./inp_files/19322.got.cif
#   From: 2010.06.25/outbox.cif.g09.slc.cpg/sg10_10_cif.got.tgz:19322.got - 2010.06.27 22:07:45.
