data_PCOD8056321
_publ_section_title
;
Structure prediction by ZEFSAII (Michael W. Deem and Ramdas Pophale) SiO2 
 PCOD8056321
Probable space group: C C
;
_chemical_formula_sum "Si O2"
_cell_formula_units_Z 32
_cell_length_a 13.277995
_cell_length_b 13.983914
_cell_length_c 8.794785
_cell_angle_alpha 90.000000
_cell_angle_beta 60.376729
_cell_angle_gamma 90.000000
_cell_volume 1419.558435
_symmetry_space_group_name_H-M "C C"
_symmetry_group_IT_number 9
_symmetry_cell_setting 'monoclinic'
loop_
_space_group_symop_operation_xyz
x,y,z
x,-y,1/2+z
1/2+x,1/2+y,z
1/2+x,1/2-y,1/2+z
loop_
_atom_site_type_symbol
_atom_site_label
_atom_site_fract_x
_atom_site_fract_y
_atom_site_fract_z
Si Si1 0.285130 0.439546 0.532950
Si Si2 0.457809 0.880310 0.082074
Si Si3 0.522699 0.535144 0.271367
Si Si4 0.679264 0.861687 0.097918
Si Si5 0.871308 0.180222 0.240337
Si Si6 0.645330 0.606530 0.476710
Si Si7 0.908547 0.571077 0.273983
Si Si8 0.613458 0.818035 0.474293
O O1 0.407610 0.471503 0.373157
O O2 0.202127 0.528988 0.629554
O O3 0.298386 0.385113 0.680740
O O4 0.226058 0.371595 0.453220
O O5 0.590107 0.858330 0.024419
O O6 0.385490 0.783408 0.155595
O O7 0.407475 0.958957 0.235233
O O8 0.449644 0.915735 0.915901
O O9 0.493386 0.627195 0.186903
O O10 0.566988 0.571798 0.397632
O O11 0.623525 0.468197 0.128666
O O12 0.627657 0.806413 0.281693
O O13 0.797306 0.811515 0.951711
O O14 0.781026 0.611498 0.338345
O O15 0.604923 0.712683 0.554101
O O16 0.995385 0.626452 0.097779
#
# Coordination Sequence:
#
# PCOD8056321 Si02
#       8
#     4   4   4   4   4   4   4   4
#     4  11  23  46  75 105 142 190 244 303 359 440
#     4  12  26  46  72 106 149 192 245 305 364 440
#     4  11  25  47  73 107 147 187 245 299 368 430
#     4  11  24  44  73 108 143 189 244 309 362 430
#     4  11  25  45  75 107 143 195 243 300 369 435
#     4  12  28  47  73 105 150 198 238 307 362 445
#     4  12  28  47  71 107 151 197 244 306 375 434
#     4  12  27  44  76 111 145 192 249 303 373 442
#
# _framework density 22.542221000000001
#
# number of rings (size 3 to 8) (size 9 to 14) (size 15 to 20)
#    0.000    0.500    2.500    5.250    5.250    4.000 
#    0.000    0.000    0.000    0.000    0.000    0.000 
#    0.000    0.000    0.000    0.000    0.000    0.000 
#
# Total GULP energy -198518.168417 kJ/mol
# GULP energy per Si atom -12407.385526 kJ/mol
# Density = 2.249091 g / cm^3
# Si number density = 22.542221 Si / 1000 Ang^3
#
#
#
# Elastic Constant Matrix: (Units=GPa)
#
#
# Indices 1 2 3 4 5 6 
#
# 1 101.9266 12.7215 19.7113 0.0000 -8.5061 0.0000
# 2 12.7215 114.1099 33.9654 0.0000 -4.2253 0.0000
# 3 19.7113 33.9654 102.7682 0.0000 -1.9337 0.0000
# 4 0.0000 0.0000 0.0000 29.7283 0.0000 -3.1178
# 5 -8.5061 -4.2253 -1.9337 0.0000 33.5804 0.0000
# 6 0.0000 0.0000 0.0000 -3.1178 0.0000 18.1723
#
#
#
# Elastic Compliance Matrix: (Units=1/GPa)
#
#
# Indices 1 2 3 4 5 6 
#
# 1 0.010428 -0.000543 -0.001774 0.000000 0.002471 0.000000
# 2 -0.000543 0.009784 -0.003112 0.000000 0.000914 0.000000
# 3 -0.001774 -0.003112 0.011096 0.000000 -0.000202 0.000000
# 4 0.000000 0.000000 0.000000 0.034254 0.000000 0.005877
# 5 0.002471 0.000914 -0.000202 0.000000 0.030509 0.000000
# 6 0.000000 0.000000 0.000000 0.005877 0.000000 0.056037
#
#
# Mechanical properties :
#
#
# Convention : Reuss Voigt Hill
#
# Bulk Modulus (GPa) = 48.90212 50.17791 49.54002
# Shear Modulus (GPa) = 29.44923 33.12329 31.28626
#
# Velocity S-wave (km/s) = 3.61834 3.83742 3.72949
# Velocity P-wave (km/s) = 6.26077 6.47628 6.36944
#
# Compressibility (1/GPa) = 0.02044901
#
# Stress axis : x y z
#
# Youngs Moduli (GPa) = 95.89501 102.20457 90.12423
#
# Poissons Ratio (x) = 0.05549 0.15990
# Poissons Ratio (y) = 0.05207 0.28050
# Poissons Ratio (z) = 0.17014 0.31810
#
# Static dielectric constant tensor:
#      x y z
#    x 4.150100 0.000000 0.015830 
#    y 0.000000 4.210020 0.000000 
#    z 0.015830 0.000000 3.899400 
# 
# 
# High freq. dielectric constant tensor:
#      x y z
#    x 1.901620 0.000000 0.003350 
#    y 0.000000 1.896970 0.000000 
#    z 0.003350 0.000000 1.883790 
# 
# From -- ./inp_files/7562.got.cif
#   From: 2010.06.25/outbox.cif.g09.slc.cpg/sg9_4_cif.got.tgz:7562.got - 2010.06.27 21:40:51.
