data_PCOD8056852
_publ_section_title
;
Structure prediction by ZEFSAII (Michael W. Deem and Ramdas Pophale) SiO2 
 PCOD8056852
Probable space group: P 2/M
;
_chemical_formula_sum "Si O2"
_cell_formula_units_Z 28
_cell_length_a 14.001922
_cell_length_b 12.968049
_cell_length_c 15.167862
_cell_angle_alpha 90.000000
_cell_angle_beta 139.234437
_cell_angle_gamma 90.000000
_cell_volume 1798.361112
_symmetry_space_group_name_H-M "P 2/M"
_symmetry_group_IT_number 10
_symmetry_cell_setting 'monoclinic'
loop_
_space_group_symop_operation_xyz
x,y,z
-x,y,-z
-x,-y,-z
x,-y,z
loop_
_atom_site_type_symbol
_atom_site_label
_atom_site_fract_x
_atom_site_fract_y
_atom_site_fract_z
Si Si1 0.941450 0.380027 0.864427
Si Si2 0.558940 0.500000 0.181137
Si Si3 0.734018 0.500000 0.136283
Si Si4 0.460794 0.695046 0.206557
Si Si5 0.734500 0.885611 0.136269
Si Si6 0.559699 0.114392 0.180761
Si Si7 0.833649 0.694508 0.111644
Si Si8 0.606770 0.380818 0.653820
O O1 0.980220 0.500000 0.877431
O O2 0.770370 0.357063 0.736618
O O3 0.020349 0.314227 0.844013
O O4 0.000000 0.343255 0.000000
O O5 0.701505 0.500000 0.218126
O O6 0.561641 0.601028 0.244126
O O7 0.416245 0.500000 0.021535
O O8 0.826061 0.601351 0.176120
O O9 0.549536 0.800535 0.250280
O O10 0.435466 0.689266 0.292968
O O11 0.304873 0.691864 0.049780
O O12 0.697250 0.862241 0.212671
O O13 0.845141 0.800676 0.174928
O O14 0.804438 0.000000 0.175912
O O15 0.585390 0.879743 0.978297
O O16 0.576018 0.000000 0.234145
O O17 0.500000 0.351816 0.500000
O O18 0.592674 0.500000 0.672484
#
# Coordination Sequence:
#
# PCOD8056852 Si02
#       8
#     4   2   2   4   4   4   4   4
#     4  10  18  28  45  64  88 118 150 185 219 263
#     4   9  16  22  34  59  92 113 135 173 228 263
#     4   9  16  22  32  62  92 112 133 177 222 268
#     4  10  16  25  42  62  88 118 145 184 220 259
#     4   8  14  24  38  60  93 123 146 175 215 266
#     4   8  14  24  39  61  89 122 151 175 214 267
#     4  10  16  24  41  64  90 117 145 177 223 262
#     4  10  20  32  45  64  89 119 155 186 217 261
#
# _framework density 15.569731000000001
#
# number of rings (size 3 to 8) (size 9 to 14) (size 15 to 20)
#    0.000    2.714    2.857    1.714    0.000    3.429 
#    0.000    0.000    0.000    1.714    0.000    5.000 
#    0.000    2.286    0.000    0.000    0.000    0.000 
#
# Total GULP energy -347118.754816 kJ/mol
# GULP energy per Si atom -12397.098386 kJ/mol
# Density = 1.553429 g / cm^3
# Si number density = 15.569731 Si / 1000 Ang^3
#
#
#
# Elastic Constant Matrix: (Units=GPa)
#
#
# Indices 1 2 3 4 5 6 
#
# 1 133.4204 78.2334 26.9911 0.0000 -9.7368 0.0000
# 2 78.2334 125.2195 21.9385 0.0000 -10.3066 0.0000
# 3 26.9911 21.9385 38.7072 0.0000 2.3686 0.0000
# 4 0.0000 0.0000 0.0000 7.8036 0.0000 -3.7255
# 5 -9.7368 -10.3066 2.3686 0.0000 12.6298 0.0000
# 6 0.0000 0.0000 0.0000 -3.7255 0.0000 26.2041
#
#
#
# Elastic Compliance Matrix: (Units=1/GPa)
#
#
# Indices 1 2 3 4 5 6 
#
# 1 0.012926 -0.006634 -0.005596 0.000000 0.005601 0.000000
# 2 -0.006634 0.013217 -0.003249 0.000000 0.006281 0.000000
# 3 -0.005596 -0.003249 0.032377 0.000000 -0.013038 0.000000
# 4 0.000000 0.000000 0.000000 0.137476 0.000000 0.019545
# 5 0.005601 0.006281 -0.013038 0.000000 0.091066 0.000000
# 6 0.000000 0.000000 0.000000 0.019545 0.000000 0.040941
#
#
# Mechanical properties :
#
#
# Convention : Reuss Voigt Hill
#
# Bulk Modulus (GPa) = 36.28386 61.29702 48.79044
# Shear Modulus (GPa) = 13.58147 20.67313 17.12730
#
# Velocity S-wave (km/s) = 2.95668 3.64782 3.32028
# Velocity P-wave (km/s) = 5.91698 7.56287 6.78998
#
# Compressibility (1/GPa) = 0.02756046
#
# Stress axis : x y z
#
# Youngs Moduli (GPa) = 77.36262 75.65901 30.88643
#
# Poissons Ratio (x) = 0.50196 0.17284
# Poissons Ratio (y) = 0.51326 0.10036
# Poissons Ratio (z) = 0.43292 0.24584
#
# Static dielectric constant tensor:
#      x y z
#    x 3.049280 0.000000 -0.099460 
#    y 0.000000 3.112870 0.000000 
#    z -0.099460 0.000000 2.440990 
# 
# 
# High freq. dielectric constant tensor:
#      x y z
#    x 1.604680 0.000000 -0.011980 
#    y 0.000000 1.589540 0.000000 
#    z -0.011980 0.000000 1.534240 
# 
# From -- ./inp_files/67164.got.cif
#   From: 2010.06.25/outbox.cif.g09.slc.cpg/sg10_34_cif.got.tgz:67164.got - 2010.06.27 22:07:45.
