data_PCOD8056605
_publ_section_title
;
Structure prediction by ZEFSAII (Michael W. Deem and Ramdas Pophale) SiO2 
 PCOD8056605
Probable space group: C C
;
_chemical_formula_sum "Si O2"
_cell_formula_units_Z 24
_cell_length_a 5.671356
_cell_length_b 12.713385
_cell_length_c 15.081601
_cell_angle_alpha 90.000000
_cell_angle_beta 58.324280
_cell_angle_gamma 90.000000
_cell_volume 925.427324
_symmetry_space_group_name_H-M "C C"
_symmetry_group_IT_number 9
_symmetry_cell_setting 'monoclinic'
loop_
_space_group_symop_operation_xyz
x,y,z
x,-y,1/2+z
1/2+x,1/2+y,z
1/2+x,1/2-y,1/2+z
loop_
_atom_site_type_symbol
_atom_site_label
_atom_site_fract_x
_atom_site_fract_y
_atom_site_fract_z
Si Si1 0.202880 0.114178 0.085890
Si Si2 0.616072 0.254634 0.765056
Si Si3 0.213653 0.475969 0.234571
Si Si4 0.249527 0.893601 0.900592
Si Si5 0.171047 0.469450 0.044281
Si Si6 0.058458 0.738626 0.462928
O O1 0.213657 0.215134 0.147505
O O2 0.508990 0.059063 0.018019
O O3 0.061823 0.153806 0.020773
O O4 0.015252 0.026774 0.170115
O O5 0.753569 0.142725 0.760793
O O6 0.720972 0.342874 0.810813
O O7 0.284114 0.246869 0.840346
O O8 0.068819 0.477913 0.166061
O O9 0.031851 0.538716 0.342742
O O10 0.275643 0.798022 0.968565
O O11 0.008600 0.977385 0.973444
O O12 0.125843 0.352904 0.018163
#
# Coordination Sequence:
#
# PCOD8056605 Si02
#       6
#     4   4   4   4   4   4
#     4  12  26  49  78 110 162 207 271 328 406 482
#     4  11  26  48  73 114 152 204 268 327 404 474
#     4  12  26  47  78 111 147 211 265 332 399 478
#     4  11  26  51  76 114 163 204 268 338 407 471
#     4  11  26  49  75 112 154 208 269 328 405 480
#     4  11  26  50  74 117 156 206 271 335 397 481
#
# _framework density 25.933964
#
# number of rings (size 3 to 8) (size 9 to 14) (size 15 to 20)
#    0.000    0.667    5.000    1.000    4.667    6.667 
#    0.000    0.000    0.000    0.000    0.000    0.000 
#    0.000    0.000    0.000    0.000    0.000    0.000 
#
# Total GULP energy -148742.013106 kJ/mol
# GULP energy per Si atom -12395.167759 kJ/mol
# Density = 2.587494 g / cm^3
# Si number density = 25.933964 Si / 1000 Ang^3
#
#
#
# Elastic Constant Matrix: (Units=GPa)
#
#
# Indices 1 2 3 4 5 6 
#
# 1 104.0336 30.4065 44.1743 0.0000 -18.4631 0.0000
# 2 30.4065 141.0949 49.3434 0.0000 -18.6714 0.0000
# 3 44.1743 49.3434 95.5563 0.0000 -7.1410 0.0000
# 4 0.0000 0.0000 0.0000 42.7413 0.0000 5.8240
# 5 -18.4631 -18.6714 -7.1410 0.0000 40.7773 0.0000
# 6 0.0000 0.0000 0.0000 5.8240 0.0000 46.8236
#
#
#
# Elastic Compliance Matrix: (Units=1/GPa)
#
#
# Indices 1 2 3 4 5 6 
#
# 1 0.012843 -0.000228 -0.005464 0.000000 0.004754 0.000000
# 2 -0.000228 0.009092 -0.004343 0.000000 0.003299 0.000000
# 3 -0.005464 -0.004343 0.015098 0.000000 -0.001819 0.000000
# 4 0.000000 0.000000 0.000000 0.023800 0.000000 -0.002960
# 5 0.004754 0.003299 -0.001819 0.000000 0.027868 0.000000
# 6 0.000000 0.000000 0.000000 -0.002960 0.000000 0.021725
#
#
# Mechanical properties :
#
#
# Convention : Reuss Voigt Hill
#
# Bulk Modulus (GPa) = 58.95324 65.39257 62.17291
# Shear Modulus (GPa) = 36.72434 40.51914 38.62174
#
# Velocity S-wave (km/s) = 3.76715 3.95700 3.86325
# Velocity P-wave (km/s) = 6.45781 6.79315 6.62761
#
# Compressibility (1/GPa) = 0.01696260
#
# Stress axis : x y z
#
# Youngs Moduli (GPa) = 77.86563 109.98715 66.23476
#
# Poissons Ratio (x) = 0.02504 0.36192
# Poissons Ratio (y) = 0.01773 0.28766
# Poissons Ratio (z) = 0.42547 0.47769
#
# Static dielectric constant tensor:
#      x y z
#    x 4.763040 0.000000 -0.074820 
#    y 0.000000 4.704730 0.000000 
#    z -0.074820 0.000000 4.672020 
# 
# 
# High freq. dielectric constant tensor:
#      x y z
#    x 2.019650 0.000000 0.008060 
#    y 0.000000 2.055130 0.000000 
#    z 0.008060 0.000000 2.037110 
# 
# From -- ./inp_files/21590.got.cif
#   From: 2010.06.25/outbox.cif.g09.slc.cpg/sg9_11_cif.got.tgz:21590.got - 2010.06.27 21:40:51.
