data_PCOD8056871
_publ_section_title
;
Structure prediction by ZEFSAII (Michael W. Deem and Ramdas Pophale) SiO2 
 PCOD8056871
Probable space group: P 2/M
;
_chemical_formula_sum "Si O2"
_cell_formula_units_Z 26
_cell_length_a 5.047090
_cell_length_b 23.920250
_cell_length_c 14.085610
_cell_angle_alpha 90.000000
_cell_angle_beta 64.456102
_cell_angle_gamma 90.000000
_cell_volume 1534.305372
_symmetry_space_group_name_H-M "P 2/M"
_symmetry_group_IT_number 10
_symmetry_cell_setting 'monoclinic'
loop_
_space_group_symop_operation_xyz
x,y,z
-x,y,-z
-x,-y,-z
x,-y,z
loop_
_atom_site_type_symbol
_atom_site_label
_atom_site_fract_x
_atom_site_fract_y
_atom_site_fract_z
Si Si1 0.354772 0.500000 0.423005
Si Si2 0.610208 0.385618 0.376645
Si Si3 0.426596 0.127766 0.116173
Si Si4 0.858148 0.802510 0.686150
Si Si5 0.549305 0.864931 0.385860
Si Si6 0.829894 0.934493 0.188367
Si Si7 0.122693 0.323004 0.374169
O O1 0.500000 0.500000 0.500000
O O2 0.495836 0.445221 0.350746
O O3 0.000000 0.500000 0.500000
O O4 0.500000 0.379672 0.500000
O O5 0.461584 0.340820 0.329681
O O6 0.954162 0.369276 0.333346
O O7 0.351353 0.181219 0.193059
O O8 0.712132 0.096172 0.112429
O O9 0.161535 0.083547 0.157863
O O10 0.500000 0.149889 0.000000
O O11 0.735600 0.831883 0.609384
O O12 0.879888 0.736394 0.675449
O O13 0.185719 0.821503 0.657373
O O14 0.500000 0.886924 0.500000
O O15 0.620572 0.918460 0.309598
O O16 0.817342 0.000000 0.173973
O O17 0.000000 0.319694 0.500000
#
# Coordination Sequence:
#
# PCOD8056871 Si02
#       7
#     2   4   4   4   4   4   4
#     4  10  16  26  38  52  82 120 157 188 211 244
#     4   9  17  25  37  57  81 115 151 181 211 245
#     4  10  21  36  52  69  90 117 147 183 233 279
#     4  10  20  32  47  67  90 117 151 189 224 269
#     4  10  19  32  48  66  91 122 149 177 222 270
#     4  10  21  34  50  73  93 113 148 185 220 271
#     4  10  17  26  40  60  84 111 146 182 215 251
#
# _framework density 16.945779000000002
#
# number of rings (size 3 to 8) (size 9 to 14) (size 15 to 20)
#    0.000    2.154    0.000    5.538    0.000    3.385 
#    0.000    0.000    0.000    5.538    0.000    0.000 
#    0.000    0.000    0.000    4.154    0.000    0.462 
#
# Total GULP energy -322140.136965 kJ/mol
# GULP energy per Si atom -12390.005268 kJ/mol
# Density = 1.690721 g / cm^3
# Si number density = 16.945779 Si / 1000 Ang^3
#
#
#
# Elastic Constant Matrix: (Units=GPa)
#
#
# Indices 1 2 3 4 5 6 
#
# 1 91.8790 29.9831 11.5537 0.0000 6.6470 0.0000
# 2 29.9831 89.2186 14.8703 0.0000 2.4535 0.0000
# 3 11.5537 14.8703 59.6848 0.0000 13.4754 0.0000
# 4 0.0000 0.0000 0.0000 10.0684 0.0000 0.0146
# 5 6.6470 2.4535 13.4754 0.0000 18.9937 0.0000
# 6 0.0000 0.0000 0.0000 0.0146 0.0000 24.0433
#
#
#
# Elastic Compliance Matrix: (Units=1/GPa)
#
#
# Indices 1 2 3 4 5 6 
#
# 1 0.012519 -0.004004 -0.000659 0.000000 -0.003396 0.000000
# 2 -0.004004 0.012982 -0.002854 0.000000 0.001749 0.000000
# 3 -0.000659 -0.002854 0.020788 0.000000 -0.014149 0.000000
# 4 0.000000 0.000000 0.000000 0.099321 0.000000 -0.000060
# 5 -0.003396 0.001749 -0.014149 0.000000 0.063650 0.000000
# 6 0.000000 0.000000 0.000000 -0.000060 0.000000 0.041592
#
#
# Mechanical properties :
#
#
# Convention : Reuss Voigt Hill
#
# Bulk Modulus (GPa) = 31.99567 39.28853 35.64210
# Shear Modulus (GPa) = 18.09604 22.91277 20.50441
#
# Velocity S-wave (km/s) = 3.27139 3.68111 3.48228
# Velocity P-wave (km/s) = 5.76121 6.42671 6.10304
#
# Compressibility (1/GPa) = 0.03125423
#
# Stress axis : x y z
#
# Youngs Moduli (GPa) = 79.87801 77.03201 48.10492
#
# Poissons Ratio (x) = 0.30843 0.03170
# Poissons Ratio (y) = 0.31983 0.13730
# Poissons Ratio (z) = 0.05264 0.21986
#
# Static dielectric constant tensor:
#      x y z
#    x 3.602250 0.000000 0.058990 
#    y 0.000000 12.787030 0.000000 
#    z 0.058990 0.000000 2.851630 
# 
# 
# High freq. dielectric constant tensor:
#      x y z
#    x 1.685120 0.000000 0.007230 
#    y 0.000000 1.645040 0.000000 
#    z 0.007230 0.000000 1.595500 
# 
# From -- ./inp_files/59521.got.cif
#   From: 2010.06.25/outbox.cif.g09.slc.cpg/sg10_30_cif.got.tgz:59521.got - 2010.06.27 22:07:45.
