data_PCOD8056497
_publ_section_title
;
Structure prediction by ZEFSAII (Michael W. Deem and Ramdas Pophale) SiO2 
 PCOD8056497
Probable space group: C C
;
_chemical_formula_sum "Si O2"
_cell_formula_units_Z 28
_cell_length_a 13.633995
_cell_length_b 8.292675
_cell_length_c 13.029083
_cell_angle_alpha 90.000000
_cell_angle_beta 42.183036
_cell_angle_gamma 90.000000
_cell_volume 989.187079
_symmetry_space_group_name_H-M "C C"
_symmetry_group_IT_number 9
_symmetry_cell_setting 'monoclinic'
loop_
_space_group_symop_operation_xyz
x,y,z
x,-y,1/2+z
1/2+x,1/2+y,z
1/2+x,1/2-y,1/2+z
loop_
_atom_site_type_symbol
_atom_site_label
_atom_site_fract_x
_atom_site_fract_y
_atom_site_fract_z
Si Si1 0.157870 0.983167 0.551880
Si Si2 0.413449 0.278862 0.694900
Si Si3 0.342881 0.723491 0.475299
Si Si4 0.258786 0.411927 0.633277
Si Si5 0.424939 0.914116 0.649185
Si Si6 0.981298 0.241699 0.809310
Si Si7 0.632094 0.705431 0.375065
O O1 0.298669 0.917706 0.510011
O O2 0.083814 0.811816 0.580725
O O3 0.049743 0.082658 0.707552
O O4 0.172417 0.069973 0.429778
O O5 0.330388 0.311731 0.864419
O O6 0.355198 0.412799 0.660445
O O7 0.391599 0.101790 0.663801
O O8 0.232154 0.596115 0.616807
O O9 0.506446 0.672938 0.388700
O O10 0.103828 0.331597 0.781887
O O11 0.337353 0.303024 0.484729
O O12 0.429480 0.870151 0.765444
O O13 0.579495 0.867906 0.474804
O O14 0.296204 0.798228 0.694565
#
# Coordination Sequence:
#
# PCOD8056497 Si02
#       7
#     4   4   4   4   4   4   4
#     4  11  24  49  80 116 157 207 274 333 393 497
#     4  12  27  46  82 116 159 211 273 332 402 490
#     4  12  27  49  81 114 165 215 269 336 414 478
#     4  12  28  49  80 117 157 211 269 337 408 482
#     4  11  26  51  78 118 161 211 267 334 401 499
#     4  11  26  51  79 113 161 210 265 332 408 478
#     4  11  26  49  80 118 162 211 267 334 408 478
#
# _framework density 28.306072
#
# number of rings (size 3 to 8) (size 9 to 14) (size 15 to 20)
#    0.000    0.571    4.286    2.571    8.000    0.000 
#    2.571    0.000    0.000    0.000    0.000    0.000 
#    0.000    0.000    0.000    0.000    0.000    0.000 
#
# Total GULP energy -173452.446167 kJ/mol
# GULP energy per Si atom -12389.460440 kJ/mol
# Density = 2.824165 g / cm^3
# Si number density = 28.306072 Si / 1000 Ang^3
#
#
#
# Elastic Constant Matrix: (Units=GPa)
#
#
# Indices 1 2 3 4 5 6 
#
# 1 116.6893 46.2339 23.2090 0.0000 -10.3207 0.0000
# 2 46.2339 140.9562 23.7501 0.0000 -1.1565 0.0000
# 3 23.2090 23.7501 26.5506 0.0000 -14.6596 0.0000
# 4 0.0000 0.0000 0.0000 37.7600 0.0000 -2.3598
# 5 -10.3207 -1.1565 -14.6596 0.0000 57.0431 0.0000
# 6 0.0000 0.0000 0.0000 -2.3598 0.0000 58.8263
#
#
#
# Elastic Compliance Matrix: (Units=1/GPa)
#
#
# Indices 1 2 3 4 5 6 
#
# 1 0.010991 -0.002340 -0.007508 0.000000 0.000012 0.000000
# 2 -0.002340 0.009060 -0.007216 0.000000 -0.002094 0.000000
# 3 -0.007508 -0.007216 0.058094 0.000000 0.013425 0.000000
# 4 0.000000 0.000000 0.000000 0.026550 0.000000 0.001065
# 5 0.000012 -0.002094 0.013425 0.000000 0.020940 0.000000
# 6 0.000000 0.000000 0.000000 0.001065 0.000000 0.017042
#
#
# Mechanical properties :
#
#
# Convention : Reuss Voigt Hill
#
# Bulk Modulus (GPa) = 22.71786 52.28690 37.50238
# Shear Modulus (GPa) = 26.11259 43.45942 34.78600
#
# Velocity S-wave (km/s) = 3.04058 3.92259 3.50940
# Velocity P-wave (km/s) = 4.51332 6.24722 5.44967
#
# Compressibility (1/GPa) = 0.04401823
#
# Stress axis : x y z
#
# Youngs Moduli (GPa) = 90.98103 110.36921 17.21341
#
# Poissons Ratio (x) = 0.25826 0.12925
# Poissons Ratio (y) = 0.21289 0.12420
# Poissons Ratio (z) = 0.68312 0.79637
#
# Static dielectric constant tensor:
#      x y z
#    x 5.438690 0.000000 -0.057950 
#    y 0.000000 5.082840 0.000000 
#    z -0.057950 0.000000 5.485650 
# 
# 
# High freq. dielectric constant tensor:
#      x y z
#    x 2.157980 0.000000 0.004310 
#    y 0.000000 2.146560 0.000000 
#    z 0.004310 0.000000 2.157860 
# 
# From -- ./inp_files/25650.got.cif
#   From: 2010.06.25/outbox.cif.g09.slc.cpg/sg9_13_cif.got.tgz:25650.got - 2010.06.27 21:40:51.
