data_PCOD8056892
_publ_section_title
;
Structure prediction by ZEFSAII (Michael W. Deem and Ramdas Pophale) SiO2 
 PCOD8056892
Probable space group: P 2/M
;
_chemical_formula_sum "Si O2"
_cell_formula_units_Z 28
_cell_length_a 13.628619
_cell_length_b 18.457896
_cell_length_c 8.370945
_cell_angle_alpha 90.000000
_cell_angle_beta 47.332739
_cell_angle_gamma 90.000000
_cell_volume 1548.368288
_symmetry_space_group_name_H-M "P 2/M"
_symmetry_group_IT_number 10
_symmetry_cell_setting 'monoclinic'
loop_
_space_group_symop_operation_xyz
x,y,z
-x,y,-z
-x,-y,-z
x,-y,z
loop_
_atom_site_type_symbol
_atom_site_label
_atom_site_fract_x
_atom_site_fract_y
_atom_site_fract_z
Si Si1 0.943170 0.833537 0.722489
Si Si2 0.397423 0.416760 0.477844
Si Si3 0.373127 0.304731 0.236654
Si Si4 0.804795 0.788490 0.351325
Si Si5 0.856709 0.351729 0.098280
Si Si6 0.849800 0.919962 0.104917
Si Si7 0.860795 0.318772 0.734550
O O1 0.850114 0.767819 0.768172
O O2 0.000000 0.872870 0.500000
O O3 0.059879 0.796672 0.698041
O O4 0.855052 0.891197 0.917129
O O5 0.500000 0.390843 0.500000
O O6 0.420219 0.500000 0.406337
O O7 0.425377 0.368803 0.291695
O O8 0.248067 0.405696 0.706222
O O9 0.315007 0.237531 0.403264
O O10 0.260800 0.340087 0.246779
O O11 0.500000 0.274479 0.000000
O O12 0.830678 0.730961 0.181936
O O13 0.766450 0.865105 0.310000
O O14 0.845956 0.359059 0.919502
O O15 0.000000 0.378383 0.000000
O O16 0.783608 0.000000 0.182365
O O17 0.000000 0.924119 0.000000
O O18 0.000000 0.342311 0.500000
#
# Coordination Sequence:
#
# PCOD8056892 Si02
#       7
#     4   4   4   4   4   4   4
#     4  10  16  27  49  76 109 144 170 217 273 316
#     4  10  23  42  58  76 108 145 175 214 269 328
#     4  11  22  35  56  84 106 134 181 227 270 319
#     4  10  17  31  50  76 109 142 179 222 270 307
#     4  11  18  32  58  82 106 141 182 223 261 315
#     4   9  17  28  46  75 111 148 184 219 261 317
#     4  11  18  31  53  83 110 139 169 223 278 313
#
# _framework density 18.083552000000001
#
# number of rings (size 3 to 8) (size 9 to 14) (size 15 to 20)
#    0.000    1.714    5.714    2.143    0.000    0.857 
#    0.000    0.714    0.000    2.143    0.000    1.000 
#    0.000    0.000    0.000    0.000    0.000    0.000 
#
# Total GULP energy -347191.624526 kJ/mol
# GULP energy per Si atom -12399.700876 kJ/mol
# Density = 1.804239 g / cm^3
# Si number density = 18.083552 Si / 1000 Ang^3
#
#
#
# Elastic Constant Matrix: (Units=GPa)
#
#
# Indices 1 2 3 4 5 6 
#
# 1 91.4188 31.5419 34.0971 0.0000 9.3101 0.0000
# 2 31.5419 78.0038 28.3078 0.0000 8.1775 0.0000
# 3 34.0971 28.3078 112.1306 0.0000 7.9710 0.0000
# 4 0.0000 0.0000 0.0000 11.8067 0.0000 1.3995
# 5 9.3101 8.1775 7.9710 0.0000 36.2486 0.0000
# 6 0.0000 0.0000 0.0000 1.3995 0.0000 15.7479
#
#
#
# Elastic Compliance Matrix: (Units=1/GPa)
#
#
# Indices 1 2 3 4 5 6 
#
# 1 0.013709 -0.004271 -0.002955 0.000000 -0.001908 0.000000
# 2 -0.004271 0.015659 -0.002521 0.000000 -0.001881 0.000000
# 3 -0.002955 -0.002521 0.010523 0.000000 -0.000986 0.000000
# 4 0.000000 0.000000 0.000000 0.085599 0.000000 -0.007607
# 5 -0.001908 -0.001881 -0.000986 0.000000 0.028719 0.000000
# 6 0.000000 0.000000 0.000000 -0.007607 0.000000 0.064176
#
#
# Mechanical properties :
#
#
# Convention : Reuss Voigt Hill
#
# Bulk Modulus (GPa) = 49.02475 52.16075 50.59275
# Shear Modulus (GPa) = 20.43509 25.26774 22.85142
#
# Velocity S-wave (km/s) = 3.36525 3.74207 3.55865
# Velocity P-wave (km/s) = 6.50145 6.89766 6.70248
#
# Compressibility (1/GPa) = 0.02039786
#
# Stress axis : x y z
#
# Youngs Moduli (GPa) = 72.94699 63.86145 95.02873
#
# Poissons Ratio (x) = 0.27275 0.28078
# Poissons Ratio (y) = 0.31156 0.23954
# Poissons Ratio (z) = 0.21554 0.16097
#
# Static dielectric constant tensor:
#      x y z
#    x 3.368680 0.000000 0.285160 
#    y 0.000000 3.226310 0.000000 
#    z 0.285160 0.000000 3.409730 
# 
# 
# High freq. dielectric constant tensor:
#      x y z
#    x 1.693630 0.000000 0.026580 
#    y 0.000000 1.671090 0.000000 
#    z 0.026580 0.000000 1.700300 
# 
# From -- ./inp_files/30099.got.cif
#   From: 2010.06.25/outbox.cif.g09.slc.cpg/sg10_16_cif.got.tgz:30099.got - 2010.06.27 22:07:45.
