data_PCOD8056111
_publ_section_title
;
Structure prediction by ZEFSAII (Michael W. Deem and Ramdas Pophale) SiO2 
 PCOD8056111
Probable space group: C C
;
_chemical_formula_sum "Si O2"
_cell_formula_units_Z 20
_cell_length_a 8.315702
_cell_length_b 13.549928
_cell_length_c 7.610725
_cell_angle_alpha 90.000000
_cell_angle_beta 89.308774
_cell_angle_gamma 90.000000
_cell_volume 857.492499
_symmetry_space_group_name_H-M "C C"
_symmetry_group_IT_number 9
_symmetry_cell_setting 'monoclinic'
loop_
_space_group_symop_operation_xyz
x,y,z
x,-y,1/2+z
1/2+x,1/2+y,z
1/2+x,1/2-y,1/2+z
loop_
_atom_site_type_symbol
_atom_site_label
_atom_site_fract_x
_atom_site_fract_y
_atom_site_fract_z
Si Si1 0.686680 0.902446 0.676000
Si Si2 0.848247 0.085681 0.537675
Si Si3 0.401679 0.053892 0.708054
Si Si4 0.661914 0.802868 0.332355
Si Si5 0.197670 0.089502 0.400594
O O1 0.683791 0.808353 0.544974
O O2 0.807101 0.972606 0.568882
O O3 0.516288 0.958177 0.690961
O O4 0.754873 0.872525 0.866380
O O5 0.797364 0.146302 0.710951
O O6 0.037618 0.083260 0.516492
O O7 0.489015 0.143959 0.806386
O O8 0.355334 0.099777 0.521395
O O9 0.234401 0.011013 0.791506
O O10 0.673541 0.687446 0.280943
#
# Coordination Sequence:
#
# PCOD8056111 Si02
#       5
#     4   4   4   4   4
#     4  11  21  47  74  93 149 196 232 298 377 427
#     4  11  23  44  71 106 139 193 243 299 367 435
#     4  11  23  49  71 101 151 190 239 311 362 429
#     4  11  26  46  71 106 144 199 244 290 380 441
#     4  12  27  44  75 110 145 190 248 314 356 436
#
# _framework density 23.323819
#
# number of rings (size 3 to 8) (size 9 to 14) (size 15 to 20)
#    0.000    0.800    6.000    2.400    5.600    0.000 
#    0.000    0.000    0.000    0.000    0.000    0.000 
#    0.000    0.000    0.000    0.000    0.000    0.000 
#
# Total GULP energy -123892.705537 kJ/mol
# GULP energy per Si atom -12389.270554 kJ/mol
# Density = 2.327073 g / cm^3
# Si number density = 23.323819 Si / 1000 Ang^3
#
#
#
# Elastic Constant Matrix: (Units=GPa)
#
#
# Indices 1 2 3 4 5 6 
#
# 1 114.3496 35.1483 26.7698 0.0000 -11.9716 0.0000
# 2 35.1483 92.7945 20.8537 0.0000 -5.3725 0.0000
# 3 26.7698 20.8537 108.1050 0.0000 5.5207 0.0000
# 4 0.0000 0.0000 0.0000 18.2612 0.0000 1.2652
# 5 -11.9716 -5.3725 5.5207 0.0000 30.6430 0.0000
# 6 0.0000 0.0000 0.0000 1.2652 0.0000 22.0573
#
#
#
# Elastic Compliance Matrix: (Units=1/GPa)
#
#
# Indices 1 2 3 4 5 6 
#
# 1 0.010704 -0.003326 -0.002213 0.000000 0.003997 0.000000
# 2 -0.003326 0.012474 -0.001643 0.000000 0.001184 0.000000
# 3 -0.002213 -0.001643 0.010269 0.000000 -0.003003 0.000000
# 4 0.000000 0.000000 0.000000 0.054979 0.000000 -0.003154
# 5 0.003997 0.001184 -0.003003 0.000000 0.034944 0.000000
# 6 0.000000 0.000000 0.000000 -0.003154 0.000000 0.045517
#
#
# Mechanical properties :
#
#
# Convention : Reuss Voigt Hill
#
# Bulk Modulus (GPa) = 52.40392 53.42141 52.91266
# Shear Modulus (GPa) = 26.36961 29.69080 28.03020
#
# Velocity S-wave (km/s) = 3.36607 3.57176 3.47044
# Velocity P-wave (km/s) = 6.13384 6.32170 6.22848
#
# Compressibility (1/GPa) = 0.01908254
#
# Stress axis : x y z
#
# Youngs Moduli (GPa) = 93.42344 80.16692 97.38382
#
# Poissons Ratio (x) = 0.26660 0.21553
# Poissons Ratio (y) = 0.31069 0.16002
# Poissons Ratio (z) = 0.20677 0.13173
#
# Static dielectric constant tensor:
#      x y z
#    x 4.169940 0.000000 -0.011490 
#    y 0.000000 4.266960 0.000000 
#    z -0.011490 0.000000 4.299950 
# 
# 
# High freq. dielectric constant tensor:
#      x y z
#    x 1.924500 0.000000 -0.003620 
#    y 0.000000 1.901620 0.000000 
#    z -0.003620 0.000000 1.929290 
# 
# From -- ./inp_files/4683.got.cif
#   From: 2010.06.25/outbox.cif.g09.slc.cpg/sg9_3_cif.got.tgz:4683.got - 2010.06.27 21:40:51.
