data_PCOD8056056
_publ_section_title
;
Structure prediction by ZEFSAII (Michael W. Deem and Ramdas Pophale) SiO2 
 PCOD8056056
Probable space group: C C
;
_chemical_formula_sum "Si O2"
_cell_formula_units_Z 32
_cell_length_a 10.901554
_cell_length_b 16.623446
_cell_length_c 10.526800
_cell_angle_alpha 90.000000
_cell_angle_beta 49.923750
_cell_angle_gamma 90.000000
_cell_volume 1459.735533
_symmetry_space_group_name_H-M "C C"
_symmetry_group_IT_number 9
_symmetry_cell_setting 'monoclinic'
loop_
_space_group_symop_operation_xyz
x,y,z
x,-y,1/2+z
1/2+x,1/2+y,z
1/2+x,1/2-y,1/2+z
loop_
_atom_site_type_symbol
_atom_site_label
_atom_site_fract_x
_atom_site_fract_y
_atom_site_fract_z
Si Si1 0.361320 0.569816 0.263140
Si Si2 0.565795 0.300470 0.179076
Si Si3 0.973873 0.437083 0.419220
Si Si4 0.808999 0.592923 0.637412
Si Si5 0.104429 0.705741 0.413867
Si Si6 0.188581 0.135606 0.980854
Si Si7 0.734560 0.014972 0.096865
Si Si8 0.208962 0.341811 0.443918
O O1 0.253204 0.646475 0.303274
O O2 0.334391 0.508984 0.162233
O O3 0.319096 0.530940 0.425631
O O4 0.545620 0.593059 0.151487
O O5 0.683699 0.377925 0.112007
O O6 0.567839 0.250900 0.307893
O O7 0.386396 0.329741 0.268092
O O8 0.627034 0.244316 0.023633
O O9 0.885697 0.507388 0.555415
O O10 0.847040 0.370758 0.460417
O O11 0.059598 0.476378 0.238812
O O12 0.105392 0.393369 0.415763
O O13 0.711923 0.587851 0.833357
O O14 0.945827 0.659894 0.563796
O O15 0.148008 0.770858 0.491778
O O16 0.716697 0.108680 0.070862
#
# Coordination Sequence:
#
# PCOD8056056 Si02
#       8
#     4   4   4   4   4   4   4   4
#     4  12  25  44  77 102 145 188 245 297 362 425
#     4  11  23  41  74 104 138 182 253 287 361 425
#     4  12  26  46  69 104 150 189 232 299 370 425
#     4  11  22  44  74 101 136 190 240 298 348 437
#     4  11  20  45  72 100 137 191 238 301 346 437
#     4  11  26  40  69 108 138 183 247 295 356 427
#     4  12  24  47  73 104 142 192 237 299 361 423
#     4  12  24  47  70 105 142 191 234 304 356 429
#
# _framework density 21.921779000000001
#
# number of rings (size 3 to 8) (size 9 to 14) (size 15 to 20)
#    0.000    0.500    5.000    4.500    3.500    0.000 
#    6.750    0.000    0.000    0.000    0.000    0.000 
#    0.000    0.000    0.000    0.000    0.000    0.000 
#
# Total GULP energy -198452.075298 kJ/mol
# GULP energy per Si atom -12403.254706 kJ/mol
# Density = 2.187188 g / cm^3
# Si number density = 21.921779 Si / 1000 Ang^3
#
#
#
# Elastic Constant Matrix: (Units=GPa)
#
#
# Indices 1 2 3 4 5 6 
#
# 1 83.1309 62.7348 54.2614 0.0000 -20.8965 0.0000
# 2 62.7348 102.5116 41.3727 0.0000 -11.1765 0.0000
# 3 54.2614 41.3727 121.3881 0.0003 -17.2647 0.0000
# 4 0.0000 0.0000 0.0003 33.6642 -0.0001 -4.2301
# 5 -20.8965 -11.1765 -17.2647 -0.0001 42.6305 0.0000
# 6 0.0000 0.0000 0.0000 -4.2301 0.0000 36.7726
#
#
#
# Elastic Compliance Matrix: (Units=1/GPa)
#
#
# Indices 1 2 3 4 5 6 
#
# 1 0.029451 -0.014271 -0.007194 0.000000 0.007781 0.000000
# 2 -0.014271 0.018317 -0.000186 0.000000 -0.002269 0.000000
# 3 -0.007194 -0.000186 0.011682 0.000000 0.001156 0.000000
# 4 0.000000 0.000000 0.000000 0.030141 0.000000 0.003467
# 5 0.007781 -0.002269 0.001156 0.000000 0.027145 0.000000
# 6 0.000000 0.000000 0.000000 0.003467 0.000000 0.027593
#
#
# Mechanical properties :
#
#
# Convention : Reuss Voigt Hill
#
# Bulk Modulus (GPa) = 61.93474 69.30760 65.62117
# Shear Modulus (GPa) = 25.90511 32.52423 29.21467
#
# Velocity S-wave (km/s) = 3.44133 3.85600 3.65455
# Velocity P-wave (km/s) = 6.64110 7.17701 6.91425
#
# Compressibility (1/GPa) = 0.01614603
#
# Stress axis : x y z
#
# Youngs Moduli (GPa) = 33.95509 54.59553 85.60501
#
# Poissons Ratio (x) = 0.77916 0.61583
# Poissons Ratio (y) = 0.48459 0.01593
# Poissons Ratio (z) = 0.24427 0.01016
#
# Static dielectric constant tensor:
#      x y z
#    x 3.920950 0.000000 -0.234690 
#    y 0.000000 4.134620 0.000000 
#    z -0.234690 0.000000 4.031750 
# 
# 
# High freq. dielectric constant tensor:
#      x y z
#    x 1.853140 0.000000 -0.016660 
#    y 0.000000 1.864540 0.000000 
#    z -0.016660 0.000000 1.870390 
# 
# From -- ./inp_files/9967.got.cif
#   From: 2010.06.25/outbox.cif.g09.slc.cpg/sg9_5_cif.got.tgz:9967.got - 2010.06.27 21:40:51.
