data_PCOD8056457
_publ_section_title
;
Structure prediction by ZEFSAII (Michael W. Deem and Ramdas Pophale) SiO2 
 PCOD8056457
Probable space group: C C
;
_chemical_formula_sum "Si O2"
_cell_formula_units_Z 28
_cell_length_a 24.551589
_cell_length_b 11.930555
_cell_length_c 12.688795
_cell_angle_alpha 90.000000
_cell_angle_beta 18.482312
_cell_angle_gamma 90.000000
_cell_volume 1178.246537
_symmetry_space_group_name_H-M "C C"
_symmetry_group_IT_number 9
_symmetry_cell_setting 'monoclinic'
loop_
_space_group_symop_operation_xyz
x,y,z
x,-y,1/2+z
1/2+x,1/2+y,z
1/2+x,1/2-y,1/2+z
loop_
_atom_site_type_symbol
_atom_site_label
_atom_site_fract_x
_atom_site_fract_y
_atom_site_fract_z
Si Si1 0.153380 0.726313 0.325920
Si Si2 0.510046 0.182186 0.116365
Si Si3 0.020293 0.403569 0.381812
Si Si4 0.717146 0.992601 0.838445
Si Si5 0.238114 0.882348 0.742262
Si Si6 0.073043 0.898346 0.641447
Si Si7 0.348709 0.112218 0.800797
O O1 0.231598 0.614253 0.235379
O O2 0.048215 0.800378 0.602616
O O3 0.013443 0.695711 0.492457
O O4 0.305254 0.799018 0.995702
O O5 0.578286 0.180256 0.869253
O O6 0.557109 0.068105 0.092042
O O7 0.598889 0.285491 0.011633
O O8 0.904581 0.344155 0.504599
O O9 0.904924 0.492135 0.655831
O O10 0.183705 0.457363 0.021650
O O11 0.888960 0.065711 0.523742
O O12 0.291417 0.902293 0.525220
O O13 0.163955 0.997100 0.921418
O O14 0.191317 0.845093 0.517196
#
# Coordination Sequence:
#
# PCOD8056457 Si02
#       7
#     4   4   4   4   4   4   4
#     4  12  25  51  77 109 151 194 254 309 368 447
#     4  12  26  46  79 108 151 199 244 313 374 440
#     4  11  24  46  73 105 151 196 245 312 370 441
#     4  12  26  50  73 114 147 195 253 307 370 447
#     4  11  24  46  73 109 150 194 253 301 376 445
#     4  11  27  48  76 107 151 199 245 310 374 443
#     4  11  24  47  73 106 149 197 244 308 368 439
#
# _framework density 23.764126000000001
#
# number of rings (size 3 to 8) (size 9 to 14) (size 15 to 20)
#    0.000    0.571    4.286    3.429    2.000    4.571 
#    2.571    0.000    0.000    0.000    0.000    0.000 
#    0.000    0.000    0.000    0.000    0.000    0.000 
#
# Total GULP energy -173652.448347 kJ/mol
# GULP energy per Si atom -12403.746310 kJ/mol
# Density = 2.371004 g / cm^3
# Si number density = 23.764126 Si / 1000 Ang^3
#
#
#
# Elastic Constant Matrix: (Units=GPa)
#
#
# Indices 1 2 3 4 5 6 
#
# 1 135.3847 41.2887 47.9553 0.0006 -3.5757 -0.0005
# 2 41.2887 89.3913 30.7716 0.0008 -4.8106 -0.0006
# 3 47.9553 30.7716 142.9611 0.0008 -5.7506 -0.0006
# 4 0.0006 0.0008 0.0008 40.5625 -0.0007 -2.5627
# 5 -3.5757 -4.8106 -5.7506 -0.0007 42.2059 0.0006
# 6 -0.0005 -0.0006 -0.0006 -2.5627 0.0006 37.3710
#
#
#
# Elastic Compliance Matrix: (Units=1/GPa)
#
#
# Indices 1 2 3 4 5 6 
#
# 1 0.009284 -0.003471 -0.002365 0.000000 0.000069 0.000000
# 2 -0.003471 0.013424 -0.001685 0.000000 0.001006 0.000000
# 3 -0.002365 -0.001685 0.008180 0.000000 0.000722 0.000000
# 4 0.000000 0.000000 0.000000 0.024761 0.000000 0.001698
# 5 0.000069 0.001006 0.000722 0.000000 0.023912 0.000000
# 6 0.000000 0.000000 0.000000 0.001698 0.000000 0.026875
#
#
# Mechanical properties :
#
#
# Convention : Reuss Voigt Hill
#
# Bulk Modulus (GPa) = 63.09901 67.52983 65.31442
# Shear Modulus (GPa) = 39.44515 40.54264 39.99389
#
# Velocity S-wave (km/s) = 4.07856 4.13491 4.10683
# Velocity P-wave (km/s) = 6.98494 7.16066 7.07334
#
# Compressibility (1/GPa) = 0.01584811
#
# Stress axis : x y z
#
# Youngs Moduli (GPa) = 107.71035 74.49393 122.25309
#
# Poissons Ratio (x) = 0.25854 0.28907
# Poissons Ratio (y) = 0.37382 0.20597
# Poissons Ratio (z) = 0.25468 0.12550
#
# Static dielectric constant tensor:
#      x y z
#    x 4.656430 0.000000 -0.138810 
#    y 0.000000 4.327000 0.000000 
#    z -0.138810 0.000000 4.269170 
# 
# 
# High freq. dielectric constant tensor:
#      x y z
#    x 1.940510 0.000000 0.001200 
#    y 0.000000 1.954480 0.000000 
#    z 0.001200 0.000000 1.947170 
# 
# From -- ./inp_files/20937.got.cif
#   From: 2010.06.25/outbox.cif.g09.slc.cpg/sg9_11_cif.got.tgz:20937.got - 2010.06.27 21:40:51.
