data_PCOD8056646
_publ_section_title
;
Structure prediction by ZEFSAII (Michael W. Deem and Ramdas Pophale) SiO2 
 PCOD8056646
Probable space group: C C
;
_chemical_formula_sum "Si O2"
_cell_formula_units_Z 24
_cell_length_a 19.204564
_cell_length_b 7.172044
_cell_length_c 16.316957
_cell_angle_alpha 90.000000
_cell_angle_beta 150.869752
_cell_angle_gamma 90.000000
_cell_volume 1094.042273
_symmetry_space_group_name_H-M "C C"
_symmetry_group_IT_number 9
_symmetry_cell_setting 'monoclinic'
loop_
_space_group_symop_operation_xyz
x,y,z
x,-y,1/2+z
1/2+x,1/2+y,z
1/2+x,1/2-y,1/2+z
loop_
_atom_site_type_symbol
_atom_site_label
_atom_site_fract_x
_atom_site_fract_y
_atom_site_fract_z
Si Si1 0.545540 0.319739 0.721390
Si Si2 0.844747 0.973870 0.276512
Si Si3 0.263406 0.551062 0.011447
Si Si4 0.200265 0.186423 0.852747
Si Si5 0.944670 0.318185 0.484937
Si Si6 0.557221 0.185495 0.547247
O O1 0.379633 0.348249 0.572889
O O2 0.614699 0.162589 0.850343
O O3 0.627007 0.513284 0.822581
O O4 0.561087 0.260728 0.643537
O O5 0.983634 0.841019 0.414441
O O6 0.873227 0.146112 0.365499
O O7 0.716494 0.848080 0.179088
O O8 0.813691 0.058198 0.156225
O O9 0.237518 0.338478 0.959448
O O10 0.346553 0.120537 0.960353
O O11 0.100190 0.267515 0.678699
O O12 0.965835 0.494516 0.446997
#
# Coordination Sequence:
#
# PCOD8056646 Si02
#       6
#     4   4   4   4   4   4
#     4  12  25  48  75 100 142 190 238 283 349 436
#     4  12  29  45  69 110 142 181 233 296 359 404
#     4  12  29  45  69 110 142 181 233 296 359 404
#     4  12  23  44  74 101 137 184 240 281 343 428
#     4  12  23  44  74 101 137 184 240 281 343 428
#     4  12  25  48  75 100 142 190 238 283 349 436
#
# _framework density 21.936995
#
# number of rings (size 3 to 8) (size 9 to 14) (size 15 to 20)
#    0.000    0.000    6.667    3.000    4.667    1.333 
#    0.000    0.000    0.000    0.000    0.000    0.000 
#    0.000    0.000    0.000    0.000    0.000    0.000 
#
# Total GULP energy -148894.483560 kJ/mol
# GULP energy per Si atom -12407.873630 kJ/mol
# Density = 2.188707 g / cm^3
# Si number density = 21.936995 Si / 1000 Ang^3
#
#
#
# Elastic Constant Matrix: (Units=GPa)
#
#
# Indices 1 2 3 4 5 6 
#
# 1 68.0287 8.8057 21.6468 0.0000 4.1638 0.0000
# 2 8.8057 72.7009 19.1800 0.0000 11.8840 0.0000
# 3 21.6468 19.1800 85.9203 0.0000 2.3262 0.0000
# 4 0.0000 0.0000 0.0000 56.1800 0.0000 3.8551
# 5 4.1638 11.8840 2.3262 0.0000 32.7392 0.0000
# 6 0.0000 0.0000 0.0000 3.8551 0.0000 32.0259
#
#
#
# Elastic Compliance Matrix: (Units=1/GPa)
#
#
# Indices 1 2 3 4 5 6 
#
# 1 0.016111 -0.000682 -0.003866 0.000000 -0.001527 0.000000
# 2 -0.000682 0.015541 -0.003153 0.000000 -0.005330 0.000000
# 3 -0.003866 -0.003153 0.013298 0.000000 0.000691 0.000000
# 4 0.000000 0.000000 0.000000 0.017948 0.000000 -0.002160
# 5 -0.001527 -0.005330 0.000691 0.000000 0.032624 0.000000
# 6 0.000000 0.000000 0.000000 -0.002160 0.000000 0.031485
#
#
# Mechanical properties :
#
#
# Convention : Reuss Voigt Hill
#
# Bulk Modulus (GPa) = 33.84245 36.21277 35.02761
# Shear Modulus (GPa) = 32.83900 35.99019 34.41460
#
# Velocity S-wave (km/s) = 3.87327 4.05485 3.96510
# Velocity P-wave (km/s) = 5.95513 6.20208 6.07986
#
# Compressibility (1/GPa) = 0.02954869
#
# Stress axis : x y z
#
# Youngs Moduli (GPa) = 62.06772 64.34698 75.20096
#
# Poissons Ratio (x) = 0.04389 0.29069
# Poissons Ratio (y) = 0.04233 0.23711
# Poissons Ratio (z) = 0.23992 0.20289
#
# Static dielectric constant tensor:
#      x y z
#    x 3.759210 0.000000 0.231540 
#    y 0.000000 4.294900 0.000000 
#    z 0.231540 0.000000 4.051880 
# 
# 
# High freq. dielectric constant tensor:
#      x y z
#    x 1.847420 0.000000 0.016880 
#    y 0.000000 1.881880 0.000000 
#    z 0.016880 0.000000 1.871540 
# 
# From -- ./inp_files/26762.got.cif
#   From: 2010.06.25/outbox.cif.g09.slc.cpg/sg9_14_cif.got.tgz:26762.got - 2010.06.27 21:40:51.
