data_PCOD8056820
_publ_section_title
;
Structure prediction by ZEFSAII (Michael W. Deem and Ramdas Pophale) SiO2 
 PCOD8056820
Probable space group: P 2/M
;
_chemical_formula_sum "Si O2"
_cell_formula_units_Z 28
_cell_length_a 18.746847
_cell_length_b 8.994299
_cell_length_c 21.527165
_cell_angle_alpha 90.000000
_cell_angle_beta 125.774340
_cell_angle_gamma 90.000000
_cell_volume 2944.948028
_symmetry_space_group_name_H-M "P 2/M"
_symmetry_group_IT_number 10
_symmetry_cell_setting 'monoclinic'
loop_
_space_group_symop_operation_xyz
x,y,z
-x,y,-z
-x,-y,-z
x,-y,z
loop_
_atom_site_type_symbol
_atom_site_label
_atom_site_fract_x
_atom_site_fract_y
_atom_site_fract_z
Si Si1 0.274856 0.168843 0.185342
Si Si2 0.128435 0.322277 0.044730
Si Si3 0.559096 0.167221 0.468908
Si Si4 0.417092 0.668082 0.327389
Si Si5 0.013053 0.176297 0.092983
Si Si6 0.700064 0.666079 0.609368
Si Si7 0.838037 0.165022 0.747119
O O1 0.227287 0.261372 0.105913
O O2 0.369114 0.243078 0.247645
O O3 0.216243 0.173811 0.216979
O O4 0.289605 0.000000 0.170586
O O5 0.129073 0.500000 0.040635
O O6 0.069773 0.265287 0.071561
O O7 0.085076 0.248325 0.960118
O O8 0.500000 0.170789 0.500000
O O9 0.511106 0.257342 0.389608
O O10 0.653963 0.238480 0.531882
O O11 0.574084 0.000000 0.453353
O O12 0.433236 0.500000 0.313603
O O13 0.358008 0.672228 0.358597
O O14 0.060067 0.203615 0.183937
O O15 0.011545 0.000000 0.076904
O O16 0.709842 0.500000 0.589052
O O17 0.797771 0.726078 0.674835
O O18 0.831212 0.000000 0.715658
#
# Coordination Sequence:
#
# PCOD8056820 Si02
#       7
#     4   4   4   4   4   4   4
#     4   9  15  22  28  32  38  46  52  55  61  70
#     4  10  16  20  26  34  40  44  50  58  64  67
#     4   9  15  21  27  32  38  46  52  55  60  69
#     4   9  15  21  27  34  40  43  49  58  64  67
#     4   9  15  22  28  32  38  46  52  56  62  70
#     4   9  15  20  26  33  39  44  49  57  64  67
#     4   8  14  21  27  32  37  44  51  56  61  69
#
# _framework density 9.5078080000000007
#
# number of rings (size 3 to 8) (size 9 to 14) (size 15 to 20)
#    0.000    3.000    0.000    5.143    0.000    9.143 
#    0.000    0.000    0.000    0.000    0.000    0.000 
#    0.000    0.000    0.000    0.000    0.000    0.000 
#
# Total GULP energy -346893.964388 kJ/mol
# GULP energy per Si atom -12389.070157 kJ/mol
# Density = 0.948617 g / cm^3
# Si number density = 9.507808 Si / 1000 Ang^3
#
#
#
# Elastic Constant Matrix: (Units=GPa)
#
#
# Indices 1 2 3 4 5 6 
#
# 1 4.3750 10.8733 17.3652 0.0000 8.7161 0.0000
# 2 10.8733 92.1736 43.1603 0.0000 21.6634 0.0000
# 3 17.3652 43.1603 68.9272 0.0000 34.5968 0.0000
# 4 0.0000 0.0000 0.0000 17.1220 0.0000 8.5941
# 5 8.7161 21.6634 34.5968 0.0000 17.3652 0.0000
# 6 0.0000 0.0000 0.0000 8.5941 0.0000 4.3137
#
#
#
# Elastic Compliance Matrix: (Units=1/GPa)
#
#
# Indices 1 2 3 4 5 6 
#
# 1 ********** 0.046621********** 0.000014********** -0.000029
# 2 0.046621 0.015350 -0.066566 0.000000 0.090069 0.000000
# 3 ********** -0.066566********** 0.000099********** -0.000197
# 4 0.000137 0.000000 0.000139********** -0.000346**********
# 5 ********** 0.090069********** -0.000204********** 0.000406
# 6 -0.000272 0.000000 -0.000277********** 0.000689**********
#
#
# Mechanical properties :
#
#
# Convention : Reuss Voigt Hill
#
# Bulk Modulus (GPa) = 0.00004 34.25260 17.12632
# Shear Modulus (GPa) = 0.00002 14.03199 7.01601
#
# Velocity S-wave (km/s) = 0.00486 3.84583 2.71942
# Velocity P-wave (km/s) = 0.00875 7.47158 5.28321
#
# Compressibility (1/GPa) = *************
#
# Stress axis : x y z
#
# Youngs Moduli (GPa) = 0.00008 65.14594 0.00008
#
# Poissons Ratio (x) = -3.03717 0.02055
# Poissons Ratio (y) = 0.00000 0.00001
# Poissons Ratio (z) = 0.02074 4.33648
#
# Static dielectric constant tensor:
#      x y z
#    x 1.655940 0.000000 0.525300 
#    y 0.000000 2.317810 0.000000 
#    z 0.525300 0.000000 2.425590 
# 
# 
# High freq. dielectric constant tensor:
#      x y z
#    x 1.262720 0.000000 0.062760 
#    y 0.000000 1.377500 0.000000 
#    z 0.062760 0.000000 1.356230 
# 
# From -- ./inp_files/77285.got.cif
#   From: 2010.06.25/outbox.cif.g09.slc.cpg/sg10_39_cif.got.tgz:77285.got - 2010.06.27 22:07:45.
