data_PCOD8056387
_publ_section_title
;
Structure prediction by ZEFSAII (Michael W. Deem and Ramdas Pophale) SiO2 
 PCOD8056387
Probable space group: C C
;
_chemical_formula_sum "Si O2"
_cell_formula_units_Z 24
_cell_length_a 16.108670
_cell_length_b 8.660262
_cell_length_c 13.501218
_cell_angle_alpha 90.000000
_cell_angle_beta 33.641058
_cell_angle_gamma 90.000000
_cell_volume 1043.432211
_symmetry_space_group_name_H-M "C C"
_symmetry_group_IT_number 9
_symmetry_cell_setting 'monoclinic'
loop_
_space_group_symop_operation_xyz
x,y,z
x,-y,1/2+z
1/2+x,1/2+y,z
1/2+x,1/2-y,1/2+z
loop_
_atom_site_type_symbol
_atom_site_label
_atom_site_fract_x
_atom_site_fract_y
_atom_site_fract_z
Si Si1 0.436920 0.592667 0.913700
Si Si2 0.142134 0.430511 0.201681
Si Si3 0.921215 0.397399 0.802177
Si Si4 0.154312 0.109924 0.095554
Si Si5 0.963518 0.472802 0.054394
Si Si6 0.655397 0.691741 0.870736
O O1 0.427248 0.727964 0.841754
O O2 0.497725 0.444818 0.794885
O O3 0.542821 0.624812 0.901151
O O4 0.273428 0.541279 0.113657
O O5 0.201650 0.265306 0.106293
O O6 0.074501 0.513699 0.172966
O O7 0.008075 0.421446 0.416248
O O8 0.914534 0.406981 0.688916
O O9 0.781424 0.483770 0.991002
O O10 0.129306 0.119235 0.003616
O O11 0.827015 0.349607 0.166835
O O12 0.113298 0.372012 0.927338
#
# Coordination Sequence:
#
# PCOD8056387 Si02
#       6
#     4   4   4   4   4   4
#     4  12  26  44  75 107 140 189 239 296 360 420
#     4  12  24  43  73 102 143 184 241 291 357 418
#     4  11  24  45  69 103 142 184 237 294 350 423
#     4  11  26  47  71 106 141 189 238 296 354 426
#     4  11  24  43  73 103 144 189 238 293 354 421
#     4  11  24  44  73 101 146 189 237 286 365 422
#
# _framework density 23.001014000000001
#
# number of rings (size 3 to 8) (size 9 to 14) (size 15 to 20)
#    0.000    0.667    3.333    4.000    2.333    2.667 
#    0.000    5.000    0.000    0.000    0.000    0.000 
#    0.000    0.000    0.000    0.000    0.000    0.000 
#
# Total GULP energy -148721.693948 kJ/mol
# GULP energy per Si atom -12393.474496 kJ/mol
# Density = 2.294866 g / cm^3
# Si number density = 23.001014 Si / 1000 Ang^3
#
#
#
# Elastic Constant Matrix: (Units=GPa)
#
#
# Indices 1 2 3 4 5 6 
#
# 1 110.6480 41.3666 48.5437 0.0000 3.2517 0.0000
# 2 41.3666 103.9399 32.9702 0.0000 3.5196 0.0000
# 3 48.5437 32.9702 121.8973 0.0000 5.1369 0.0000
# 4 0.0000 0.0000 0.0000 35.2176 0.0000 -8.8440
# 5 3.2517 3.5196 5.1369 0.0000 34.4714 0.0000
# 6 0.0000 0.0000 0.0000 -8.8440 0.0000 27.5646
#
#
#
# Elastic Compliance Matrix: (Units=1/GPa)
#
#
# Indices 1 2 3 4 5 6 
#
# 1 0.012060 -0.003579 -0.003826 0.000000 -0.000202 0.000000
# 2 -0.003579 0.011601 -0.001687 0.000000 -0.000595 0.000000
# 3 -0.003826 -0.001687 0.010225 0.000000 -0.000991 0.000000
# 4 0.000000 0.000000 0.000000 0.030883 0.000000 0.009909
# 5 -0.000202 -0.000595 -0.000991 0.000000 0.029237 0.000000
# 6 0.000000 0.000000 0.000000 0.009909 0.000000 0.039458
#
#
# Mechanical properties :
#
#
# Convention : Reuss Voigt Hill
#
# Bulk Modulus (GPa) = 63.68979 64.69403 64.19191
# Shear Modulus (GPa) = 31.87071 33.69104 32.78087
#
# Velocity S-wave (km/s) = 3.72643 3.83137 3.77927
# Velocity P-wave (km/s) = 6.80185 6.91088 6.85658
#
# Compressibility (1/GPa) = 0.01570110
#
# Stress axis : x y z
#
# Youngs Moduli (GPa) = 82.91588 86.20076 97.79512
#
# Poissons Ratio (x) = 0.30854 0.37419
# Poissons Ratio (y) = 0.29678 0.16500
# Poissons Ratio (z) = 0.31726 0.14544
#
# Static dielectric constant tensor:
#      x y z
#    x 4.151780 0.000000 -0.096600 
#    y 0.000000 3.922210 0.000000 
#    z -0.096600 0.000000 4.414630 
# 
# 
# High freq. dielectric constant tensor:
#      x y z
#    x 1.913660 0.000000 0.003390 
#    y 0.000000 1.895130 0.000000 
#    z 0.003390 0.000000 1.927740 
# 
# From -- ./inp_files/10331.got.cif
#   From: 2010.06.25/outbox.cif.g09.slc.cpg/sg9_6_cif.got.tgz:10331.got - 2010.06.27 21:40:51.
