data_PCOD8056291
_publ_section_title
;
Structure prediction by ZEFSAII (Michael W. Deem and Ramdas Pophale) SiO2 
 PCOD8056291
Probable space group: C C
;
_chemical_formula_sum "Si O2"
_cell_formula_units_Z 32
_cell_length_a 11.536717
_cell_length_b 14.231390
_cell_length_c 16.347288
_cell_angle_alpha 90.000000
_cell_angle_beta 147.994937
_cell_angle_gamma 90.000000
_cell_volume 1422.480728
_symmetry_space_group_name_H-M "C C"
_symmetry_group_IT_number 9
_symmetry_cell_setting 'monoclinic'
loop_
_space_group_symop_operation_xyz
x,y,z
x,-y,1/2+z
1/2+x,1/2+y,z
1/2+x,1/2-y,1/2+z
loop_
_atom_site_type_symbol
_atom_site_label
_atom_site_fract_x
_atom_site_fract_y
_atom_site_fract_z
Si Si1 0.510050 0.058364 0.976310
Si Si2 0.103740 0.911678 0.132486
Si Si3 0.380981 0.065382 0.645233
Si Si4 0.174610 0.298175 0.892241
Si Si5 0.457796 0.153205 0.427533
Si Si6 0.406528 0.873249 0.580733
Si Si7 0.026912 0.742467 0.627421
Si Si8 0.295546 0.427719 0.499058
O O1 0.314105 0.114447 0.813434
O O2 0.733180 0.060735 0.057370
O O3 0.427232 0.952333 0.940320
O O4 0.559130 0.107684 0.092607
O O5 0.177322 0.913938 0.082218
O O6 0.923732 0.831676 0.032978
O O7 0.009330 0.012610 0.103878
O O8 0.429733 0.154868 0.618573
O O9 0.596022 0.035141 0.824508
O O10 0.313764 0.973284 0.554134
O O11 0.064214 0.351645 0.902015
O O12 0.039869 0.316620 0.729439
O O13 0.193844 0.187552 0.925840
O O14 0.228074 0.207532 0.291762
O O15 0.603248 0.208147 0.582497
O O16 0.834244 0.818540 0.503477
#
# Coordination Sequence:
#
# PCOD8056291 Si02
#       8
#     4   4   4   4   4   4   4   4
#     4  11  24  45  69 101 143 181 234 285 344 414
#     4  11  23  45  73 100 142 187 228 290 349 406
#     4  11  25  45  69 104 145 181 232 289 347 411
#     4  12  26  47  70 104 141 184 232 288 352 410
#     4  12  24  44  73 101 138 182 235 287 341 414
#     4  12  26  48  68 103 140 183 233 284 348 414
#     4  12  25  43  71 105 137 184 233 284 346 414
#     4  11  23  45  71 100 142 184 229 289 347 407
#
# _framework density 22.495909999999999
#
# number of rings (size 3 to 8) (size 9 to 14) (size 15 to 20)
#    0.000    0.500    6.250    2.250    3.500    0.000 
#    4.500    0.000    0.000    0.000    0.000    0.000 
#    0.000    0.000    0.000    0.000    0.000    0.000 
#
# Total GULP energy -198442.438286 kJ/mol
# GULP energy per Si atom -12402.652393 kJ/mol
# Density = 2.244471 g / cm^3
# Si number density = 22.495910 Si / 1000 Ang^3
#
#
#
# Elastic Constant Matrix: (Units=GPa)
#
#
# Indices 1 2 3 4 5 6 
#
# 1 158.9489 44.0675 43.9613 0.0007 -14.9067 0.0001
# 2 44.0675 107.5465 31.6403 -0.0108 -10.8563 -0.0055
# 3 43.9613 31.6403 52.6324 -0.0113 -4.3338 -0.0054
# 4 0.0007 -0.0108 -0.0113 36.1512 0.0011 -4.5917
# 5 -14.9067 -10.8563 -4.3338 0.0011 38.1951 0.0004
# 6 0.0001 -0.0055 -0.0054 -4.5917 0.0004 33.7592
#
#
#
# Elastic Compliance Matrix: (Units=1/GPa)
#
#
# Indices 1 2 3 4 5 6 
#
# 1 0.008605 -0.001506 -0.006098 -0.000003 0.002238 -0.000002
# 2 -0.001506 0.011794 -0.005657 0.000002 0.002123 0.000001
# 3 -0.006098 -0.005657 0.027422 0.000008 -0.000876 0.000005
# 4 -0.000003 0.000002 0.000008 0.028148 -0.000001 0.003829
# 5 0.002238 0.002123 -0.000876 -0.000001 0.027559 0.000000
# 6 -0.000002 0.000001 0.000005 0.003829 0.000000 0.030142
#
#
# Mechanical properties :
#
#
# Convention : Reuss Voigt Hill
#
# Bulk Modulus (GPa) = 46.95169 62.05181 54.50175
# Shear Modulus (GPa) = 29.88778 34.91835 32.40306
#
# Velocity S-wave (km/s) = 3.64893 3.94408 3.79937
# Velocity P-wave (km/s) = 6.21848 6.95590 6.59750
#
# Compressibility (1/GPa) = 0.02129849
#
# Stress axis : x y z
#
# Youngs Moduli (GPa) = 116.20680 84.78824 36.46736
#
# Poissons Ratio (x) = 0.12770 0.22237
# Poissons Ratio (y) = 0.17502 0.20631
# Poissons Ratio (z) = 0.70862 0.47968
#
# Static dielectric constant tensor:
#      x y z
#    x 4.108430 0.000000 -0.185360 
#    y 0.000000 4.097030 0.000000 
#    z -0.185360 0.000000 3.794990 
# 
# 
# High freq. dielectric constant tensor:
#      x y z
#    x 1.896890 0.000000 -0.011670 
#    y 0.000000 1.901220 0.000000 
#    z -0.011670 0.000000 1.867850 
# 
# From -- ./inp_files/7507.got.cif
#   From: 2010.06.25/outbox.cif.g09.slc.cpg/sg9_4_cif.got.tgz:7507.got - 2010.06.27 21:40:51.
