data_PCOD8056839
_publ_section_title
;
Structure prediction by ZEFSAII (Michael W. Deem and Ramdas Pophale) SiO2 
 PCOD8056839
Probable space group: P 2/M
;
_chemical_formula_sum "Si O2"
_cell_formula_units_Z 22
_cell_length_a 13.608677
_cell_length_b 19.526003
_cell_length_c 13.605550
_cell_angle_alpha 90.000000
_cell_angle_beta 158.204121
_cell_angle_gamma 90.000000
_cell_volume 1342.367849
_symmetry_space_group_name_H-M "P 2/M"
_symmetry_group_IT_number 10
_symmetry_cell_setting 'monoclinic'
loop_
_space_group_symop_operation_xyz
x,y,z
-x,y,-z
-x,-y,-z
x,-y,z
loop_
_atom_site_type_symbol
_atom_site_label
_atom_site_fract_x
_atom_site_fract_y
_atom_site_fract_z
Si Si1 0.506872 0.642155 0.623131
Si Si2 0.449476 0.079661 0.666355
Si Si3 0.277784 0.918516 0.720630
Si Si4 0.998465 0.707438 0.884536
Si Si5 0.003295 0.865257 0.116562
Si Si6 0.707126 0.500000 0.777132
O O1 0.500000 0.656202 0.500000
O O2 0.630839 0.567951 0.767911
O O3 0.200743 0.659559 0.366245
O O4 0.694613 0.694352 0.859138
O O5 0.332336 0.106354 0.660712
O O6 0.229924 0.090563 0.379000
O O7 0.524559 0.000000 0.740884
O O8 0.716041 0.121332 0.894506
O O9 0.000000 0.888046 0.500000
O O10 0.271651 0.000000 0.718723
O O11 0.500000 0.889284 0.000000
O O12 0.918325 0.786092 0.796893
O O13 0.000000 0.683819 0.000000
O O14 0.000000 0.886832 0.000000
O O15 0.500000 0.500000 0.500000
O O16 0.000000 0.500000 0.000000
#
# Coordination Sequence:
#
# PCOD8056839 Si02
#       6
#     4   4   4   4   4   2
#     4   9  15  24  37  53  73  98 132 175 218 251
#     4  11  22  34  49  68  87 110 144 188 234 274
#     4   9  17  31  50  69  87 105 128 168 225 282
#     4   9  17  28  40  52  72 107 145 177 207 243
#     4  11  22  34  46  62  87 120 156 189 219 257
#     4  10  16  22  34  56  78  96 124 174 230 260
#
# _framework density 16.388950999999999
#
# number of rings (size 3 to 8) (size 9 to 14) (size 15 to 20)
#    0.000    2.182    0.000    6.000    0.000    8.000 
#    0.000    0.000    0.000    0.000    0.000    0.000 
#    0.000    0.000    0.000    0.000    0.000    0.000 
#
# Total GULP energy -272558.619644 kJ/mol
# GULP energy per Si atom -12389.028166 kJ/mol
# Density = 1.635165 g / cm^3
# Si number density = 16.388951 Si / 1000 Ang^3
#
#
#
# Elastic Constant Matrix: (Units=GPa)
#
#
# Indices 1 2 3 4 5 6 
#
# 1 42.4116 22.4057 27.8072 0.0000 8.1846 0.0000
# 2 22.4057 45.3573 28.4407 0.0000 1.9350 0.0000
# 3 27.8072 28.4407 135.2425 0.0000 18.9296 0.0000
# 4 0.0000 0.0000 0.0000 29.6519 0.0000 7.3108
# 5 8.1846 1.9350 18.9296 0.0000 24.6500 0.0000
# 6 0.0000 0.0000 0.0000 7.3108 0.0000 2.0585
#
#
#
# Elastic Compliance Matrix: (Units=1/GPa)
#
#
# Indices 1 2 3 4 5 6 
#
# 1 0.035065 -0.015174 -0.002864 0.000000 -0.008252 0.000000
# 2 -0.015174 0.032085 -0.004459 0.000000 0.005944 0.000000
# 3 -0.002864 -0.004459 0.009791 0.000000 -0.006218 0.000000
# 4 0.000000 0.000000 0.000000 0.271178 0.000000 -0.963089
# 5 -0.008252 0.005944 -0.006218 0.000000 0.047616 0.000000
# 6 0.000000 0.000000 0.000000 -0.963089 0.000000 3.906196
#
#
# Mechanical properties :
#
#
# Convention : Reuss Voigt Hill
#
# Bulk Modulus (GPa) = 31.30136 42.25764 36.77950
# Shear Modulus (GPa) = 1.14743 20.89594 11.02168
#
# Velocity S-wave (km/s) = 0.83764 3.57459 2.59609
# Velocity P-wave (km/s) = 4.48063 6.54806 5.61040
#
# Compressibility (1/GPa) = 0.03194749
#
# Stress axis : x y z
#
# Youngs Moduli (GPa) = 28.51868 31.16682 102.13422
#
# Poissons Ratio (x) = 0.47292 0.29248
# Poissons Ratio (y) = 0.43273 0.45547
# Poissons Ratio (z) = 0.08167 0.13899
#
# Static dielectric constant tensor:
#      x y z
#    x 2.738740 0.000000 0.155320 
#    y 0.000000 -22.932950 0.000000 
#    z 0.155320 0.000000 3.652760 
# 
# 
# High freq. dielectric constant tensor:
#      x y z
#    x 1.561560 0.000000 0.017280 
#    y 0.000000 1.612970 0.000000 
#    z 0.017280 0.000000 1.663680 
# 
# From -- ./inp_files/67768.got.cif
#   From: 2010.06.25/outbox.cif.g09.slc.cpg/sg10_34_cif.got.tgz:67768.got - 2010.06.27 22:07:45.
