data_PCOD8056374
_publ_section_title
;
Structure prediction by ZEFSAII (Michael W. Deem and Ramdas Pophale) SiO2 
 PCOD8056374
Probable space group: C C
;
_chemical_formula_sum "Si O2"
_cell_formula_units_Z 28
_cell_length_a 7.463413
_cell_length_b 21.632530
_cell_length_c 9.235526
_cell_angle_alpha 90.000000
_cell_angle_beta 122.526869
_cell_angle_gamma 90.000000
_cell_volume 1257.204137
_symmetry_space_group_name_H-M "C C"
_symmetry_group_IT_number 9
_symmetry_cell_setting 'monoclinic'
loop_
_space_group_symop_operation_xyz
x,y,z
x,-y,1/2+z
1/2+x,1/2+y,z
1/2+x,1/2-y,1/2+z
loop_
_atom_site_type_symbol
_atom_site_label
_atom_site_fract_x
_atom_site_fract_y
_atom_site_fract_z
Si Si1 0.437610 0.329810 0.274550
Si Si2 0.581876 0.884048 0.608165
Si Si3 0.223970 0.292500 0.902280
Si Si4 0.083801 0.685164 0.817425
Si Si5 0.658026 0.553377 0.952834
Si Si6 0.170454 0.187668 0.442197
Si Si7 0.533835 0.567611 0.230142
O O1 0.606324 0.273617 0.359088
O O2 0.290221 0.350400 0.347017
O O3 0.569602 0.392491 0.309094
O O4 0.255689 0.317613 0.077008
O O5 0.584831 0.840956 0.751402
O O6 0.531177 0.837649 0.454839
O O7 0.409901 0.936547 0.564703
O O8 0.789991 0.923159 0.664533
O O9 0.458178 0.292183 0.935610
O O10 0.190479 0.753481 0.847509
O O11 0.864524 0.679839 0.635800
O O12 0.616964 0.488265 0.862518
O O13 0.567047 0.554347 0.075840
O O14 0.160377 0.128319 0.335833
#
# Coordination Sequence:
#
# PCOD8056374 Si02
#       7
#     4   4   4   4   4   4   4
#     4  12  25  42  71 109 142 180 240 287 359 418
#     4  11  26  49  74 105 143 185 240 288 361 416
#     4  11  24  42  71 107 139 185 225 294 355 422
#     4  12  24  42  74 107 144 182 227 302 353 427
#     4  12  28  49  74  99 145 187 244 288 350 422
#     4  11  24  43  70 102 146 180 237 283 363 412
#     4  11  29  49  70 105 137 193 239 294 341 427
#
# _framework density 22.271643000000001
#
# number of rings (size 3 to 8) (size 9 to 14) (size 15 to 20)
#    0.000    0.571    1.429    6.857   12.000    2.286 
#    0.000    0.000    0.000    0.000    0.000    0.000 
#    0.000    0.000    0.000    0.000    0.000    0.000 
#
# Total GULP energy -173516.889094 kJ/mol
# GULP energy per Si atom -12394.063507 kJ/mol
# Density = 2.222095 g / cm^3
# Si number density = 22.271643 Si / 1000 Ang^3
#
#
#
# Elastic Constant Matrix: (Units=GPa)
#
#
# Indices 1 2 3 4 5 6 
#
# 1 75.1678 21.5586 25.4463 0.0000 5.5684 0.0000
# 2 21.5586 93.7781 39.6604 0.0000 0.0107 0.0000
# 3 25.4463 39.6604 107.4974 0.0000 6.8536 0.0000
# 4 0.0000 0.0000 0.0000 32.6330 0.0000 9.3783
# 5 5.5684 0.0107 6.8536 0.0000 40.1123 0.0000
# 6 0.0000 0.0000 0.0000 9.3783 0.0000 26.7650
#
#
#
# Elastic Compliance Matrix: (Units=1/GPa)
#
#
# Indices 1 2 3 4 5 6 
#
# 1 0.014970 -0.002354 -0.002571 0.000000 -0.001638 0.000000
# 2 -0.002354 0.013031 -0.004318 0.000000 0.001061 0.000000
# 3 -0.002571 -0.004318 0.011608 0.000000 -0.001625 0.000000
# 4 0.000000 0.000000 0.000000 0.034075 0.000000 -0.011940
# 5 -0.001638 0.001061 -0.001625 0.000000 0.025435 0.000000
# 6 0.000000 0.000000 0.000000 -0.011940 0.000000 0.041546
#
#
# Mechanical properties :
#
#
# Convention : Reuss Voigt Hill
#
# Bulk Modulus (GPa) = 47.34135 49.97488 48.65811
# Shear Modulus (GPa) = 30.08577 32.55393 31.31985
#
# Velocity S-wave (km/s) = 3.67939 3.82734 3.75409
# Velocity P-wave (km/s) = 6.27320 6.48219 6.37855
#
# Compressibility (1/GPa) = 0.02112318
#
# Stress axis : x y z
#
# Youngs Moduli (GPa) = 66.79856 76.74192 86.14910
#
# Poissons Ratio (x) = 0.18066 0.22146
# Poissons Ratio (y) = 0.15725 0.37199
# Poissons Ratio (z) = 0.17172 0.33137
#
# Static dielectric constant tensor:
#      x y z
#    x 4.160010 0.000000 -0.013260 
#    y 0.000000 4.064910 0.000000 
#    z -0.013260 0.000000 4.238530 
# 
# 
# High freq. dielectric constant tensor:
#      x y z
#    x 1.899090 0.000000 0.005250 
#    y 0.000000 1.871750 0.000000 
#    z 0.005250 0.000000 1.888220 
# 
# From -- ./inp_files/5842.got.cif
#   From: 2010.06.25/outbox.cif.g09.slc.cpg/sg9_3_cif.got.tgz:5842.got - 2010.06.27 21:40:51.
