data_PCOD8056509
_publ_section_title
;
Structure prediction by ZEFSAII (Michael W. Deem and Ramdas Pophale) SiO2 
 PCOD8056509
Probable space group: C C
;
_chemical_formula_sum "Si O2"
_cell_formula_units_Z 32
_cell_length_a 29.667503
_cell_length_b 8.747608
_cell_length_c 8.575954
_cell_angle_alpha 90.000000
_cell_angle_beta 38.553163
_cell_angle_gamma 90.000000
_cell_volume 1387.102124
_symmetry_space_group_name_H-M "C C"
_symmetry_group_IT_number 9
_symmetry_cell_setting 'monoclinic'
loop_
_space_group_symop_operation_xyz
x,y,z
x,-y,1/2+z
1/2+x,1/2+y,z
1/2+x,1/2-y,1/2+z
loop_
_atom_site_type_symbol
_atom_site_label
_atom_site_fract_x
_atom_site_fract_y
_atom_site_fract_z
Si Si1 0.073090 0.673109 0.920230
Si Si2 0.863779 0.917093 0.523233
Si Si3 0.866516 0.775184 0.177535
Si Si4 0.725444 0.412901 0.131411
Si Si5 0.572876 0.669567 0.925343
Si Si6 0.725755 0.719562 0.970273
Si Si7 0.508976 0.084236 0.768177
Si Si8 0.509908 0.581826 0.767793
O O1 0.160375 0.662770 0.686584
O O2 0.041776 0.620737 0.844009
O O3 0.059066 0.851384 0.993607
O O4 0.025175 0.593965 0.188896
O O5 0.882419 0.871814 0.293802
O O6 0.793579 0.830670 0.773138
O O7 0.927900 0.863668 0.465038
O O8 0.857974 0.102120 0.559163
O O9 0.792424 0.683702 0.388203
O O10 0.926267 0.643133 0.981393
O O11 0.656806 0.367443 0.212876
O O12 0.710928 0.375269 0.351513
O O13 0.739142 0.594865 0.071094
O O14 0.541429 0.623671 0.846665
O O15 0.559157 0.847982 0.992703
O O16 0.521587 0.598602 0.203148
#
# Coordination Sequence:
#
# PCOD8056509 Si02
#       8
#     4   4   4   4   4   4   4   4
#     4  12  26  46  69 102 139 182 234 292 350 414
#     4  11  25  45  69 104 141 184 230 288 350 418
#     4  11  26  46  71 102 144 183 233 289 347 422
#     4  11  25  45  69 104 141 184 230 288 350 418
#     4  12  23  43  71 101 135 182 232 287 348 415
#     4  11  26  46  71 102 144 183 233 289 347 422
#     4  12  26  46  69 102 139 182 234 292 350 414
#     4  12  23  43  71 101 135 182 232 287 348 415
#
# _framework density 23.069678
#
# number of rings (size 3 to 8) (size 9 to 14) (size 15 to 20)
#    0.000    0.500    5.000    3.000    3.500    1.000 
#    0.000    0.000    0.000    0.000    0.000    0.000 
#    0.000    0.000    0.000    0.000    0.000    0.000 
#
# Total GULP energy -198314.978573 kJ/mol
# GULP energy per Si atom -12394.686161 kJ/mol
# Density = 2.301717 g / cm^3
# Si number density = 23.069678 Si / 1000 Ang^3
#
#
#
# Elastic Constant Matrix: (Units=GPa)
#
#
# Indices 1 2 3 4 5 6 
#
# 1 132.6462 42.4408 54.9116 0.0000 -20.2007 0.0000
# 2 42.4408 79.2052 53.4099 0.0000 -15.0718 0.0000
# 3 54.9116 53.4099 135.9727 0.0000 -31.5546 0.0000
# 4 0.0000 0.0000 0.0000 53.3853 0.0000 4.8278
# 5 -20.2007 -15.0718 -31.5546 0.0000 53.6477 0.0000
# 6 0.0000 0.0000 0.0000 4.8278 0.0000 24.0165
#
#
#
# Elastic Compliance Matrix: (Units=1/GPa)
#
#
# Indices 1 2 3 4 5 6 
#
# 1 0.009797 -0.003448 -0.002282 0.000000 0.001378 0.000000
# 2 -0.003448 0.018434 -0.005730 0.000000 0.000510 0.000000
# 3 -0.002282 -0.005730 0.011527 0.000000 0.004311 0.000000
# 4 0.000000 0.000000 0.000000 0.019079 0.000000 -0.003835
# 5 0.001378 0.000510 0.004311 0.000000 0.021838 0.000000
# 6 0.000000 0.000000 0.000000 -0.003835 0.000000 0.042409
#
#
# Mechanical properties :
#
#
# Convention : Reuss Voigt Hill
#
# Bulk Modulus (GPa) = 59.39204 72.14988 65.77096
# Shear Modulus (GPa) = 32.97792 39.34733 36.16263
#
# Velocity S-wave (km/s) = 3.78496 4.13436 3.96351
# Velocity P-wave (km/s) = 6.70088 7.35753 7.03687
#
# Compressibility (1/GPa) = 0.01683727
#
# Stress axis : x y z
#
# Youngs Moduli (GPa) = 102.07503 54.24741 86.75179
#
# Poissons Ratio (x) = 0.18707 0.19797
# Poissons Ratio (y) = 0.35199 0.49708
# Poissons Ratio (z) = 0.23294 0.31083
#
# Static dielectric constant tensor:
#      x y z
#    x 4.029900 0.000000 0.030360 
#    y 0.000000 4.702840 0.000000 
#    z 0.030360 0.000000 3.862140 
# 
# 
# High freq. dielectric constant tensor:
#      x y z
#    x 1.910220 0.000000 -0.004680 
#    y 0.000000 1.924620 0.000000 
#    z -0.004680 0.000000 1.926290 
# 
# From -- ./inp_files/12427.got.cif
#   From: 2010.06.25/outbox.cif.g09.slc.cpg/sg9_7_cif.got.tgz:12427.got - 2010.06.27 21:40:51.
