data_PCOD8056502
_publ_section_title
;
Structure prediction by ZEFSAII (Michael W. Deem and Ramdas Pophale) SiO2 
 PCOD8056502
Probable space group: C C
;
_chemical_formula_sum "Si O2"
_cell_formula_units_Z 16
_cell_length_a 5.378352
_cell_length_b 11.936982
_cell_length_c 9.543243
_cell_angle_alpha 90.000000
_cell_angle_beta 63.172390
_cell_angle_gamma 90.000000
_cell_volume 546.743902
_symmetry_space_group_name_H-M "C C"
_symmetry_group_IT_number 9
_symmetry_cell_setting 'monoclinic'
loop_
_space_group_symop_operation_xyz
x,y,z
x,-y,1/2+z
1/2+x,1/2+y,z
1/2+x,1/2-y,1/2+z
loop_
_atom_site_type_symbol
_atom_site_label
_atom_site_fract_x
_atom_site_fract_y
_atom_site_fract_z
Si Si1 0.264210 0.930844 0.996600
Si Si2 0.462736 0.216025 0.010923
Si Si3 0.196884 0.569780 0.163401
Si Si4 0.903640 0.299389 0.222606
O O1 0.494507 0.987021 0.832460
O O2 0.205144 0.809242 0.939829
O O3 0.377108 0.909358 0.128432
O O4 0.982880 0.002926 0.076446
O O5 0.553533 0.092798 0.047224
O O6 0.228485 0.273822 0.166789
O O7 0.298436 0.184801 0.908616
O O8 0.238666 0.697275 0.199844
#
# Coordination Sequence:
#
# PCOD8056502 Si02
#       4
#     4   4   4   4
#     4  11  26  51  82 122 165 218 278 344 419 499
#     4  11  24  51  82 114 168 217 275 344 416 489
#     4  11  26  51  82 122 165 218 278 344 419 499
#     4  11  24  51  82 114 168 217 275 344 416 489
#
# _framework density 29.264157999999998
#
# number of rings (size 3 to 8) (size 9 to 14) (size 15 to 20)
#    0.000    1.000    5.000    0.000    0.000    4.000 
#    9.000    2.500    0.000    0.000    0.000    0.000 
#    0.000    0.000    0.000    0.000    0.000    0.000 
#
# Total GULP energy -99185.328470 kJ/mol
# GULP energy per Si atom -12398.166059 kJ/mol
# Density = 2.919755 g / cm^3
# Si number density = 29.264158 Si / 1000 Ang^3
#
#
#
# Elastic Constant Matrix: (Units=GPa)
#
#
# Indices 1 2 3 4 5 6 
#
# 1 123.5300 18.4248 87.4088 0.0000 -10.4265 0.0000
# 2 18.4248 117.4370 46.8374 0.0000 -8.4876 0.0000
# 3 87.4088 46.8374 198.2241 0.0000 6.3610 0.0000
# 4 0.0000 0.0000 0.0000 36.8432 0.0000 -8.8496
# 5 -10.4265 -8.4876 6.3610 0.0000 75.0905 0.0000
# 6 0.0000 0.0000 0.0000 -8.8496 0.0000 53.5902
#
#
#
# Elastic Compliance Matrix: (Units=1/GPa)
#
#
# Indices 1 2 3 4 5 6 
#
# 1 0.012122 0.000461 -0.005525 0.000000 0.002203 0.000000
# 2 0.000461 0.009538 -0.002500 0.000000 0.001354 0.000000
# 3 -0.005525 -0.002500 0.008128 0.000000 -0.001738 0.000000
# 4 0.000000 0.000000 0.000000 0.028263 0.000000 0.004667
# 5 0.002203 0.001354 -0.001738 0.000000 0.013923 0.000000
# 6 0.000000 0.000000 0.000000 0.004667 0.000000 0.019431
#
#
# Mechanical properties :
#
#
# Convention : Reuss Voigt Hill
#
# Bulk Modulus (GPa) = 68.21863 82.72591 75.47227
# Shear Modulus (GPa) = 44.87547 52.20612 48.54079
#
# Velocity S-wave (km/s) = 3.92019 4.22828 4.07715
# Velocity P-wave (km/s) = 6.62212 7.22273 6.92894
#
# Compressibility (1/GPa) = 0.01465875
#
# Stress axis : x y z
#
# Youngs Moduli (GPa) = 82.49656 104.84420 123.03780
#
# Poissons Ratio (x) = -0.04832 0.67976
# Poissons Ratio (y) = -0.03802 0.30764
# Poissons Ratio (z) = 0.45578 0.26215
#
# Static dielectric constant tensor:
#      x y z
#    x 5.315860 0.000000 0.174500 
#    y 0.000000 5.442630 0.000000 
#    z 0.174500 0.000000 5.599470 
# 
# 
# High freq. dielectric constant tensor:
#      x y z
#    x 2.196490 0.000000 0.008500 
#    y 0.000000 2.224720 0.000000 
#    z 0.008500 0.000000 2.202830 
# 
# From -- ./inp_files/3522.got.cif
#   From: 2010.06.25/outbox.cif.g09.slc.cpg/sg9_2_cif.got.tgz:3522.got - 2010.06.27 21:40:51.
