data_PCOD8056422
_publ_section_title
;
Structure prediction by ZEFSAII (Michael W. Deem and Ramdas Pophale) SiO2 
 PCOD8056422
Probable space group: C C
;
_chemical_formula_sum "Si O2"
_cell_formula_units_Z 32
_cell_length_a 23.105331
_cell_length_b 5.462215
_cell_length_c 10.059569
_cell_angle_alpha 90.000000
_cell_angle_beta 80.882718
_cell_angle_gamma 90.000000
_cell_volume 1253.541026
_symmetry_space_group_name_H-M "C C"
_symmetry_group_IT_number 9
_symmetry_cell_setting 'monoclinic'
loop_
_space_group_symop_operation_xyz
x,y,z
x,-y,1/2+z
1/2+x,1/2+y,z
1/2+x,1/2-y,1/2+z
loop_
_atom_site_type_symbol
_atom_site_label
_atom_site_fract_x
_atom_site_fract_y
_atom_site_fract_z
Si Si1 0.229390 0.218273 0.013100
Si Si2 0.221561 0.404182 0.295280
Si Si3 0.042649 0.438763 0.688209
Si Si4 0.627378 0.364817 0.985765
Si Si5 0.414618 0.870704 0.681980
Si Si6 0.902627 0.116660 0.045957
Si Si7 0.819417 0.642423 0.410102
Si Si8 0.029954 0.786074 0.459841
O O1 0.222469 0.421754 0.133549
O O2 0.232948 0.338807 0.864854
O O3 0.172968 0.044151 0.041825
O O4 0.288940 0.061689 0.014745
O O5 0.158482 0.308936 0.366844
O O6 0.271521 0.212157 0.317754
O O7 0.098748 0.294454 0.613803
O O8 0.037025 0.698013 0.612084
O O9 0.044033 0.438393 0.850456
O O10 0.982064 0.299845 0.679105
O O11 0.578319 0.506613 0.919081
O O12 0.387925 0.608308 0.647665
O O13 0.379301 0.962377 0.824099
O O14 0.406867 0.100350 0.589468
O O15 0.843154 0.116491 0.979046
O O16 0.966664 0.084517 0.954106
#
# Coordination Sequence:
#
# PCOD8056422 Si02
#       8
#     4   4   4   4   4   4   4   4
#     4  11  27  49  74 114 150 210 266 339 404 479
#     4  11  27  47  76 107 152 203 271 333 402 472
#     4  11  24  45  71 110 150 205 255 331 400 484
#     4  11  24  46  74 105 149 202 267 336 402 479
#     4  11  25  45  73 111 158 201 256 317 396 478
#     4  11  25  45  72 112 156 202 252 316 393 475
#     4  11  26  46  75 108 154 206 260 324 396 477
#     4  11  24  45  71 109 153 199 261 320 401 482
#
# _framework density 25.527684000000001
#
# number of rings (size 3 to 8) (size 9 to 14) (size 15 to 20)
#    0.000    1.000    2.500    2.250    5.250    9.000 
#    2.250    0.000    0.000    0.000    0.000    0.000 
#    0.000    0.000    0.000    0.000    0.000    0.000 
#
# Total GULP energy -198236.366930 kJ/mol
# GULP energy per Si atom -12389.772933 kJ/mol
# Density = 2.546958 g / cm^3
# Si number density = 25.527684 Si / 1000 Ang^3
#
#
#
# Elastic Constant Matrix: (Units=GPa)
#
#
# Indices 1 2 3 4 5 6 
#
# 1 126.6377 35.8636 33.4560 0.0000 -31.2590 0.0000
# 2 35.8636 84.1530 15.3083 0.0000 -8.4325 0.0000
# 3 33.4560 15.3083 92.8984 0.0000 -17.9169 0.0000
# 4 0.0000 0.0000 0.0000 35.0232 0.0000 -1.1161
# 5 -31.2590 -8.4325 -17.9169 0.0000 36.7181 0.0000
# 6 0.0000 0.0000 0.0000 -1.1161 0.0000 38.5088
#
#
#
# Elastic Compliance Matrix: (Units=1/GPa)
#
#
# Indices 1 2 3 4 5 6 
#
# 1 0.011423 -0.003716 -0.001976 0.000000 0.007907 0.000000
# 2 -0.003716 0.013596 -0.001005 0.000000 -0.000531 0.000000
# 3 -0.001976 -0.001005 0.012444 0.000000 0.004159 0.000000
# 4 0.000000 0.000000 0.000000 0.028579 0.000000 0.000828
# 5 0.007907 -0.000531 0.004159 0.000000 0.035873 0.000000
# 6 0.000000 0.000000 0.000000 0.000828 0.000000 0.025992
#
#
# Mechanical properties :
#
#
# Convention : Reuss Voigt Hill
#
# Bulk Modulus (GPa) = 41.54835 52.54944 47.04889
# Shear Modulus (GPa) = 33.48417 36.65410 35.06913
#
# Velocity S-wave (km/s) = 3.62564 3.79338 3.71046
# Velocity P-wave (km/s) = 5.81706 6.31001 6.06854
#
# Compressibility (1/GPa) = 0.02406835
#
# Stress axis : x y z
#
# Youngs Moduli (GPa) = 87.54435 73.54898 80.36088
#
# Poissons Ratio (x) = 0.27333 0.15883
# Poissons Ratio (y) = 0.32534 0.08073
# Poissons Ratio (z) = 0.17303 0.07389
#
# Static dielectric constant tensor:
#      x y z
#    x 5.084220 0.000000 -0.231890 
#    y 0.000000 4.251020 0.000000 
#    z -0.231890 0.000000 4.527970 
# 
# 
# High freq. dielectric constant tensor:
#      x y z
#    x 2.045930 0.000000 -0.018570 
#    y 0.000000 2.000340 0.000000 
#    z -0.018570 0.000000 2.007060 
# 
# From -- ./inp_files/20493.got.cif
#   From: 2010.06.25/outbox.cif.g09.slc.cpg/sg9_11_cif.got.tgz:20493.got - 2010.06.27 21:40:51.
