data_PCOD8056875
_publ_section_title
;
Structure prediction by ZEFSAII (Michael W. Deem and Ramdas Pophale) SiO2 
 PCOD8056875
Probable space group: P 2/M
;
_chemical_formula_sum "Si O2"
_cell_formula_units_Z 26
_cell_length_a 18.044397
_cell_length_b 19.663806
_cell_length_c 17.338467
_cell_angle_alpha 90.000000
_cell_angle_beta 16.415059
_cell_angle_gamma 90.000000
_cell_volume 1738.533030
_symmetry_space_group_name_H-M "P 2/M"
_symmetry_group_IT_number 10
_symmetry_cell_setting 'monoclinic'
loop_
_space_group_symop_operation_xyz
x,y,z
-x,y,-z
-x,-y,-z
x,-y,z
loop_
_atom_site_type_symbol
_atom_site_label
_atom_site_fract_x
_atom_site_fract_y
_atom_site_fract_z
Si Si1 0.590527 0.419921 0.826450
Si Si2 0.997410 0.580656 0.820276
Si Si3 0.964933 0.213553 0.627494
Si Si4 0.261679 0.000000 0.293756
Si Si5 0.494074 0.419899 0.420223
Si Si6 0.906744 0.360428 0.747513
Si Si7 0.458452 0.860684 0.131480
O O1 0.612557 0.500000 0.800958
O O2 0.878151 0.390707 0.525097
O O3 0.500000 0.393096 0.000000
O O4 0.376022 0.395872 0.978829
O O5 0.005891 0.500000 0.791893
O O6 0.245084 0.606182 0.621599
O O7 0.000036 0.625433 0.740804
O O8 0.750386 0.601176 0.118004
O O9 0.252624 0.193635 0.371641
O O10 0.000000 0.221091 0.500000
O O11 0.873618 0.281572 0.760965
O O12 0.752615 0.155709 0.867914
O O13 0.312819 0.066974 0.295114
O O14 0.000000 0.000000 0.500000
O O15 0.500000 0.000000 0.000000
O O16 0.500000 0.387029 0.500000
O O17 0.473012 0.500000 0.450356
O O18 0.500000 0.851018 0.000000
#
# Coordination Sequence:
#
# PCOD8056875 Si02
#       7
#     4   4   4   2   4   4   4
#     4  11  22  34  46  58  74 103 146 191 230 260
#     4  10  19  30  45  64  83 104 133 172 215 255
#     4  10  19  30  42  57  80 110 142 173 208 250
#     4  10  16  26  44  64  82 100 126 170 221 252
#     4   9  17  30  47  65  83 101 123 159 211 266
#     4  12  22  33  46  61  83 110 141 181 221 260
#     4   9  17  28  42  60  79 101 132 171 211 250
#
# _framework density 14.955138
#
# number of rings (size 3 to 8) (size 9 to 14) (size 15 to 20)
#    0.000    1.846    0.000    7.385    0.000    5.538 
#    0.000    0.000    0.000    0.000    0.000    0.000 
#    0.000    0.000    0.000    0.000    0.000    0.000 
#
# Total GULP energy -322138.778157 kJ/mol
# GULP energy per Si atom -12389.953006 kJ/mol
# Density = 1.492110 g / cm^3
# Si number density = 14.955138 Si / 1000 Ang^3
#
#
#
# Elastic Constant Matrix: (Units=GPa)
#
#
# Indices 1 2 3 4 5 6 
#
# 1 59.9950 22.6352 22.1337 0.0000 -1.1788 0.0000
# 2 22.6352 57.4879 29.7828 0.0000 -0.7524 0.0000
# 3 22.1337 29.7828 94.0589 0.0000 -13.1870 0.0000
# 4 0.0000 0.0000 0.0000 18.8311 0.0000 -3.2653
# 5 -1.1788 -0.7524 -13.1870 0.0000 18.9700 0.0000
# 6 0.0000 0.0000 0.0000 -3.2653 0.0000 8.7549
#
#
#
# Elastic Compliance Matrix: (Units=1/GPa)
#
#
# Indices 1 2 3 4 5 6 
#
# 1 0.020134 -0.006478 -0.002822 0.000000 -0.000968 0.000000
# 2 -0.006478 0.023193 -0.006368 0.000000 -0.003909 0.000000
# 3 -0.002822 -0.006368 0.014683 0.000000 0.009779 0.000000
# 4 0.000000 0.000000 0.000000 0.056775 0.000000 0.021175
# 5 -0.000968 -0.003909 0.009779 0.000000 0.059297 0.000000
# 6 0.000000 0.000000 0.000000 0.021175 0.000000 0.122120
#
#
# Mechanical properties :
#
#
# Convention : Reuss Voigt Hill
#
# Bulk Modulus (GPa) = 37.48893 40.07168 38.78031
# Shear Modulus (GPa) = 14.86190 18.44388 16.65289
#
# Velocity S-wave (km/s) = 3.15582 3.51562 3.34057
# Velocity P-wave (km/s) = 6.19685 6.58272 6.39270
#
# Compressibility (1/GPa) = 0.02667454
#
# Stress axis : x y z
#
# Youngs Moduli (GPa) = 49.66625 43.11579 68.10598
#
# Poissons Ratio (x) = 0.27931 0.19222
# Poissons Ratio (y) = 0.32175 0.43367
# Poissons Ratio (z) = 0.14018 0.27454
#
# Static dielectric constant tensor:
#      x y z
#    x 2.690810 0.000000 -0.152210 
#    y 0.000000 5.293910 0.000000 
#    z -0.152210 0.000000 3.229080 
# 
# 
# High freq. dielectric constant tensor:
#      x y z
#    x 1.528170 0.000000 -0.017960 
#    y 0.000000 1.542570 0.000000 
#    z -0.017960 0.000000 1.600820 
# 
# From -- ./inp_files/67805.got.cif
#   From: 2010.06.25/outbox.cif.g09.slc.cpg/sg10_34_cif.got.tgz:67805.got - 2010.06.27 22:07:45.
