data_PCOD8056213
_publ_section_title
;
Structure prediction by ZEFSAII (Michael W. Deem and Ramdas Pophale) SiO2 
 PCOD8056213
Probable space group: C C
;
_chemical_formula_sum "Si O2"
_cell_formula_units_Z 28
_cell_length_a 11.687059
_cell_length_b 9.261645
_cell_length_c 12.325400
_cell_angle_alpha 90.000000
_cell_angle_beta 112.766495
_cell_angle_gamma 90.000000
_cell_volume 1230.176749
_symmetry_space_group_name_H-M "C C"
_symmetry_group_IT_number 9
_symmetry_cell_setting 'monoclinic'
loop_
_space_group_symop_operation_xyz
x,y,z
x,-y,1/2+z
1/2+x,1/2+y,z
1/2+x,1/2-y,1/2+z
loop_
_atom_site_type_symbol
_atom_site_label
_atom_site_fract_x
_atom_site_fract_y
_atom_site_fract_z
Si Si1 0.089950 0.281458 0.894500
Si Si2 0.925881 0.477265 0.247233
Si Si3 0.015060 0.146160 0.488318
Si Si4 0.870886 0.891097 0.337262
Si Si5 0.170331 0.944096 0.241329
Si Si6 0.340528 0.248993 0.100521
Si Si7 0.117538 0.741821 0.814889
O O1 0.119665 0.181765 0.800441
O O2 0.043367 0.438840 0.842197
O O3 0.977606 0.213502 0.923565
O O4 0.203749 0.293584 0.016393
O O5 0.820251 0.425368 0.293339
O O6 0.849402 0.581982 0.139055
O O7 0.995133 0.338526 0.219080
O O8 0.113217 0.061491 0.599373
O O9 0.093983 0.244734 0.435301
O O10 0.934706 0.245768 0.536436
O O11 0.915576 0.051335 0.383277
O O12 0.871662 0.862453 0.207539
O O13 0.739136 0.855572 0.341580
O O14 0.133871 0.100846 0.271716
#
# Coordination Sequence:
#
# PCOD8056213 Si02
#       7
#     4   4   4   4   4   4   4
#     4  11  22  48  75 101 152 189 242 300 364 440
#     4  11  25  47  68 109 143 187 245 298 366 428
#     4  12  24  47  72 109 147 193 241 302 365 443
#     4  11  24  45  72 106 143 190 240 295 373 427
#     4  12  24  48  75 106 146 197 240 300 371 436
#     4  11  23  48  74 100 151 199 232 311 367 432
#     4  12  26  45  72 109 146 185 252 294 360 442
#
# _framework density 22.760957000000001
#
# number of rings (size 3 to 8) (size 9 to 14) (size 15 to 20)
#    0.000    0.571    7.143    2.571    0.000    1.143 
#    7.714    0.000    0.000    0.000    0.000    0.000 
#    0.000    0.000    0.000    0.000    0.000    0.000 
#
# Total GULP energy -173501.536411 kJ/mol
# GULP energy per Si atom -12392.966887 kJ/mol
# Density = 2.270915 g / cm^3
# Si number density = 22.760957 Si / 1000 Ang^3
#
#
#
# Elastic Constant Matrix: (Units=GPa)
#
#
# Indices 1 2 3 4 5 6 
#
# 1 177.9301 40.2132 42.0721 0.0000 7.8897 0.0000
# 2 40.2132 59.8916 20.1011 0.0000 2.5502 0.0000
# 3 42.0721 20.1011 100.5440 0.0000 13.5977 0.0000
# 4 0.0000 0.0000 0.0000 19.9517 0.0000 2.3842
# 5 7.8897 2.5502 13.5977 0.0000 38.7421 0.0000
# 6 0.0000 0.0000 0.0000 2.3842 0.0000 39.4366
#
#
#
# Elastic Compliance Matrix: (Units=1/GPa)
#
#
# Indices 1 2 3 4 5 6 
#
# 1 0.007038 -0.004007 -0.002085 0.000000 -0.000438 0.000000
# 2 -0.004007 0.020180 -0.002402 0.000000 0.000331 0.000000
# 3 -0.002085 -0.002402 0.011779 0.000000 -0.003551 0.000000
# 4 0.000000 0.000000 0.000000 0.050486 0.000000 -0.003052
# 5 -0.000438 0.000331 -0.003551 0.000000 0.027126 0.000000
# 6 0.000000 0.000000 0.000000 -0.003052 0.000000 0.025542
#
#
# Mechanical properties :
#
#
# Convention : Reuss Voigt Hill
#
# Bulk Modulus (GPa) = 45.43808 60.34872 52.89340
# Shear Modulus (GPa) = 30.03463 35.35804 32.69633
#
# Velocity S-wave (km/s) = 3.63653 3.94566 3.79424
# Velocity P-wave (km/s) = 6.13506 6.87963 6.51799
#
# Compressibility (1/GPa) = 0.02200797
#
# Stress axis : x y z
#
# Youngs Moduli (GPa) = 142.08115 49.55476 84.89827
#
# Poissons Ratio (x) = 0.19858 0.17699
# Poissons Ratio (y) = 0.56937 0.20395
# Poissons Ratio (z) = 0.29620 0.11904
#
# Static dielectric constant tensor:
#      x y z
#    x 4.700950 0.000000 0.137220 
#    y 0.000000 4.069850 0.000000 
#    z 0.137220 0.000000 4.110050 
# 
# 
# High freq. dielectric constant tensor:
#      x y z
#    x 1.928340 0.000000 0.013860 
#    y 0.000000 1.894880 0.000000 
#    z 0.013860 0.000000 1.882580 
# 
# From -- ./inp_files/24411.got.cif
#   From: 2010.06.25/outbox.cif.g09.slc.cpg/sg9_13_cif.got.tgz:24411.got - 2010.06.27 21:40:51.
