data_PCOD8056526
_publ_section_title
;
Structure prediction by ZEFSAII (Michael W. Deem and Ramdas Pophale) SiO2 
 PCOD8056526
Probable space group: C C
;
_chemical_formula_sum "Si O2"
_cell_formula_units_Z 32
_cell_length_a 19.544526
_cell_length_b 8.896282
_cell_length_c 16.695779
_cell_angle_alpha 90.000000
_cell_angle_beta 151.197244
_cell_angle_gamma 90.000000
_cell_volume 1398.631815
_symmetry_space_group_name_H-M "C C"
_symmetry_group_IT_number 9
_symmetry_cell_setting 'monoclinic'
loop_
_space_group_symop_operation_xyz
x,y,z
x,-y,1/2+z
1/2+x,1/2+y,z
1/2+x,1/2-y,1/2+z
loop_
_atom_site_type_symbol
_atom_site_label
_atom_site_fract_x
_atom_site_fract_y
_atom_site_fract_z
Si Si1 0.000000 0.117283 0.680100
Si Si2 0.830469 0.125974 0.669431
Si Si3 0.494591 0.274761 0.693287
Si Si4 0.723286 0.207447 0.321998
Si Si5 0.545098 0.931789 0.096444
Si Si6 0.253605 0.291901 0.564073
Si Si7 0.279456 0.085342 0.739714
Si Si8 0.108860 0.206411 0.031237
O O1 0.148478 0.206129 0.820280
O O2 0.918773 0.149443 0.679290
O O3 0.891847 0.185172 0.503999
O O4 0.035671 0.941665 0.705674
O O5 0.690500 0.230638 0.535521
O O6 0.781888 0.954528 0.632047
O O7 0.940517 0.182084 0.849602
O O8 0.484923 0.163156 0.608709
O O9 0.337311 0.273533 0.567200
O O10 0.592053 0.224428 0.868526
O O11 0.700138 0.299685 0.217195
O O12 0.658116 0.043104 0.250320
O O13 0.632027 0.825282 0.125807
O O14 0.425747 0.024133 0.926155
O O15 0.300850 0.165854 0.676201
O O16 0.170196 0.952395 0.617567
#
# Coordination Sequence:
#
# PCOD8056526 Si02
#       8
#     4   4   4   4   4   4   4   4
#     4  11  25  46  71 106 142 188 237 294 356 425
#     4  11  25  46  71 106 142 188 237 294 356 425
#     4  11  27  47  74 100 143 190 241 292 358 434
#     4  12  26  45  73 102 147 184 239 295 357 430
#     4  12  27  45  72 109 140 189 238 298 362 423
#     4  11  27  47  74 100 143 190 241 292 358 434
#     4  12  27  45  72 109 140 189 238 298 362 423
#     4  12  26  45  73 102 147 184 239 295 357 430
#
# _framework density 22.879503
#
# number of rings (size 3 to 8) (size 9 to 14) (size 15 to 20)
#    0.000    0.500    2.500    5.250   10.500    3.000 
#    0.000    0.000    0.000    0.000    0.000    0.000 
#    0.000    0.000    0.000    0.000    0.000    0.000 
#
# Total GULP energy -198430.549484 kJ/mol
# GULP energy per Si atom -12401.909343 kJ/mol
# Density = 2.282743 g / cm^3
# Si number density = 22.879503 Si / 1000 Ang^3
#
#
#
# Elastic Constant Matrix: (Units=GPa)
#
#
# Indices 1 2 3 4 5 6 
#
# 1 70.9665 37.2816 -2.1583 0.0000 -6.3150 0.0000
# 2 37.2816 115.1447 20.7422 0.0000 0.6301 0.0000
# 3 -2.1583 20.7422 76.6910 0.0000 3.9240 0.0000
# 4 0.0000 0.0000 0.0000 42.8983 0.0000 -1.1286
# 5 -6.3150 0.6301 3.9240 0.0000 33.8573 0.0000
# 6 0.0000 0.0000 0.0000 -1.1286 0.0000 53.0251
#
#
#
# Elastic Compliance Matrix: (Units=1/GPa)
#
#
# Indices 1 2 3 4 5 6 
#
# 1 0.017628 -0.006082 0.001979 0.000000 0.003172 0.000000
# 2 -0.006082 0.011228 -0.003158 0.000000 -0.000977 0.000000
# 3 0.001979 -0.003158 0.014010 0.000000 -0.001196 0.000000
# 4 0.000000 0.000000 0.000000 0.023324 0.000000 0.000496
# 5 0.003172 -0.000977 -0.001196 0.000000 0.030284 0.000000
# 6 0.000000 0.000000 0.000000 0.000496 0.000000 0.018870
#
#
# Mechanical properties :
#
#
# Convention : Reuss Voigt Hill
#
# Bulk Modulus (GPa) = 35.27934 41.61480 38.44707
# Shear Modulus (GPa) = 35.89000 39.75192 37.82096
#
# Velocity S-wave (km/s) = 3.96492 4.17279 4.07018
# Velocity P-wave (km/s) = 6.03439 6.43773 6.23932
#
# Compressibility (1/GPa) = 0.02834520
#
# Stress axis : x y z
#
# Youngs Moduli (GPa) = 56.72639 89.06281 71.37593
#
# Poissons Ratio (x) = 0.54164 -0.14123
# Poissons Ratio (y) = 0.34498 0.22540
# Poissons Ratio (z) = -0.11224 0.28125
#
# Static dielectric constant tensor:
#      x y z
#    x 4.061570 0.000000 0.000200 
#    y 0.000000 4.268370 0.000000 
#    z 0.000200 0.000000 4.267490 
# 
# 
# High freq. dielectric constant tensor:
#      x y z
#    x 1.909870 0.000000 0.004680 
#    y 0.000000 1.920460 0.000000 
#    z 0.004680 0.000000 1.906040 
# 
# From -- ./inp_files/31207.got.cif
#   From: 2010.06.25/outbox.cif.g09.slc.cpg/sg9_16_cif.got.tgz:31207.got - 2010.06.27 21:40:51.
