data_PCOD8056711
_publ_section_title
;
Structure prediction by ZEFSAII (Michael W. Deem and Ramdas Pophale) SiO2 
 PCOD8056711
Probable space group: C C
;
_chemical_formula_sum "Si O2"
_cell_formula_units_Z 32
_cell_length_a 9.453429
_cell_length_b 11.402250
_cell_length_c 14.837765
_cell_angle_alpha 90.000000
_cell_angle_beta 62.372705
_cell_angle_gamma 90.000000
_cell_volume 1417.012529
_symmetry_space_group_name_H-M "C C"
_symmetry_group_IT_number 9
_symmetry_cell_setting 'monoclinic'
loop_
_space_group_symop_operation_xyz
x,y,z
x,-y,1/2+z
1/2+x,1/2+y,z
1/2+x,1/2-y,1/2+z
loop_
_atom_site_type_symbol
_atom_site_label
_atom_site_fract_x
_atom_site_fract_y
_atom_site_fract_z
Si Si1 0.921230 0.719638 0.595960
Si Si2 0.270685 0.613048 0.520354
Si Si3 0.292958 0.996578 0.701962
Si Si4 0.781556 0.048579 0.190452
Si Si5 0.462874 0.841426 0.507946
Si Si6 0.321220 0.736571 0.930917
Si Si7 0.932429 0.519129 0.349511
Si Si8 0.938031 0.978801 0.313990
O O1 0.795803 0.614044 0.641776
O O2 0.876680 0.828858 0.671696
O O3 0.898267 0.772977 0.505271
O O4 0.096791 0.670073 0.563113
O O5 0.273202 0.511665 0.595215
O O6 0.392903 0.714248 0.509959
O O7 0.317663 0.554008 0.412001
O O8 0.386073 0.893596 0.621948
O O9 0.372763 0.035045 0.773173
O O10 0.110303 0.959127 0.770155
O O11 0.607954 0.069716 0.283450
O O12 0.879368 0.966953 0.228984
O O13 0.649327 0.825411 0.472395
O O14 0.428621 0.925148 0.431863
O O15 0.314574 0.871524 0.902372
O O16 0.445536 0.657782 0.838286
#
# Coordination Sequence:
#
# PCOD8056711 Si02
#       8
#     4   4   4   4   4   4   4   4
#     4  12  25  47  76 105 147 195 249 308 373 442
#     4  12  28  48  74 109 152 194 250 312 373 446
#     4  12  27  46  73 109 146 196 253 303 377 448
#     4  12  26  48  76 107 153 197 247 311 372 445
#     4  12  28  48  74 109 152 194 250 312 373 446
#     4  12  25  47  76 105 147 195 249 308 373 442
#     4  12  26  48  76 107 153 197 247 311 372 445
#     4  12  27  46  73 109 146 196 253 303 377 448
#
# _framework density 22.582723999999999
#
# number of rings (size 3 to 8) (size 9 to 14) (size 15 to 20)
#    0.000    0.000    5.000    4.500    7.000    3.000 
#    0.000    0.000    0.000    0.000    0.000    0.000 
#    0.000    0.000    0.000    0.000    0.000    0.000 
#
# Total GULP energy -198392.826900 kJ/mol
# GULP energy per Si atom -12399.551681 kJ/mol
# Density = 2.253132 g / cm^3
# Si number density = 22.582724 Si / 1000 Ang^3
#
#
#
# Elastic Constant Matrix: (Units=GPa)
#
#
# Indices 1 2 3 4 5 6 
#
# 1 123.9701 15.1439 28.0863 0.0000 -4.8862 0.0000
# 2 15.1439 97.9609 4.5130 0.0000 -12.6016 0.0000
# 3 28.0863 4.5130 57.9058 0.0000 -12.1327 0.0000
# 4 0.0000 0.0000 0.0000 27.8810 0.0000 -2.0327
# 5 -4.8862 -12.6016 -12.1327 0.0000 42.0857 0.0000
# 6 0.0000 0.0000 0.0000 -2.0327 0.0000 43.1375
#
#
#
# Elastic Compliance Matrix: (Units=1/GPa)
#
#
# Indices 1 2 3 4 5 6 
#
# 1 0.009220 -0.001297 -0.004500 0.000000 -0.000615 0.000000
# 2 -0.001297 0.010801 0.000461 0.000000 0.003217 0.000000
# 3 -0.004500 0.000461 0.020579 0.000000 0.005548 0.000000
# 4 0.000000 0.000000 0.000000 0.035990 0.000000 0.001696
# 5 -0.000615 0.003217 0.005548 0.000000 0.026252 0.000000
# 6 0.000000 0.000000 0.000000 0.001696 0.000000 0.023262
#
#
# Mechanical properties :
#
#
# Convention : Reuss Voigt Hill
#
# Bulk Modulus (GPa) = 33.41306 41.70256 37.55781
# Shear Modulus (GPa) = 34.07115 38.09374 36.08245
#
# Velocity S-wave (km/s) = 3.88845 4.11159 4.00157
# Velocity P-wave (km/s) = 5.91506 6.40678 6.16583
#
# Compressibility (1/GPa) = 0.02992841
#
# Stress axis : x y z
#
# Youngs Moduli (GPa) = 108.45803 92.58214 48.59428
#
# Poissons Ratio (x) = 0.12010 0.21867
# Poissons Ratio (y) = 0.14069 -0.02242
# Poissons Ratio (z) = 0.48805 -0.04271
#
# Static dielectric constant tensor:
#      x y z
#    x 4.095820 0.000000 -0.041100 
#    y 0.000000 4.236040 0.000000 
#    z -0.041100 0.000000 4.330880 
# 
# 
# High freq. dielectric constant tensor:
#      x y z
#    x 1.900640 0.000000 0.003720 
#    y 0.000000 1.901450 0.000000 
#    z 0.003720 0.000000 1.901590 
# 
# From -- ./inp_files/22849.got.cif
#   From: 2010.06.25/outbox.cif.g09.slc.cpg/sg9_12_cif.got.tgz:22849.got - 2010.06.27 21:40:51.
