data_PCOD8056993
_publ_section_title
;
Structure prediction by ZEFSAII (Michael W. Deem and Ramdas Pophale) SiO2 
 PCOD8056993
Probable space group: P 2/M
;
_chemical_formula_sum "Si O2"
_cell_formula_units_Z 24
_cell_length_a 24.091800
_cell_length_b 9.057622
_cell_length_c 18.199271
_cell_angle_alpha 90.000000
_cell_angle_beta 18.931801
_cell_angle_gamma 90.000000
_cell_volume 1288.472461
_symmetry_space_group_name_H-M "P 2/M"
_symmetry_group_IT_number 10
_symmetry_cell_setting 'monoclinic'
loop_
_space_group_symop_operation_xyz
x,y,z
-x,y,-z
-x,-y,-z
x,-y,z
loop_
_atom_site_type_symbol
_atom_site_label
_atom_site_fract_x
_atom_site_fract_y
_atom_site_fract_z
Si Si1 0.027599 0.832953 0.616277
Si Si2 0.333919 0.836217 0.656135
Si Si3 0.510652 0.327244 0.316774
Si Si4 0.667844 0.329687 0.836837
Si Si5 0.665643 0.171367 0.993310
Si Si6 0.812582 0.169844 0.016827
O O1 0.170201 0.717625 0.414371
O O2 0.854485 0.799550 0.788437
O O3 0.991479 0.811176 0.749208
O O4 0.089917 0.000000 0.521987
O O5 0.500000 0.825043 0.500000
O O6 0.346886 0.727087 0.570098
O O7 0.313282 0.000000 0.649274
O O8 0.173856 0.799287 0.911968
O O9 0.495847 0.500000 0.323514
O O10 0.520901 0.250722 0.224140
O O11 0.680015 0.285350 0.149146
O O12 0.688990 0.500000 0.832095
O O13 0.656420 0.233166 0.923532
O O14 0.500000 0.300548 0.000000
O O15 0.620943 0.000000 0.047641
O O16 0.746172 0.000000 0.087182
#
# Coordination Sequence:
#
# PCOD8056993 Si02
#       6
#     4   4   4   4   4   4
#     4   9  18  33  53  76  99 127 166 206 242 285
#     4   8  13  23  38  58  91 131 162 192 234 280
#     4  10  17  24  39  66  98 128 159 197 240 286
#     4  11  24  38  51  72 101 129 159 199 248 299
#     4  10  20  35  54  74  97 128 167 206 243 288
#     4   8  15  27  42  63  94 129 163 199 237 280
#
# _framework density 18.626708000000001
#
# number of rings (size 3 to 8) (size 9 to 14) (size 15 to 20)
#    0.000    2.667    0.000    5.000    0.000    9.667 
#    0.000    0.000    0.000    0.000    0.000    1.167 
#    0.000    9.333    0.000    0.000    0.000    0.000 
#
# Total GULP energy -297408.111021 kJ/mol
# GULP energy per Si atom -12392.004626 kJ/mol
# Density = 1.858431 g / cm^3
# Si number density = 18.626708 Si / 1000 Ang^3
#
#
#
# Elastic Constant Matrix: (Units=GPa)
#
#
# Indices 1 2 3 4 5 6 
#
# 1 56.3943 52.8142 71.4934 0.0000 31.2865 0.0000
# 2 52.8142 126.9154 60.2167 0.0000 23.2897 0.0000
# 3 71.4934 60.2167 76.5096 0.0000 43.9575 0.0000
# 4 0.0000 0.0000 0.0000 20.6261 0.0000 5.1942
# 5 31.2865 23.2897 43.9575 0.0000 35.2395 0.0000
# 6 0.0000 0.0000 0.0000 5.1942 0.0000 20.8388
#
#
#
# Elastic Compliance Matrix: (Units=1/GPa)
#
#
# Indices 1 2 3 4 5 6 
#
# 1 -0.043144 -0.009403 0.078136 0.000000 -0.052948 0.000000
# 2 -0.009403 0.012939 -0.004520 0.000000 0.005435 0.000000
# 3 0.078136 -0.004520 -0.064398 0.000000 0.013945 0.000000
# 4 0.000000 0.000000 0.000000 0.051729 0.000000 -0.012894
# 5 -0.052948 0.005435 0.013945 0.000000 0.054399 0.000000
# 6 0.000000 0.000000 0.000000 -0.012894 0.000000 0.051201
#
#
# Mechanical properties :
#
#
# Convention : Reuss Voigt Hill
#
# Bulk Modulus (GPa) = 29.56412 69.87422 49.71917
# Shear Modulus (GPa) = -91.87142 20.36055 -35.75543
#
# Velocity S-wave (km/s) = -7.03061 3.30977 -4.38605
# Velocity P-wave (km/s) = 7.07104 7.22499 1.04900
#
# Compressibility (1/GPa) = 0.03382479
#
# Stress axis : x y z
#
# Youngs Moduli (GPa) = -23.17844 77.28322 -15.52852
#
# Poissons Ratio (x) = 0.72668 1.21334
# Poissons Ratio (y) = -0.21794 -0.07019
# Poissons Ratio (z) = 1.81107 0.34933
#
# Static dielectric constant tensor:
#      x y z
#    x 3.325240 0.000000 0.697660 
#    y 0.000000 3.369240 0.000000 
#    z 0.697660 0.000000 3.604270 
# 
# 
# High freq. dielectric constant tensor:
#      x y z
#    x 1.691840 0.000000 0.058470 
#    y 0.000000 1.722470 0.000000 
#    z 0.058470 0.000000 1.707880 
# 
# From -- ./inp_files/60179.got.cif
#   From: 2010.06.25/outbox.cif.g09.slc.cpg/sg10_31_cif.got.tgz:60179.got - 2010.06.27 22:07:45.
