data_PCOD8056110
_publ_section_title
;
Structure prediction by ZEFSAII (Michael W. Deem and Ramdas Pophale) SiO2 
 PCOD8056110
Probable space group: C C
;
_chemical_formula_sum "Si O2"
_cell_formula_units_Z 32
_cell_length_a 14.868023
_cell_length_b 11.272338
_cell_length_c 7.313949
_cell_angle_alpha 90.000000
_cell_angle_beta 104.902488
_cell_angle_gamma 90.000000
_cell_volume 1184.568849
_symmetry_space_group_name_H-M "C C"
_symmetry_group_IT_number 9
_symmetry_cell_setting 'monoclinic'
loop_
_space_group_symop_operation_xyz
x,y,z
x,-y,1/2+z
1/2+x,1/2+y,z
1/2+x,1/2-y,1/2+z
loop_
_atom_site_type_symbol
_atom_site_label
_atom_site_fract_x
_atom_site_fract_y
_atom_site_fract_z
Si Si1 0.498550 0.860284 0.283050
Si Si2 0.334733 0.695673 0.127304
Si Si3 0.836992 0.221336 0.692293
Si Si4 0.691393 0.721583 0.812741
Si Si5 0.113000 0.017068 0.566553
Si Si6 0.661637 0.697352 0.277162
Si Si7 0.396150 0.522160 0.478261
Si Si8 0.512698 0.136889 0.215425
O O1 0.402468 0.809768 0.151758
O O2 0.587089 0.802112 0.229633
O O3 0.503797 0.830212 0.498834
O O4 0.504422 0.998768 0.248455
O O5 0.229248 0.734508 0.128030
O O6 0.372546 0.606553 0.300039
O O7 0.347372 0.610260 0.949897
O O8 0.780146 0.273850 0.490712
O O9 0.767072 0.247356 0.835171
O O10 0.863090 0.085650 0.652638
O O11 0.929322 0.297861 0.777644
O O12 0.652284 0.589145 0.764406
O O13 0.612193 0.814458 0.837331
O O14 0.136408 0.095039 0.404628
O O15 0.004926 0.002489 0.545418
O O16 0.155891 0.882050 0.584538
#
# Coordination Sequence:
#
# PCOD8056110 Si02
#       8
#     4   4   4   4   4   4   4   4
#     4  12  26  51  71 110 150 195 240 306 367 448
#     4  11  24  44  74 105 144 185 247 298 363 433
#     4  11  26  47  71 113 147 194 251 297 365 444
#     4  11  24  47  78 102 149 200 238 307 367 433
#     4  12  22  47  74 101 147 194 242 312 361 426
#     4  12  26  44  75 109 146 189 254 299 369 438
#     4  11  21  47  73 100 145 183 240 311 350 424
#     4  12  27  51  74 104 158 194 242 304 370 440
#
# _framework density 27.014047000000001
#
# number of rings (size 3 to 8) (size 9 to 14) (size 15 to 20)
#    0.000    0.500    7.500    0.750    5.250    3.000 
#    2.250    0.000    0.000    0.000    0.000    0.000 
#    0.000    0.000    0.000    0.000    0.000    0.000 
#
# Total GULP energy -198470.162750 kJ/mol
# GULP energy per Si atom -12404.385172 kJ/mol
# Density = 2.695256 g / cm^3
# Si number density = 27.014047 Si / 1000 Ang^3
#
#
#
# Elastic Constant Matrix: (Units=GPa)
#
#
# Indices 1 2 3 4 5 6 
#
# 1 213.7473 72.6542 15.5801 0.0000 15.6167 0.0000
# 2 72.6542 177.9129 -15.9182 0.0000 24.8949 0.0000
# 3 15.5801 -15.9182 47.1786 0.0000 -8.9902 0.0000
# 4 0.0000 0.0000 0.0000 38.0649 0.0000 5.8861
# 5 15.6167 24.8949 -8.9902 0.0000 45.7168 0.0000
# 6 0.0000 0.0000 0.0000 5.8861 0.0000 54.2139
#
#
#
# Elastic Compliance Matrix: (Units=1/GPa)
#
#
# Indices 1 2 3 4 5 6 
#
# 1 0.005828 -0.002476 -0.002995 0.000000 -0.001232 0.000000
# 2 -0.002476 0.007237 0.002773 0.000000 -0.002550 0.000000
# 3 -0.002995 0.002773 0.023924 0.000000 0.004218 0.000000
# 4 0.000000 0.000000 0.000000 0.026720 0.000000 -0.002901
# 5 -0.001232 -0.002550 0.004218 0.000000 0.024512 0.000000
# 6 0.000000 0.000000 0.000000 -0.002901 0.000000 0.018760
#
#
# Mechanical properties :
#
#
# Convention : Reuss Voigt Hill
#
# Bulk Modulus (GPa) = 31.65029 64.83013 48.24021
# Shear Modulus (GPa) = 40.68110 52.03395 46.35752
#
# Velocity S-wave (km/s) = 3.88483 4.39359 4.14702
# Velocity P-wave (km/s) = 5.64484 7.05613 6.38957
#
# Compressibility (1/GPa) = 0.03159529
#
# Stress axis : x y z
#
# Youngs Moduli (GPa) = 171.58000 138.18633 41.79825
#
# Poissons Ratio (x) = 0.34210 0.12517
# Poissons Ratio (y) = 0.42477 -0.11592
# Poissons Ratio (z) = 0.51383 -0.38324
#
# Static dielectric constant tensor:
#      x y z
#    x 5.288180 0.000000 -0.600700 
#    y 0.000000 5.502130 0.000000 
#    z -0.600700 0.000000 5.933750 
# 
# 
# High freq. dielectric constant tensor:
#      x y z
#    x 2.099680 0.000000 -0.023100 
#    y 0.000000 2.116470 0.000000 
#    z -0.023100 0.000000 2.143720 
# 
# From -- ./inp_files/9172.got.cif
#   From: 2010.06.25/outbox.cif.g09.slc.cpg/sg9_5_cif.got.tgz:9172.got - 2010.06.27 21:40:51.
