data_PCOD8056865
_publ_section_title
;
Structure prediction by ZEFSAII (Michael W. Deem and Ramdas Pophale) SiO2 
 PCOD8056865
Probable space group: P 2/M
;
_chemical_formula_sum "Si O2"
_cell_formula_units_Z 24
_cell_length_a 15.021632
_cell_length_b 21.836350
_cell_length_c 12.864843
_cell_angle_alpha 90.000000
_cell_angle_beta 19.598975
_cell_angle_gamma 90.000000
_cell_volume 1415.499319
_symmetry_space_group_name_H-M "P 2/M"
_symmetry_group_IT_number 10
_symmetry_cell_setting 'monoclinic'
loop_
_space_group_symop_operation_xyz
x,y,z
-x,y,-z
-x,-y,-z
x,-y,z
loop_
_atom_site_type_symbol
_atom_site_label
_atom_site_fract_x
_atom_site_fract_y
_atom_site_fract_z
Si Si1 0.502429 0.377852 0.704124
Si Si2 0.809043 0.072277 0.072706
Si Si3 0.044497 0.429582 0.066948
Si Si4 0.290191 0.570491 0.140419
Si Si5 0.309999 0.874334 0.569164
Si Si6 0.290662 0.736183 0.637796
O O1 0.759567 0.421785 0.435810
O O2 0.614684 0.310549 0.555818
O O3 0.348900 0.382836 0.981867
O O4 0.294675 0.395191 0.841992
O O5 0.750730 0.101680 0.248595
O O6 0.604292 0.102157 0.215419
O O7 0.777611 0.000000 0.111888
O O8 0.104672 0.093386 0.715210
O O9 0.127144 0.500000 0.975247
O O10 0.000000 0.403285 0.000000
O O11 0.298528 0.500000 0.091391
O O12 0.000000 0.587345 0.500000
O O13 0.500000 0.581690 0.000000
O O14 0.280047 0.801731 0.593906
O O15 0.500000 0.737757 0.500000
O O16 0.000000 0.717954 0.000000
#
# Coordination Sequence:
#
# PCOD8056865 Si02
#       6
#     4   4   4   4   4   4
#     4  12  23  35  54  76  94 127 164 193 245 303
#     4  10  16  25  41  60  83 118 170 208 225 250
#     4  11  22  36  51  72 101 127 156 196 236 282
#     4  10  21  38  58  76  93 113 148 206 264 306
#     4  10  16  27  38  58  85 122 159 202 221 257
#     4  12  21  34  47  65 101 134 165 194 222 276
#
# _framework density 16.955147
#
# number of rings (size 3 to 8) (size 9 to 14) (size 15 to 20)
#    0.000    1.167    3.333    8.000    0.000    2.667 
#    0.000    0.000    0.000    0.000    0.000    0.000 
#    0.000    0.000    0.000    0.000    0.000   28.333 
#
# Total GULP energy -297490.395819 kJ/mol
# GULP energy per Si atom -12395.433159 kJ/mol
# Density = 1.691656 g / cm^3
# Si number density = 16.955147 Si / 1000 Ang^3
#
#
#
# Elastic Constant Matrix: (Units=GPa)
#
#
# Indices 1 2 3 4 5 6 
#
# 1 58.8376 38.8321 47.6037 0.0000 -19.6976 0.0000
# 2 38.8321 121.5553 52.3952 0.0000 -0.6544 0.0000
# 3 47.6037 52.3952 111.8124 0.0000 -28.1247 0.0000
# 4 0.0000 0.0000 0.0000 18.2561 0.0000 -7.8661
# 5 -19.6976 -0.6544 -28.1247 0.0000 41.6573 0.0000
# 6 0.0000 0.0000 0.0000 -7.8661 0.0000 12.1386
#
#
#
# Elastic Compliance Matrix: (Units=1/GPa)
#
#
# Indices 1 2 3 4 5 6 
#
# 1 0.030480 -0.006369 -0.007700 0.000000 0.009114 0.000000
# 2 -0.006369 0.012146 -0.004444 0.000000 -0.005821 0.000000
# 3 -0.007700 -0.004444 0.016106 0.000000 0.007163 0.000000
# 4 0.000000 0.000000 0.000000 0.075996 0.000000 0.049247
# 5 0.009114 -0.005821 0.007163 0.000000 0.033060 0.000000
# 6 0.000000 0.000000 0.000000 0.049247 0.000000 0.114296
#
#
# Mechanical properties :
#
#
# Convention : Reuss Voigt Hill
#
# Bulk Modulus (GPa) = 46.07037 63.31860 54.69449
# Shear Modulus (GPa) = 15.32123 24.63533 19.97828
#
# Velocity S-wave (km/s) = 3.00931 3.81592 3.43636
# Velocity P-wave (km/s) = 6.26941 7.53929 6.93348
#
# Compressibility (1/GPa) = 0.02170592
#
# Stress axis : x y z
#
# Youngs Moduli (GPa) = 32.80791 82.33393 62.08901
#
# Poissons Ratio (x) = 0.52441 0.47807
# Poissons Ratio (y) = 0.20897 0.27592
# Poissons Ratio (z) = 0.25261 0.36589
#
# Static dielectric constant tensor:
#      x y z
#    x -0.224320 0.000000 3.264270 
#    y 0.000000 3.199980 0.000000 
#    z 3.264270 0.000000 -1.046680 
# 
# 
# High freq. dielectric constant tensor:
#      x y z
#    x 1.619890 0.000000 -0.060140 
#    y 0.000000 1.652630 0.000000 
#    z -0.060140 0.000000 1.652240 
# 
# From -- ./inp_files/52056.got.cif
#   From: 2010.06.25/outbox.cif.g09.slc.cpg/sg10_27_cif.got.tgz:52056.got - 2010.06.27 22:07:45.
