data_PCOD8056710
_publ_section_title
;
Structure prediction by ZEFSAII (Michael W. Deem and Ramdas Pophale) SiO2 
 PCOD8056710
Probable space group: C C
;
_chemical_formula_sum "Si O2"
_cell_formula_units_Z 32
_cell_length_a 11.586796
_cell_length_b 14.459550
_cell_length_c 9.379176
_cell_angle_alpha 90.000000
_cell_angle_beta 118.268140
_cell_angle_gamma 90.000000
_cell_volume 1383.983647
_symmetry_space_group_name_H-M "C C"
_symmetry_group_IT_number 9
_symmetry_cell_setting 'monoclinic'
loop_
_space_group_symop_operation_xyz
x,y,z
x,-y,1/2+z
1/2+x,1/2+y,z
1/2+x,1/2-y,1/2+z
loop_
_atom_site_type_symbol
_atom_site_label
_atom_site_fract_x
_atom_site_fract_y
_atom_site_fract_z
Si Si1 0.122270 0.395583 0.547810
Si Si2 0.777514 0.461860 0.615267
Si Si3 0.047268 0.058271 0.613849
Si Si4 0.715973 0.264500 0.581189
Si Si5 0.439462 0.056375 0.477401
Si Si6 0.025713 0.746290 0.225151
Si Si7 0.929528 0.901897 0.749144
Si Si8 0.047739 0.292107 0.226363
O O1 0.058862 0.324625 0.620500
O O2 0.276655 0.397187 0.634657
O O3 0.073528 0.366285 0.363722
O O4 0.075012 0.499287 0.556309
O O5 0.691449 0.540631 0.636762
O O6 0.686350 0.372728 0.538924
O O7 0.829046 0.497016 0.494213
O O8 0.896406 0.429917 0.788359
O O9 0.070128 0.151298 0.713007
O O10 0.947920 0.070721 0.424320
O O11 0.997331 0.976483 0.686530
O O12 0.613688 0.213693 0.412973
O O13 0.681261 0.233794 0.721661
O O14 0.869145 0.244930 0.650472
O O15 0.451331 0.156207 0.558780
O O16 0.984985 0.800309 0.751810
#
# Coordination Sequence:
#
# PCOD8056710 Si02
#       8
#     4   4   4   4   4   4   4   4
#     4  12  29  49  76 107 154 198 246 314 383 447
#     4  12  25  47  76 104 147 190 256 302 375 440
#     4  12  27  47  75 110 149 197 247 308 375 453
#     4  12  27  48  75 111 150 198 252 312 374 452
#     4  12  27  48  74 109 148 197 247 311 374 451
#     4  12  27  49  78 109 154 199 250 313 379 451
#     4  12  29  49  75 112 151 199 248 311 380 450
#     4  12  29  49  75 112 151 198 254 311 374 454
#
# _framework density 23.121659999999999
#
# number of rings (size 3 to 8) (size 9 to 14) (size 15 to 20)
#    0.000    0.000    5.000    3.750    8.750    0.000 
#    0.000    0.000    0.000    0.000    0.000    0.000 
#    0.000    0.000    0.000    0.000    0.000    0.000 
#
# Total GULP energy -198444.651992 kJ/mol
# GULP energy per Si atom -12402.790749 kJ/mol
# Density = 2.306903 g / cm^3
# Si number density = 23.121660 Si / 1000 Ang^3
#
#
#
# Elastic Constant Matrix: (Units=GPa)
#
#
# Indices 1 2 3 4 5 6 
#
# 1 73.6289 -27.8104 9.7180 0.0000 3.1115 0.0000
# 2 -27.8104 69.2863 5.3793 0.0000 -4.1454 0.0000
# 3 9.7180 5.3793 103.6822 0.0000 1.2436 0.0000
# 4 0.0000 0.0000 0.0000 36.4318 0.0000 4.7256
# 5 3.1115 -4.1454 1.2436 0.0000 41.2721 0.0000
# 6 0.0000 0.0000 0.0000 4.7256 0.0000 21.3684
#
#
#
# Elastic Compliance Matrix: (Units=1/GPa)
#
#
# Indices 1 2 3 4 5 6 
#
# 1 0.016377 0.006689 -0.001876 0.000000 -0.000506 0.000000
# 2 0.006689 0.017314 -0.001541 0.000000 0.001281 0.000000
# 3 -0.001876 -0.001541 0.009904 0.000000 -0.000312 0.000000
# 4 0.000000 0.000000 0.000000 0.028259 0.000000 -0.006249
# 5 -0.000506 0.001281 -0.000312 0.000000 0.024406 0.000000
# 6 0.000000 0.000000 0.000000 -0.006249 0.000000 0.048180
#
#
# Mechanical properties :
#
#
# Convention : Reuss Voigt Hill
#
# Bulk Modulus (GPa) = 19.94419 24.57458 22.25938
# Shear Modulus (GPa) = 32.33964 37.10183 34.72074
#
# Velocity S-wave (km/s) = 3.74394 4.01014 3.87932
# Velocity P-wave (km/s) = 5.22819 5.66507 5.45101
#
# Compressibility (1/GPa) = 0.05013992
#
# Stress axis : x y z
#
# Youngs Moduli (GPa) = 61.06097 57.75702 100.96566
#
# Poissons Ratio (x) = -0.38633 0.18941
# Poissons Ratio (y) = -0.40843 0.15555
# Poissons Ratio (z) = 0.11455 0.08898
#
# Static dielectric constant tensor:
#      x y z
#    x 4.202240 0.000000 -0.157010 
#    y 0.000000 4.400230 0.000000 
#    z -0.157010 0.000000 4.358480 
# 
# 
# High freq. dielectric constant tensor:
#      x y z
#    x 1.920430 0.000000 -0.008800 
#    y 0.000000 1.927740 0.000000 
#    z -0.008800 0.000000 1.930340 
# 
# From -- ./inp_files/7353.got.cif
#   From: 2010.06.25/outbox.cif.g09.slc.cpg/sg9_4_cif.got.tgz:7353.got - 2010.06.27 21:40:51.
