data_PCOD8056310
_publ_section_title
;
Structure prediction by ZEFSAII (Michael W. Deem and Ramdas Pophale) SiO2 
 PCOD8056310
Probable space group: C C
;
_chemical_formula_sum "Si O2"
_cell_formula_units_Z 24
_cell_length_a 15.947793
_cell_length_b 14.898621
_cell_length_c 9.437117
_cell_angle_alpha 90.000000
_cell_angle_beta 31.377949
_cell_angle_gamma 90.000000
_cell_volume 1167.502475
_symmetry_space_group_name_H-M "C C"
_symmetry_group_IT_number 9
_symmetry_cell_setting 'monoclinic'
loop_
_space_group_symop_operation_xyz
x,y,z
x,-y,1/2+z
1/2+x,1/2+y,z
1/2+x,1/2-y,1/2+z
loop_
_atom_site_type_symbol
_atom_site_label
_atom_site_fract_x
_atom_site_fract_y
_atom_site_fract_z
Si Si1 0.540520 0.666486 0.486650
Si Si2 0.667113 0.182976 0.006409
Si Si3 0.976833 0.518873 0.186825
Si Si4 0.046531 0.670886 0.489536
Si Si5 0.247851 0.995217 0.774375
Si Si6 0.188063 0.184880 0.979699
O O1 0.639260 0.730642 0.449200
O O2 0.604146 0.566055 0.423476
O O3 0.351394 0.672461 0.788482
O O4 0.563455 0.690379 0.288741
O O5 0.607492 0.097589 0.003120
O O6 0.565062 0.190731 0.296900
O O7 0.899292 0.500527 0.450903
O O8 0.826267 0.545476 0.303810
O O9 0.075957 0.433199 0.985285
O O10 0.165118 0.732075 0.408351
O O11 0.863675 0.693828 0.795679
O O12 0.171098 0.092787 0.915466
#
# Coordination Sequence:
#
# PCOD8056310 Si02
#       6
#     4   4   4   4   4   4
#     4  12  26  42  69 102 132 176 224 275 334 394
#     4  12  26  42  69 102 132 176 224 275 334 394
#     4  11  23  46  70  94 136 179 220 272 335 395
#     4  11  24  43  66  96 133 174 218 272 334 390
#     4  11  23  46  70  94 136 179 220 272 335 395
#     4  11  24  43  66  96 133 174 218 272 334 390
#
# _framework density 20.556702999999999
#
# number of rings (size 3 to 8) (size 9 to 14) (size 15 to 20)
#    0.000    0.667    6.667    3.000    4.667    2.667 
#    0.000    0.000    0.000    0.000    0.000    0.000 
#    0.000    0.000    0.000    0.000    0.000    0.000 
#
# Total GULP energy -148856.410126 kJ/mol
# GULP energy per Si atom -12404.700844 kJ/mol
# Density = 2.050991 g / cm^3
# Si number density = 20.556703 Si / 1000 Ang^3
#
#
#
# Elastic Constant Matrix: (Units=GPa)
#
#
# Indices 1 2 3 4 5 6 
#
# 1 68.0751 34.6639 9.9862 -0.0003 1.9301 0.0003
# 2 34.6639 93.0012 25.1381 -0.0002 1.2839 0.0003
# 3 9.9862 25.1381 71.8463 -0.0004 7.0844 0.0004
# 4 -0.0003 -0.0002 -0.0004 29.9812 0.0002 -0.2297
# 5 1.9301 1.2839 7.0844 0.0002 48.6382 -0.0003
# 6 0.0003 0.0003 0.0004 -0.2297 -0.0003 41.9719
#
#
#
# Elastic Compliance Matrix: (Units=1/GPa)
#
#
# Indices 1 2 3 4 5 6 
#
# 1 0.018146 -0.006724 -0.000118 0.000000 -0.000525 0.000000
# 2 -0.006724 0.014372 -0.004142 0.000000 0.000491 0.000000
# 3 -0.000118 -0.004142 0.015597 0.000000 -0.002158 0.000000
# 4 0.000000 0.000000 0.000000 0.033356 0.000000 0.000183
# 5 -0.000525 0.000491 -0.002158 0.000000 0.020882 0.000000
# 6 0.000000 0.000000 0.000000 0.000183 0.000000 0.023826
#
#
# Mechanical properties :
#
#
# Convention : Reuss Voigt Hill
#
# Bulk Modulus (GPa) = 38.24642 41.38879 39.81761
# Shear Modulus (GPa) = 31.87500 34.99389 33.43444
#
# Velocity S-wave (km/s) = 3.94202 4.13038 4.03730
# Velocity P-wave (km/s) = 6.27416 6.55167 6.41442
#
# Compressibility (1/GPa) = 0.02614624
#
# Stress axis : x y z
#
# Youngs Moduli (GPa) = 55.10896 69.58085 64.11475
#
# Poissons Ratio (x) = 0.46789 0.00754
# Poissons Ratio (y) = 0.37057 0.26558
# Poissons Ratio (z) = 0.00648 0.28822
#
# Static dielectric constant tensor:
#      x y z
#    x 3.673380 0.000000 0.154180 
#    y 0.000000 3.844760 0.000000 
#    z 0.154180 0.000000 3.633020 
# 
# 
# High freq. dielectric constant tensor:
#      x y z
#    x 1.811550 0.000000 0.012680 
#    y 0.000000 1.809750 0.000000 
#    z 0.012680 0.000000 1.803350 
# 
# From -- ./inp_files/5192.got.cif
#   From: 2010.06.25/outbox.cif.g09.slc.cpg/sg9_3_cif.got.tgz:5192.got - 2010.06.27 21:40:51.
