data_PCOD8056818
_publ_section_title
;
Structure prediction by ZEFSAII (Michael W. Deem and Ramdas Pophale) SiO2 
 PCOD8056818
Probable space group: P 2/M
;
_chemical_formula_sum "Si O2"
_cell_formula_units_Z 30
_cell_length_a 14.851351
_cell_length_b 9.216346
_cell_length_c 12.445689
_cell_angle_alpha 90.000000
_cell_angle_beta 106.417823
_cell_angle_gamma 90.000000
_cell_volume 1634.047454
_symmetry_space_group_name_H-M "P 2/M"
_symmetry_group_IT_number 10
_symmetry_cell_setting 'monoclinic'
loop_
_space_group_symop_operation_xyz
x,y,z
-x,y,-z
-x,-y,-z
x,-y,z
loop_
_atom_site_type_symbol
_atom_site_label
_atom_site_fract_x
_atom_site_fract_y
_atom_site_fract_z
Si Si1 0.020204 0.156253 0.247664
Si Si2 0.812207 0.832459 0.220598
Si Si3 0.488181 0.670232 0.620360
Si Si4 0.803959 0.171147 0.977538
Si Si5 0.333970 0.828887 0.256644
Si Si6 0.801828 0.669129 0.631296
Si Si7 0.000000 0.202113 0.000000
Si Si8 0.282732 0.667448 0.621154
O O1 0.095637 0.278839 0.298941
O O2 0.921913 0.211495 0.263972
O O3 0.049416 0.000000 0.308514
O O4 0.008307 0.121110 0.117037
O O5 0.751313 0.746142 0.284406
O O6 0.800220 0.000000 0.243892
O O7 0.772243 0.796895 0.088341
O O8 0.500000 0.710414 0.500000
O O9 0.504671 0.500000 0.644679
O O10 0.562958 0.760098 0.715432
O O11 0.385982 0.722344 0.623636
O O12 0.717626 0.209974 0.872034
O O13 0.895277 0.273878 0.976303
O O14 0.833369 0.000000 0.973854
O O15 0.278142 0.758622 0.335953
O O16 0.340483 0.000000 0.277881
O O17 0.790019 0.500000 0.655812
O O18 0.789405 0.696629 0.500395
O O19 0.287193 0.500000 0.651359
#
# Coordination Sequence:
#
# PCOD8056818 Si02
#       8
#     4   4   4   4   4   4   2   4
#     4  10  19  33  55  83 111 148 188 227 273 323
#     4   9  20  37  58  81 110 148 188 227 270 323
#     4  10  20  39  60  79 109 147 182 224 282 337
#     4   9  17  31  54  82 112 145 177 220 278 325
#     4  11  21  34  57  89 115 138 179 233 281 329
#     4  11  22  36  54  80 115 151 183 225 279 330
#     4  10  15  28  55  80 109 146 181 220 271 324
#     4  10  22  40  59  76 106 151 188 222 275 335
#
# _framework density 18.35932
#
# number of rings (size 3 to 8) (size 9 to 14) (size 15 to 20)
#    0.000    2.000    2.667    2.800    0.000    2.933 
#    0.000    5.000    0.000    4.000    0.000    0.000 
#    0.000    0.000    0.000    0.000    0.000    0.000 
#
# Total GULP energy -371673.757591 kJ/mol
# GULP energy per Si atom -12389.125253 kJ/mol
# Density = 1.831753 g / cm^3
# Si number density = 18.359320 Si / 1000 Ang^3
#
#
#
# Elastic Constant Matrix: (Units=GPa)
#
#
# Indices 1 2 3 4 5 6 
#
# 1 137.4527 49.5430 73.0238 0.0000 -3.8810 0.0000
# 2 49.5430 59.5769 45.0598 0.0000 4.7173 0.0000
# 3 73.0238 45.0598 106.7532 0.0000 4.3680 0.0000
# 4 0.0000 0.0000 0.0000 3005.7443 0.0000-1472.1518
# 5 -3.8810 4.7173 4.3680 0.0000 37.9320 0.0000
# 6 0.0000 0.0000 0.0000-1472.1518 0.0000 756.5620
#
#
#
# Elastic Compliance Matrix: (Units=1/GPa)
#
#
# Indices 1 2 3 4 5 6 
#
# 1 0.012975 -0.006189 -0.006379 0.000000 0.002832 0.000000
# 2 -0.006189 0.027743 -0.007344 0.000000 -0.003238 0.000000
# 3 -0.006379 -0.007344 0.016899 0.000000 -0.001685 0.000000
# 4 0.000000 0.000000 0.000000 0.007084 0.000000 0.013784
# 5 0.002832 -0.003238 -0.001685 0.000000 0.027249 0.000000
# 6 0.000000 0.000000 0.000000 0.013784 0.000000 0.028143
#
#
# Mechanical properties :
#
#
# Convention : Reuss Voigt Hill
#
# Bulk Modulus (GPa) = 56.20107 71.00400 63.60254
# Shear Modulus (GPa) = 30.14802 769.12475 399.63639
#
# Velocity S-wave (km/s) = 4.05669 20.48995 14.76982
# Velocity P-wave (km/s) = 7.25400 24.46514 18.04388
#
# Compressibility (1/GPa) = 0.01779326
#
# Stress axis : x y z
#
# Youngs Moduli (GPa) = 77.07201 36.04560 59.17367
#
# Poissons Ratio (x) = 0.22310 0.37745
# Poissons Ratio (y) = 0.47703 0.43455
# Poissons Ratio (z) = 0.49162 0.26471
#
# Static dielectric constant tensor:
#      x y z
#    x 3.488790 0.000000 0.125920 
#    y 0.000000 3.136570 0.000000 
#    z 0.125920 0.000000 3.404250 
# 
# 
# High freq. dielectric constant tensor:
#      x y z
#    x 1.713390 0.000000 0.007630 
#    y 0.000000 1.686650 0.000000 
#    z 0.007630 0.000000 1.714120 
# 
# From -- ./inp_files/50006.got.cif
#   From: 2010.06.25/outbox.cif.g09.slc.cpg/sg10_26_cif.got.tgz:50006.got - 2010.06.27 22:07:45.
