data_PCOD8056466
_publ_section_title
;
Structure prediction by ZEFSAII (Michael W. Deem and Ramdas Pophale) SiO2 
 PCOD8056466
Probable space group: C C
;
_chemical_formula_sum "Si O2"
_cell_formula_units_Z 32
_cell_length_a 15.712059
_cell_length_b 11.682013
_cell_length_c 8.490877
_cell_angle_alpha 90.000000
_cell_angle_beta 66.188242
_cell_angle_gamma 90.000000
_cell_volume 1425.824153
_symmetry_space_group_name_H-M "C C"
_symmetry_group_IT_number 9
_symmetry_cell_setting 'monoclinic'
loop_
_space_group_symop_operation_xyz
x,y,z
x,-y,1/2+z
1/2+x,1/2+y,z
1/2+x,1/2-y,1/2+z
loop_
_atom_site_type_symbol
_atom_site_label
_atom_site_fract_x
_atom_site_fract_y
_atom_site_fract_z
Si Si1 0.851270 0.741412 0.737910
Si Si2 0.481630 0.647244 0.673752
Si Si3 0.511133 0.405084 0.510407
Si Si4 0.926939 0.505549 0.749637
Si Si5 0.652198 0.239703 0.510409
Si Si6 0.629099 0.206645 0.892956
Si Si7 0.062060 0.470918 0.905230
Si Si8 0.314813 0.788173 0.902649
O O1 0.889449 0.633599 0.809110
O O2 0.815585 0.716045 0.589719
O O3 0.931386 0.836734 0.666328
O O4 0.761491 0.782414 0.903724
O O5 0.491311 0.538137 0.553521
O O6 0.536704 0.750495 0.550133
O O7 0.376117 0.690931 0.771328
O O8 0.515854 0.616588 0.821581
O O9 0.613612 0.365500 0.492251
O O10 0.845899 0.415260 0.834936
O O11 0.030494 0.475258 0.746002
O O12 0.956444 0.504817 0.544866
O O13 0.626416 0.231144 0.710921
O O14 0.596550 0.151591 0.438935
O O15 0.711545 0.269923 0.919875
O O16 0.636125 0.068445 0.898530
#
# Coordination Sequence:
#
# PCOD8056466 Si02
#       8
#     4   4   4   4   4   4   4   4
#     4  11  26  45  70 102 140 181 230 288 347 416
#     4  11  25  46  70  96 140 182 226 286 346 415
#     4  11  24  47  68  97 139 183 226 284 349 407
#     4  12  23  47  75  99 135 184 233 292 346 408
#     4  12  27  44  70 104 139 182 232 286 347 416
#     4  12  27  43  71 105 137 182 233 285 348 415
#     4  12  24  46  74 101 135 181 236 289 348 411
#     4  11  26  44  70 104 137 181 232 286 349 412
#
# _framework density 22.443159000000001
#
# number of rings (size 3 to 8) (size 9 to 14) (size 15 to 20)
#    0.000    0.500    5.000    2.250    7.000    2.000 
#    0.000    0.000    0.000    0.000    0.000    0.000 
#    0.000    0.000    0.000    0.000    0.000    0.000 
#
# Total GULP energy -198322.701420 kJ/mol
# GULP energy per Si atom -12395.168839 kJ/mol
# Density = 2.239208 g / cm^3
# Si number density = 22.443159 Si / 1000 Ang^3
#
#
#
# Elastic Constant Matrix: (Units=GPa)
#
#
# Indices 1 2 3 4 5 6 
#
# 1 77.6764 10.9934 6.8809 0.0000 1.4707 0.0000
# 2 10.9934 97.9383 9.9649 0.0000 6.3843 0.0000
# 3 6.8809 9.9649 91.4761 0.0000 -9.7178 0.0000
# 4 0.0000 0.0000 0.0000 37.8529 0.0000 -1.4183
# 5 1.4707 6.3843 -9.7178 0.0000 30.1960 0.0000
# 6 0.0000 0.0000 0.0000 -1.4183 0.0000 40.2256
#
#
#
# Elastic Compliance Matrix: (Units=1/GPa)
#
#
# Indices 1 2 3 4 5 6 
#
# 1 0.013157 -0.001342 -0.000913 0.000000 -0.000651 0.000000
# 2 -0.001342 0.010668 -0.001340 0.000000 -0.002621 0.000000
# 3 -0.000913 -0.001340 0.011577 0.000000 0.004053 0.000000
# 4 0.000000 0.000000 0.000000 0.026453 0.000000 0.000933
# 5 -0.000651 -0.002621 0.004053 0.000000 0.035007 0.000000
# 6 0.000000 0.000000 0.000000 0.000933 0.000000 0.024893
#
#
# Mechanical properties :
#
#
# Convention : Reuss Voigt Hill
#
# Bulk Modulus (GPa) = 35.44292 35.86325 35.65309
# Shear Modulus (GPa) = 36.14073 37.60501 36.87287
#
# Velocity S-wave (km/s) = 4.01724 4.09781 4.05772
# Velocity P-wave (km/s) = 6.11099 6.19707 6.15418
#
# Compressibility (1/GPa) = 0.02821438
#
# Stress axis : x y z
#
# Youngs Moduli (GPa) = 76.00542 93.73570 86.37792
#
# Poissons Ratio (x) = 0.12575 0.07884
# Poissons Ratio (y) = 0.10196 0.11572
# Poissons Ratio (z) = 0.06937 0.12558
#
# Static dielectric constant tensor:
#      x y z
#    x 3.908230 0.000000 -0.024620 
#    y 0.000000 4.134090 0.000000 
#    z -0.024620 0.000000 4.230580 
# 
# 
# High freq. dielectric constant tensor:
#      x y z
#    x 1.873700 0.000000 0.003650 
#    y 0.000000 1.887780 0.000000 
#    z 0.003650 0.000000 1.907670 
# 
# From -- ./inp_files/9111.got.cif
#   From: 2010.06.25/outbox.cif.g09.slc.cpg/sg9_5_cif.got.tgz:9111.got - 2010.06.27 21:40:51.
