data_PCOD8056570
_publ_section_title
;
Structure prediction by ZEFSAII (Michael W. Deem and Ramdas Pophale) SiO2 
 PCOD8056570
Probable space group: C C
;
_chemical_formula_sum "Si O2"
_cell_formula_units_Z 28
_cell_length_a 19.948631
_cell_length_b 5.119363
_cell_length_c 10.417642
_cell_angle_alpha 90.000000
_cell_angle_beta 66.605249
_cell_angle_gamma 90.000000
_cell_volume 976.432550
_symmetry_space_group_name_H-M "C C"
_symmetry_group_IT_number 9
_symmetry_cell_setting 'monoclinic'
loop_
_space_group_symop_operation_xyz
x,y,z
x,-y,1/2+z
1/2+x,1/2+y,z
1/2+x,1/2-y,1/2+z
loop_
_atom_site_type_symbol
_atom_site_label
_atom_site_fract_x
_atom_site_fract_y
_atom_site_fract_z
Si Si1 0.409140 0.343924 0.230330
Si Si2 0.219260 0.266872 0.737023
Si Si3 0.588069 0.467533 0.735247
Si Si4 0.481093 0.719426 0.998109
Si Si5 0.847871 0.462032 0.557459
Si Si6 0.270549 0.571279 0.457860
Si Si7 0.048602 0.452633 0.631237
O O1 0.458222 0.599590 0.155466
O O2 0.374976 0.287925 0.116129
O O3 0.342129 0.390584 0.379459
O O4 0.463143 0.109919 0.235231
O O5 0.157743 0.042624 0.769182
O O6 0.222421 0.462149 0.612543
O O7 0.296803 0.125869 0.691368
O O8 0.214352 0.413793 0.879443
O O9 0.590445 0.675117 0.613266
O O10 0.587919 0.165943 0.693636
O O11 0.514195 0.511845 0.873898
O O12 0.415999 0.854609 0.969153
O O13 0.544157 0.935064 0.988707
O O14 0.801699 0.360528 0.469508
#
# Coordination Sequence:
#
# PCOD8056570 Si02
#       7
#     4   4   4   4   4   4   4
#     4  11  25  49  82 123 162 215 286 363 433 509
#     4  12  31  51  81 120 176 233 288 360 438 540
#     4  12  31  49  80 118 167 228 278 346 436 518
#     4  11  26  48  80 122 160 214 278 359 425 517
#     4  11  26  47  81 123 164 216 292 359 430 518
#     4  12  27  52  82 128 172 231 291 367 444 528
#     4  11  28  50  78 118 159 215 275 350 422 514
#
# _framework density 28.675819000000001
#
# number of rings (size 3 to 8) (size 9 to 14) (size 15 to 20)
#    0.000    0.571    4.286    0.000   16.000    0.000 
#    0.000    0.000    0.000    0.000    0.000    0.000 
#    0.000    0.000    0.000    0.000    0.000    0.000 
#
# Total GULP energy -173495.018755 kJ/mol
# GULP energy per Si atom -12392.501340 kJ/mol
# Density = 2.861055 g / cm^3
# Si number density = 28.675819 Si / 1000 Ang^3
#
#
#
# Elastic Constant Matrix: (Units=GPa)
#
#
# Indices 1 2 3 4 5 6 
#
# 1 115.5829 30.5790 19.9422 0.0000 23.1489 0.0000
# 2 30.5790 105.8716 28.2929 0.0000 12.7492 0.0000
# 3 19.9422 28.2929 85.3906 0.0000 21.8670 0.0000
# 4 0.0000 0.0000 0.0000 34.2321 0.0000 5.3418
# 5 23.1489 12.7492 21.8670 0.0000 32.3203 0.0000
# 6 0.0000 0.0000 0.0000 5.3418 0.0000 67.1572
#
#
#
# Elastic Compliance Matrix: (Units=1/GPa)
#
#
# Indices 1 2 3 4 5 6 
#
# 1 0.010589 -0.002249 -0.000015 0.000000 -0.006686 0.000000
# 2 -0.002249 0.010964 -0.002918 0.000000 -0.000740 0.000000
# 3 -0.000015 -0.002918 0.014979 0.000000 -0.008972 0.000000
# 4 0.000000 0.000000 0.000000 0.029580 0.000000 -0.002353
# 5 -0.006686 -0.000740 -0.008972 0.000000 0.042091 0.000000
# 6 0.000000 0.000000 0.000000 -0.002353 0.000000 0.015078
#
#
# Mechanical properties :
#
#
# Convention : Reuss Voigt Hill
#
# Bulk Modulus (GPa) = 38.21686 51.60815 44.91251
# Shear Modulus (GPa) = 35.12045 41.94397 38.53221
#
# Velocity S-wave (km/s) = 3.50343 3.82867 3.66965
# Velocity P-wave (km/s) = 5.45174 6.13034 5.80097
#
# Compressibility (1/GPa) = 0.02616646
#
# Stress axis : x y z
#
# Youngs Moduli (GPa) = 94.44113 91.20851 66.76028
#
# Poissons Ratio (x) = 0.20513 0.00103
# Poissons Ratio (y) = 0.21240 0.19481
# Poissons Ratio (z) = 0.00146 0.26615
#
# Static dielectric constant tensor:
#      x y z
#    x 5.489790 0.000000 0.116920 
#    y 0.000000 5.148130 0.000000 
#    z 0.116920 0.000000 4.911270 
# 
# 
# High freq. dielectric constant tensor:
#      x y z
#    x 2.183800 0.000000 0.010920 
#    y 0.000000 2.160930 0.000000 
#    z 0.010920 0.000000 2.143610 
# 
# From -- ./inp_files/19762.got.cif
#   From: 2010.06.25/outbox.cif.g09.slc.cpg/sg9_10_cif.got.tgz:19762.got - 2010.06.27 21:40:51.
