data_PCOD8056608
_publ_section_title
;
Structure prediction by ZEFSAII (Michael W. Deem and Ramdas Pophale) SiO2 
 PCOD8056608
Probable space group: C C
;
_chemical_formula_sum "Si O2"
_cell_formula_units_Z 28
_cell_length_a 19.424997
_cell_length_b 7.721245
_cell_length_c 9.580710
_cell_angle_alpha 90.000000
_cell_angle_beta 52.016771
_cell_angle_gamma 90.000000
_cell_volume 1132.602252
_symmetry_space_group_name_H-M "C C"
_symmetry_group_IT_number 9
_symmetry_cell_setting 'monoclinic'
loop_
_space_group_symop_operation_xyz
x,y,z
x,-y,1/2+z
1/2+x,1/2+y,z
1/2+x,1/2-y,1/2+z
loop_
_atom_site_type_symbol
_atom_site_label
_atom_site_fract_x
_atom_site_fract_y
_atom_site_fract_z
Si Si1 0.564230 0.155844 0.388160
Si Si2 0.867693 0.087515 0.467517
Si Si3 0.920009 0.213815 0.701998
Si Si4 0.182315 0.828198 0.453363
Si Si5 0.604498 0.312581 0.057065
Si Si6 0.178125 0.640121 0.728896
Si Si7 0.376547 0.107056 0.745263
O O1 0.630190 0.177486 0.437361
O O2 0.590328 0.297000 0.239632
O O3 0.460447 0.154370 0.545144
O O4 0.593252 0.971059 0.290817
O O5 0.895759 0.111658 0.592328
O O6 0.766388 0.034216 0.590484
O O7 0.886222 0.273128 0.370373
O O8 0.912516 0.922120 0.339956
O O9 0.872139 0.400026 0.785912
O O10 0.022013 0.257294 0.571927
O O11 0.178253 0.803870 0.624868
O O12 0.285116 0.845983 0.280588
O O13 0.124344 0.992837 0.491093
O O14 0.681040 0.199086 0.888710
#
# Coordination Sequence:
#
# PCOD8056608 Si02
#       7
#     4   4   4   4   4   4   4
#     4  12  27  47  80 109 152 201 257 321 393 467
#     4  11  30  49  78 115 156 208 270 326 388 476
#     4  12  29  48  82 114 160 210 267 322 399 466
#     4  11  27  50  78 110 154 202 261 319 387 470
#     4  12  27  46  73 111 152 200 258 322 384 462
#     4  11  26  49  72 109 151 199 253 321 390 460
#     4  11  28  53  81 114 159 208 262 323 401 473
#
# _framework density 24.721831000000002
#
# number of rings (size 3 to 8) (size 9 to 14) (size 15 to 20)
#    0.000    0.571    1.429    3.429   18.000    1.143 
#    0.000    0.000    0.000    0.000    0.000    0.000 
#    0.000    0.000    0.000    0.000    0.000    0.000 
#
# Total GULP energy -173495.396168 kJ/mol
# GULP energy per Si atom -12392.528298 kJ/mol
# Density = 2.466556 g / cm^3
# Si number density = 24.721831 Si / 1000 Ang^3
#
#
#
# Elastic Constant Matrix: (Units=GPa)
#
#
# Indices 1 2 3 4 5 6 
#
# 1 98.1303 23.1811 48.8629 0.0000 -5.0337 0.0000
# 2 23.1811 112.0003 41.2138 0.0000 -4.8706 0.0000
# 3 48.8629 41.2138 139.9050 0.0000 -11.8675 0.0000
# 4 0.0000 0.0000 0.0000 34.2552 0.0000 -7.1117
# 5 -5.0337 -4.8706 -11.8675 0.0000 33.5055 0.0000
# 6 0.0000 0.0000 0.0000 -7.1117 0.0000 38.0083
#
#
#
# Elastic Compliance Matrix: (Units=1/GPa)
#
#
# Indices 1 2 3 4 5 6 
#
# 1 0.012457 -0.001092 -0.004004 0.000000 0.000295 0.000000
# 2 -0.001092 0.010116 -0.002565 0.000000 0.000398 0.000000
# 3 -0.004004 -0.002565 0.009505 0.000000 0.002392 0.000000
# 4 0.000000 0.000000 0.000000 0.030372 0.000000 0.005683
# 5 0.000295 0.000398 0.002392 0.000000 0.030795 0.000000
# 6 0.000000 0.000000 0.000000 0.005683 0.000000 0.027373
#
#
# Mechanical properties :
#
#
# Convention : Reuss Voigt Hill
#
# Bulk Modulus (GPa) = 59.68099 64.06126 61.87112
# Shear Modulus (GPa) = 35.32919 36.93899 36.13409
#
# Velocity S-wave (km/s) = 3.78440 3.86966 3.82727
# Velocity P-wave (km/s) = 6.57944 6.77752 6.67921
#
# Compressibility (1/GPa) = 0.01675575
#
# Stress axis : x y z
#
# Youngs Moduli (GPa) = 80.27323 98.85659 105.21184
#
# Poissons Ratio (x) = 0.10796 0.42129
# Poissons Ratio (y) = 0.08767 0.26984
# Poissons Ratio (z) = 0.32143 0.25354
#
# Static dielectric constant tensor:
#      x y z
#    x 4.412290 0.000000 -0.196470 
#    y 0.000000 4.335220 0.000000 
#    z -0.196470 0.000000 4.540060 
# 
# 
# High freq. dielectric constant tensor:
#      x y z
#    x 1.980590 0.000000 -0.014010 
#    y 0.000000 1.991570 0.000000 
#    z -0.014010 0.000000 1.994010 
# 
# From -- ./inp_files/11403.got.cif
#   From: 2010.06.25/outbox.cif.g09.slc.cpg/sg9_6_cif.got.tgz:11403.got - 2010.06.27 21:40:51.
