data_PCOD8056594
_publ_section_title
;
Structure prediction by ZEFSAII (Michael W. Deem and Ramdas Pophale) SiO2 
 PCOD8056594
Probable space group: C C
;
_chemical_formula_sum "Si O2"
_cell_formula_units_Z 28
_cell_length_a 9.636060
_cell_length_b 13.178767
_cell_length_c 9.388946
_cell_angle_alpha 90.000000
_cell_angle_beta 59.790989
_cell_angle_gamma 90.000000
_cell_volume 1030.393731
_symmetry_space_group_name_H-M "C C"
_symmetry_group_IT_number 9
_symmetry_cell_setting 'monoclinic'
loop_
_space_group_symop_operation_xyz
x,y,z
x,-y,1/2+z
1/2+x,1/2+y,z
1/2+x,1/2-y,1/2+z
loop_
_atom_site_type_symbol
_atom_site_label
_atom_site_fract_x
_atom_site_fract_y
_atom_site_fract_z
Si Si1 0.983070 0.253270 0.818220
Si Si2 0.873744 0.957441 0.851239
Si Si3 0.216931 0.985664 0.053587
Si Si4 0.015710 0.827297 0.008282
Si Si5 0.678345 0.943667 0.678643
Si Si6 0.988314 0.638545 0.843241
Si Si7 0.321962 0.813931 0.166877
O O1 0.932552 0.188124 0.706176
O O2 0.024796 0.369351 0.748051
O O3 0.142682 0.208660 0.810128
O O4 0.848923 0.244390 0.010700
O O5 0.788902 0.909164 0.755960
O O6 0.884172 0.873858 0.971045
O O7 0.051094 0.988235 0.715384
O O8 0.776290 0.050192 0.977978
O O9 0.333400 0.931107 0.108175
O O10 0.171055 0.902644 0.950375
O O11 0.311853 0.086586 0.958666
O O12 0.057548 0.715272 0.926399
O O13 0.621610 0.055765 0.747889
O O14 0.957597 0.704244 0.715215
#
# Coordination Sequence:
#
# PCOD8056594 Si02
#       7
#     4   4   4   4   4   4   4
#     4  11  26  46  74 110 157 197 263 324 402 473
#     4  12  26  48  76 113 157 206 259 327 409 478
#     4  11  26  51  78 113 161 209 263 336 406 489
#     4  11  27  50  78 116 152 212 271 324 407 488
#     4  12  26  47  76 111 159 202 257 331 403 479
#     4  12  27  49  83 112 156 209 270 330 402 494
#     4  11  26  47  77 113 152 205 259 334 401 485
#
# _framework density 27.174077
#
# number of rings (size 3 to 8) (size 9 to 14) (size 15 to 20)
#    0.000    0.571    2.857    3.429    6.000    6.857 
#    0.000    0.000    0.000    0.000    0.000    0.000 
#    0.000    0.000    0.000    0.000    0.000    0.000 
#
# Total GULP energy -173521.451419 kJ/mol
# GULP energy per Si atom -12394.389387 kJ/mol
# Density = 2.711223 g / cm^3
# Si number density = 27.174077 Si / 1000 Ang^3
#
#
#
# Elastic Constant Matrix: (Units=GPa)
#
#
# Indices 1 2 3 4 5 6 
#
# 1 63.4113 1.0366 33.0396 0.0000 8.9043 0.0000
# 2 1.0366 82.4902 3.3256 0.0000 4.7058 0.0000
# 3 33.0396 3.3256 103.9688 0.0000 2.2541 0.0000
# 4 0.0000 0.0000 0.0000 31.9761 0.0000 16.5798
# 5 8.9043 4.7058 2.2541 0.0000 46.9378 0.0000
# 6 0.0000 0.0000 0.0000 16.5798 0.0000 55.6371
#
#
#
# Elastic Compliance Matrix: (Units=1/GPa)
#
#
# Indices 1 2 3 4 5 6 
#
# 1 0.019427 0.000197 -0.006106 0.000000 -0.003412 0.000000
# 2 0.000197 0.012208 -0.000426 0.000000 -0.001241 0.000000
# 3 -0.006106 -0.000426 0.011558 0.000000 0.000646 0.000000
# 4 0.000000 0.000000 0.000000 0.036989 0.000000 -0.011023
# 5 -0.003412 -0.001241 0.000646 0.000000 0.022045 0.000000
# 6 0.000000 0.000000 0.000000 -0.011023 0.000000 0.021258
#
#
# Mechanical properties :
#
#
# Convention : Reuss Voigt Hill
#
# Bulk Modulus (GPa) = 32.76225 36.07487 34.41856
# Shear Modulus (GPa) = 34.16900 41.07478 37.62189
#
# Velocity S-wave (km/s) = 3.54985 3.89207 3.72489
# Velocity P-wave (km/s) = 5.37443 5.78809 5.58509
#
# Compressibility (1/GPa) = 0.03052294
#
# Stress axis : x y z
#
# Youngs Moduli (GPa) = 51.47363 81.91258 86.51799
#
# Poissons Ratio (x) = -0.01611 0.52828
# Poissons Ratio (y) = -0.01012 0.03686
# Poissons Ratio (z) = 0.31430 0.03490
#
# Static dielectric constant tensor:
#      x y z
#    x 4.671540 0.000000 0.267070 
#    y 0.000000 5.210620 0.000000 
#    z 0.267070 0.000000 5.028920 
# 
# 
# High freq. dielectric constant tensor:
#      x y z
#    x 2.084290 0.000000 0.007540 
#    y 0.000000 2.106610 0.000000 
#    z 0.007540 0.000000 2.093040 
# 
# From -- ./inp_files/7532.got.cif
#   From: 2010.06.25/outbox.cif.g09.slc.cpg/sg9_4_cif.got.tgz:7532.got - 2010.06.27 21:40:51.
