data_PCOD8056533
_publ_section_title
;
Structure prediction by ZEFSAII (Michael W. Deem and Ramdas Pophale) SiO2 
 PCOD8056533
Probable space group: C C
;
_chemical_formula_sum "Si O2"
_cell_formula_units_Z 20
_cell_length_a 13.167221
_cell_length_b 6.461206
_cell_length_c 9.916281
_cell_angle_alpha 90.000000
_cell_angle_beta 108.221967
_cell_angle_gamma 90.000000
_cell_volume 801.332184
_symmetry_space_group_name_H-M "C C"
_symmetry_group_IT_number 9
_symmetry_cell_setting 'monoclinic'
loop_
_space_group_symop_operation_xyz
x,y,z
x,-y,1/2+z
1/2+x,1/2+y,z
1/2+x,1/2-y,1/2+z
loop_
_atom_site_type_symbol
_atom_site_label
_atom_site_fract_x
_atom_site_fract_y
_atom_site_fract_z
Si Si1 0.250000 0.805938 0.126200
Si Si2 0.571437 0.032977 0.978588
Si Si3 0.928563 0.967023 0.773811
Si Si4 0.562993 0.418425 0.573900
Si Si5 0.937006 0.581577 0.178500
O O1 0.182435 0.656981 0.997666
O O2 0.317565 0.656982 0.254734
O O3 0.333354 0.955268 0.081963
O O4 0.166647 0.955269 0.170437
O O5 0.598791 0.793494 0.017406
O O6 0.515216 0.131162 0.087690
O O7 0.496550 0.058832 0.816818
O O8 0.901209 0.206506 0.734995
O O9 0.984782 0.868840 0.664709
O O10 0.003451 0.941166 0.935581
#
# Coordination Sequence:
#
# PCOD8056533 Si02
#       5
#     4   4   4   4   4
#     4  12  24  44  74  96 134 184 216 274 344 384
#     4  11  25  47  68 100 138 173 225 278 327 400
#     4  11  25  47  68 100 138 173 225 278 327 400
#     4  11  25  47  68 100 138 173 225 278 327 400
#     4  11  25  47  68 100 138 173 225 278 327 400
#
# _framework density 24.958441000000001
#
# number of rings (size 3 to 8) (size 9 to 14) (size 15 to 20)
#    0.000    0.800    4.000    2.400    0.000    3.200 
#    0.000    0.000    0.000    0.000    0.000    0.000 
#    0.000    0.000    0.000    0.000    0.000    0.000 
#
# Total GULP energy -124004.299616 kJ/mol
# GULP energy per Si atom -12400.429962 kJ/mol
# Density = 2.490163 g / cm^3
# Si number density = 24.958441 Si / 1000 Ang^3
#
#
#
# Elastic Constant Matrix: (Units=GPa)
#
#
# Indices 1 2 3 4 5 6 
#
# 1 110.1273 62.9402 72.5990 0.0000 30.4028 0.0000
# 2 62.9402 100.3868 55.3013 0.0000 33.1905 0.0000
# 3 72.5990 55.3013 124.7700 0.0000 9.2155 0.0000
# 4 0.0000 0.0000 0.0000 53.7788 0.0000 15.1671
# 5 30.4028 33.1905 9.2155 0.0000 46.7196 0.0000
# 6 0.0000 0.0000 0.0000 15.1671 0.0000 45.0605
#
#
#
# Elastic Compliance Matrix: (Units=1/GPa)
#
#
# Indices 1 2 3 4 5 6 
#
# 1 0.019847 -0.005156 -0.008706 0.000000 -0.007535 0.000000
# 2 -0.005156 0.018738 -0.004637 0.000000 -0.009042 0.000000
# 3 -0.008706 -0.004637 0.014688 0.000000 0.006063 0.000000
# 4 0.000000 0.000000 0.000000 0.020545 0.000000 -0.006915
# 5 -0.007535 -0.009042 0.006063 0.000000 0.031535 0.000000
# 6 0.000000 0.000000 0.000000 -0.006915 0.000000 0.024520
#
#
# Mechanical properties :
#
#
# Convention : Reuss Voigt Hill
#
# Bulk Modulus (GPa) = 61.44778 79.66278 70.55528
# Shear Modulus (GPa) = 29.01948 38.74136 33.88042
#
# Velocity S-wave (km/s) = 3.41356 3.94412 3.68839
# Velocity P-wave (km/s) = 6.34113 7.26146 6.81685
#
# Compressibility (1/GPa) = 0.01627398
#
# Stress axis : x y z
#
# Youngs Moduli (GPa) = 50.38590 53.36634 68.08191
#
# Poissons Ratio (x) = 0.27516 0.59274
# Poissons Ratio (y) = 0.25979 0.31572
# Poissons Ratio (z) = 0.43867 0.24748
#
# Static dielectric constant tensor:
#      x y z
#    x 4.137930 0.000000 0.300220 
#    y 0.000000 4.904130 0.000000 
#    z 0.300220 0.000000 4.212600 
# 
# 
# High freq. dielectric constant tensor:
#      x y z
#    x 1.966300 0.000000 0.024580 
#    y 0.000000 2.053740 0.000000 
#    z 0.024580 0.000000 1.970340 
# 
# From -- ./inp_files/15876.got.cif
#   From: 2010.06.25/outbox.cif.g09.slc.cpg/sg9_8_cif.got.tgz:15876.got - 2010.06.27 21:40:51.
