data_PCOD8056910
_publ_section_title
;
Structure prediction by ZEFSAII (Michael W. Deem and Ramdas Pophale) SiO2 
 PCOD8056910
Probable space group: P 2/M
;
_chemical_formula_sum "Si O2"
_cell_formula_units_Z 30
_cell_length_a 14.881009
_cell_length_b 9.244416
_cell_length_c 11.676272
_cell_angle_alpha 90.000000
_cell_angle_beta 109.639019
_cell_angle_gamma 90.000000
_cell_volume 1512.822672
_symmetry_space_group_name_H-M "P 2/M"
_symmetry_group_IT_number 10
_symmetry_cell_setting 'monoclinic'
loop_
_space_group_symop_operation_xyz
x,y,z
-x,y,-z
-x,-y,-z
x,-y,z
loop_
_atom_site_type_symbol
_atom_site_label
_atom_site_fract_x
_atom_site_fract_y
_atom_site_fract_z
Si Si1 0.000000 0.746569 0.000000
Si Si2 0.933981 0.160955 0.734820
Si Si3 0.293597 0.170438 0.656059
Si Si4 0.641657 0.671182 0.781144
Si Si5 0.189320 0.658842 0.982002
Si Si6 0.723700 0.173207 0.607227
Si Si7 0.132175 0.828065 0.746410
Si Si8 0.484497 0.829589 0.860775
O O1 0.037890 0.846134 0.119571
O O2 0.085418 0.645378 0.994462
O O3 0.831580 0.236351 0.671582
O O4 0.022808 0.233723 0.701739
O O5 0.921188 0.000000 0.681464
O O6 0.308991 0.224225 0.533191
O O7 0.190781 0.225737 0.660207
O O8 0.378597 0.218951 0.776690
O O9 0.288762 0.000000 0.652293
O O10 0.627589 0.500000 0.758574
O O11 0.736393 0.711510 0.891370
O O12 0.651092 0.748355 0.662119
O O13 0.553385 0.737193 0.810857
O O14 0.217442 0.500000 0.947410
O O15 0.191663 0.773367 0.881071
O O16 0.717894 0.000000 0.623159
O O17 0.128332 0.000000 0.755241
O O18 0.502529 0.000000 0.848758
O O19 0.500000 0.787694 0.000000
#
# Coordination Sequence:
#
# PCOD8056910 Si02
#       8
#     2   4   4   4   4   4   4   4
#     4  10  16  30  48  74 107 144 181 216 263 320
#     4   9  17  28  49  82 113 143 181 224 269 316
#     4   9  19  36  58  82 109 141 185 229 271 326
#     4  11  23  38  55  82 114 146 183 226 275 325
#     4  10  20  32  50  77 108 142 179 221 270 322
#     4  10  20  36  56  80 112 151 185 220 267 324
#     4   9  18  33  54  81 110 143 181 229 274 320
#     4  10  21  39  63  87 108 139 181 227 278 329
#
# _framework density 19.830480999999999
#
# number of rings (size 3 to 8) (size 9 to 14) (size 15 to 20)
#    0.000    2.267    1.333    1.600    0.000    4.000 
#    0.000    7.333    0.000    0.000    0.000    2.800 
#    0.000    0.000    0.000    0.000    0.000    0.000 
#
# Total GULP energy -371804.342661 kJ/mol
# GULP energy per Si atom -12393.478089 kJ/mol
# Density = 1.978535 g / cm^3
# Si number density = 19.830481 Si / 1000 Ang^3
#
#
#
# Elastic Constant Matrix: (Units=GPa)
#
#
# Indices 1 2 3 4 5 6 
#
# 1 125.0781 32.8557 62.4124 0.0000 -22.4283 0.0000
# 2 32.8557 46.5011 19.9364 0.0000 -9.4497 0.0000
# 3 62.4124 19.9364 107.7507 0.0000 -12.3486 0.0000
# 4 0.0000 0.0000 0.0000 11.4671 0.0000 3.3708
# 5 -22.4283 -9.4497 -12.3486 0.0000 33.9674 0.0000
# 6 0.0000 0.0000 0.0000 3.3708 0.0000 17.3767
#
#
#
# Elastic Compliance Matrix: (Units=1/GPa)
#
#
# Indices 1 2 3 4 5 6 
#
# 1 0.013523 -0.005885 -0.006165 0.000000 0.005050 0.000000
# 2 -0.005885 0.026812 -0.001192 0.000000 0.003140 0.000000
# 3 -0.006165 -0.001192 0.013114 0.000000 0.000365 0.000000
# 4 0.000000 0.000000 0.000000 0.092479 0.000000 -0.017940
# 5 0.005050 0.003140 0.000365 0.000000 0.033781 0.000000
# 6 0.000000 0.000000 0.000000 -0.017940 0.000000 0.061028
#
#
# Mechanical properties :
#
#
# Convention : Reuss Voigt Hill
#
# Bulk Modulus (GPa) = 37.08613 56.63764 46.86189
# Shear Modulus (GPa) = 18.10208 23.50393 20.80300
#
# Velocity S-wave (km/s) = 3.02460 3.44647 3.24241
# Velocity P-wave (km/s) = 5.56236 6.66787 6.14004
#
# Compressibility (1/GPa) = 0.02696426
#
# Stress axis : x y z
#
# Youngs Moduli (GPa) = 73.94869 37.29631 76.25354
#
# Poissons Ratio (x) = 0.21950 0.47012
# Poissons Ratio (y) = 0.43520 0.09091
# Poissons Ratio (z) = 0.45591 0.04446
#
# Static dielectric constant tensor:
#      x y z
#    x 3.935270 0.000000 0.030380 
#    y 0.000000 3.175920 0.000000 
#    z 0.030380 0.000000 3.756860 
# 
# 
# High freq. dielectric constant tensor:
#      x y z
#    x 1.786420 0.000000 -0.002250 
#    y 0.000000 1.732550 0.000000 
#    z -0.002250 0.000000 1.768070 
# 
# From -- ./inp_files/49993.got.cif
#   From: 2010.06.25/outbox.cif.g09.slc.cpg/sg10_25_cif.got.tgz:49993.got - 2010.06.27 22:07:45.
