data_PCOD8056656
_publ_section_title
;
Structure prediction by ZEFSAII (Michael W. Deem and Ramdas Pophale) SiO2 
 PCOD8056656
Probable space group: C C
;
_chemical_formula_sum "Si O2"
_cell_formula_units_Z 32
_cell_length_a 14.990355
_cell_length_b 11.491581
_cell_length_c 8.953834
_cell_angle_alpha 90.000000
_cell_angle_beta 112.039828
_cell_angle_gamma 90.000000
_cell_volume 1429.698645
_symmetry_space_group_name_H-M "C C"
_symmetry_group_IT_number 9
_symmetry_cell_setting 'monoclinic'
loop_
_space_group_symop_operation_xyz
x,y,z
x,-y,1/2+z
1/2+x,1/2+y,z
1/2+x,1/2-y,1/2+z
loop_
_atom_site_type_symbol
_atom_site_label
_atom_site_fract_x
_atom_site_fract_y
_atom_site_fract_z
Si Si1 0.849380 0.403706 0.123310
Si Si2 0.404334 0.887786 0.491019
Si Si3 0.634301 0.634326 0.547248
Si Si4 0.175028 0.396126 0.025970
Si Si5 0.989689 0.258994 0.002951
Si Si6 0.615242 0.886744 0.654074
Si Si7 0.035006 0.028342 0.197972
Si Si8 0.386388 0.671990 0.657900
O O1 0.898905 0.415647 0.313905
O O2 0.744587 0.347989 0.072997
O O3 0.831578 0.530314 0.038387
O O4 0.916719 0.323229 0.065666
O O5 0.507876 0.933231 0.614213
O O6 0.382467 0.751547 0.506027
O O7 0.598032 0.760829 0.570968
O O8 0.569605 0.585797 0.372710
O O9 0.621249 0.548113 0.680450
O O10 0.169264 0.530863 0.070017
O O11 0.278484 0.351216 0.146618
O O12 0.172202 0.383803 0.845437
O O13 0.092534 0.322687 0.057328
O O14 0.942408 0.252924 0.810525
O O15 0.005354 0.127827 0.064905
O O16 0.941046 0.948598 0.162837
#
# Coordination Sequence:
#
# PCOD8056656 Si02
#       8
#     4   4   4   4   4   4   4   4
#     4  12  27  42  76 109 143 193 248 303 365 436
#     4  12  23  48  71 104 148 190 243 305 363 431
#     4  12  27  48  75 107 149 194 245 298 374 435
#     4  12  29  48  77 109 148 195 248 304 370 439
#     4  12  27  48  71 108 149 192 244 304 365 434
#     4  12  26  49  74 105 150 194 244 306 366 430
#     4  12  27  48  72 105 151 191 239 306 364 444
#     4  12  28  49  76 105 154 195 243 302 375 441
#
# _framework density 22.382339000000002
#
# number of rings (size 3 to 8) (size 9 to 14) (size 15 to 20)
#    0.000    0.000    5.000    3.750    8.750    0.000 
#    0.000    0.000    0.000    0.000    0.000    0.000 
#    0.000    0.000    0.000    0.000    0.000    0.000 
#
# Total GULP energy -198498.208678 kJ/mol
# GULP energy per Si atom -12406.138042 kJ/mol
# Density = 2.233140 g / cm^3
# Si number density = 22.382339 Si / 1000 Ang^3
#
#
#
# Elastic Constant Matrix: (Units=GPa)
#
#
# Indices 1 2 3 4 5 6 
#
# 1 141.6711 45.5110 26.1916 0.0000 -0.6114 0.0000
# 2 45.5110 136.9854 46.2240 0.0000 -15.6965 0.0000
# 3 26.1916 46.2240 90.9618 0.0000 -17.7200 0.0000
# 4 0.0000 0.0000 0.0000 42.1540 0.0000 -13.6195
# 5 -0.6114 -15.6965 -17.7200 0.0000 32.0162 0.0000
# 6 0.0000 0.0000 0.0000 -13.6195 0.0000 41.1940
#
#
#
# Elastic Compliance Matrix: (Units=1/GPa)
#
#
# Indices 1 2 3 4 5 6 
#
# 1 0.008094 -0.002405 -0.001466 0.000000 -0.001836 0.000000
# 2 -0.002405 0.009649 -0.003697 0.000000 0.002638 0.000000
# 3 -0.001466 -0.003697 0.014499 0.000000 0.006184 0.000000
# 4 0.000000 0.000000 0.000000 0.026560 0.000000 0.008781
# 5 -0.001836 0.002638 0.006184 0.000000 0.035916 0.000000
# 6 0.000000 0.000000 0.000000 0.008781 0.000000 0.027179
#
#
# Mechanical properties :
#
#
# Convention : Reuss Voigt Hill
#
# Bulk Modulus (GPa) = 58.45718 67.27461 62.86589
# Shear Modulus (GPa) = 35.03024 39.85230 37.44127
#
# Velocity S-wave (km/s) = 3.96041 4.22420 4.09443
# Velocity P-wave (km/s) = 6.86202 7.34262 7.10639
#
# Compressibility (1/GPa) = 0.01710654
#
# Stress axis : x y z
#
# Youngs Moduli (GPa) = 123.54398 103.64034 68.96933
#
# Poissons Ratio (x) = 0.24923 0.10113
# Poissons Ratio (y) = 0.29710 0.25496
# Poissons Ratio (z) = 0.18115 0.38313
#
# Static dielectric constant tensor:
#      x y z
#    x 4.040630 0.000000 -0.066780 
#    y 0.000000 4.157280 0.000000 
#    z -0.066780 0.000000 4.034640 
# 
# 
# High freq. dielectric constant tensor:
#      x y z
#    x 1.890120 0.000000 -0.004130 
#    y 0.000000 1.897100 0.000000 
#    z -0.004130 0.000000 1.886420 
# 
# From -- ./inp_files/9179.got.cif
#   From: 2010.06.25/outbox.cif.g09.slc.cpg/sg9_5_cif.got.tgz:9179.got - 2010.06.27 21:40:51.
