data_PCOD8056008
_publ_section_title
;
Structure prediction by ZEFSAII (Michael W. Deem and Ramdas Pophale) SiO2 
 PCOD8056008
Probable space group: C C
;
_chemical_formula_sum "Si O2"
_cell_formula_units_Z 28
_cell_length_a 15.787121
_cell_length_b 6.351884
_cell_length_c 18.727661
_cell_angle_alpha 90.000000
_cell_angle_beta 44.747124
_cell_angle_gamma 90.000000
_cell_volume 1322.052756
_symmetry_space_group_name_H-M "C C"
_symmetry_group_IT_number 9
_symmetry_cell_setting 'monoclinic'
loop_
_space_group_symop_operation_xyz
x,y,z
x,-y,1/2+z
1/2+x,1/2+y,z
1/2+x,1/2-y,1/2+z
loop_
_atom_site_type_symbol
_atom_site_label
_atom_site_fract_x
_atom_site_fract_y
_atom_site_fract_z
Si Si1 0.617470 0.259108 0.454770
Si Si2 0.919271 0.449647 0.608209
Si Si3 0.068266 0.970998 0.726342
Si Si4 0.796545 0.004000 0.441637
Si Si5 0.611383 0.651837 0.547062
Si Si6 0.264245 0.636058 0.621518
Si Si7 0.214755 0.755869 0.243997
O O1 0.714629 0.175648 0.452478
O O2 0.600871 0.505641 0.482923
O O3 0.649610 0.201626 0.355375
O O4 0.490952 0.144284 0.533564
O O5 0.868300 0.304846 0.575345
O O6 0.808152 0.563495 0.713425
O O7 0.002083 0.319462 0.613229
O O8 0.095618 0.014655 0.627180
O O9 0.123304 0.158155 0.739769
O O10 0.131968 0.746043 0.703967
O O11 0.927148 0.968838 0.828059
O O12 0.798013 0.043310 0.524877
O O13 0.739895 0.770985 0.464921
O O14 0.272051 0.455661 0.677055
#
# Coordination Sequence:
#
# PCOD8056008 Si02
#       7
#     4   4   4   4   4   4   4
#     4  11  26  44  68 100 133 178 227 274 339 398
#     4  10  26  42  70  94 138 174 222 278 334 394
#     4  11  26  42  70  98 136 180 222 280 342 396
#     4  11  26  42  70  98 136 180 222 280 342 396
#     4  11  24  47  66 101 136 175 231 277 334 411
#     4  11  24  47  66 101 136 175 231 277 334 411
#     4  11  26  44  68 100 133 178 227 274 339 398
#
# _framework density 21.179186999999999
#
# number of rings (size 3 to 8) (size 9 to 14) (size 15 to 20)
#    0.000    1.143    2.857    0.857   12.000    3.429 
#    0.000    0.000    0.000    0.000    0.000    0.000 
#    0.000    0.000    0.000    0.000    0.000    0.000 
#
# Total GULP energy -173585.155096 kJ/mol
# GULP energy per Si atom -12398.939650 kJ/mol
# Density = 2.113098 g / cm^3
# Si number density = 21.179187 Si / 1000 Ang^3
#
#
#
# Elastic Constant Matrix: (Units=GPa)
#
#
# Indices 1 2 3 4 5 6 
#
# 1 72.3846 30.7842 27.0584 0.0002 -7.7732 -0.0005
# 2 30.7842 108.3322 20.1243 0.0005 -5.8185 -0.0015
# 3 27.0584 20.1243 78.4467 0.0003 -2.6877 -0.0009
# 4 0.0002 0.0005 0.0003 28.2523 0.0000 -2.0830
# 5 -7.7732 -5.8185 -2.6877 0.0000 44.9520 0.0001
# 6 -0.0005 -0.0015 -0.0009 -2.0830 0.0001 42.1109
#
#
#
# Elastic Compliance Matrix: (Units=1/GPa)
#
#
# Indices 1 2 3 4 5 6 
#
# 1 0.017599 -0.003956 -0.004979 0.000000 0.002233 0.000000
# 2 -0.003956 0.010637 -0.001343 0.000000 0.000612 0.000000
# 3 -0.004979 -0.001343 0.014804 0.000000 -0.000150 0.000000
# 4 0.000000 0.000000 0.000000 0.035525 0.000000 0.001757
# 5 0.002233 0.000612 -0.000150 0.000000 0.022703 0.000000
# 6 0.000000 0.000000 0.000000 0.001757 0.000000 0.023834
#
#
# Mechanical properties :
#
#
# Convention : Reuss Voigt Hill
#
# Bulk Modulus (GPa) = 44.47625 46.12191 45.29908
# Shear Modulus (GPa) = 32.64717 35.14280 33.89498
#
# Velocity S-wave (km/s) = 3.93042 4.07788 4.00483
# Velocity P-wave (km/s) = 6.45315 6.63298 6.54368
#
# Compressibility (1/GPa) = 0.02248391
#
# Stress axis : x y z
#
# Youngs Moduli (GPa) = 56.82291 94.00733 67.54778
#
# Poissons Ratio (x) = 0.37190 0.33631
# Poissons Ratio (y) = 0.22479 0.09074
# Poissons Ratio (z) = 0.28291 0.12629
#
# Static dielectric constant tensor:
#      x y z
#    x 3.907330 0.000000 -0.133990 
#    y 0.000000 4.022960 0.000000 
#    z -0.133990 0.000000 3.757870 
# 
# 
# High freq. dielectric constant tensor:
#      x y z
#    x 1.841200 0.000000 -0.007570 
#    y 0.000000 1.843970 0.000000 
#    z -0.007570 0.000000 1.824820 
# 
# From -- ./inp_files/18825.got.cif
#   From: 2010.06.25/outbox.cif.g09.slc.cpg/sg9_10_cif.got.tgz:18825.got - 2010.06.27 21:40:51.
