data_PCOD8056081
_publ_section_title
;
Structure prediction by ZEFSAII (Michael W. Deem and Ramdas Pophale) SiO2 
 PCOD8056081
Probable space group: C C
;
_chemical_formula_sum "Si O2"
_cell_formula_units_Z 28
_cell_length_a 8.241956
_cell_length_b 31.891775
_cell_length_c 9.312987
_cell_angle_alpha 90.000000
_cell_angle_beta 31.849932
_cell_angle_gamma 90.000000
_cell_volume 1291.760482
_symmetry_space_group_name_H-M "C C"
_symmetry_group_IT_number 9
_symmetry_cell_setting 'monoclinic'
loop_
_space_group_symop_operation_xyz
x,y,z
x,-y,1/2+z
1/2+x,1/2+y,z
1/2+x,1/2-y,1/2+z
loop_
_atom_site_type_symbol
_atom_site_label
_atom_site_fract_x
_atom_site_fract_y
_atom_site_fract_z
Si Si1 0.509330 0.037182 0.759620
Si Si2 0.269646 0.390320 0.633260
Si Si3 0.743693 0.644822 0.334039
Si Si4 0.556380 0.870260 0.309501
Si Si5 0.343779 0.523103 0.210741
Si Si6 0.901930 0.655539 0.628855
Si Si7 0.224717 0.222138 0.549804
O O1 0.416964 0.084776 0.869562
O O2 0.685750 0.036009 0.477339
O O3 0.697632 0.017933 0.749988
O O4 0.194979 0.011345 0.979712
O O5 0.331195 0.439695 0.602141
O O6 0.572035 0.366653 0.347519
O O7 0.983271 0.383516 0.741757
O O8 0.176754 0.372571 0.858476
O O9 0.415293 0.622081 0.571964
O O10 0.681664 0.689826 0.452109
O O11 0.880276 0.650736 0.073636
O O12 0.486149 0.838155 0.231926
O O13 0.906952 0.700158 0.543868
O O14 0.400660 0.262825 0.357724
#
# Coordination Sequence:
#
# PCOD8056081 Si02
#       7
#     4   4   4   4   4   4   4
#     4  12  27  43  66  95 138 178 222 287 329 381
#     4  11  21  42  64  91 128 179 225 261 320 395
#     4  11  25  39  70  98 129 175 213 266 328 403
#     4  12  23  43  64 100 134 171 224 271 325 385
#     4  12  25  44  63  96 133 179 223 285 333 378
#     4  11  22  42  70  93 126 175 220 265 324 387
#     4  11  23  45  69  99 132 167 215 267 329 407
#
# _framework density 21.675844999999999
#
# number of rings (size 3 to 8) (size 9 to 14) (size 15 to 20)
#    0.000    0.571    2.857    6.857    4.000    0.000 
#    0.000    4.286    0.000    0.000    0.000    0.000 
#    0.000    0.000    0.000    0.000    0.000    0.000 
#
# Total GULP energy -173675.297625 kJ/mol
# GULP energy per Si atom -12405.378402 kJ/mol
# Density = 2.162651 g / cm^3
# Si number density = 21.675845 Si / 1000 Ang^3
#
#
#
# Elastic Constant Matrix: (Units=GPa)
#
#
# Indices 1 2 3 4 5 6 
#
# 1 111.2022 40.9459 31.0241 0.0000 15.8600 0.0000
# 2 40.9459 66.5604 31.2493 0.0000 17.3759 0.0000
# 3 31.0241 31.2493 115.3109 0.0000 11.3201 0.0000
# 4 0.0000 0.0000 0.0000 66.5592 0.0000 11.2478
# 5 15.8600 17.3759 11.3201 0.0000 56.0201 0.0000
# 6 0.0000 0.0000 0.0000 11.2478 0.0000 23.6543
#
#
#
# Elastic Compliance Matrix: (Units=1/GPa)
#
#
# Indices 1 2 3 4 5 6 
#
# 1 0.011879 -0.006380 -0.001358 0.000000 -0.001110 0.000000
# 2 -0.006380 0.021822 -0.003785 0.000000 -0.004197 0.000000
# 3 -0.001358 -0.003785 0.010111 0.000000 -0.000485 0.000000
# 4 0.000000 0.000000 0.000000 0.016337 0.000000 -0.007768
# 5 -0.001110 -0.004197 -0.000485 0.000000 0.019565 0.000000
# 6 0.000000 0.000000 0.000000 -0.007768 0.000000 0.045969
#
#
# Mechanical properties :
#
#
# Convention : Reuss Voigt Hill
#
# Bulk Modulus (GPa) = 48.15828 55.50134 51.82981
# Shear Modulus (GPa) = 32.12309 41.90367 37.01338
#
# Velocity S-wave (km/s) = 3.85382 4.40158 4.13678
# Velocity P-wave (km/s) = 6.48601 7.17584 6.83963
#
# Compressibility (1/GPa) = 0.02076486
#
# Stress axis : x y z
#
# Youngs Moduli (GPa) = 84.18155 45.82595 98.90323
#
# Poissons Ratio (x) = 0.29239 0.13431
# Poissons Ratio (y) = 0.53711 0.37435
# Poissons Ratio (z) = 0.11432 0.17345
#
# Static dielectric constant tensor:
#      x y z
#    x 4.018300 0.000000 0.047730 
#    y 0.000000 3.664030 0.000000 
#    z 0.047730 0.000000 4.079110 
# 
# 
# High freq. dielectric constant tensor:
#      x y z
#    x 1.858110 0.000000 0.001760 
#    y 0.000000 1.830960 0.000000 
#    z 0.001760 0.000000 1.874030 
# 
# From -- ./inp_files/6549.got.cif
#   From: 2010.06.25/outbox.cif.g09.slc.cpg/sg9_4_cif.got.tgz:6549.got - 2010.06.27 21:40:51.
