data_PCOD8056092
_publ_section_title
;
Structure prediction by ZEFSAII (Michael W. Deem and Ramdas Pophale) SiO2 
 PCOD8056092
Probable space group: C C
;
_chemical_formula_sum "Si O2"
_cell_formula_units_Z 32
_cell_length_a 18.514337
_cell_length_b 11.201455
_cell_length_c 14.319367
_cell_angle_alpha 90.000000
_cell_angle_beta 148.572889
_cell_angle_gamma 90.000000
_cell_volume 1548.419585
_symmetry_space_group_name_H-M "C C"
_symmetry_group_IT_number 9
_symmetry_cell_setting 'monoclinic'
loop_
_space_group_symop_operation_xyz
x,y,z
x,-y,1/2+z
1/2+x,1/2+y,z
1/2+x,1/2-y,1/2+z
loop_
_atom_site_type_symbol
_atom_site_label
_atom_site_fract_x
_atom_site_fract_y
_atom_site_fract_z
Si Si1 0.620180 0.864650 0.276200
Si Si2 0.642488 0.613245 0.398430
Si Si3 0.448265 0.957955 0.251452
Si Si4 0.585807 0.752786 0.514085
Si Si5 0.867409 0.126857 0.387730
Si Si6 0.353775 0.383472 0.264824
Si Si7 0.871853 0.977812 0.080493
Si Si8 0.556813 0.168695 0.497959
O O1 0.624981 0.727642 0.312837
O O2 0.535533 0.950761 0.252316
O O3 0.778343 0.908361 0.450633
O O4 0.551090 0.878654 0.098139
O O5 0.788469 0.548222 0.546220
O O6 0.617802 0.645356 0.479102
O O7 0.530578 0.515515 0.247330
O O8 0.481620 0.845255 0.352249
O O9 0.480310 0.077938 0.343772
O O10 0.729020 0.815540 0.695090
O O11 0.505001 0.701200 0.514170
O O12 0.851894 0.126459 0.482273
O O13 0.882251 0.993448 0.364836
O O14 0.328588 0.430426 0.133174
O O15 0.484748 0.296685 0.412297
O O16 0.216260 0.313135 0.144574
#
# Coordination Sequence:
#
# PCOD8056092 Si02
#       8
#     4   4   4   4   4   4   4   4
#     4  11  22  44  72  97 130 183 231 276 337 397
#     4  11  23  39  70 103 128 173 233 281 323 401
#     4  11  23  44  67 102 133 174 231 280 330 400
#     4  11  21  43  73  98 131 175 225 286 334 389
#     4  12  24  46  71 101 136 177 229 282 340 401
#     4  12  26  46  67 101 141 182 220 281 342 404
#     4  12  24  45  68  97 142 177 223 281 342 402
#     4  12  27  45  70  95 143 185 218 277 344 404
#
# _framework density 20.666232999999998
#
# number of rings (size 3 to 8) (size 9 to 14) (size 15 to 20)
#    0.000    0.500    6.250    3.000    3.500    1.000 
#    4.500    0.000    0.000    0.000    0.000    0.000 
#    0.000    0.000    0.000    0.000    0.000    0.000 
#
# Total GULP energy -198477.197473 kJ/mol
# GULP energy per Si atom -12404.824842 kJ/mol
# Density = 2.061920 g / cm^3
# Si number density = 20.666233 Si / 1000 Ang^3
#
#
#
# Elastic Constant Matrix: (Units=GPa)
#
#
# Indices 1 2 3 4 5 6 
#
# 1 91.2328 25.0868 20.3098 0.0000 -6.9057 0.0000
# 2 25.0868 68.8757 35.1365 0.0000 5.8923 0.0000
# 3 20.3098 35.1365 92.3974 0.0000 11.1975 0.0000
# 4 0.0000 0.0000 0.0000 17.5587 0.0000 8.4607
# 5 -6.9057 5.8923 11.1975 0.0000 44.7801 0.0000
# 6 0.0000 0.0000 0.0000 8.4607 0.0000 31.1581
#
#
#
# Elastic Compliance Matrix: (Units=1/GPa)
#
#
# Indices 1 2 3 4 5 6 
#
# 1 0.012644 -0.004040 -0.001592 0.000000 0.002880 0.000000
# 2 -0.004040 0.019324 -0.006267 0.000000 -0.001599 0.000000
# 3 -0.001592 -0.006267 0.013907 0.000000 -0.002898 0.000000
# 4 0.000000 0.000000 0.000000 0.065526 0.000000 -0.017793
# 5 0.002880 -0.001599 -0.002898 0.000000 0.023711 0.000000
# 6 0.000000 0.000000 0.000000 -0.017793 0.000000 0.036926
#
#
# Mechanical properties :
#
#
# Convention : Reuss Voigt Hill
#
# Bulk Modulus (GPa) = 45.29322 45.95246 45.62284
# Shear Modulus (GPa) = 24.60707 30.16422 27.38565
#
# Velocity S-wave (km/s) = 3.45438 3.82460 3.64420
# Velocity P-wave (km/s) = 6.15422 6.46431 6.31117
#
# Compressibility (1/GPa) = 0.02207836
#
# Stress axis : x y z
#
# Youngs Moduli (GPa) = 79.08799 51.74922 71.90549
#
# Poissons Ratio (x) = 0.20904 0.11448
# Poissons Ratio (y) = 0.31948 0.45062
# Poissons Ratio (z) = 0.12592 0.32430
#
# Static dielectric constant tensor:
#      x y z
#    x 3.983970 0.000000 0.010050 
#    y 0.000000 3.586560 0.000000 
#    z 0.010050 0.000000 3.785270 
# 
# 
# High freq. dielectric constant tensor:
#      x y z
#    x 1.823130 0.000000 0.005010 
#    y 0.000000 1.794330 0.000000 
#    z 0.005010 0.000000 1.817000 
# 
# From -- ./inp_files/9116.got.cif
#   From: 2010.06.25/outbox.cif.g09.slc.cpg/sg9_5_cif.got.tgz:9116.got - 2010.06.27 21:40:51.
