data_PCOD8056969
_publ_section_title
;
Structure prediction by ZEFSAII (Michael W. Deem and Ramdas Pophale) SiO2 
 PCOD8056969
Probable space group: P 2/M
;
_chemical_formula_sum "Si O2"
_cell_formula_units_Z 32
_cell_length_a 15.333200
_cell_length_b 14.257435
_cell_length_c 11.780584
_cell_angle_alpha 90.000000
_cell_angle_beta 121.073716
_cell_angle_gamma 90.000000
_cell_volume 2205.821632
_symmetry_space_group_name_H-M "P 2/M"
_symmetry_group_IT_number 10
_symmetry_cell_setting 'monoclinic'
loop_
_space_group_symop_operation_xyz
x,y,z
-x,y,-z
-x,-y,-z
x,-y,z
loop_
_atom_site_type_symbol
_atom_site_label
_atom_site_fract_x
_atom_site_fract_y
_atom_site_fract_z
Si Si1 0.429310 0.894217 0.312210
Si Si2 0.116364 0.888438 0.092715
Si Si3 0.736374 0.791521 0.654573
Si Si4 0.377830 0.208562 0.641057
Si Si5 0.611384 0.887849 0.116060
Si Si6 0.658224 0.397215 0.660177
Si Si7 0.271392 0.895210 0.014905
Si Si8 0.538771 0.602768 0.345979
O O1 0.359812 0.845342 0.358678
O O2 0.534227 0.839151 0.374020
O O3 0.376350 0.894849 0.154510
O O4 0.451542 0.000000 0.367122
O O5 0.159340 0.842926 0.237872
O O6 0.180723 0.847285 0.027816
O O7 0.130997 0.000000 0.112562
O O8 0.000000 0.858798 0.000000
O O9 0.722598 0.791164 0.508019
O O10 0.741287 0.685596 0.709016
O O11 0.355561 0.153300 0.740964
O O12 0.413032 0.314540 0.698084
O O13 0.612501 0.000000 0.124473
O O14 0.500000 0.853356 0.000000
O O15 0.697998 0.849762 0.085688
O O16 0.711257 0.500000 0.707580
O O17 0.582186 0.380959 0.715827
O O18 0.592220 0.393678 0.502844
O O19 0.233343 0.000000 0.965415
O O20 0.556571 0.500000 0.300945
#
# Coordination Sequence:
#
# PCOD8056969 Si02
#       8
#     4   4   4   4   4   4   4   4
#     4  10  17  24  35  56  87 114 133 162 202 243
#     4   9  18  32  48  62  80 109 141 175 213 251
#     4  10  18  26  39  63  85 102 136 176 216 251
#     4  11  18  24  38  60  86 114 137 167 206 244
#     4  10  18  27  38  56  86 120 146 162 186 240
#     4   8  13  23  38  55  80 111 138 167 205 250
#     4   8  15  28  42  56  76 109 149 171 186 232
#     4   8  14  24  36  53  80 113 145 169 195 242
#
# _framework density 14.507066
#
# number of rings (size 3 to 8) (size 9 to 14) (size 15 to 20)
#    0.000    2.750    2.500    2.625    0.000    2.500 
#    0.000    0.000    0.000    1.500    0.000    4.375 
#    0.000    0.000    0.000    6.250    0.000    0.000 
#
# Total GULP energy -396427.602918 kJ/mol
# GULP energy per Si atom -12388.362591 kJ/mol
# Density = 1.447405 g / cm^3
# Si number density = 14.507066 Si / 1000 Ang^3
#
#
#
# Elastic Constant Matrix: (Units=GPa)
#
#
# Indices 1 2 3 4 5 6 
#
# 1 51.7027 19.7935 38.3588 0.0000 5.3215 0.0000
# 2 19.7935 71.6700 26.8292 0.0000 1.9077 0.0000
# 3 38.3588 26.8292 73.0218 0.0000 -1.0471 0.0000
# 4 0.0000 0.0000 0.0000 -6.5734 0.0000 3.9498
# 5 5.3215 1.9077 -1.0471 0.0000 17.3124 0.0000
# 6 0.0000 0.0000 0.0000 3.9498 0.0000 11.9358
#
#
#
# Elastic Compliance Matrix: (Units=1/GPa)
#
#
# Indices 1 2 3 4 5 6 
#
# 1 0.034287 -0.002744 -0.017165 0.000000 -0.011275 0.000000
# 2 -0.002744 0.016477 -0.004631 0.000000 -0.001252 0.000000
# 3 -0.017165 -0.004631 0.024517 0.000000 0.007269 0.000000
# 4 0.000000 0.000000 0.000000 -0.126896 0.000000 0.041993
# 5 -0.011275 -0.001252 0.007269 0.000000 0.061805 0.000000
# 6 0.000000 0.000000 0.000000 0.041993 0.000000 0.069885
#
#
# Mechanical properties :
#
#
# Convention : Reuss Voigt Hill
#
# Bulk Modulus (GPa) = 38.16353 40.70637 39.43495
# Shear Modulus (GPa) = 36.26123 11.96250 24.11187
#
# Velocity S-wave (km/s) = 5.00498 2.87470 4.08128
# Velocity P-wave (km/s) = 7.73070 6.25613 7.03217
#
# Compressibility (1/GPa) = 0.02620303
#
# Stress axis : x y z
#
# Youngs Moduli (GPa) = 29.16574 60.68929 40.78823
#
# Poissons Ratio (x) = 0.16650 0.70012
# Poissons Ratio (y) = 0.08002 0.18888
# Poissons Ratio (z) = 0.50062 0.28104
#
# Static dielectric constant tensor:
#      x y z
#    x 2.609060 0.000000 -0.073180 
#    y 0.000000 3.103960 0.000000 
#    z -0.073180 0.000000 2.649300 
# 
# 
# High freq. dielectric constant tensor:
#      x y z
#    x 1.512310 0.000000 -0.011780 
#    y 0.000000 1.549250 0.000000 
#    z -0.011780 0.000000 1.529080 
# 
# From -- ./inp_files/51290.got.cif
#   From: 2010.06.25/outbox.cif.g09.slc.cpg/sg10_26_cif.got.tgz:51290.got - 2010.06.27 22:07:45.
