data_PCOD8056459
_publ_section_title
;
Structure prediction by ZEFSAII (Michael W. Deem and Ramdas Pophale) SiO2 
 PCOD8056459
Probable space group: C C
;
_chemical_formula_sum "Si O2"
_cell_formula_units_Z 28
_cell_length_a 14.456392
_cell_length_b 8.789954
_cell_length_c 14.936768
_cell_angle_alpha 90.000000
_cell_angle_beta 140.287989
_cell_angle_gamma 90.000000
_cell_volume 1212.706815
_symmetry_space_group_name_H-M "C C"
_symmetry_group_IT_number 9
_symmetry_cell_setting 'monoclinic'
loop_
_space_group_symop_operation_xyz
x,y,z
x,-y,1/2+z
1/2+x,1/2+y,z
1/2+x,1/2-y,1/2+z
loop_
_atom_site_type_symbol
_atom_site_label
_atom_site_fract_x
_atom_site_fract_y
_atom_site_fract_z
Si Si1 0.890600 0.661552 0.532460
Si Si2 0.299488 0.028454 0.797161
Si Si3 0.240522 0.670512 0.065576
Si Si4 0.236451 0.637354 0.488764
Si Si5 0.447997 0.319286 0.878265
Si Si6 0.475633 0.474138 0.546531
Si Si7 0.924978 0.406900 0.702855
O O1 0.839503 0.589901 0.402950
O O2 0.762211 0.757635 0.483288
O O3 0.001648 0.794845 0.584334
O O4 0.950984 0.538641 0.647993
O O5 0.365846 0.979320 0.750624
O O6 0.129059 0.052865 0.673369
O O7 0.360597 0.193285 0.870173
O O8 0.389175 0.680921 0.233124
O O9 0.193113 0.493454 0.028789
O O10 0.115202 0.772962 0.013470
O O11 0.358012 0.555820 0.520551
O O12 0.301011 0.789628 0.579590
O O13 0.081442 0.676689 0.327462
O O14 0.427014 0.485542 0.907899
#
# Coordination Sequence:
#
# PCOD8056459 Si02
#       7
#     4   4   4   4   4   4   4
#     4  11  27  48  75 106 152 191 264 311 385 454
#     4  12  27  45  76 111 148 198 252 322 376 461
#     4  11  24  46  74 104 148 201 241 317 384 458
#     4  11  28  46  74 107 151 208 250 314 379 455
#     4  12  23  48  73 109 148 197 253 309 389 452
#     4  11  28  45  77 110 143 203 258 314 383 450
#     4  12  27  52  73 111 156 204 254 317 384 452
#
# _framework density 23.088844000000002
#
# number of rings (size 3 to 8) (size 9 to 14) (size 15 to 20)
#    0.000    0.571    4.286    0.857   16.000    1.143 
#    0.000    0.000    0.000    0.000    0.000    0.000 
#    0.000    0.000    0.000    0.000    0.000    0.000 
#
# Total GULP energy -173468.168998 kJ/mol
# GULP energy per Si atom -12390.583500 kJ/mol
# Density = 2.303629 g / cm^3
# Si number density = 23.088844 Si / 1000 Ang^3
#
#
#
# Elastic Constant Matrix: (Units=GPa)
#
#
# Indices 1 2 3 4 5 6 
#
# 1 91.5426 40.1076 51.0319 0.0000 1.3769 0.0000
# 2 40.1076 147.2034 51.9563 0.0000 -13.3300 0.0000
# 3 51.0319 51.9563 114.8983 0.0000 4.7829 0.0000
# 4 0.0000 0.0000 0.0000 34.3919 0.0000 -6.9194
# 5 1.3769 -13.3300 4.7829 0.0000 46.4116 0.0000
# 6 0.0000 0.0000 0.0000 -6.9194 0.0000 41.1071
#
#
#
# Elastic Compliance Matrix: (Units=1/GPa)
#
#
# Indices 1 2 3 4 5 6 
#
# 1 0.015040 -0.002130 -0.005697 0.000000 -0.000471 0.000000
# 2 -0.002130 0.008739 -0.003127 0.000000 0.002895 0.000000
# 3 -0.005697 -0.003127 0.012733 0.000000 -0.002041 0.000000
# 4 0.000000 0.000000 0.000000 0.030096 0.000000 0.005066
# 5 -0.000471 0.002895 -0.002041 0.000000 0.022602 0.000000
# 6 0.000000 0.000000 0.000000 0.005066 0.000000 0.025179
#
#
# Mechanical properties :
#
#
# Convention : Reuss Voigt Hill
#
# Bulk Modulus (GPa) = 68.47020 71.09290 69.78155
# Shear Modulus (GPa) = 35.41954 38.41869 36.91912
#
# Velocity S-wave (km/s) = 3.92095 4.08358 4.00309
# Velocity P-wave (km/s) = 7.08646 7.28643 7.18714
#
# Compressibility (1/GPa) = 0.01460489
#
# Stress axis : x y z
#
# Youngs Moduli (GPa) = 66.48876 114.42597 78.53825
#
# Poissons Ratio (x) = 0.24368 0.44747
# Poissons Ratio (y) = 0.14159 0.24555
# Poissons Ratio (z) = 0.37882 0.35776
#
# Static dielectric constant tensor:
#      x y z
#    x 4.210750 0.000000 -0.008330 
#    y 0.000000 4.619840 0.000000 
#    z -0.008330 0.000000 4.103730 
# 
# 
# High freq. dielectric constant tensor:
#      x y z
#    x 1.913960 0.000000 0.003320 
#    y 0.000000 1.926010 0.000000 
#    z 0.003320 0.000000 1.911130 
# 
# From -- ./inp_files/11314.got.cif
#   From: 2010.06.25/outbox.cif.g09.slc.cpg/sg9_6_cif.got.tgz:11314.got - 2010.06.27 21:40:51.
