data_PCOD8056541
_publ_section_title
;
Structure prediction by ZEFSAII (Michael W. Deem and Ramdas Pophale) SiO2 
 PCOD8056541
Probable space group: C C
;
_chemical_formula_sum "Si O2"
_cell_formula_units_Z 28
_cell_length_a 13.793745
_cell_length_b 11.657911
_cell_length_c 7.817165
_cell_angle_alpha 90.000000
_cell_angle_beta 66.363367
_cell_angle_gamma 90.000000
_cell_volume 1151.590852
_symmetry_space_group_name_H-M "C C"
_symmetry_group_IT_number 9
_symmetry_cell_setting 'monoclinic'
loop_
_space_group_symop_operation_xyz
x,y,z
x,-y,1/2+z
1/2+x,1/2+y,z
1/2+x,1/2-y,1/2+z
loop_
_atom_site_type_symbol
_atom_site_label
_atom_site_fract_x
_atom_site_fract_y
_atom_site_fract_z
Si Si1 0.675080 0.429692 0.984990
Si Si2 0.376279 0.959377 0.228647
Si Si3 0.348600 0.276486 0.608532
Si Si4 0.524505 0.431615 0.380408
Si Si5 0.493993 0.858862 0.441071
Si Si6 0.879192 0.863894 0.950826
Si Si7 0.723278 0.814597 0.361773
O O1 0.774749 0.516199 0.921499
O O2 0.569885 0.497236 0.005187
O O3 0.703508 0.321301 0.844754
O O4 0.630622 0.393618 0.202066
O O5 0.345677 0.863136 0.106077
O O6 0.474809 0.909304 0.265753
O O7 0.411586 0.079115 0.124136
O O8 0.468555 0.314613 0.479540
O O9 0.319590 0.319922 0.820648
O O10 0.269959 0.328104 0.520778
O O11 0.432463 0.514288 0.366258
O O12 0.469318 0.723700 0.453458
O O13 0.612014 0.880699 0.425111
O O14 0.795850 0.871408 0.164985
#
# Coordination Sequence:
#
# PCOD8056541 Si02
#       7
#     4   4   4   4   4   4   4
#     4  12  24  44  81 108 138 199 256 299 362 442
#     4  11  25  49  72 111 150 193 249 312 369 448
#     4  11  27  48  73 110 149 190 249 308 366 447
#     4  12  24  46  75 110 148 188 249 313 363 434
#     4  11  25  47  73 105 151 193 242 313 374 434
#     4  11  25  49  74 108 152 189 247 311 370 439
#     4  12  26  47  76 110 146 200 244 304 376 442
#
# _framework density 24.31419
#
# number of rings (size 3 to 8) (size 9 to 14) (size 15 to 20)
#    0.000    0.571    4.286    3.429    2.000    1.143 
#    7.714    0.000    0.000    0.000    0.000    0.000 
#    0.000    0.000    0.000    0.000    0.000    0.000 
#
# Total GULP energy -173550.945650 kJ/mol
# GULP energy per Si atom -12396.496118 kJ/mol
# Density = 2.425885 g / cm^3
# Si number density = 24.314190 Si / 1000 Ang^3
#
#
#
# Elastic Constant Matrix: (Units=GPa)
#
#
# Indices 1 2 3 4 5 6 
#
# 1 123.4896 17.9096 42.4067 0.0000 5.1109 0.0000
# 2 17.9096 92.3531 39.2839 0.0000 -21.9415 0.0000
# 3 42.4067 39.2839 134.1022 0.0000 -9.2301 0.0000
# 4 0.0000 0.0000 0.0000 35.8238 0.0000 -5.2739
# 5 5.1109 -21.9415 -9.2301 0.0000 34.0093 0.0000
# 6 0.0000 0.0000 0.0000 -5.2739 0.0000 32.7137
#
#
#
# Elastic Compliance Matrix: (Units=1/GPa)
#
#
# Indices 1 2 3 4 5 6 
#
# 1 0.009374 -0.001359 -0.002775 0.000000 -0.003039 0.000000
# 2 -0.001359 0.014533 -0.003228 0.000000 0.008704 0.000000
# 3 -0.002775 -0.003228 0.009340 0.000000 0.000869 0.000000
# 4 0.000000 0.000000 0.000000 0.028593 0.000000 0.004610
# 5 -0.003039 0.008704 0.000869 0.000000 0.035712 0.000000
# 6 0.000000 0.000000 0.000000 0.004610 0.000000 0.031311
#
#
# Mechanical properties :
#
#
# Convention : Reuss Voigt Hill
#
# Bulk Modulus (GPa) = 53.99262 61.01613 57.50438
# Shear Modulus (GPa) = 33.38627 37.19900 35.29263
#
# Velocity S-wave (km/s) = 3.70958 3.91567 3.81402
# Velocity P-wave (km/s) = 6.37200 6.75224 6.56487
#
# Compressibility (1/GPa) = 0.01852105
#
# Stress axis : x y z
#
# Youngs Moduli (GPa) = 106.68063 68.81007 107.06508
#
# Poissons Ratio (x) = 0.09353 0.29713
# Poissons Ratio (y) = 0.14501 0.34564
# Poissons Ratio (z) = 0.29606 0.22214
#
# Static dielectric constant tensor:
#      x y z
#    x 4.407020 0.000000 0.104910 
#    y 0.000000 4.326460 0.000000 
#    z 0.104910 0.000000 4.167320 
# 
# 
# High freq. dielectric constant tensor:
#      x y z
#    x 1.973360 0.000000 0.004610 
#    y 0.000000 1.959850 0.000000 
#    z 0.004610 0.000000 1.960270 
# 
# From -- ./inp_files/9034.got.cif
#   From: 2010.06.25/outbox.cif.g09.slc.cpg/sg9_5_cif.got.tgz:9034.got - 2010.06.27 21:40:51.
