data_PCOD8056625
_publ_section_title
;
Structure prediction by ZEFSAII (Michael W. Deem and Ramdas Pophale) SiO2 
 PCOD8056625
Probable space group: C C
;
_chemical_formula_sum "Si O2"
_cell_formula_units_Z 28
_cell_length_a 11.277400
_cell_length_b 8.906388
_cell_length_c 23.627240
_cell_angle_alpha 90.000000
_cell_angle_beta 26.178650
_cell_angle_gamma 90.000000
_cell_volume 1046.962235
_symmetry_space_group_name_H-M "C C"
_symmetry_group_IT_number 9
_symmetry_cell_setting 'monoclinic'
loop_
_space_group_symop_operation_xyz
x,y,z
x,-y,1/2+z
1/2+x,1/2+y,z
1/2+x,1/2-y,1/2+z
loop_
_atom_site_type_symbol
_atom_site_label
_atom_site_fract_x
_atom_site_fract_y
_atom_site_fract_z
Si Si1 0.485910 0.326932 0.398320
Si Si2 0.417748 0.763148 0.479398
Si Si3 0.816482 0.536822 0.319207
Si Si4 0.781009 0.255473 0.106013
Si Si5 0.958794 0.572207 0.066524
Si Si6 0.650221 0.166044 0.760940
Si Si7 0.382801 0.627604 0.172290
O O1 0.746716 0.433923 0.294752
O O2 0.422828 0.243955 0.484765
O O3 0.583020 0.197212 0.313430
O O4 0.233349 0.426462 0.485312
O O5 0.517669 0.603943 0.463755
O O6 0.544256 0.891150 0.465354
O O7 0.495901 0.769819 0.380460
O O8 0.096935 0.787735 0.620140
O O9 0.981010 0.685200 0.228081
O O10 0.952161 0.441217 0.310010
O O11 0.798648 0.415047 0.131932
O O12 0.942593 0.146066 0.079717
O O13 0.758877 0.699158 0.176345
O O14 0.886053 0.052880 0.682511
#
# Coordination Sequence:
#
# PCOD8056625 Si02
#       7
#     4   4   4   4   4   4   4
#     4  12  27  50  82 116 165 213 268 335 403 488
#     4  12  27  47  80 112 161 210 266 335 398 475
#     4  11  27  50  82 111 160 213 271 329 410 469
#     4  11  27  52  78 117 159 203 276 333 400 485
#     4  12  28  48  84 118 162 212 271 331 412 484
#     4  11  27  51  80 116 163 208 269 341 405 482
#     4  11  27  48  80 112 160 215 271 324 412 479
#
# _framework density 26.744042
#
# number of rings (size 3 to 8) (size 9 to 14) (size 15 to 20)
#    0.000    0.571    0.000    6.000   18.000    0.000 
#    7.714    0.000    0.000    0.000    0.000    0.000 
#    0.000    0.000    0.000    0.000    0.000    0.000 
#
# Total GULP energy -173481.768132 kJ/mol
# GULP energy per Si atom -12391.554867 kJ/mol
# Density = 2.668317 g / cm^3
# Si number density = 26.744042 Si / 1000 Ang^3
#
#
#
# Elastic Constant Matrix: (Units=GPa)
#
#
# Indices 1 2 3 4 5 6 
#
# 1 124.3184 46.8026 51.6064 -0.0037 -11.4937 0.0018
# 2 46.8026 162.2618 59.0168 -0.0064 -13.0611 -0.0016
# 3 51.6064 59.0168 83.9921 -0.0271 -3.2618 -0.0005
# 4 -0.0037 -0.0064 -0.0271 43.9189 0.0035 -10.4383
# 5 -11.4937 -13.0611 -3.2618 0.0035 43.6793 0.0006
# 6 0.0018 -0.0016 -0.0005 -10.4383 0.0006 48.8578
#
#
#
# Elastic Compliance Matrix: (Units=1/GPa)
#
#
# Indices 1 2 3 4 5 6 
#
# 1 0.011114 -0.000771 -0.006200 -0.000003 0.002231 -0.000001
# 2 -0.000771 0.008519 -0.005437 -0.000002 0.001938 0.000000
# 3 -0.006200 -0.005437 0.019466 0.000011 -0.001804 0.000003
# 4 -0.000003 -0.000002 0.000011 0.023987 -0.000003 0.005125
# 5 0.002231 0.001938 -0.001804 -0.000003 0.023926 -0.000001
# 6 -0.000001 0.000000 0.000003 0.005125 -0.000001 0.021562
#
#
# Mechanical properties :
#
#
# Convention : Reuss Voigt Hill
#
# Bulk Modulus (GPa) = 70.01651 76.15821 73.08736
# Shear Modulus (GPa) = 36.19221 41.50095 38.84658
#
# Velocity S-wave (km/s) = 3.68269 3.94354 3.81534
# Velocity P-wave (km/s) = 6.65733 7.01954 6.84083
#
# Compressibility (1/GPa) = 0.01428235
#
# Stress axis : x y z
#
# Youngs Moduli (GPa) = 89.97431 117.38925 51.37293
#
# Poissons Ratio (x) = 0.09051 0.31853
# Poissons Ratio (y) = 0.06937 0.27929
# Poissons Ratio (z) = 0.55788 0.63820
#
# Static dielectric constant tensor:
#      x y z
#    x 5.085240 0.000010 -0.201420 
#    y 0.000010 5.025420 0.000030 
#    z -0.201420 0.000030 4.626720 
# 
# 
# High freq. dielectric constant tensor:
#      x y z
#    x 2.097120 0.000000 -0.002340 
#    y 0.000000 2.083630 0.000000 
#    z -0.002340 0.000000 2.056620 
# 
# From -- ./inp_files/35300.got.cif
#   From: 2010.06.25/outbox.cif.g09.slc.cpg/sg9_18_cif.got.tgz:35300.got - 2010.06.27 21:40:51.
