data_PCOD8056239
_publ_section_title
;
Structure prediction by ZEFSAII (Michael W. Deem and Ramdas Pophale) SiO2 
 PCOD8056239
Probable space group: C C
;
_chemical_formula_sum "Si O2"
_cell_formula_units_Z 24
_cell_length_a 8.453361
_cell_length_b 17.464282
_cell_length_c 8.546479
_cell_angle_alpha 90.000000
_cell_angle_beta 50.632921
_cell_angle_gamma 90.000000
_cell_volume 975.443266
_symmetry_space_group_name_H-M "C C"
_symmetry_group_IT_number 9
_symmetry_cell_setting 'monoclinic'
loop_
_space_group_symop_operation_xyz
x,y,z
x,-y,1/2+z
1/2+x,1/2+y,z
1/2+x,1/2-y,1/2+z
loop_
_atom_site_type_symbol
_atom_site_label
_atom_site_fract_x
_atom_site_fract_y
_atom_site_fract_z
Si Si1 0.149800 0.421495 0.029470
Si Si2 0.148850 0.848476 0.113472
Si Si3 0.993072 0.814748 0.805062
Si Si4 0.786468 0.326702 0.353965
Si Si5 0.019207 0.419203 0.754504
Si Si6 0.213161 0.294307 0.417889
O O1 0.102165 0.506552 0.114867
O O2 0.004533 0.367487 0.222585
O O3 0.376464 0.391763 0.936534
O O4 0.124676 0.412569 0.858013
O O5 0.153565 0.862292 0.296075
O O6 0.909062 0.837439 0.217087
O O7 0.269802 0.915805 0.941581
O O8 0.283313 0.771163 0.997512
O O9 0.825331 0.764776 0.813415
O O10 0.174061 0.846509 0.584879
O O11 0.079805 0.756630 0.880790
O O12 0.069170 0.352054 0.601433
#
# Coordination Sequence:
#
# PCOD8056239 Si02
#       6
#     4   4   4   4   4   4
#     4  11  27  47  74 110 160 203 256 330 397 462
#     4  11  23  43  71 106 143 197 254 317 377 459
#     4  12  25  42  74 112 143 197 258 320 378 465
#     4  11  23  42  70 103 145 195 256 311 383 454
#     4  11  27  48  74 110 160 203 256 330 398 461
#     4  12  25  42  75 111 145 195 262 314 381 467
#
# _framework density 24.604199999999999
#
# number of rings (size 3 to 8) (size 9 to 14) (size 15 to 20)
#    0.000    0.667    3.333    4.000    2.333    2.667 
#    0.000    1.667    0.000    0.000    0.000    0.000 
#    0.000    0.000    0.000    0.000    0.000    0.000 
#
# Total GULP energy -148657.704713 kJ/mol
# GULP energy per Si atom -12388.142059 kJ/mol
# Density = 2.454820 g / cm^3
# Si number density = 24.604200 Si / 1000 Ang^3
#
#
#
# Elastic Constant Matrix: (Units=GPa)
#
#
# Indices 1 2 3 4 5 6 
#
# 1 98.0805 33.8284 76.3107 0.0000 -4.4971 0.0000
# 2 33.8284 109.3527 77.3663 0.0000 7.2206 0.0000
# 3 76.3107 77.3663 203.5395 0.0000 -3.1475 0.0000
# 4 0.0000 0.0000 0.0000 52.2474 0.0000 -3.2393
# 5 -4.4971 7.2206 -3.1475 0.0000 36.3994 0.0000
# 6 0.0000 0.0000 0.0000 -3.2393 0.0000 28.6268
#
#
#
# Elastic Compliance Matrix: (Units=1/GPa)
#
#
# Indices 1 2 3 4 5 6 
#
# 1 0.014542 -0.001042 -0.005032 0.000000 0.001568 0.000000
# 2 -0.001042 0.012896 -0.004559 0.000000 -0.003081 0.000000
# 3 -0.005032 -0.004559 0.008548 0.000000 0.001022 0.000000
# 4 0.000000 0.000000 0.000000 0.019275 0.000000 0.002181
# 5 0.001568 -0.003081 0.001022 0.000000 0.028366 0.000000
# 6 0.000000 0.000000 0.000000 0.002181 0.000000 0.035179
#
#
# Mechanical properties :
#
#
# Convention : Reuss Voigt Hill
#
# Bulk Modulus (GPa) = 67.93146 87.33150 77.63148
# Shear Modulus (GPa) = 34.48801 38.35256 36.42028
#
# Velocity S-wave (km/s) = 3.74801 3.95242 3.85157
# Velocity P-wave (km/s) = 6.81173 7.51002 7.16939
#
# Compressibility (1/GPa) = 0.01472072
#
# Stress axis : x y z
#
# Youngs Moduli (GPa) = 68.76685 77.54464 116.98583
#
# Poissons Ratio (x) = 0.08082 0.58862
# Poissons Ratio (y) = 0.07167 0.53329
# Poissons Ratio (z) = 0.34601 0.35350
#
# Static dielectric constant tensor:
#      x y z
#    x 4.297990 0.000000 0.078760 
#    y 0.000000 4.442870 0.000000 
#    z 0.078760 0.000000 4.844490 
# 
# 
# High freq. dielectric constant tensor:
#      x y z
#    x 1.967430 0.000000 0.004210 
#    y 0.000000 1.952720 0.000000 
#    z 0.004210 0.000000 2.011790 
# 
# From -- ./inp_files/5311.got.cif
#   From: 2010.06.25/outbox.cif.g09.slc.cpg/sg9_3_cif.got.tgz:5311.got - 2010.06.27 21:40:51.
