data_PCOD8056087
_publ_section_title
;
Structure prediction by ZEFSAII (Michael W. Deem and Ramdas Pophale) SiO2 
 PCOD8056087
Probable space group: C C
;
_chemical_formula_sum "Si O2"
_cell_formula_units_Z 32
_cell_length_a 8.816979
_cell_length_b 20.278661
_cell_length_c 8.813544
_cell_angle_alpha 90.000000
_cell_angle_beta 112.105168
_cell_angle_gamma 90.000000
_cell_volume 1459.999120
_symmetry_space_group_name_H-M "C C"
_symmetry_group_IT_number 9
_symmetry_cell_setting 'monoclinic'
loop_
_space_group_symop_operation_xyz
x,y,z
x,-y,1/2+z
1/2+x,1/2+y,z
1/2+x,1/2-y,1/2+z
loop_
_atom_site_type_symbol
_atom_site_label
_atom_site_fract_x
_atom_site_fract_y
_atom_site_fract_z
Si Si1 0.319490 0.134558 0.787270
Si Si2 0.960364 0.589725 0.283930
Si Si3 0.639802 0.870263 0.593214
Si Si4 0.162665 0.829855 0.753402
Si Si5 0.581986 0.555657 0.859849
Si Si6 0.849629 0.748657 0.583062
Si Si7 0.879258 0.468664 0.058260
Si Si8 0.943066 0.056420 0.138715
O O1 0.148614 0.124771 0.815572
O O2 0.344409 0.208721 0.738655
O O3 0.309635 0.087328 0.639716
O O4 0.466746 0.114395 0.951638
O O5 0.788880 0.630255 0.190159
O O6 0.975275 0.522727 0.190906
O O7 0.986702 0.569731 0.469569
O O8 0.107006 0.633633 0.264558
O O9 0.718099 0.805354 0.554242
O O10 0.752291 0.931718 0.591249
O O11 0.036452 0.776737 0.627664
O O12 0.045743 0.888414 0.776138
O O13 0.284631 0.795276 0.919166
O O14 0.463521 0.519240 0.695703
O O15 0.729942 0.503715 0.918519
O O16 0.489868 0.568538 0.981342
#
# Coordination Sequence:
#
# PCOD8056087 Si02
#       8
#     4   4   4   4   4   4   4   4
#     4  12  21  41  70  95 133 181 227 271 350 407
#     4  12  22  42  69 101 131 175 224 279 346 413
#     4  11  26  45  62  99 140 174 226 291 333 407
#     4  11  21  43  68  95 133 181 228 281 334 402
#     4  12  20  41  69  98 127 178 222 279 342 416
#     4  11  24  43  68  95 137 183 229 286 334 399
#     4  12  20  36  72  97 121 170 225 266 342 412
#     4  11  24  41  66 100 136 172 229 285 341 402
#
# _framework density 21.917822000000001
#
# number of rings (size 3 to 8) (size 9 to 14) (size 15 to 20)
#    0.000    0.500    8.750    0.000    0.000    2.000 
#    6.750    0.000    0.000    0.000    0.000    0.000 
#    0.000    0.000    0.000    0.000    0.000    0.000 
#
# Total GULP energy -198215.620787 kJ/mol
# GULP energy per Si atom -12388.476299 kJ/mol
# Density = 2.186794 g / cm^3
# Si number density = 21.917822 Si / 1000 Ang^3
#
#
#
# Elastic Constant Matrix: (Units=GPa)
#
#
# Indices 1 2 3 4 5 6 
#
# 1 117.1673 39.3036 47.3733 0.0000 -16.1818 0.0000
# 2 39.3036 75.3271 21.7879 0.0000 0.7222 0.0000
# 3 47.3733 21.7879 84.2598 0.0000 -19.0110 0.0000
# 4 0.0000 0.0000 0.0000 34.0596 0.0000 -2.2092
# 5 -16.1818 0.7222 -19.0110 0.0000 35.0378 0.0000
# 6 0.0000 0.0000 0.0000 -2.2092 0.0000 19.2648
#
#
#
# Elastic Compliance Matrix: (Units=1/GPa)
#
#
# Indices 1 2 3 4 5 6 
#
# 1 0.012807 -0.005234 -0.005114 0.000000 0.003248 0.000000
# 2 -0.005234 0.016704 -0.002278 0.000000 -0.003998 0.000000
# 3 -0.005114 -0.002278 0.016876 0.000000 0.006842 0.000000
# 4 0.000000 0.000000 0.000000 0.029580 0.000000 0.003392
# 5 0.003248 -0.003998 0.006842 0.000000 0.033835 0.000000
# 6 0.000000 0.000000 0.000000 0.003392 0.000000 0.052297
#
#
# Mechanical properties :
#
#
# Convention : Reuss Voigt Hill
#
# Bulk Modulus (GPa) = 47.31874 54.85375 51.08624
# Shear Modulus (GPa) = 25.72044 28.89172 27.30608
#
# Velocity S-wave (km/s) = 3.42935 3.63462 3.53347
# Velocity P-wave (km/s) = 6.10873 6.53416 6.32502
#
# Compressibility (1/GPa) = 0.02113328
#
# Stress axis : x y z
#
# Youngs Moduli (GPa) = 78.08274 59.86640 59.25475
#
# Poissons Ratio (x) = 0.31335 0.30304
# Poissons Ratio (y) = 0.40870 0.13501
# Poissons Ratio (z) = 0.39933 0.13641
#
# Static dielectric constant tensor:
#      x y z
#    x 3.960410 0.000000 -0.103850 
#    y 0.000000 4.304400 0.000000 
#    z -0.103850 0.000000 3.863180 
# 
# 
# High freq. dielectric constant tensor:
#      x y z
#    x 1.852740 0.000000 -0.010370 
#    y 0.000000 1.864990 0.000000 
#    z -0.010370 0.000000 1.849610 
# 
# From -- ./inp_files/5814.got.cif
#   From: 2010.06.25/outbox.cif.g09.slc.cpg/sg9_3_cif.got.tgz:5814.got - 2010.06.27 21:40:51.
