data_PCOD8056888
_publ_section_title
;
Structure prediction by ZEFSAII (Michael W. Deem and Ramdas Pophale) SiO2 
 PCOD8056888
Probable space group: P 2/M
;
_chemical_formula_sum "Si O2"
_cell_formula_units_Z 32
_cell_length_a 14.485454
_cell_length_b 8.923801
_cell_length_c 26.397767
_cell_angle_alpha 90.000000
_cell_angle_beta 144.361958
_cell_angle_gamma 90.000000
_cell_volume 1988.228988
_symmetry_space_group_name_H-M "P 2/M"
_symmetry_group_IT_number 10
_symmetry_cell_setting 'monoclinic'
loop_
_space_group_symop_operation_xyz
x,y,z
-x,y,-z
-x,-y,-z
x,-y,z
loop_
_atom_site_type_symbol
_atom_site_label
_atom_site_fract_x
_atom_site_fract_y
_atom_site_fract_z
Si Si1 0.193085 0.176641 0.457186
Si Si2 0.221752 0.675998 0.260851
Si Si3 0.069535 0.179591 0.584683
Si Si4 0.966122 0.823221 0.903753
Si Si5 0.245510 0.822333 0.097194
Si Si6 0.320082 0.823715 0.408222
Si Si7 0.514420 0.830984 0.350339
Si Si8 0.585194 0.832103 0.265757
O O1 0.202547 0.219208 0.402229
O O2 0.351488 0.239442 0.553885
O O3 0.037710 0.240495 0.416434
O O4 0.193856 0.000000 0.465713
O O5 0.207846 0.500000 0.259425
O O6 0.063842 0.739858 0.162985
O O7 0.245790 0.742491 0.327113
O O8 0.364410 0.723634 0.287767
O O9 0.247248 0.245879 0.674075
O O10 0.000000 0.238204 0.500000
O O11 0.077693 0.000000 0.586505
O O12 0.842617 0.765168 0.891415
O O13 0.948810 0.000000 0.887654
O O14 0.143610 0.781481 0.001952
O O15 0.424111 0.752340 0.172735
O O16 0.260226 0.000000 0.110003
O O17 0.500000 0.769594 0.500000
O O18 0.321336 0.000000 0.398499
O O19 0.581418 0.833729 0.324347
O O20 0.466556 0.000000 0.346209
O O21 0.587979 0.000000 0.245145
#
# Coordination Sequence:
#
# PCOD8056888 Si02
#       8
#     4   4   4   4   4   4   4   4
#     4   9  16  26  41  64  91 120 152 182 215 254
#     4  12  23  31  42  65  93 119 150 189 232 266
#     4   9  14  20  35  67 102 120 136 175 222 259
#     4   9  16  29  47  64  87 117 152 184 216 267
#     4   8  14  24  43  68  89 116 150 183 215 259
#     4  10  19  32  49  64  84 119 158 188 216 261
#     4  10  16  27  46  64  89 124 157 181 205 257
#     4   9  14  21  40  68  96 121 146 177 216 257
#
# _framework density 16.094726000000001
#
# number of rings (size 3 to 8) (size 9 to 14) (size 15 to 20)
#    0.000    2.500    3.750    1.875    0.000    0.250 
#    0.000    1.250    0.000    0.000    0.000    3.500 
#    0.000    7.000    0.000    0.000    0.000    0.000 
#
# Total GULP energy -396481.131885 kJ/mol
# GULP energy per Si atom -12390.035371 kJ/mol
# Density = 1.605809 g / cm^3
# Si number density = 16.094726 Si / 1000 Ang^3
#
#
#
# Elastic Constant Matrix: (Units=GPa)
#
#
# Indices 1 2 3 4 5 6 
#
# 1 88.1988 19.5679 51.1829 0.0000 3.0272 0.0000
# 2 19.5679 33.7185 32.4019 0.0000 -5.9074 0.0000
# 3 51.1829 32.4019 142.9873 0.0000 1.0269 0.0000
# 4 0.0000 0.0000 0.0000 2.9312 0.0000 0.1388
# 5 3.0272 -5.9074 1.0269 0.0000 25.7182 0.0000
# 6 0.0000 0.0000 0.0000 0.1388 0.0000 1.8346
#
#
#
# Elastic Compliance Matrix: (Units=1/GPa)
#
#
# Indices 1 2 3 4 5 6 
#
# 1 0.015008 -0.005184 -0.004177 0.000000 -0.002791 0.000000
# 2 -0.005184 0.041936 -0.007723 0.000000 0.010551 0.000000
# 3 -0.004177 -0.007723 0.010251 0.000000 -0.001692 0.000000
# 4 0.000000 0.000000 0.000000 0.342386 0.000000 -0.025897
# 5 -0.002791 0.010551 -0.001692 0.000000 0.041703 0.000000
# 6 0.000000 0.000000 0.000000 -0.025897 0.000000 0.547025
#
#
# Mechanical properties :
#
#
# Convention : Reuss Voigt Hill
#
# Bulk Modulus (GPa) = 30.27930 52.35666 41.31798
# Shear Modulus (GPa) = 4.79163 16.88026 10.83594
#
# Velocity S-wave (km/s) = 1.72731 3.24204 2.59754
# Velocity P-wave (km/s) = 4.77830 6.82755 5.89269
#
# Compressibility (1/GPa) = 0.03302587
#
# Stress axis : x y z
#
# Youngs Moduli (GPa) = 66.63014 23.84590 97.54974
#
# Poissons Ratio (x) = 0.12363 0.40751
# Poissons Ratio (y) = 0.34543 0.75338
# Poissons Ratio (z) = 0.27834 0.18416
#
# Static dielectric constant tensor:
#      x y z
#    x 3.059470 0.000000 0.166520 
#    y 0.000000 2.543330 0.000000 
#    z 0.166520 0.000000 3.335200 
# 
# 
# High freq. dielectric constant tensor:
#      x y z
#    x 1.594660 0.000000 0.003520 
#    y 0.000000 1.560630 0.000000 
#    z 0.003520 0.000000 1.624020 
# 
# From -- ./inp_files/77400.got.cif
#   From: 2010.06.25/outbox.cif.g09.slc.cpg/sg10_39_cif.got.tgz:77400.got - 2010.06.27 22:07:45.
