data_PCOD8056444
_publ_section_title
;
Structure prediction by ZEFSAII (Michael W. Deem and Ramdas Pophale) SiO2 
 PCOD8056444
Probable space group: C C
;
_chemical_formula_sum "Si O2"
_cell_formula_units_Z 28
_cell_length_a 12.477918
_cell_length_b 17.752237
_cell_length_c 9.396255
_cell_angle_alpha 90.000000
_cell_angle_beta 34.223732
_cell_angle_gamma 90.000000
_cell_volume 1170.618348
_symmetry_space_group_name_H-M "C C"
_symmetry_group_IT_number 9
_symmetry_cell_setting 'monoclinic'
loop_
_space_group_symop_operation_xyz
x,y,z
x,-y,1/2+z
1/2+x,1/2+y,z
1/2+x,1/2-y,1/2+z
loop_
_atom_site_type_symbol
_atom_site_label
_atom_site_fract_x
_atom_site_fract_y
_atom_site_fract_z
Si Si1 0.014900 0.349549 0.150360
Si Si2 0.018002 0.847491 0.317481
Si Si3 0.260330 0.369398 0.138950
Si Si4 0.165546 0.307218 0.534514
Si Si5 0.082022 0.821939 0.566305
Si Si6 0.563887 0.988265 0.912009
Si Si7 0.866717 0.570925 0.360162
O O1 0.067992 0.364173 0.255949
O O2 0.788786 0.354351 0.376100
O O3 0.099090 0.267387 0.025134
O O4 0.114431 0.408992 0.933302
O O5 0.004462 0.851998 0.502200
O O6 0.807988 0.852983 0.482356
O O7 0.130673 0.775864 0.130484
O O8 0.142030 0.920228 0.135498
O O9 0.253139 0.310198 0.278066
O O10 0.252047 0.456656 0.204460
O O11 0.444297 0.348902 0.843984
O O12 0.960770 0.346348 0.759242
O O13 0.480114 0.979583 0.847880
O O14 0.392655 0.029598 0.183069
#
# Coordination Sequence:
#
# PCOD8056444 Si02
#       7
#     4   4   4   4   4   4   4
#     4  12  24  46  76 107 149 189 258 304 377 439
#     4  12  24  44  73 107 145 184 248 305 372 440
#     4  11  28  47  74 109 150 198 245 315 375 452
#     4  11  26  43  71 106 144 187 241 306 371 430
#     4  12  26  43  80 114 140 201 249 316 368 448
#     4  11  24  49  72  99 148 199 237 301 378 441
#     4  11  24  46  70 100 142 194 234 303 369 442
#
# _framework density 23.918980999999999
#
# number of rings (size 3 to 8) (size 9 to 14) (size 15 to 20)
#    0.000    0.571    5.714    1.714    4.000    2.286 
#    2.571    2.857    0.000    0.000    0.000    0.000 
#    0.000    0.000    0.000    0.000    0.000    0.000 
#
# Total GULP energy -173571.412780 kJ/mol
# GULP energy per Si atom -12397.958056 kJ/mol
# Density = 2.386454 g / cm^3
# Si number density = 23.918981 Si / 1000 Ang^3
#
#
#
# Elastic Constant Matrix: (Units=GPa)
#
#
# Indices 1 2 3 4 5 6 
#
# 1 109.6445 -14.8918 24.2556 -0.0190 5.7264 0.0194
# 2 -14.8918 77.8529 30.2132 -0.0121 -3.6825 0.0160
# 3 24.2556 30.2132 83.3410 -0.0191 19.4562 0.0265
# 4 -0.0190 -0.0121 -0.0191 39.4716 0.0010 7.5453
# 5 5.7264 -3.6825 19.4562 0.0010 38.0038 0.0018
# 6 0.0194 0.0160 0.0265 7.5453 0.0018 18.2441
#
#
#
# Elastic Compliance Matrix: (Units=1/GPa)
#
#
# Indices 1 2 3 4 5 6 
#
# 1 0.010666 0.003978 -0.004839 0.000006 0.001256 -0.000010
# 2 0.003978 0.017242 -0.008698 0.000005 0.005525 -0.000009
# 3 -0.004839 -0.008698 0.018839 0.000008 -0.009758 -0.000017
# 4 0.000006 0.000005 0.000008 0.027510 -0.000005 -0.011377
# 5 0.001256 0.005525 -0.009758 -0.000005 0.031655 0.000007
# 6 -0.000010 -0.000009 -0.000017 -0.011377 0.000007 0.059518
#
#
# Mechanical properties :
#
#
# Convention : Reuss Voigt Hill
#
# Bulk Modulus (GPa) = 36.19645 38.88807 37.54226
# Shear Modulus (GPa) = 25.80544 34.56131 30.18337
#
# Velocity S-wave (km/s) = 3.28818 3.80535 3.55618
# Velocity P-wave (km/s) = 5.43893 5.96667 5.70890
#
# Compressibility (1/GPa) = 0.02762702
#
# Stress axis : x y z
#
# Youngs Moduli (GPa) = 93.75970 57.99630 53.08221
#
# Poissons Ratio (x) = -0.23068 0.25688
# Poissons Ratio (y) = -0.37293 0.46172
# Poissons Ratio (z) = 0.45373 0.50446
#
# Static dielectric constant tensor:
#      x y z
#    x 4.379030 -0.000050 0.164080 
#    y -0.000050 4.457690 0.000040 
#    z 0.164080 0.000040 4.201860 
# 
# 
# High freq. dielectric constant tensor:
#      x y z
#    x 1.950500 0.000000 0.013790 
#    y 0.000000 1.949730 0.000000 
#    z 0.013790 0.000000 1.952990 
# 
# From -- ./inp_files/8246.got.cif
#   From: 2010.06.25/outbox.cif.g09.slc.cpg/sg9_5_cif.got.tgz:8246.got - 2010.06.27 21:40:51.
