data_PCOD8056842
_publ_section_title
;
Structure prediction by ZEFSAII (Michael W. Deem and Ramdas Pophale) SiO2 
 PCOD8056842
Probable space group: P 2/M
;
_chemical_formula_sum "Si O2"
_cell_formula_units_Z 32
_cell_length_a 13.873533
_cell_length_b 9.010209
_cell_length_c 29.297581
_cell_angle_alpha 90.000000
_cell_angle_beta 145.373274
_cell_angle_gamma 90.000000
_cell_volume 2081.019050
_symmetry_space_group_name_H-M "P 2/M"
_symmetry_group_IT_number 10
_symmetry_cell_setting 'monoclinic'
loop_
_space_group_symop_operation_xyz
x,y,z
-x,y,-z
-x,-y,-z
x,-y,z
loop_
_atom_site_type_symbol
_atom_site_label
_atom_site_fract_x
_atom_site_fract_y
_atom_site_fract_z
Si Si1 0.758080 0.334144 0.590188
Si Si2 0.605498 0.324532 0.440523
Si Si3 0.061475 0.676957 0.475813
Si Si4 0.765467 0.675626 0.693370
Si Si5 0.107119 0.174755 0.843571
Si Si6 0.606861 0.666872 0.995767
Si Si7 0.683554 0.825862 0.164379
Si Si8 0.116698 0.666823 0.683949
O O1 0.689957 0.500000 0.571283
O O2 0.643277 0.257043 0.506013
O O3 0.744776 0.256231 0.634251
O O4 0.951565 0.333736 0.650584
O O5 0.634544 0.500000 0.456220
O O6 0.746632 0.263869 0.459817
O O7 0.412749 0.288523 0.349990
O O8 0.062067 0.500000 0.477926
O O9 0.000000 0.745105 0.500000
O O10 0.931313 0.727791 0.385230
O O11 0.805237 0.500000 0.708723
O O12 0.919132 0.759917 0.777438
O O13 0.182427 0.218206 0.823200
O O14 0.102360 0.000000 0.848471
O O15 0.220063 0.243878 0.927996
O O16 0.649788 0.500000 0.996464
O O17 0.497333 0.748104 0.914288
O O18 0.500000 0.665368 0.000000
O O19 0.747822 0.773465 0.238997
O O20 0.653106 0.000000 0.153116
O O21 0.191572 0.500000 0.710080
#
# Coordination Sequence:
#
# PCOD8056842 Si02
#       8
#     4   4   4   4   4   4   4   4
#     4   8  13  21  34  53  76 100 132 172 203 227
#     4   8  14  22  35  57  78 102 136 171 207 243
#     4   8  14  25  41  62  86 106 130 173 220 249
#     4  10  16  23  38  56  77 105 140 174 199 233
#     4  10  19  28  37  53  81 113 140 166 204 242
#     4   9  17  28  42  57  75 104 142 175 200 231
#     4  10  18  27  39  56  81 109 137 170 205 240
#     4   9  15  24  40  60  79 105 140 171 203 244
#
# _framework density 15.377082
#
# number of rings (size 3 to 8) (size 9 to 14) (size 15 to 20)
#    0.000    3.000    1.250    3.000    0.000    4.000 
#    0.000    0.000    0.000    4.875    0.000    0.000 
#    0.000    1.000    0.000   11.750    0.000    2.250 
#
# Total GULP energy -396511.057756 kJ/mol
# GULP energy per Si atom -12390.970555 kJ/mol
# Density = 1.534208 g / cm^3
# Si number density = 15.377082 Si / 1000 Ang^3
#
#
#
# Elastic Constant Matrix: (Units=GPa)
#
#
# Indices 1 2 3 4 5 6 
#
# 1 57.8482 18.3062 48.8042 0.0000 -0.4675 0.0000
# 2 18.3062 53.3078 44.9654 0.0000 3.2824 0.0000
# 3 48.8042 44.9654 132.8085 0.0000 9.9755 0.0000
# 4 0.0000 0.0000 0.0000 5.6933 0.0000 -0.9290
# 5 -0.4675 3.2824 9.9755 0.0000 17.1369 0.0000
# 6 0.0000 0.0000 0.0000 -0.9290 0.0000 6.8810
#
#
#
# Elastic Compliance Matrix: (Units=1/GPa)
#
#
# Indices 1 2 3 4 5 6 
#
# 1 0.025780 -0.001190 -0.009558 0.000000 0.006495 0.000000
# 2 -0.001190 0.026313 -0.008460 0.000000 -0.000148 0.000000
# 3 -0.009558 -0.008460 0.014436 0.000000 -0.007043 0.000000
# 4 0.000000 0.000000 0.000000 0.179602 0.000000 0.024248
# 5 0.006495 -0.000148 -0.007043 0.000000 0.062659 0.000000
# 6 0.000000 0.000000 0.000000 0.024248 0.000000 0.148601
#
#
# Mechanical properties :
#
#
# Convention : Reuss Voigt Hill
#
# Bulk Modulus (GPa) = 35.57406 52.01291 43.79348
# Shear Modulus (GPa) = 9.89746 14.73481 12.31614
#
# Velocity S-wave (km/s) = 2.53978 3.09889 2.83316
# Velocity P-wave (km/s) = 5.63785 6.83393 6.26450
#
# Compressibility (1/GPa) = 0.02811037
#
# Stress axis : x y z
#
# Youngs Moduli (GPa) = 38.79011 38.00360 69.27301
#
# Poissons Ratio (x) = 0.04524 0.66213
# Poissons Ratio (y) = 0.04617 0.58608
# Poissons Ratio (z) = 0.37077 0.32153
#
# Static dielectric constant tensor:
#      x y z
#    x 2.764800 0.000000 0.036630 
#    y 0.000000 2.655630 0.000000 
#    z 0.036630 0.000000 3.058010 
# 
# 
# High freq. dielectric constant tensor:
#      x y z
#    x 1.535630 0.000000 0.009280 
#    y 0.000000 1.557850 0.000000 
#    z 0.009280 0.000000 1.595170 
# 
# From -- ./inp_files/95267.got.cif
#   From: 2010.06.25/outbox.cif.g09.slc.cpg/sg10_48_cif.got.tgz:95267.got - 2010.06.27 22:07:45.
