data_PCOD8056026
_publ_section_title
;
Structure prediction by ZEFSAII (Michael W. Deem and Ramdas Pophale) SiO2 
 PCOD8056026
Probable space group: C C
;
_chemical_formula_sum "Si O2"
_cell_formula_units_Z 28
_cell_length_a 9.274642
_cell_length_b 24.813890
_cell_length_c 9.083565
_cell_angle_alpha 90.000000
_cell_angle_beta 35.156011
_cell_angle_gamma 90.000000
_cell_volume 1203.714806
_symmetry_space_group_name_H-M "C C"
_symmetry_group_IT_number 9
_symmetry_cell_setting 'monoclinic'
loop_
_space_group_symop_operation_xyz
x,y,z
x,-y,1/2+z
1/2+x,1/2+y,z
1/2+x,1/2-y,1/2+z
loop_
_atom_site_type_symbol
_atom_site_label
_atom_site_fract_x
_atom_site_fract_y
_atom_site_fract_z
Si Si1 0.203630 0.718499 0.166370
Si Si2 0.597312 0.543870 0.044524
Si Si3 0.566364 0.382620 0.825054
Si Si4 0.826758 0.463039 0.043341
Si Si5 0.238325 0.465161 0.269314
Si Si6 0.517869 0.882842 0.665034
Si Si7 0.850404 0.218461 0.371340
O O1 0.279886 0.698845 0.265998
O O2 0.931013 0.746995 0.405973
O O3 0.178483 0.669268 0.073716
O O4 0.644574 0.598276 0.095959
O O5 0.612367 0.484542 0.113237
O O6 0.314529 0.529220 0.229886
O O7 0.769971 0.549734 0.758632
O O8 0.800419 0.366688 0.731212
O O9 0.388076 0.331161 0.952263
O O10 0.421472 0.434501 0.006142
O O11 0.919049 0.406829 0.900200
O O12 0.978552 0.520602 0.905635
O O13 0.198193 0.427744 0.445004
O O14 0.618842 0.250999 0.636500
#
# Coordination Sequence:
#
# PCOD8056026 Si02
#       7
#     4   4   4   4   4   4   4
#     4  10  26  51  76 106 142 187 248 308 369 438
#     4  12  24  43  65 100 148 188 237 289 347 432
#     4  12  27  44  72 107 142 190 239 297 368 427
#     4  12  24  43  65 100 148 188 237 289 347 432
#     4  12  24  42  66 102 148 186 236 282 352 440
#     4  12  27  44  72 107 142 190 239 297 368 427
#     4  10  26  51  76 106 142 187 248 308 369 438
#
# _framework density 23.261322
#
# number of rings (size 3 to 8) (size 9 to 14) (size 15 to 20)
#    0.000    0.571    5.714    0.857    6.000    4.571 
#    0.000    0.000    0.000    0.000    0.000    0.000 
#    0.000    0.000    0.000    0.000    0.000    0.000 
#
# Total GULP energy -173451.695972 kJ/mol
# GULP energy per Si atom -12389.406855 kJ/mol
# Density = 2.320838 g / cm^3
# Si number density = 23.261322 Si / 1000 Ang^3
#
#
#
# Elastic Constant Matrix: (Units=GPa)
#
#
# Indices 1 2 3 4 5 6 
#
# 1 96.8564 62.5541 49.1567 0.0000 13.7329 0.0000
# 2 62.5541 97.5491 26.4358 0.0000 -4.5901 0.0000
# 3 49.1567 26.4358 95.8541 0.0000 -16.2867 0.0000
# 4 0.0000 0.0000 0.0000 16.2847 0.0000 0.6010
# 5 13.7329 -4.5901 -16.2867 0.0000 26.3498 0.0000
# 6 0.0000 0.0000 0.0000 0.6010 0.0000 34.7807
#
#
#
# Elastic Compliance Matrix: (Units=1/GPa)
#
#
# Indices 1 2 3 4 5 6 
#
# 1 0.041210 -0.022413 -0.021526 0.000000 -0.038687 0.000000
# 2 -0.022413 0.023269 0.008659 0.000000 0.021087 0.000000
# 3 -0.021526 0.008659 0.023739 0.000000 0.027400 0.000000
# 4 0.000000 0.000000 0.000000 0.061447 0.000000 -0.001062
# 5 -0.038687 0.021087 0.027400 0.000000 0.078723 0.000000
# 6 0.000000 0.000000 0.000000 -0.001062 0.000000 0.028770
#
#
# Mechanical properties :
#
#
# Convention : Reuss Voigt Hill
#
# Bulk Modulus (GPa) = 56.62619 62.95029 59.78824
# Shear Modulus (GPa) = 14.98792 25.62389 20.30591
#
# Velocity S-wave (km/s) = 2.54112 3.32259 2.95777
# Velocity P-wave (km/s) = 5.74509 6.46842 6.11745
#
# Compressibility (1/GPa) = 0.01765967
#
# Stress axis : x y z
#
# Youngs Moduli (GPa) = 24.26608 42.97506 42.12524
#
# Poissons Ratio (x) = 0.96320 0.90677
# Poissons Ratio (y) = 0.54388 -0.36478
# Poissons Ratio (z) = 0.52234 -0.37214
#
# Static dielectric constant tensor:
#      x y z
#    x 4.413420 0.000000 -0.141850 
#    y 0.000000 3.863690 0.000000 
#    z -0.141850 0.000000 4.158430 
# 
# 
# High freq. dielectric constant tensor:
#      x y z
#    x 1.948830 0.000000 -0.008300 
#    y 0.000000 1.904500 0.000000 
#    z -0.008300 0.000000 1.921620 
# 
# From -- ./inp_files/832.got.cif
#   From: 2010.06.25/outbox.cif.g09.slc.cpg/sg9_1_cif.got.tgz:832.got - 2010.06.27 21:40:51.
