data_PCOD8056647
_publ_section_title
;
Structure prediction by ZEFSAII (Michael W. Deem and Ramdas Pophale) SiO2 
 PCOD8056647
Probable space group: C C
;
_chemical_formula_sum "Si O2"
_cell_formula_units_Z 32
_cell_length_a 13.666227
_cell_length_b 22.069531
_cell_length_c 9.218640
_cell_angle_alpha 90.000000
_cell_angle_beta 149.419103
_cell_angle_gamma 90.000000
_cell_volume 1414.545021
_symmetry_space_group_name_H-M "C C"
_symmetry_group_IT_number 9
_symmetry_cell_setting 'monoclinic'
loop_
_space_group_symop_operation_xyz
x,y,z
x,-y,1/2+z
1/2+x,1/2+y,z
1/2+x,1/2-y,1/2+z
loop_
_atom_site_type_symbol
_atom_site_label
_atom_site_fract_x
_atom_site_fract_y
_atom_site_fract_z
Si Si1 0.259440 0.878770 0.806150
Si Si2 0.864540 0.754479 0.983718
Si Si3 0.716939 0.256878 0.587020
Si Si4 0.986453 0.433204 0.864766
Si Si5 0.902385 0.865002 0.815815
Si Si6 0.851099 0.862461 0.416767
Si Si7 0.337990 0.123714 0.899999
Si Si8 0.526987 0.931074 0.378463
O O1 0.301778 0.815666 0.776077
O O2 0.317726 0.932852 0.770805
O O3 0.044084 0.887827 0.587992
O O4 0.406294 0.883876 0.127501
O O5 0.678294 0.744974 0.854172
O O6 0.982649 0.760626 0.295057
O O7 0.846975 0.811397 0.856052
O O8 0.874044 0.693472 0.899450
O O9 0.787157 0.197463 0.754957
O O10 0.995682 0.498560 0.800336
O O11 0.928399 0.383071 0.673872
O O12 0.189473 0.414613 0.197906
O O13 0.889805 0.844020 0.632636
O O14 0.753230 0.918806 0.654423
O O15 0.112118 0.892196 0.114164
O O16 0.455195 0.078129 0.949621
#
# Coordination Sequence:
#
# PCOD8056647 Si02
#       8
#     4   4   4   4   4   4   4   4
#     4  12  25  48  75 111 147 194 247 306 372 433
#     4  12  23  45  73 107 150 186 237 306 373 441
#     4  12  23  44  74 108 147 186 243 299 373 442
#     4  12  27  52  76 104 150 198 255 301 362 448
#     4  12  28  47  73 115 148 189 248 303 375 436
#     4  12  27  47  77 111 145 199 240 307 371 439
#     4  12  26  47  74 111 146 198 243 307 376 432
#     4  12  29  48  74 107 153 198 249 305 364 439
#
# _framework density 22.622114
#
# number of rings (size 3 to 8) (size 9 to 14) (size 15 to 20)
#    0.000    0.000    7.500    1.500    1.750    2.000 
#    0.000    0.000    0.000    0.000    0.000    0.000 
#    0.000    0.000    0.000    0.000    0.000    0.000 
#
# Total GULP energy -198303.707929 kJ/mol
# GULP energy per Si atom -12393.981746 kJ/mol
# Density = 2.257062 g / cm^3
# Si number density = 22.622114 Si / 1000 Ang^3
#
#
#
# Elastic Constant Matrix: (Units=GPa)
#
#
# Indices 1 2 3 4 5 6 
#
# 1 127.3402 41.0270 39.7480 0.0000 -7.2318 0.0000
# 2 41.0270 107.1012 35.2806 0.0000 5.3676 0.0000
# 3 39.7480 35.2806 119.9888 0.0000 2.1241 0.0000
# 4 0.0000 0.0000 0.0000 28.8264 0.0000 -5.0093
# 5 -7.2318 5.3676 2.1241 0.0000 39.1160 0.0000
# 6 0.0000 0.0000 0.0000 -5.0093 0.0000 24.9403
#
#
#
# Elastic Compliance Matrix: (Units=1/GPa)
#
#
# Indices 1 2 3 4 5 6 
#
# 1 0.009708 -0.003059 -0.002358 0.000000 0.002343 0.000000
# 2 -0.003059 0.011364 -0.002293 0.000000 -0.002001 0.000000
# 3 -0.002358 -0.002293 0.009801 0.000000 -0.000654 0.000000
# 4 0.000000 0.000000 0.000000 0.035945 0.000000 0.007220
# 5 0.002343 -0.002001 -0.000654 0.000000 0.026308 0.000000
# 6 0.000000 0.000000 0.000000 0.007220 0.000000 0.041546
#
#
# Mechanical properties :
#
#
# Convention : Reuss Voigt Hill
#
# Bulk Modulus (GPa) = 64.71073 65.17127 64.94100
# Shear Modulus (GPa) = 32.20771 34.46818 33.33794
#
# Velocity S-wave (km/s) = 3.77732 3.90763 3.84303
# Velocity P-wave (km/s) = 6.90590 7.01645 6.96139
#
# Compressibility (1/GPa) = 0.01545339
#
# Stress axis : x y z
#
# Youngs Moduli (GPa) = 103.01151 87.99396 102.03243
#
# Poissons Ratio (x) = 0.26921 0.24056
# Poissons Ratio (y) = 0.31516 0.23392
# Poissons Ratio (z) = 0.24287 0.20174
#
# Static dielectric constant tensor:
#      x y z
#    x 4.609450 0.000000 0.348060 
#    y 0.000000 3.653650 0.000000 
#    z 0.348060 0.000000 4.310710 
# 
# 
# High freq. dielectric constant tensor:
#      x y z
#    x 1.928220 0.000000 0.012480 
#    y 0.000000 1.873570 0.000000 
#    z 0.012480 0.000000 1.909170 
# 
# From -- ./inp_files/10083.got.cif
#   From: 2010.06.25/outbox.cif.g09.slc.cpg/sg9_6_cif.got.tgz:10083.got - 2010.06.27 21:40:51.
