data_PCOD8056624
_publ_section_title
;
Structure prediction by ZEFSAII (Michael W. Deem and Ramdas Pophale) SiO2 
 PCOD8056624
Probable space group: C C
;
_chemical_formula_sum "Si O2"
_cell_formula_units_Z 32
_cell_length_a 31.046912
_cell_length_b 5.013387
_cell_length_c 17.799533
_cell_angle_alpha 90.000000
_cell_angle_beta 152.951780
_cell_angle_gamma 90.000000
_cell_volume 1259.858021
_symmetry_space_group_name_H-M "C C"
_symmetry_group_IT_number 9
_symmetry_cell_setting 'monoclinic'
loop_
_space_group_symop_operation_xyz
x,y,z
x,-y,1/2+z
1/2+x,1/2+y,z
1/2+x,1/2-y,1/2+z
loop_
_atom_site_type_symbol
_atom_site_label
_atom_site_fract_x
_atom_site_fract_y
_atom_site_fract_z
Si Si1 0.150430 0.425899 0.206390
Si Si2 0.396643 0.302515 0.976709
Si Si3 0.087667 0.445004 0.768235
Si Si4 0.250961 0.074098 0.025231
Si Si5 0.849886 0.926294 0.742109
Si Si6 0.051505 0.926290 0.989510
Si Si7 0.504747 0.302512 0.754910
Si Si8 0.813725 0.554992 0.463385
O O1 0.140703 0.411960 0.281665
O O2 0.130909 0.718806 0.142571
O O3 0.257476 0.327516 0.353273
O O4 0.075688 0.220426 0.055120
O O5 0.450694 0.500002 0.115808
O O6 0.479587 0.107229 0.075017
O O7 0.349381 0.442000 0.831680
O O8 0.314925 0.138786 0.892983
O O9 0.086466 0.638788 0.838637
O O10 0.143916 0.172484 0.878350
O O11 0.325705 0.279564 0.176506
O O12 0.270480 0.781185 0.089044
O O13 0.260687 0.088045 0.949955
O O14 0.950695 0.837008 0.865809
O O15 0.052009 0.942000 0.899939
O O16 0.421805 0.107221 0.656606
#
# Coordination Sequence:
#
# PCOD8056624 Si02
#       8
#     4   4   4   4   4   4   4   4
#     4  12  27  47  78 110 146 200 253 311 363 457
#     4  11  27  49  76 108 155 203 246 313 383 450
#     4  11  27  48  75 111 151 201 252 305 386 444
#     4  12  27  47  78 110 146 200 253 311 363 457
#     4  12  26  47  75 111 152 194 255 307 380 441
#     4  12  26  47  75 111 152 194 255 307 380 441
#     4  11  27  49  76 108 155 203 246 313 383 450
#     4  11  27  48  75 111 151 201 252 305 386 444
#
# _framework density 25.399685999999999
#
# number of rings (size 3 to 8) (size 9 to 14) (size 15 to 20)
#    0.000    0.500    2.500    3.750   14.000    2.000 
#    0.000    0.000    0.000    0.000    0.000    0.000 
#    0.000    0.000    0.000    0.000    0.000    0.000 
#
# Total GULP energy -198501.622256 kJ/mol
# GULP energy per Si atom -12406.351391 kJ/mol
# Density = 2.534188 g / cm^3
# Si number density = 25.399686 Si / 1000 Ang^3
#
#
#
# Elastic Constant Matrix: (Units=GPa)
#
#
# Indices 1 2 3 4 5 6 
#
# 1 100.9812 9.3533 31.7219 0.0000 -21.9142 0.0002
# 2 9.3533 57.1022 -4.7306 -0.0006 -6.0644 -0.0011
# 3 31.7219 -4.7306 83.0565 -0.0002 -12.5847 0.0000
# 4 0.0000 -0.0006 -0.0002 59.7225 -0.0002 -3.8697
# 5 -21.9142 -6.0644 -12.5847 -0.0002 50.5149 0.0002
# 6 0.0002 -0.0011 0.0000 -3.8697 0.0002 38.7894
#
#
#
# Elastic Compliance Matrix: (Units=1/GPa)
#
#
# Indices 1 2 3 4 5 6 
#
# 1 0.012275 -0.001927 -0.004184 0.000000 0.004051 0.000000
# 2 -0.001927 0.018196 0.002054 0.000000 0.001860 0.000001
# 3 -0.004184 0.002054 0.014048 0.000000 0.001931 0.000000
# 4 0.000000 0.000000 0.000000 0.016853 0.000000 0.001681
# 5 0.004051 0.001860 0.001931 0.000000 0.022258 0.000000
# 6 0.000000 0.000001 0.000000 0.001681 0.000000 0.025948
#
#
# Mechanical properties :
#
#
# Convention : Reuss Voigt Hill
#
# Bulk Modulus (GPa) = 27.46901 34.86991 31.16946
# Shear Modulus (GPa) = 38.51306 43.45836 40.98571
#
# Velocity S-wave (km/s) = 3.89817 4.14089 4.02136
# Velocity P-wave (km/s) = 5.57666 6.05152 5.81894
#
# Compressibility (1/GPa) = 0.03640466
#
# Stress axis : x y z
#
# Youngs Moduli (GPa) = 81.46719 54.95761 71.18638
#
# Poissons Ratio (x) = 0.10590 0.29785
# Poissons Ratio (y) = 0.15699 -0.14623
# Poissons Ratio (z) = 0.34086 -0.11289
#
# Static dielectric constant tensor:
#      x y z
#    x 4.695900 0.000000 0.200120 
#    y 0.000000 4.521930 0.000000 
#    z 0.200120 0.000000 4.681440 
# 
# 
# High freq. dielectric constant tensor:
#      x y z
#    x 2.019860 0.000000 0.008080 
#    y 0.000000 2.017800 0.000000 
#    z 0.008080 0.000000 2.020620 
# 
# From -- ./inp_files/31758.got.cif
#   From: 2010.06.25/outbox.cif.g09.slc.cpg/sg9_16_cif.got.tgz:31758.got - 2010.06.27 21:40:51.
