data_PCOD8056514
_publ_section_title
;
Structure prediction by ZEFSAII (Michael W. Deem and Ramdas Pophale) SiO2 
 PCOD8056514
Probable space group: C C
;
_chemical_formula_sum "Si O2"
_cell_formula_units_Z 32
_cell_length_a 11.528321
_cell_length_b 13.828912
_cell_length_c 17.973051
_cell_angle_alpha 90.000000
_cell_angle_beta 149.865497
_cell_angle_gamma 90.000000
_cell_volume 1438.490383
_symmetry_space_group_name_H-M "C C"
_symmetry_group_IT_number 9
_symmetry_cell_setting 'monoclinic'
loop_
_space_group_symop_operation_xyz
x,y,z
x,-y,1/2+z
1/2+x,1/2+y,z
1/2+x,1/2-y,1/2+z
loop_
_atom_site_type_symbol
_atom_site_label
_atom_site_fract_x
_atom_site_fract_y
_atom_site_fract_z
Si Si1 0.232480 0.909464 0.718740
Si Si2 0.179623 0.656048 0.241252
Si Si3 0.108835 0.253238 0.548061
Si Si4 0.637162 0.104265 0.550683
Si Si5 0.923882 0.426188 0.234025
Si Si6 0.764966 0.063544 0.784284
Si Si7 0.283258 0.420752 0.555369
Si Si8 0.227373 0.183409 0.078412
O O1 0.235420 0.809219 0.674339
O O2 0.976486 0.933291 0.600891
O O3 0.296584 0.972828 0.680040
O O4 0.382069 0.916214 0.876306
O O5 0.064578 0.697434 0.102689
O O6 0.360834 0.736086 0.371780
O O7 0.305294 0.552246 0.298498
O O8 0.964959 0.640639 0.177435
O O9 0.223466 0.150132 0.614910
O O10 0.292925 0.322966 0.608489
O O11 0.633254 0.104213 0.637872
O O12 0.713394 0.202661 0.551494
O O13 0.800665 0.016421 0.615635
O O14 0.095530 0.419964 0.259816
O O15 0.045818 0.409155 0.380191
O O16 0.004710 0.122174 0.925882
#
# Coordination Sequence:
#
# PCOD8056514 Si02
#       8
#     4   4   4   4   4   4   4   4
#     4  11  25  46  70 104 144 193 239 300 369 431
#     4  12  29  48  75 108 149 196 246 303 368 435
#     4  12  27  48  72 109 143 196 243 299 367 433
#     4  11  28  43  70 108 143 192 246 304 363 423
#     4  11  25  45  74 100 144 188 235 300 366 435
#     4  12  26  50  72 111 147 188 252 301 363 437
#     4  11  25  47  68 104 149 189 242 298 365 432
#     4  12  27  47  73 106 145 198 239 303 365 442
#
# _framework density 22.245543000000001
#
# number of rings (size 3 to 8) (size 9 to 14) (size 15 to 20)
#    0.000    0.500    5.000    1.500    8.750    2.000 
#    0.000    0.000    0.000    0.000    0.000    0.000 
#    0.000    0.000    0.000    0.000    0.000    0.000 
#
# Total GULP energy -198272.731214 kJ/mol
# GULP energy per Si atom -12392.045701 kJ/mol
# Density = 2.219491 g / cm^3
# Si number density = 22.245543 Si / 1000 Ang^3
#
#
#
# Elastic Constant Matrix: (Units=GPa)
#
#
# Indices 1 2 3 4 5 6 
#
# 1 111.3735 32.4244 48.7155 -0.0008 2.3739 -0.0002
# 2 32.4244 115.7826 43.7209 0.0107 1.7074 0.0013
# 3 48.7155 43.7209 85.6998 0.0171 -8.5785 0.0027
# 4 -0.0008 0.0107 0.0171 28.0128 0.0013 -4.5891
# 5 2.3739 1.7074 -8.5785 0.0013 43.7083 -0.0012
# 6 -0.0002 0.0013 0.0027 -4.5891 -0.0012 31.0253
#
#
#
# Elastic Compliance Matrix: (Units=1/GPa)
#
#
# Indices 1 2 3 4 5 6 
#
# 1 0.012196 -0.000862 -0.006688 0.000005 -0.001941 0.000001
# 2 -0.000862 0.010858 -0.005190 -0.000001 -0.001396 0.000000
# 3 -0.006688 -0.005190 0.018539 -0.000010 0.004204 -0.000003
# 4 0.000005 -0.000001 -0.000010 0.036584 -0.000003 0.005411
# 5 -0.001941 -0.001396 0.004204 -0.000003 0.023864 0.000000
# 6 0.000001 0.000000 -0.000003 0.005411 0.000000 0.033032
#
#
# Mechanical properties :
#
#
# Convention : Reuss Voigt Hill
#
# Bulk Modulus (GPa) = 62.05132 62.50861 62.27997
# Shear Modulus (GPa) = 30.13439 33.08228 31.60834
#
# Velocity S-wave (km/s) = 3.68452 3.86053 3.77355
# Velocity P-wave (km/s) = 6.78640 6.93051 6.85884
#
# Compressibility (1/GPa) = 0.01611569
#
# Stress axis : x y z
#
# Youngs Moduli (GPa) = 81.99252 92.09495 53.94154
#
# Poissons Ratio (x) = 0.07934 0.36074
# Poissons Ratio (y) = 0.07064 0.27993
# Poissons Ratio (z) = 0.54834 0.47793
#
# Static dielectric constant tensor:
#      x y z
#    x 3.881000 0.000000 -0.208310 
#    y 0.000000 4.235390 -0.000010 
#    z -0.208310 -0.000010 3.961440 
# 
# 
# High freq. dielectric constant tensor:
#      x y z
#    x 1.876120 0.000000 -0.013140 
#    y 0.000000 1.892890 0.000000 
#    z -0.013140 0.000000 1.880310 
# 
# From -- ./inp_files/19398.got.cif
#   From: 2010.06.25/outbox.cif.g09.slc.cpg/sg9_10_cif.got.tgz:19398.got - 2010.06.27 21:40:51.
