data_PCOD8056703
_publ_section_title
;
Structure prediction by ZEFSAII (Michael W. Deem and Ramdas Pophale) SiO2 
 PCOD8056703
Probable space group: C C
;
_chemical_formula_sum "Si O2"
_cell_formula_units_Z 28
_cell_length_a 5.212374
_cell_length_b 22.768540
_cell_length_c 10.860682
_cell_angle_alpha 90.000000
_cell_angle_beta 111.472494
_cell_angle_gamma 90.000000
_cell_volume 1199.465669
_symmetry_space_group_name_H-M "C C"
_symmetry_group_IT_number 9
_symmetry_cell_setting 'monoclinic'
loop_
_space_group_symop_operation_xyz
x,y,z
x,-y,1/2+z
1/2+x,1/2+y,z
1/2+x,1/2-y,1/2+z
loop_
_atom_site_type_symbol
_atom_site_label
_atom_site_fract_x
_atom_site_fract_y
_atom_site_fract_z
Si Si1 0.165100 0.764379 0.860360
Si Si2 0.423464 0.381111 0.784587
Si Si3 0.491533 0.057378 0.382746
Si Si4 0.763249 0.105138 0.667321
Si Si5 0.030047 0.332304 0.524814
Si Si6 0.865408 0.424552 0.318551
Si Si7 0.701332 0.765716 0.095748
O O1 0.073854 0.755075 0.703097
O O2 0.998116 0.822086 0.876334
O O3 0.099966 0.705622 0.918983
O O4 0.487803 0.775954 0.946064
O O5 0.699244 0.415110 0.794989
O O6 0.290792 0.363907 0.631075
O O7 0.222815 0.421418 0.828308
O O8 0.564986 0.075526 0.533290
O O9 0.477941 0.987727 0.375197
O O10 0.586769 0.102837 0.761948
O O11 0.848585 0.172127 0.647571
O O12 0.051753 0.069976 0.715603
O O13 0.839301 0.384164 0.436848
O O14 0.900358 0.288393 0.601200
#
# Coordination Sequence:
#
# PCOD8056703 Si02
#       7
#     4   4   4   4   4   4   4
#     4  12  25  46  73 115 152 200 251 320 386 462
#     4  12  27  49  77 112 153 205 254 314 386 454
#     4  12  28  51  78 109 152 205 258 317 373 459
#     4  12  27  51  77 113 148 203 255 314 384 459
#     4  12  29  46  77 113 155 199 251 321 388 461
#     4  12  30  50  78 110 155 198 257 317 380 450
#     4  12  26  47  76 112 159 196 254 317 395 455
#
# _framework density 23.343726
#
# number of rings (size 3 to 8) (size 9 to 14) (size 15 to 20)
#    0.000    0.000    4.286    4.286   10.000    0.000 
#    0.000    0.000    0.000    0.000    0.000    0.000 
#    0.000    0.000    0.000    0.000    0.000    0.000 
#
# Total GULP energy -173581.162655 kJ/mol
# GULP energy per Si atom -12398.654475 kJ/mol
# Density = 2.329059 g / cm^3
# Si number density = 23.343726 Si / 1000 Ang^3
#
#
#
# Elastic Constant Matrix: (Units=GPa)
#
#
# Indices 1 2 3 4 5 6 
#
# 1 86.6133 41.4963 0.2662 0.0000 0.2011 0.0000
# 2 41.4963 167.6204 62.0191 0.0000 2.3467 0.0000
# 3 0.2662 62.0191 60.6648 0.0000 -12.5273 0.0000
# 4 0.0000 0.0000 0.0000 32.7730 0.0000 3.4272
# 5 0.2011 2.3467 -12.5273 0.0000 31.4738 0.0000
# 6 0.0000 0.0000 0.0000 3.4272 0.0000 39.4102
#
#
#
# Elastic Compliance Matrix: (Units=1/GPa)
#
#
# Indices 1 2 3 4 5 6 
#
# 1 0.014478 -0.006180 0.006897 0.000000 0.003113 0.000000
# 2 -0.006180 0.013025 -0.014689 0.000000 -0.006778 0.000000
# 3 0.006897 -0.014689 0.034525 0.000000 0.014793 0.000000
# 4 0.000000 0.000000 0.000000 0.030793 0.000000 -0.002678
# 5 0.003113 -0.006778 0.014793 0.000000 0.038146 0.000000
# 6 0.000000 0.000000 0.000000 -0.002678 0.000000 0.025607
#
#
# Mechanical properties :
#
#
# Convention : Reuss Voigt Hill
#
# Bulk Modulus (GPa) = 29.33804 58.05129 43.69466
# Shear Modulus (GPa) = 25.52606 34.80587 30.16596
#
# Velocity S-wave (km/s) = 3.31038 3.86556 3.59869
# Velocity P-wave (km/s) = 5.21600 6.69667 6.00217
#
# Compressibility (1/GPa) = 0.03408544
#
# Stress axis : x y z
#
# Youngs Moduli (GPa) = 69.07154 76.77352 28.96451
#
# Poissons Ratio (x) = 0.47442 -0.19976
# Poissons Ratio (y) = 0.42683 0.42545
# Poissons Ratio (z) = -0.47638 1.12770
#
# Static dielectric constant tensor:
#      x y z
#    x 4.544030 0.000000 0.309470 
#    y 0.000000 4.436790 0.000000 
#    z 0.309470 0.000000 4.475460 
# 
# 
# High freq. dielectric constant tensor:
#      x y z
#    x 1.914150 0.000000 0.007240 
#    y 0.000000 1.942910 0.000000 
#    z 0.007240 0.000000 1.935280 
# 
# From -- ./inp_files/4003.got.cif
#   From: 2010.06.25/outbox.cif.g09.slc.cpg/sg9_3_cif.got.tgz:4003.got - 2010.06.27 21:40:51.
