data_PCOD8056322
_publ_section_title
;
Structure prediction by ZEFSAII (Michael W. Deem and Ramdas Pophale) SiO2 
 PCOD8056322
Probable space group: C C
;
_chemical_formula_sum "Si O2"
_cell_formula_units_Z 32
_cell_length_a 29.925463
_cell_length_b 9.430356
_cell_length_c 8.971067
_cell_angle_alpha 90.000000
_cell_angle_beta 150.402441
_cell_angle_gamma 90.000000
_cell_volume 1250.421214
_symmetry_space_group_name_H-M "C C"
_symmetry_group_IT_number 9
_symmetry_cell_setting 'monoclinic'
loop_
_space_group_symop_operation_xyz
x,y,z
x,-y,1/2+z
1/2+x,1/2+y,z
1/2+x,1/2-y,1/2+z
loop_
_atom_site_type_symbol
_atom_site_label
_atom_site_fract_x
_atom_site_fract_y
_atom_site_fract_z
Si Si1 0.031900 0.406873 0.756640
Si Si2 0.828142 0.743884 0.245835
Si Si3 0.910162 0.503184 0.147862
Si Si4 0.335575 0.356873 0.589726
Si Si5 0.200080 0.402323 0.692172
Si Si6 0.266880 0.799104 0.157942
Si Si7 0.481638 0.575087 0.032679
Si Si8 0.082900 0.884661 0.525548
O O1 0.948064 0.408174 0.394436
O O2 0.997840 0.430956 0.824889
O O3 0.098129 0.539935 0.909312
O O4 0.078379 0.251830 0.899392
O O5 0.857231 0.583619 0.364777
O O6 0.809068 0.811525 0.349994
O O7 0.912842 0.811930 0.402183
O O8 0.730522 0.765337 0.880854
O O9 0.835900 0.624840 0.978022
O O10 0.265256 0.475298 0.437760
O O11 0.329001 0.233119 0.693784
O O12 0.435541 0.421351 0.877831
O O13 0.222478 0.347531 0.590221
O O14 0.185519 0.903622 0.878267
O O15 0.561951 0.533022 0.379967
O O16 0.517711 0.635322 0.980526
#
# Coordination Sequence:
#
# PCOD8056322 Si02
#       8
#     4   4   4   4   4   4   4   4
#     4  12  28  48  78 115 155 201 264 324 382 470
#     4  11  25  45  75 108 153 205 259 312 394 471
#     4  12  28  48  74 113 158 204 254 327 398 451
#     4  11  23  46  75 108 148 195 261 310 389 456
#     4  11  25  45  76 110 145 207 258 315 382 470
#     4  12  27  49  78 112 161 203 250 332 392 466
#     4  11  25  46  78 111 146 206 259 324 381 472
#     4  12  27  49  78 113 158 197 265 326 392 462
#
# _framework density 25.591377000000001
#
# number of rings (size 3 to 8) (size 9 to 14) (size 15 to 20)
#    0.000    0.500    2.500    5.250   10.500    3.000 
#    0.000    0.000    0.000    0.000    0.000    0.000 
#    0.000    0.000    0.000    0.000    0.000    0.000 
#
# Total GULP energy -198321.082631 kJ/mol
# GULP energy per Si atom -12395.067664 kJ/mol
# Density = 2.553313 g / cm^3
# Si number density = 25.591377 Si / 1000 Ang^3
#
#
#
# Elastic Constant Matrix: (Units=GPa)
#
#
# Indices 1 2 3 4 5 6 
#
# 1 101.4941 21.3971 28.8116 0.0000 1.5950 0.0000
# 2 21.3971 68.0270 31.5051 0.0000 13.0740 0.0000
# 3 28.8116 31.5051 125.5054 0.0000 6.0697 0.0000
# 4 0.0000 0.0000 0.0000 48.2442 0.0000 3.1504
# 5 1.5950 13.0740 6.0697 0.0000 36.1229 0.0000
# 6 0.0000 0.0000 0.0000 3.1504 0.0000 35.2667
#
#
#
# Elastic Compliance Matrix: (Units=1/GPa)
#
#
# Indices 1 2 3 4 5 6 
#
# 1 0.010946 -0.002737 -0.001866 0.000000 0.000821 0.000000
# 2 -0.002737 0.018416 -0.003708 0.000000 -0.005921 0.000000
# 3 -0.001866 -0.003708 0.009334 0.000000 -0.000144 0.000000
# 4 0.000000 0.000000 0.000000 0.020850 0.000000 -0.001863
# 5 0.000821 -0.005921 -0.000144 0.000000 0.029814 0.000000
# 6 0.000000 0.000000 0.000000 -0.001863 0.000000 0.028522
#
#
# Mechanical properties :
#
#
# Convention : Reuss Voigt Hill
#
# Bulk Modulus (GPa) = 45.29962 50.93936 48.11949
# Shear Modulus (GPa) = 35.24547 38.14759 36.69653
#
# Velocity S-wave (km/s) = 3.71514 3.86507 3.79085
# Velocity P-wave (km/s) = 6.01187 6.31399 6.16478
#
# Compressibility (1/GPa) = 0.02207524
#
# Stress axis : x y z
#
# Youngs Moduli (GPa) = 91.35369 54.29964 107.13633
#
# Poissons Ratio (x) = 0.14861 0.19987
# Poissons Ratio (y) = 0.25002 0.39730
# Poissons Ratio (z) = 0.17043 0.20136
#
# Static dielectric constant tensor:
#      x y z
#    x 4.419020 0.000000 -0.060820 
#    y 0.000000 4.781920 0.000000 
#    z -0.060820 0.000000 4.667590 
# 
# 
# High freq. dielectric constant tensor:
#      x y z
#    x 2.019910 0.000000 -0.007450 
#    y 0.000000 2.021000 0.000000 
#    z -0.007450 0.000000 2.029570 
# 
# From -- ./inp_files/12741.got.cif
#   From: 2010.06.25/outbox.cif.g09.slc.cpg/sg9_7_cif.got.tgz:12741.got - 2010.06.27 21:40:51.
