data_PCOD8056217
_publ_section_title
;
Structure prediction by ZEFSAII (Michael W. Deem and Ramdas Pophale) SiO2 
 PCOD8056217
Probable space group: C C
;
_chemical_formula_sum "Si O2"
_cell_formula_units_Z 24
_cell_length_a 13.169340
_cell_length_b 12.917928
_cell_length_c 15.926739
_cell_angle_alpha 90.000000
_cell_angle_beta 153.265747
_cell_angle_gamma 90.000000
_cell_volume 1218.861486
_symmetry_space_group_name_H-M "C C"
_symmetry_group_IT_number 9
_symmetry_cell_setting 'monoclinic'
loop_
_space_group_symop_operation_xyz
x,y,z
x,-y,1/2+z
1/2+x,1/2+y,z
1/2+x,1/2-y,1/2+z
loop_
_atom_site_type_symbol
_atom_site_label
_atom_site_fract_x
_atom_site_fract_y
_atom_site_fract_z
Si Si1 0.685690 0.613745 0.637300
Si Si2 0.242494 0.504480 0.271625
Si Si3 0.955604 0.311429 0.489418
Si Si4 0.694782 0.188563 0.442673
Si Si5 0.407929 0.004458 0.160484
Si Si6 0.964755 0.113730 0.794825
O O1 0.484147 0.529446 0.492727
O O2 0.787797 0.624742 0.805933
O O3 0.593658 0.725354 0.538257
O O4 0.877504 0.575284 0.714607
O O5 0.272934 0.424754 0.217503
O O6 0.075230 0.452050 0.216070
O O7 0.134781 0.611849 0.162295
O O8 0.825170 0.249985 0.466017
O O9 0.515584 0.111828 0.269807
O O10 0.862635 0.124748 0.626185
O O11 0.556776 0.274659 0.393866
O O12 0.166292 0.029429 0.939383
#
# Coordination Sequence:
#
# PCOD8056217 Si02
#       6
#     4   4   4   4   4   4
#     4  11  23  37  61  90 119 153 201 253 296 348
#     4  11  23  39  60  88 122 155 199 248 301 357
#     4  12  21  39  65  88 116 155 207 249 294 350
#     4  12  21  39  65  88 116 155 207 249 294 350
#     4  11  23  39  60  88 122 155 199 248 301 357
#     4  11  23  37  61  90 119 153 201 253 296 348
#
# _framework density 19.690507
#
# number of rings (size 3 to 8) (size 9 to 14) (size 15 to 20)
#    0.000    0.667    6.667    2.000    0.000    0.000 
#    0.000    1.667    0.000    0.000    0.000    0.000 
#    0.000    0.000    0.000    0.000    0.000    0.000 
#
# Total GULP energy -148797.670145 kJ/mol
# GULP energy per Si atom -12399.805845 kJ/mol
# Density = 1.964569 g / cm^3
# Si number density = 19.690507 Si / 1000 Ang^3
#
#
#
# Elastic Constant Matrix: (Units=GPa)
#
#
# Indices 1 2 3 4 5 6 
#
# 1 173.8681 71.0938 58.7415 -0.0154 12.8894 0.0005
# 2 71.0938 81.1968 22.3344 -0.0733 5.9479 -0.0284
# 3 58.7415 22.3344 101.3060 -0.0799 -9.6809 -0.0265
# 4 -0.0154 -0.0733 -0.0799 31.3651 -0.0212 0.5978
# 5 12.8894 5.9479 -9.6809 -0.0212 33.5672 -0.0011
# 6 0.0005 -0.0284 -0.0265 0.5978 -0.0011 49.8405
#
#
#
# Elastic Compliance Matrix: (Units=1/GPa)
#
#
# Indices 1 2 3 4 5 6 
#
# 1 0.011026 -0.007952 -0.005050 -0.000029 -0.004281 -0.000007
# 2 -0.007952 0.019199 0.000355 0.000041 -0.000246 0.000011
# 3 -0.005050 0.000355 0.013266 0.000036 0.005702 0.000007
# 4 -0.000029 0.000041 0.000036 0.031890 0.000034 -0.000382
# 5 -0.004281 -0.000246 0.005702 0.000034 0.033123 0.000003
# 6 -0.000007 0.000011 0.000007 -0.000382 0.000003 0.020069
#
#
# Mechanical properties :
#
#
# Convention : Reuss Voigt Hill
#
# Bulk Modulus (GPa) = 54.95310 73.41225 64.18268
# Shear Modulus (GPa) = 31.26333 36.56797 33.91565
#
# Velocity S-wave (km/s) = 3.98896 4.31413 4.15473
# Velocity P-wave (km/s) = 7.01319 7.88540 7.46205
#
# Compressibility (1/GPa) = 0.01819734
#
# Stress axis : x y z
#
# Youngs Moduli (GPa) = 90.69195 52.08697 75.38190
#
# Poissons Ratio (x) = 0.41419 0.38065
# Poissons Ratio (y) = 0.72117 -0.02674
# Poissons Ratio (z) = 0.45796 -0.01847
#
# Static dielectric constant tensor:
#      x y z
#    x 3.726370 0.000010 0.163440 
#    y 0.000010 3.710070 -0.000030 
#    z 0.163440 -0.000030 3.871000 
# 
# 
# High freq. dielectric constant tensor:
#      x y z
#    x 1.756620 0.000000 0.004730 
#    y 0.000000 1.744880 0.000000 
#    z 0.004730 0.000000 1.788520 
# 
# From -- ./inp_files/16630.got.cif
#   From: 2010.06.25/outbox.cif.g09.slc.cpg/sg9_9_cif.got.tgz:16630.got - 2010.06.27 21:40:51.
