data_PCOD8056708
_publ_section_title
;
Structure prediction by ZEFSAII (Michael W. Deem and Ramdas Pophale) SiO2 
 PCOD8056708
Probable space group: C C
;
_chemical_formula_sum "Si O2"
_cell_formula_units_Z 32
_cell_length_a 15.202837
_cell_length_b 10.689709
_cell_length_c 9.466595
_cell_angle_alpha 90.000000
_cell_angle_beta 61.731267
_cell_angle_gamma 90.000000
_cell_volume 1354.971116
_symmetry_space_group_name_H-M "C C"
_symmetry_group_IT_number 9
_symmetry_cell_setting 'monoclinic'
loop_
_space_group_symop_operation_xyz
x,y,z
x,-y,1/2+z
1/2+x,1/2+y,z
1/2+x,1/2-y,1/2+z
loop_
_atom_site_type_symbol
_atom_site_label
_atom_site_fract_x
_atom_site_fract_y
_atom_site_fract_z
Si Si1 0.939010 0.159087 0.654550
Si Si2 0.680189 0.930989 0.973491
Si Si3 0.092931 0.684644 0.929746
Si Si4 0.471321 0.881700 0.273388
Si Si5 0.822420 0.764795 0.690973
Si Si6 0.876786 0.989371 0.465090
Si Si7 0.810310 0.454752 0.978249
Si Si8 0.263912 0.846820 0.740190
O O1 0.848626 0.256211 0.739233
O O2 0.044944 0.233181 0.594945
O O3 0.938260 0.097096 0.498382
O O4 0.928121 0.048188 0.778035
O O5 0.721899 0.826443 0.832905
O O6 0.656054 0.063205 0.920172
O O7 0.576212 0.882776 0.113533
O O8 0.763928 0.959197 0.027799
O O9 0.992751 0.656496 0.917742
O O10 0.165870 0.768336 0.779348
O O11 0.394507 0.786011 0.258869
O O12 0.421336 0.020486 0.325710
O O13 0.880706 0.869599 0.561863
O O14 0.797330 0.656440 0.598833
O O15 0.786465 0.583557 0.077406
O O16 0.740230 0.437144 0.893706
#
# Coordination Sequence:
#
# PCOD8056708 Si02
#       8
#     4   4   4   4   4   4   4   4
#     4  12  25  48  73 111 149 192 247 313 376 446
#     4  12  25  48  76 112 144 203 255 304 381 460
#     4  12  26  45  76 105 145 198 249 310 374 458
#     4  12  26  43  77 111 148 196 255 306 372 453
#     4  12  25  47  74 111 154 197 251 316 373 450
#     4  12  25  47  77 103 155 196 244 315 381 442
#     4  12  25  47  74 108 150 199 246 316 376 438
#     4  12  25  47  73 103 151 193 249 310 381 443
#
# _framework density 23.616741000000001
#
# number of rings (size 3 to 8) (size 9 to 14) (size 15 to 20)
#    0.000    0.000    6.250    3.750    1.750    1.000 
#    4.500    0.000    0.000    0.000    0.000    0.000 
#    0.000    0.000    0.000    0.000    0.000    0.000 
#
# Total GULP energy -198300.039179 kJ/mol
# GULP energy per Si atom -12393.752449 kJ/mol
# Density = 2.356299 g / cm^3
# Si number density = 23.616741 Si / 1000 Ang^3
#
#
#
# Elastic Constant Matrix: (Units=GPa)
#
#
# Indices 1 2 3 4 5 6 
#
# 1 68.5619 46.0702 39.0793 0.0000 -8.4882 0.0000
# 2 46.0702 107.2448 45.7502 0.0000 -10.5411 0.0000
# 3 39.0793 45.7502 104.3866 0.0000 -4.4183 0.0000
# 4 0.0000 0.0000 0.0000 56.9695 0.0000 -10.7376
# 5 -8.4882 -10.5411 -4.4183 0.0000 46.4997 0.0000
# 6 0.0000 0.0000 0.0000 -10.7376 0.0000 40.1082
#
#
#
# Elastic Compliance Matrix: (Units=1/GPa)
#
#
# Indices 1 2 3 4 5 6 
#
# 1 0.022739 -0.007352 -0.005207 0.000000 0.001990 0.000000
# 2 -0.007352 0.014060 -0.003345 0.000000 0.001527 0.000000
# 3 -0.005207 -0.003345 0.012975 0.000000 -0.000476 0.000000
# 4 0.000000 0.000000 0.000000 0.018486 0.000000 0.004949
# 5 0.001990 0.001527 -0.000476 0.000000 0.022170 0.000000
# 6 0.000000 0.000000 0.000000 0.004949 0.000000 0.026257
#
#
# Mechanical properties :
#
#
# Convention : Reuss Voigt Hill
#
# Bulk Modulus (GPa) = 55.65738 60.22143 57.93941
# Shear Modulus (GPa) = 32.36594 38.66839 35.51717
#
# Velocity S-wave (km/s) = 3.70600 4.05078 3.88222
# Velocity P-wave (km/s) = 6.47539 6.88718 6.68446
#
# Compressibility (1/GPa) = 0.01796707
#
# Stress axis : x y z
#
# Youngs Moduli (GPa) = 43.97658 71.12505 77.07149
#
# Poissons Ratio (x) = 0.52289 0.40129
# Poissons Ratio (y) = 0.32330 0.25782
# Poissons Ratio (z) = 0.22897 0.23792
#
# Static dielectric constant tensor:
#      x y z
#    x 4.130990 0.000000 0.063930 
#    y 0.000000 4.615480 0.000000 
#    z 0.063930 0.000000 4.391470 
# 
# 
# High freq. dielectric constant tensor:
#      x y z
#    x 1.915440 0.000000 0.001630 
#    y 0.000000 1.953780 0.000000 
#    z 0.001630 0.000000 1.948350 
# 
# From -- ./inp_files/9122.got.cif
#   From: 2010.06.25/outbox.cif.g09.slc.cpg/sg9_5_cif.got.tgz:9122.got - 2010.06.27 21:40:51.
