data_PCOD8056000
_publ_section_title
;
Structure prediction by ZEFSAII (Michael W. Deem and Ramdas Pophale) SiO2 
 PCOD8056000
Probable space group: C C
;
_chemical_formula_sum "Si O2"
_cell_formula_units_Z 28
_cell_length_a 9.092244
_cell_length_b 9.935279
_cell_length_c 24.361700
_cell_angle_alpha 90.000000
_cell_angle_beta 31.656884
_cell_angle_gamma 90.000000
_cell_volume 1154.990545
_symmetry_space_group_name_H-M "C C"
_symmetry_group_IT_number 9
_symmetry_cell_setting 'monoclinic'
loop_
_space_group_symop_operation_xyz
x,y,z
x,-y,1/2+z
1/2+x,1/2+y,z
1/2+x,1/2-y,1/2+z
loop_
_atom_site_type_symbol
_atom_site_label
_atom_site_fract_x
_atom_site_fract_y
_atom_site_fract_z
Si Si1 0.987030 0.174780 0.478790
Si Si2 0.233766 0.906598 0.709786
Si Si3 0.847452 0.205508 0.006189
Si Si4 0.523192 0.332572 0.338556
Si Si5 0.010570 0.143846 0.164991
Si Si6 0.380610 0.756550 0.400911
Si Si7 0.699449 0.510237 0.503127
O O1 0.693323 0.225270 0.595128
O O2 0.948710 0.144845 0.425854
O O3 0.215813 0.293408 0.414162
O O4 0.037660 0.036263 0.496294
O O5 0.558077 0.866217 0.614858
O O6 0.147542 0.929408 0.674176
O O7 0.056390 0.780489 0.791143
O O8 0.162360 0.044992 0.762066
O O9 0.813130 0.348919 0.987192
O O10 0.003617 0.120900 0.908679
O O11 0.045533 0.233260 0.995631
O O12 0.698963 0.194690 0.275814
O O13 0.003409 0.046112 0.114304
O O14 0.446047 0.903244 0.408237
#
# Coordination Sequence:
#
# PCOD8056000 Si02
#       7
#     4   4   4   4   4   4   4
#     4  10  25  50  71 110 153 193 247 312 369 447
#     4  12  27  45  81 110 149 200 257 303 387 450
#     4  11  26  49  73 111 151 198 245 319 372 443
#     4  11  26  47  75 109 155 189 250 310 370 452
#     4  11  24  46  75 110 145 202 244 312 378 436
#     4  11  27  44  79 110 146 203 243 311 381 433
#     4  10  25  47  76 102 157 187 254 303 373 445
#
# _framework density 24.242622999999998
#
# number of rings (size 3 to 8) (size 9 to 14) (size 15 to 20)
#    0.000    1.143    4.286    0.000    8.000    9.143 
#    0.000    0.000    0.000    0.000    0.000    0.000 
#    0.000    0.000    0.000    0.000    0.000    0.000 
#
# Total GULP energy -173519.446129 kJ/mol
# GULP energy per Si atom -12394.246152 kJ/mol
# Density = 2.418745 g / cm^3
# Si number density = 24.242623 Si / 1000 Ang^3
#
#
#
# Elastic Constant Matrix: (Units=GPa)
#
#
# Indices 1 2 3 4 5 6 
#
# 1 152.0793 26.8445 43.8341 0.0021 20.0478 0.0007
# 2 26.8445 85.5733 36.2270 0.0072 10.0478 -0.0054
# 3 43.8341 36.2270 113.2483 0.0176 10.6383 0.0035
# 4 0.0021 0.0072 0.0176 38.8681 -0.0022 14.0930
# 5 20.0478 10.0478 10.6383 -0.0022 40.2073 0.0002
# 6 0.0007 -0.0054 0.0035 14.0930 0.0002 32.4846
#
#
#
# Elastic Compliance Matrix: (Units=1/GPa)
#
#
# Indices 1 2 3 4 5 6 
#
# 1 0.007860 -0.001092 -0.002410 0.000001 -0.003008 0.000000
# 2 -0.001092 0.013877 -0.003837 -0.000002 -0.001908 0.000004
# 3 -0.002410 -0.003837 0.011063 -0.000004 -0.000766 0.000000
# 4 0.000001 -0.000002 -0.000004 0.030531 0.000003 -0.013245
# 5 -0.003008 -0.001908 -0.000766 0.000003 0.027051 -0.000002
# 6 0.000000 0.000004 0.000000 -0.013245 -0.000002 0.036530
#
#
# Mechanical properties :
#
#
# Convention : Reuss Voigt Hill
#
# Bulk Modulus (GPa) = 55.18693 62.74577 58.96635
# Shear Modulus (GPa) = 33.86865 38.57835 36.22350
#
# Velocity S-wave (km/s) = 3.74180 3.99349 3.86969
# Velocity P-wave (km/s) = 6.44064 6.87041 6.65900
#
# Compressibility (1/GPa) = 0.01812023
#
# Stress axis : x y z
#
# Youngs Moduli (GPa) = 127.23405 72.06200 90.39525
#
# Poissons Ratio (x) = 0.07869 0.21787
# Poissons Ratio (y) = 0.13894 0.34686
# Poissons Ratio (z) = 0.30666 0.27652
#
# Static dielectric constant tensor:
#      x y z
#    x 4.851470 0.000000 0.318940 
#    y 0.000000 4.245520 0.000020 
#    z 0.318940 0.000020 4.330400 
# 
# 
# High freq. dielectric constant tensor:
#      x y z
#    x 1.977300 0.000000 0.015150 
#    y 0.000000 1.967980 0.000000 
#    z 0.015150 0.000000 1.956380 
# 
# From -- ./inp_files/34997.got.cif
#   From: 2010.06.25/outbox.cif.g09.slc.cpg/sg9_18_cif.got.tgz:34997.got - 2010.06.27 21:40:51.
