data_PCOD8056177
_publ_section_title
;
Structure prediction by ZEFSAII (Michael W. Deem and Ramdas Pophale) SiO2 
 PCOD8056177
Probable space group: C C
;
_chemical_formula_sum "Si O2"
_cell_formula_units_Z 32
_cell_length_a 14.770871
_cell_length_b 10.355543
_cell_length_c 18.287716
_cell_angle_alpha 90.000000
_cell_angle_beta 29.944409
_cell_angle_gamma 90.000000
_cell_volume 1396.296976
_symmetry_space_group_name_H-M "C C"
_symmetry_group_IT_number 9
_symmetry_cell_setting 'monoclinic'
loop_
_space_group_symop_operation_xyz
x,y,z
x,-y,1/2+z
1/2+x,1/2+y,z
1/2+x,1/2-y,1/2+z
loop_
_atom_site_type_symbol
_atom_site_label
_atom_site_fract_x
_atom_site_fract_y
_atom_site_fract_z
Si Si1 0.451350 0.137013 0.554290
Si Si2 0.259998 0.685858 0.605066
Si Si3 0.521429 0.841036 0.518259
Si Si4 0.425004 0.015332 0.842863
Si Si5 0.450844 0.620223 0.324146
Si Si6 0.177287 0.098467 0.630449
Si Si7 0.799761 0.716403 0.813218
Si Si8 0.410497 0.776646 0.750375
O O1 0.280959 0.173316 0.622681
O O2 0.599166 0.244710 0.427798
O O3 0.411532 0.160092 0.667500
O O4 0.505508 0.987720 0.499327
O O5 0.438514 0.721379 0.527672
O O6 0.310312 0.659864 0.485556
O O7 0.142091 0.811416 0.700679
O O8 0.129912 0.565008 0.719427
O O9 0.413544 0.845169 0.669977
O O10 0.731806 0.810321 0.381983
O O11 0.427749 0.877193 0.803686
O O12 0.314759 0.114082 0.868591
O O13 0.313924 0.002823 0.995883
O O14 0.503290 0.470185 0.290576
O O15 0.375160 0.650875 0.296027
O O16 0.093356 0.192056 0.628360
#
# Coordination Sequence:
#
# PCOD8056177 Si02
#       8
#     4   4   4   4   4   4   4   4
#     4  12  27  46  72 105 144 181 245 292 363 423
#     4  11  24  43  78 105 141 182 248 297 346 434
#     4  12  26  48  72 109 142 191 244 304 352 434
#     4  11  25  49  71 103 143 191 240 286 372 434
#     4  11  22  44  73 103 138 191 233 288 363 424
#     4  12  27  46  69 102 150 189 234 297 365 432
#     4  11  24  45  72 103 137 185 231 299 344 438
#     4  12  27  47  71 104 151 190 237 299 373 421
#
# _framework density 22.917760999999999
#
# number of rings (size 3 to 8) (size 9 to 14) (size 15 to 20)
#    0.000    0.500    3.750    5.250    5.250    0.000 
#    2.250    0.000    0.000    0.000    0.000    0.000 
#    0.000    0.000    0.000    0.000    0.000    0.000 
#
# Total GULP energy -198303.017977 kJ/mol
# GULP energy per Si atom -12393.938624 kJ/mol
# Density = 2.286560 g / cm^3
# Si number density = 22.917761 Si / 1000 Ang^3
#
#
#
# Elastic Constant Matrix: (Units=GPa)
#
#
# Indices 1 2 3 4 5 6 
#
# 1 108.0429 24.6710 28.1739 0.0016 -19.3444 -0.0001
# 2 24.6710 72.4243 35.9573 0.0018 -15.8325 -0.0001
# 3 28.1739 35.9573 92.5936 0.0020 -3.0167 0.0001
# 4 0.0016 0.0018 0.0020 38.1788 0.0003 -6.7930
# 5 -19.3444 -15.8325 -3.0167 0.0003 39.2657 -0.0001
# 6 -0.0001 -0.0001 0.0001 -6.7930 -0.0001 35.4034
#
#
#
# Elastic Compliance Matrix: (Units=1/GPa)
#
#
# Indices 1 2 3 4 5 6 
#
# 1 0.011121 -0.001434 -0.002674 0.000000 0.004695 0.000000
# 2 -0.001434 0.019063 -0.006756 -0.000001 0.006461 0.000000
# 3 -0.002674 -0.006756 0.014141 0.000000 -0.002955 0.000000
# 4 0.000000 -0.000001 0.000000 0.027118 -0.000001 0.005203
# 5 0.004695 0.006461 -0.002955 -0.000001 0.030158 0.000000
# 6 0.000000 0.000000 0.000000 0.005203 0.000000 0.029244
#
#
# Mechanical properties :
#
#
# Convention : Reuss Voigt Hill
#
# Bulk Modulus (GPa) = 44.25514 50.07393 47.16454
# Shear Modulus (GPa) = 31.22944 34.85348 33.04146
#
# Velocity S-wave (km/s) = 3.69545 3.90398 3.80115
# Velocity P-wave (km/s) = 6.12868 6.49756 6.31582
#
# Compressibility (1/GPa) = 0.02259624
#
# Stress axis : x y z
#
# Youngs Moduli (GPa) = 89.92016 52.45885 70.71805
#
# Poissons Ratio (x) = 0.07525 0.18909
# Poissons Ratio (y) = 0.12899 0.47775
# Poissons Ratio (z) = 0.24043 0.35440
#
# Static dielectric constant tensor:
#      x y z
#    x 4.135840 0.000000 -0.120400 
#    y 0.000000 4.064130 0.000000 
#    z -0.120400 0.000000 4.149410 
# 
# 
# High freq. dielectric constant tensor:
#      x y z
#    x 1.908310 0.000000 -0.003680 
#    y 0.000000 1.898860 0.000000 
#    z -0.003680 0.000000 1.909290 
# 
# From -- ./inp_files/9148.got.cif
#   From: 2010.06.25/outbox.cif.g09.slc.cpg/sg9_5_cif.got.tgz:9148.got - 2010.06.27 21:40:51.
