data_PCOD8056495
_publ_section_title
;
Structure prediction by ZEFSAII (Michael W. Deem and Ramdas Pophale) SiO2 
 PCOD8056495
Probable space group: C C
;
_chemical_formula_sum "Si O2"
_cell_formula_units_Z 28
_cell_length_a 17.426399
_cell_length_b 6.798319
_cell_length_c 13.790432
_cell_angle_alpha 90.000000
_cell_angle_beta 51.192555
_cell_angle_gamma 90.000000
_cell_volume 1273.114658
_symmetry_space_group_name_H-M "C C"
_symmetry_group_IT_number 9
_symmetry_cell_setting 'monoclinic'
loop_
_space_group_symop_operation_xyz
x,y,z
x,-y,1/2+z
1/2+x,1/2+y,z
1/2+x,1/2-y,1/2+z
loop_
_atom_site_type_symbol
_atom_site_label
_atom_site_fract_x
_atom_site_fract_y
_atom_site_fract_z
Si Si1 0.120830 0.799282 0.745770
Si Si2 0.476242 0.003644 0.960584
Si Si3 0.830368 0.278014 0.944244
Si Si4 0.290211 0.501902 0.138961
Si Si5 0.143426 0.192317 0.842928
Si Si6 0.435031 0.289320 0.157092
Si Si7 0.636246 0.503833 0.543833
O O1 0.032031 0.672382 0.857281
O O2 0.224494 0.692968 0.682943
O O3 0.118346 0.012547 0.794138
O O4 0.104555 0.835266 0.644733
O O5 0.386239 0.938941 0.964559
O O6 0.545296 0.820779 0.930507
O O7 0.435768 0.088599 0.094075
O O8 0.881999 0.248287 0.800554
O O9 0.828589 0.068816 0.002456
O O10 0.719359 0.351690 0.018958
O O11 0.232242 0.684752 0.229095
O O12 0.380407 0.458319 0.139113
O O13 0.178220 0.112455 0.918768
O O14 0.545995 0.357218 0.086687
#
# Coordination Sequence:
#
# PCOD8056495 Si02
#       7
#     4   4   4   4   4   4   4
#     4  11  24  49  75 105 143 195 244 310 365 438
#     4  11  27  48  74 104 153 193 246 306 374 434
#     4  12  28  46  75 110 147 195 249 302 372 445
#     4  11  27  48  74 104 153 193 246 306 374 434
#     4  11  24  49  75 105 143 195 244 310 365 438
#     4  12  28  46  75 110 147 195 249 302 372 445
#     4  12  26  44  76 104 148 188 256 298 372 434
#
# _framework density 21.993306
#
# number of rings (size 3 to 8) (size 9 to 14) (size 15 to 20)
#    0.000    0.571    2.857    3.429   12.000    1.143 
#    0.000    0.000    0.000    0.000    0.000    0.000 
#    0.000    0.000    0.000    0.000    0.000    0.000 
#
# Total GULP energy -173695.139133 kJ/mol
# GULP energy per Si atom -12406.795652 kJ/mol
# Density = 2.194325 g / cm^3
# Si number density = 21.993306 Si / 1000 Ang^3
#
#
#
# Elastic Constant Matrix: (Units=GPa)
#
#
# Indices 1 2 3 4 5 6 
#
# 1 152.1760 47.7322 41.7261 0.0005 -1.3238 -0.0006
# 2 47.7322 108.4333 41.1646 -0.0007 -4.2509 0.0007
# 3 41.7261 41.1646 140.2299 0.0011 19.2986 -0.0012
# 4 0.0005 -0.0007 0.0011 42.6307 -0.0001 13.2722
# 5 -1.3238 -4.2509 19.2986 -0.0001 34.1248 -0.0001
# 6 -0.0006 0.0007 -0.0012 13.2722 -0.0001 41.0538
#
#
#
# Elastic Compliance Matrix: (Units=1/GPa)
#
#
# Indices 1 2 3 4 5 6 
#
# 1 0.007917 -0.002824 -0.001649 0.000000 0.000888 0.000000
# 2 -0.002824 0.011734 -0.003026 0.000000 0.003063 0.000000
# 3 -0.001649 -0.003026 0.009294 0.000000 -0.005697 0.000000
# 4 0.000000 0.000000 0.000000 0.026082 0.000000 -0.008432
# 5 0.000888 0.003063 -0.005697 0.000000 0.032942 0.000000
# 6 0.000000 0.000000 0.000000 -0.008432 0.000000 0.027084
#
#
# Mechanical properties :
#
#
# Convention : Reuss Voigt Hill
#
# Bulk Modulus (GPa) = 71.69787 73.56499 72.63143
# Shear Modulus (GPa) = 37.11920 41.57629 39.34774
#
# Velocity S-wave (km/s) = 4.11268 4.35260 4.23434
# Velocity P-wave (km/s) = 7.43121 7.66691 7.54998
#
# Compressibility (1/GPa) = 0.01394742
#
# Stress axis : x y z
#
# Youngs Moduli (GPa) = 126.30952 85.22025 107.59616
#
# Poissons Ratio (x) = 0.24069 0.17741
# Poissons Ratio (y) = 0.35674 0.32556
# Poissons Ratio (z) = 0.20827 0.25786
#
# Static dielectric constant tensor:
#      x y z
#    x 4.184030 -0.000010 0.073920 
#    y -0.000010 4.103070 0.000000 
#    z 0.073920 0.000000 4.362270 
# 
# 
# High freq. dielectric constant tensor:
#      x y z
#    x 1.874940 0.000000 0.001600 
#    y 0.000000 1.873840 0.000000 
#    z 0.001600 0.000000 1.884340 
# 
# From -- ./inp_files/26315.got.cif
#   From: 2010.06.25/outbox.cif.g09.slc.cpg/sg9_14_cif.got.tgz:26315.got - 2010.06.27 21:40:51.
