data_PCOD8056922
_publ_section_title
;
Structure prediction by ZEFSAII (Michael W. Deem and Ramdas Pophale) SiO2 
 PCOD8056922
Probable space group: P 2/M
;
_chemical_formula_sum "Si O2"
_cell_formula_units_Z 30
_cell_length_a 11.572763
_cell_length_b 9.032629
_cell_length_c 14.749937
_cell_angle_alpha 90.000000
_cell_angle_beta 110.196413
_cell_angle_gamma 90.000000
_cell_volume 1447.046370
_symmetry_space_group_name_H-M "P 2/M"
_symmetry_group_IT_number 10
_symmetry_cell_setting 'monoclinic'
loop_
_space_group_symop_operation_xyz
x,y,z
-x,y,-z
-x,-y,-z
x,-y,z
loop_
_atom_site_type_symbol
_atom_site_label
_atom_site_fract_x
_atom_site_fract_y
_atom_site_fract_z
Si Si1 0.020612 0.162390 0.308416
Si Si2 0.136414 0.826308 0.024662
Si Si3 0.000000 0.756997 0.500000
Si Si4 0.735746 0.324113 0.635184
Si Si5 0.649199 0.174389 0.783919
Si Si6 0.773051 0.825439 0.143010
Si Si7 0.409495 0.322823 0.777477
Si Si8 0.268783 0.664788 0.566103
O O1 0.891831 0.217540 0.234294
O O2 0.010551 0.142416 0.413905
O O3 0.123040 0.280232 0.306498
O O4 0.054834 0.000000 0.277314
O O5 0.219745 0.788996 0.134244
O O6 0.120312 0.000000 0.006815
O O7 0.203031 0.766542 0.952239
O O8 0.000000 0.755106 0.000000
O O9 0.878004 0.657304 0.457964
O O10 0.721871 0.500000 0.640389
O O11 0.647212 0.242815 0.682417
O O12 0.700081 0.265073 0.524354
O O13 0.545460 0.254959 0.814961
O O14 0.623141 0.000000 0.772939
O O15 0.657489 0.736011 0.150842
O O16 0.744235 0.000000 0.139348
O O17 0.413301 0.500000 0.780882
O O18 0.338729 0.257127 0.668809
O O19 0.320556 0.500000 0.577345
#
# Coordination Sequence:
#
# PCOD8056922 Si02
#       8
#     4   4   2   4   4   4   4   4
#     4  10  19  31  53  86 121 150 185 238 295 342
#     4   9  19  38  66  91 114 147 191 239 291 350
#     4  10  16  30  52  84 115 152 193 238 285 330
#     4  10  21  37  58  84 114 155 200 244 289 346
#     4  11  23  41  62  86 114 150 196 248 297 345
#     4  10  20  37  60  88 118 155 198 240 285 344
#     4  11  23  40  59  84 120 161 196 236 289 349
#     4   9  19  34  55  82 116 159 200 235 281 348
#
# _framework density 20.731885999999999
#
# number of rings (size 3 to 8) (size 9 to 14) (size 15 to 20)
#    0.000    2.000    1.333    2.400    0.000    4.267 
#    0.000    8.667    0.000    2.800    0.000    0.000 
#    0.000    0.000    0.000    0.000    0.000    0.000 
#
# Total GULP energy -371914.387388 kJ/mol
# GULP energy per Si atom -12397.146246 kJ/mol
# Density = 2.068470 g / cm^3
# Si number density = 20.731886 Si / 1000 Ang^3
#
#
#
# Elastic Constant Matrix: (Units=GPa)
#
#
# Indices 1 2 3 4 5 6 
#
# 1 117.6774 38.0256 41.6701 0.0000 -20.9428 0.0000
# 2 38.0256 73.1590 27.0254 0.0000 -7.7088 0.0000
# 3 41.6701 27.0254 85.1088 0.0000 -18.7814 0.0000
# 4 0.0000 0.0000 0.0000 22.0296 0.0000 -2.6237
# 5 -20.9428 -7.7088 -18.7814 0.0000 34.6003 0.0000
# 6 0.0000 0.0000 0.0000 -2.6237 0.0000 32.6713
#
#
#
# Elastic Compliance Matrix: (Units=1/GPa)
#
#
# Indices 1 2 3 4 5 6 
#
# 1 0.011944 -0.004468 -0.003469 0.000000 0.004351 0.000000
# 2 -0.004468 0.017181 -0.003431 0.000000 -0.000739 0.000000
# 3 -0.003469 -0.003431 0.015798 0.000000 0.005711 0.000000
# 4 0.000000 0.000000 0.000000 0.045832 0.000000 0.003681
# 5 0.004351 -0.000739 0.005711 0.000000 0.034471 0.000000
# 6 0.000000 0.000000 0.000000 0.003681 0.000000 0.030904
#
#
# Mechanical properties :
#
#
# Convention : Reuss Voigt Hill
#
# Bulk Modulus (GPa) = 45.07240 54.37638 49.72439
# Shear Modulus (GPa) = 26.84398 29.14183 27.99291
#
# Velocity S-wave (km/s) = 3.60226 3.75327 3.67854
# Velocity P-wave (km/s) = 6.25216 6.71327 6.48682
#
# Compressibility (1/GPa) = 0.02218653
#
# Stress axis : x y z
#
# Youngs Moduli (GPa) = 83.72077 58.20417 63.29953
#
# Poissons Ratio (x) = 0.26008 0.21959
# Poissons Ratio (y) = 0.37410 0.21718
# Poissons Ratio (z) = 0.29043 0.19970
#
# Static dielectric constant tensor:
#      x y z
#    x 3.743760 0.000000 -0.120660 
#    y 0.000000 3.365890 0.000000 
#    z -0.120660 0.000000 3.910370 
# 
# 
# High freq. dielectric constant tensor:
#      x y z
#    x 1.812840 0.000000 -0.009980 
#    y 0.000000 1.779400 0.000000 
#    z -0.009980 0.000000 1.816100 
# 
# From -- ./inp_files/63853.got.cif
#   From: 2010.06.25/outbox.cif.g09.slc.cpg/sg10_32_cif.got.tgz:63853.got - 2010.06.27 22:07:45.
