data_PCOD8056864
_publ_section_title
;
Structure prediction by ZEFSAII (Michael W. Deem and Ramdas Pophale) SiO2 
 PCOD8056864
Probable space group: P 2/M
;
_chemical_formula_sum "Si O2"
_cell_formula_units_Z 30
_cell_length_a 5.261709
_cell_length_b 20.699573
_cell_length_c 22.455060
_cell_angle_alpha 90.000000
_cell_angle_beta 69.518090
_cell_angle_gamma 90.000000
_cell_volume 2291.085519
_symmetry_space_group_name_H-M "P 2/M"
_symmetry_group_IT_number 10
_symmetry_cell_setting 'monoclinic'
loop_
_space_group_symop_operation_xyz
x,y,z
-x,y,-z
-x,-y,-z
x,-y,z
loop_
_atom_site_type_symbol
_atom_site_label
_atom_site_fract_x
_atom_site_fract_y
_atom_site_fract_z
Si Si1 0.788215 0.423437 0.141905
Si Si2 0.607531 0.422922 0.927856
Si Si3 0.943949 0.385272 0.360557
Si Si4 0.360247 0.075152 0.426128
Si Si5 0.151696 0.130016 0.565876
Si Si6 0.807941 0.280777 0.461172
Si Si7 0.550598 0.576943 0.287962
Si Si8 0.187413 0.500000 0.541850
O O1 0.795033 0.500000 0.136384
O O2 0.589176 0.395417 0.107468
O O3 0.681123 0.402216 0.214937
O O4 0.090148 0.395497 0.107551
O O5 0.610441 0.500000 0.926095
O O6 0.500000 0.397537 0.000000
O O7 0.910281 0.314863 0.392532
O O8 0.733558 0.391768 0.323977
O O9 0.878071 0.436615 0.416272
O O10 0.249099 0.394460 0.312773
O O11 0.247809 0.087949 0.501467
O O12 0.654886 0.109354 0.395116
O O13 0.158291 0.109402 0.395125
O O14 0.383681 0.000000 0.410346
O O15 0.175581 0.204844 0.549994
O O16 0.500000 0.302112 0.500000
O O17 0.000000 0.301926 0.500000
O O18 0.540904 0.500000 0.297424
O O19 0.500000 0.500000 0.500000
O O20 0.000000 0.500000 0.500000
#
# Coordination Sequence:
#
# PCOD8056864 Si02
#       8
#     4   4   4   4   4   4   4   2
#     4   9  17  26  42  57  74 101 117 139 175 208
#     4   9  15  24  37  60  84 100 116 132 157 206
#     4  12  23  34  49  58  71  92 118 161 200 241
#     4  10  16  25  41  60  78  96 114 132 161 203
#     4  10  16  27  39  56  77  95 113 136 164 215
#     4  12  21  35  45  57  74  95 118 146 197 251
#     4  11  20  36  47  59  74  90 124 160 192 229
#     4  12  22  36  46  60  70  80 109 154 213 254
#
# _framework density 13.09423
#
# number of rings (size 3 to 8) (size 9 to 14) (size 15 to 20)
#    0.000    1.467    4.000    5.600    0.000    3.733 
#    0.000    0.000    0.000    0.000    0.000    0.000 
#    0.000    0.000    0.000    0.000    0.000    0.000 
#
# Total GULP energy -371934.721143 kJ/mol
# GULP energy per Si atom -12397.824038 kJ/mol
# Density = 1.306443 g / cm^3
# Si number density = 13.094230 Si / 1000 Ang^3
#
#
#
# Elastic Constant Matrix: (Units=GPa)
#
#
# Indices 1 2 3 4 5 6 
#
# 1 120.9116 14.7117 28.9780 0.0000 -3.2177 0.0000
# 2 14.7117 29.1417 15.4161 0.0000 -0.7250 0.0000
# 3 28.9780 15.4161 61.9320 0.0000 -3.3677 0.0000
# 4 0.0000 0.0000 0.0000 -17.7640 0.0000 0.2371
# 5 -3.2177 -0.7250 -3.3677 0.0000 24.8876 0.0000
# 6 0.0000 0.0000 0.0000 0.2371 0.0000 11.4286
#
#
#
# Elastic Compliance Matrix: (Units=1/GPa)
#
#
# Indices 1 2 3 4 5 6 
#
# 1 0.009522 -0.002825 -0.003717 0.000000 0.000646 0.000000
# 2 -0.002825 0.040358 -0.008744 0.000000 -0.000373 0.000000
# 3 -0.003717 -0.008744 0.020171 0.000000 0.001994 0.000000
# 4 0.000000 0.000000 0.000000 -0.056278 0.000000 0.001168
# 5 0.000646 -0.000373 0.001994 0.000000 0.040523 0.000000
# 6 0.000000 0.000000 0.000000 0.001168 0.000000 0.087476
#
#
# Mechanical properties :
#
#
# Convention : Reuss Voigt Hill
#
# Bulk Modulus (GPa) = 25.33032 36.68855 31.00944
# Shear Modulus (GPa) = 26.95360 13.90241 20.42800
#
# Velocity S-wave (km/s) = 4.54192 3.26194 3.95407
# Velocity P-wave (km/s) = 6.84777 6.50128 6.67678
#
# Compressibility (1/GPa) = 0.03947839
#
# Stress axis : x y z
#
# Youngs Moduli (GPa) = 105.01715 24.77846 49.57578
#
# Poissons Ratio (x) = 0.06999 0.18429
# Poissons Ratio (y) = 0.29663 0.43351
# Poissons Ratio (z) = 0.39037 0.21667
#
# Static dielectric constant tensor:
#      x y z
#    x 9.341530 0.000000 0.280260 
#    y 0.000000 2.319530 0.000000 
#    z 0.280260 0.000000 2.470090 
# 
# 
# High freq. dielectric constant tensor:
#      x y z
#    x 1.534860 0.000000 0.002940 
#    y 0.000000 1.457160 0.000000 
#    z 0.002940 0.000000 1.457860 
# 
# From -- ./inp_files/81494.got.cif
#   From: 2010.06.25/outbox.cif.g09.slc.cpg/sg10_41_cif.got.tgz:81494.got - 2010.06.27 22:07:45.
