data_PCOD8056876
_publ_section_title
;
Structure prediction by ZEFSAII (Michael W. Deem and Ramdas Pophale) SiO2 
 PCOD8056876
Probable space group: P 2/M
;
_chemical_formula_sum "Si O2"
_cell_formula_units_Z 22
_cell_length_a 13.238481
_cell_length_b 19.425613
_cell_length_c 5.080677
_cell_angle_alpha 90.000000
_cell_angle_beta 79.862235
_cell_angle_gamma 90.000000
_cell_volume 1286.176325
_symmetry_space_group_name_H-M "P 2/M"
_symmetry_group_IT_number 10
_symmetry_cell_setting 'monoclinic'
loop_
_space_group_symop_operation_xyz
x,y,z
-x,y,-z
-x,-y,-z
x,-y,z
loop_
_atom_site_type_symbol
_atom_site_label
_atom_site_fract_x
_atom_site_fract_y
_atom_site_fract_z
Si Si1 0.431615 0.421117 0.286459
Si Si2 0.122932 0.217150 0.408222
Si Si3 0.114779 0.578713 0.925177
Si Si4 0.213696 0.362924 0.371947
Si Si5 0.119865 0.858883 0.902280
Si Si6 0.074230 0.000000 0.727088
O O1 0.500000 0.398301 0.500000
O O2 0.392709 0.500000 0.337722
O O3 0.336240 0.369322 0.313226
O O4 0.500000 0.412632 0.000000
O O5 0.176072 0.287929 0.298303
O O6 0.165766 0.195854 0.674477
O O7 0.000000 0.224054 0.500000
O O8 0.161083 0.159205 0.176084
O O9 0.113194 0.500000 0.832115
O O10 0.174466 0.622785 0.682719
O O11 0.168832 0.583118 0.183052
O O12 0.000000 0.608462 0.000000
O O13 0.144238 0.932307 0.746222
O O14 0.000000 0.850112 0.000000
O O15 0.000000 0.000000 0.500000
O O16 0.000000 0.000000 0.000000
#
# Coordination Sequence:
#
# PCOD8056876 Si02
#       6
#     4   4   4   4   4   2
#     4  10  21  37  55  73  91 116 159 213 262 305
#     4  10  19  30  44  66  97 129 159 190 230 286
#     4  11  22  34  49  71  97 126 164 202 236 287
#     4  12  22  35  53  71  96 131 161 200 255 306
#     4   9  17  28  42  63  92 127 165 198 222 260
#     4  10  16  26  44  64  88 128 174 204 226 252
#
# _framework density 17.104963999999999
#
# number of rings (size 3 to 8) (size 9 to 14) (size 15 to 20)
#    0.000    1.636    0.000    8.182    0.000    4.364 
#    0.000    0.000    0.000    0.000    0.000    0.000 
#    0.000    0.000    0.000   16.364    0.000    1.818 
#
# Total GULP energy -272581.983492 kJ/mol
# GULP energy per Si atom -12390.090159 kJ/mol
# Density = 1.706603 g / cm^3
# Si number density = 17.104964 Si / 1000 Ang^3
#
#
#
# Elastic Constant Matrix: (Units=GPa)
#
#
# Indices 1 2 3 4 5 6 
#
# 1 81.3460 25.3037 37.6448 0.0000 3.9788 0.0000
# 2 25.3037 81.4968 28.6625 0.0000 0.6814 0.0000
# 3 37.6448 28.6625 97.6169 0.0000 16.4776 0.0000
# 4 0.0000 0.0000 0.0000 22.3374 0.0000 6.2773
# 5 3.9788 0.6814 16.4776 0.0000 22.1994 0.0000
# 6 0.0000 0.0000 0.0000 6.2773 0.0000 10.9908
#
#
#
# Elastic Compliance Matrix: (Units=1/GPa)
#
#
# Indices 1 2 3 4 5 6 
#
# 1 0.015644 -0.002978 -0.005374 0.000000 0.001276 0.000000
# 2 -0.002978 0.014419 -0.003545 0.000000 0.002722 0.000000
# 3 -0.005374 -0.003545 0.015064 0.000000 -0.010109 0.000000
# 4 0.000000 0.000000 0.000000 0.053327 0.000000 -0.030457
# 5 0.001276 0.002722 -0.010109 0.000000 0.052238 0.000000
# 6 0.000000 0.000000 0.000000 -0.030457 0.000000 0.108380
#
#
# Mechanical properties :
#
#
# Convention : Reuss Voigt Hill
#
# Bulk Modulus (GPa) = 46.87514 49.29796 48.08655
# Shear Modulus (GPa) = 17.24278 22.36209 19.80244
#
# Velocity S-wave (km/s) = 3.17844 3.61965 3.40619
# Velocity P-wave (km/s) = 6.39796 6.80827 6.60630
#
# Compressibility (1/GPa) = 0.02133327
#
# Stress axis : x y z
#
# Youngs Moduli (GPa) = 63.92232 69.35298 66.38430
#
# Poissons Ratio (x) = 0.20653 0.35675
# Poissons Ratio (y) = 0.19035 0.23532
# Poissons Ratio (z) = 0.34352 0.24585
#
# Static dielectric constant tensor:
#      x y z
#    x 2.850240 0.000000 0.212020 
#    y 0.000000 8.106410 0.000000 
#    z 0.212020 0.000000 3.474080 
# 
# 
# High freq. dielectric constant tensor:
#      x y z
#    x 1.603270 0.000000 0.024040 
#    y 0.000000 1.651690 0.000000 
#    z 0.024040 0.000000 1.684790 
# 
# From -- ./inp_files/7147.got.cif
#   From: 2010.06.25/outbox.cif.g09.slc.cpg/sg10_4_cif.got.tgz:7147.got - 2010.06.27 22:07:45.
