data_PCOD8056857
_publ_section_title
;
Structure prediction by ZEFSAII (Michael W. Deem and Ramdas Pophale) SiO2 
 PCOD8056857
Probable space group: P 2/M
;
_chemical_formula_sum "Si O2"
_cell_formula_units_Z 30
_cell_length_a 14.107512
_cell_length_b 28.519111
_cell_length_c 5.183095
_cell_angle_alpha 90.000000
_cell_angle_beta 117.143607
_cell_angle_gamma 90.000000
_cell_volume 1855.667303
_symmetry_space_group_name_H-M "P 2/M"
_symmetry_group_IT_number 10
_symmetry_cell_setting 'monoclinic'
loop_
_space_group_symop_operation_xyz
x,y,z
-x,y,-z
-x,-y,-z
x,-y,z
loop_
_atom_site_type_symbol
_atom_site_label
_atom_site_fract_x
_atom_site_fract_y
_atom_site_fract_z
Si Si1 0.376825 0.102988 0.606604
Si Si2 0.322831 0.339778 0.879715
Si Si3 0.883133 0.392271 0.412128
Si Si4 0.428893 0.000000 0.664401
Si Si5 0.818203 0.554687 0.819704
Si Si6 0.387221 0.392668 0.463426
Si Si7 0.432600 0.752254 0.165397
Si Si8 0.617369 0.143669 0.881715
O O1 0.359434 0.047115 0.592772
O O2 0.499738 0.120478 0.747825
O O3 0.318602 0.121012 0.276975
O O4 0.321657 0.128346 0.782489
O O5 0.198918 0.348851 0.654574
O O6 0.396283 0.362336 0.741492
O O7 0.341844 0.360751 0.182770
O O8 0.347170 0.285219 0.952717
O O9 0.889632 0.421177 0.687266
O O10 0.000000 0.371544 0.500000
O O11 0.846037 0.426506 0.137365
O O12 0.500000 0.000000 0.500000
O O13 0.500000 0.000000 0.000000
O O14 0.841293 0.500000 0.842907
O O15 0.693596 0.564078 0.595525
O O16 0.500000 0.412239 0.500000
O O17 0.500000 0.733666 0.500000
O O18 0.377810 0.800978 0.171036
O O19 0.500000 0.765370 0.000000
#
# Coordination Sequence:
#
# PCOD8056857 Si02
#       8
#     4   4   4   2   4   4   4   4
#     4  10  16  25  31  47  69  95 137 169 205 238
#     4  10  21  32  46  68  86 110 152 175 201 262
#     4  10  21  37  53  68  92 116 136 178 220 243
#     4  12  16  20  34  42  60  96 130 178 200 226
#     4  10  21  34  52  77  94 111 144 170 200 257
#     4  10  19  34  48  65  95 121 138 170 202 239
#     4  12  19  27  43  61  82 111 135 170 217 244
#     4  10  16  25  33  47  72  95 126 168 208 239
#
# _framework density 16.166691
#
# number of rings (size 3 to 8) (size 9 to 14) (size 15 to 20)
#    0.000    1.600    5.333    3.200    0.000    1.867 
#    0.000    0.000    0.000    4.800    0.000    0.000 
#    0.000    0.000    0.000    0.000    0.000    0.000 
#
# Total GULP energy -371686.219443 kJ/mol
# GULP energy per Si atom -12389.540648 kJ/mol
# Density = 1.612990 g / cm^3
# Si number density = 16.166691 Si / 1000 Ang^3
#
#
#
# Elastic Constant Matrix: (Units=GPa)
#
#
# Indices 1 2 3 4 5 6 
#
# 1 63.2363 15.3863 22.3078 0.0000 -7.2441 0.0000
# 2 15.3863 93.6913 25.3839 0.0000 -3.1599 0.0000
# 3 22.3078 25.3839 81.9074 0.0000 -32.3008 0.0000
# 4 0.0000 0.0000 0.0000 21.8209 0.0000 -8.7170
# 5 -7.2441 -3.1599 -32.3008 0.0000 32.1937 0.0000
# 6 0.0000 0.0000 0.0000 -8.7170 0.0000 7.4152
#
#
#
# Elastic Compliance Matrix: (Units=1/GPa)
#
#
# Indices 1 2 3 4 5 6 
#
# 1 0.017767 -0.001688 -0.004641 0.000000 -0.000824 0.000000
# 2 -0.001688 0.012149 -0.004939 0.000000 -0.004143 0.000000
# 3 -0.004641 -0.004939 0.023829 0.000000 0.022379 0.000000
# 4 0.000000 0.000000 0.000000 0.086404 0.000000 0.101573
# 5 -0.000824 -0.004143 0.022379 0.000000 0.052924 0.000000
# 6 0.000000 0.000000 0.000000 0.101573 0.000000 0.254264
#
#
# Mechanical properties :
#
#
# Convention : Reuss Voigt Hill
#
# Bulk Modulus (GPa) = 32.04201 40.55455 36.29828
# Shear Modulus (GPa) = 10.41069 24.00309 17.20689
#
# Velocity S-wave (km/s) = 2.54039 3.85739 3.26596
# Velocity P-wave (km/s) = 5.33550 6.70664 6.05997
#
# Compressibility (1/GPa) = 0.03120903
#
# Stress axis : x y z
#
# Youngs Moduli (GPa) = 56.28355 82.31105 41.96580
#
# Poissons Ratio (x) = 0.13896 0.19475
# Poissons Ratio (y) = 0.09502 0.20727
# Poissons Ratio (z) = 0.26119 0.40654
#
# Static dielectric constant tensor:
#      x y z
#    x 3.256530 0.000000 -0.820640 
#    y 0.000000 3.076670 0.000000 
#    z -0.820640 0.000000 4.021300 
# 
# 
# High freq. dielectric constant tensor:
#      x y z
#    x 1.576640 0.000000 -0.051660 
#    y 0.000000 1.614120 0.000000 
#    z -0.051660 0.000000 1.632670 
# 
# From -- ./inp_files/10203.got.cif
#   From: 2010.06.25/outbox.cif.g09.slc.cpg/sg10_6_cif.got.tgz:10203.got - 2010.06.27 22:07:45.
