data_PCOD8056139
_publ_section_title
;
Structure prediction by ZEFSAII (Michael W. Deem and Ramdas Pophale) SiO2 
 PCOD8056139
Probable space group: C C
;
_chemical_formula_sum "Si O2"
_cell_formula_units_Z 32
_cell_length_a 28.856827
_cell_length_b 11.786817
_cell_length_c 9.101334
_cell_angle_alpha 90.000000
_cell_angle_beta 29.526489
_cell_angle_gamma 90.000000
_cell_volume 1525.610554
_symmetry_space_group_name_H-M "C C"
_symmetry_group_IT_number 9
_symmetry_cell_setting 'monoclinic'
loop_
_space_group_symop_operation_xyz
x,y,z
x,-y,1/2+z
1/2+x,1/2+y,z
1/2+x,1/2-y,1/2+z
loop_
_atom_site_type_symbol
_atom_site_label
_atom_site_fract_x
_atom_site_fract_y
_atom_site_fract_z
Si Si1 0.081820 0.800829 0.230720
Si Si2 0.267818 0.924004 0.381049
Si Si3 0.142075 0.032660 0.972127
Si Si4 0.698924 0.871829 0.262601
Si Si5 0.107660 0.448381 0.219817
Si Si6 0.369040 0.756526 0.278282
Si Si7 0.925872 0.423735 0.350270
Si Si8 0.063095 0.737869 0.605117
O O1 0.108916 0.744526 0.314056
O O2 0.977792 0.770856 0.459020
O O3 0.152305 0.752430 0.913538
O O4 0.089949 0.936509 0.212178
O O5 0.227497 0.912848 0.328159
O O6 0.309441 0.799190 0.301381
O O7 0.184670 0.976651 0.708832
O O8 0.359380 0.003978 0.137572
O O9 0.064590 0.131870 0.156020
O O10 0.674163 0.916725 0.170796
O O11 0.657096 0.949630 0.502712
O O12 0.811213 0.857154 0.982360
O O13 0.108319 0.343387 0.103522
O O14 0.006757 0.494283 0.557185
O O15 0.359590 0.864860 0.412145
O O16 0.962286 0.319099 0.351140
#
# Coordination Sequence:
#
# PCOD8056139 Si02
#       8
#     4   4   4   4   4   4   4   4
#     4  11  23  47  67  95 139 176 218 285 336 395
#     4  12  22  42  66 102 127 175 231 275 323 401
#     4  12  25  43  69  94 139 178 219 274 344 399
#     4  12  22  43  68  95 135 174 223 276 336 397
#     4  12  23  42  70  98 132 178 222 278 338 394
#     4  11  23  40  68  95 127 175 222 271 333 392
#     4  11  22  41  68  97 133 168 229 278 328 393
#     4  11  24  42  66 100 128 182 222 267 340 399
#
# _framework density 20.975207999999999
#
# number of rings (size 3 to 8) (size 9 to 14) (size 15 to 20)
#    0.000    0.500    7.500    2.250    0.000    0.000 
#    4.500    0.000    0.000    0.000    0.000    0.000 
#    0.000    0.000    0.000    0.000    0.000    0.000 
#
# Total GULP energy -198218.028156 kJ/mol
# GULP energy per Si atom -12388.626760 kJ/mol
# Density = 2.092747 g / cm^3
# Si number density = 20.975208 Si / 1000 Ang^3
#
#
#
# Elastic Constant Matrix: (Units=GPa)
#
#
# Indices 1 2 3 4 5 6 
#
# 1 91.0850 28.5077 27.4490 0.0000 0.8941 0.0000
# 2 28.5077 104.6768 29.8344 0.0000 -2.5202 0.0000
# 3 27.4490 29.8344 66.2115 0.0000 -4.5119 0.0000
# 4 0.0000 0.0000 0.0000 35.0622 0.0000 -7.8794
# 5 0.8941 -2.5202 -4.5119 0.0000 20.9810 0.0000
# 6 0.0000 0.0000 0.0000 -7.8794 0.0000 45.4275
#
#
#
# Elastic Compliance Matrix: (Units=1/GPa)
#
#
# Indices 1 2 3 4 5 6 
#
# 1 0.013079 -0.002323 -0.004498 0.000000 -0.001804 0.000000
# 2 -0.002323 0.011375 -0.004123 0.000000 0.000579 0.000000
# 3 -0.004498 -0.004123 0.019085 0.000000 0.003801 0.000000
# 4 0.000000 0.000000 0.000000 0.029678 0.000000 0.005148
# 5 -0.001804 0.000579 0.003801 0.000000 0.048626 0.000000
# 6 0.000000 0.000000 0.000000 0.005148 0.000000 0.022906
#
#
# Mechanical properties :
#
#
# Convention : Reuss Voigt Hill
#
# Bulk Modulus (GPa) = 46.18950 48.17283 47.18116
# Shear Modulus (GPa) = 28.75982 32.03960 30.39971
#
# Velocity S-wave (km/s) = 3.70690 3.91256 3.81112
# Velocity P-wave (km/s) = 6.35533 6.58994 6.47370
#
# Compressibility (1/GPa) = 0.02164994
#
# Stress axis : x y z
#
# Youngs Moduli (GPa) = 76.45735 87.91231 52.39818
#
# Poissons Ratio (x) = 0.20425 0.23570
# Poissons Ratio (y) = 0.17764 0.21603
# Poissons Ratio (z) = 0.34392 0.36245
#
# Static dielectric constant tensor:
#      x y z
#    x 3.941130 0.000000 0.084690 
#    y 0.000000 4.017320 0.000000 
#    z 0.084690 0.000000 3.650930 
# 
# 
# High freq. dielectric constant tensor:
#      x y z
#    x 1.830820 0.000000 0.004590 
#    y 0.000000 1.830530 0.000000 
#    z 0.004590 0.000000 1.800620 
# 
# From -- ./inp_files/9185.got.cif
#   From: 2010.06.25/outbox.cif.g09.slc.cpg/sg9_5_cif.got.tgz:9185.got - 2010.06.27 21:40:51.
