data_PCOD8056245
_publ_section_title
;
Structure prediction by ZEFSAII (Michael W. Deem and Ramdas Pophale) SiO2 
 PCOD8056245
Probable space group: C C
;
_chemical_formula_sum "Si O2"
_cell_formula_units_Z 32
_cell_length_a 22.590288
_cell_length_b 5.280475
_cell_length_c 12.160816
_cell_angle_alpha 90.000000
_cell_angle_beta 74.566604
_cell_angle_gamma 90.000000
_cell_volume 1398.323587
_symmetry_space_group_name_H-M "C C"
_symmetry_group_IT_number 9
_symmetry_cell_setting 'monoclinic'
loop_
_space_group_symop_operation_xyz
x,y,z
x,-y,1/2+z
1/2+x,1/2+y,z
1/2+x,1/2-y,1/2+z
loop_
_atom_site_type_symbol
_atom_site_label
_atom_site_fract_x
_atom_site_fract_y
_atom_site_fract_z
Si Si1 0.634860 0.045912 0.538190
Si Si2 0.444080 0.557900 0.262397
Si Si3 0.671549 0.708788 0.816137
Si Si4 0.254865 0.394025 0.587874
Si Si5 0.776527 0.501125 0.890886
Si Si6 0.861571 0.196829 0.490294
Si Si7 0.584932 0.540474 0.672288
Si Si8 0.387861 0.935356 0.688504
O O1 0.638431 0.066180 0.402643
O O2 0.601031 0.296355 0.594411
O O3 0.703604 0.065721 0.553194
O O4 0.598092 0.794757 0.594146
O O5 0.418462 0.563913 0.400309
O O6 0.515638 0.505064 0.241294
O O7 0.421630 0.321273 0.204422
O O8 0.426764 0.820975 0.208960
O O9 0.727584 0.813889 0.717489
O O10 0.706022 0.528136 0.886622
O O11 0.623357 0.556263 0.766330
O O12 0.320385 0.516711 0.588558
O O13 0.272476 0.168575 0.499730
O O14 0.812767 0.746253 0.916924
O O15 0.819263 0.404688 0.770564
O O16 0.884523 0.429974 0.555959
#
# Coordination Sequence:
#
# PCOD8056245 Si02
#       8
#     4   4   4   4   4   4   4   4
#     4  11  25  45  69 109 142 190 241 300 354 433
#     4  11  26  52  71 105 143 190 247 300 345 436
#     4  11  24  42  74 105 146 197 229 305 368 426
#     4  11  24  40  67 105 149 179 240 289 371 437
#     4  11  23  43  65 110 151 182 231 302 358 451
#     4  11  25  42  70 108 145 186 234 300 363 439
#     4  11  27  50  74 101 146 193 251 296 354 428
#     4  11  26  42  76 103 144 195 233 294 373 414
#
# _framework density 22.884544999999999
#
# number of rings (size 3 to 8) (size 9 to 14) (size 15 to 20)
#    0.000    1.000    2.500    3.000    8.750    4.000 
#    0.000    6.250    0.000    0.000    0.000    0.000 
#    0.000    0.000    0.000    0.000    0.000    0.000 
#
# Total GULP energy -198266.492173 kJ/mol
# GULP energy per Si atom -12391.655761 kJ/mol
# Density = 2.283246 g / cm^3
# Si number density = 22.884545 Si / 1000 Ang^3
#
#
#
# Elastic Constant Matrix: (Units=GPa)
#
#
# Indices 1 2 3 4 5 6 
#
# 1 135.1268 48.6464 65.1116 0.0000 -23.8697 0.0000
# 2 48.6464 126.0977 39.7677 0.0000 -9.5700 0.0000
# 3 65.1116 39.7677 93.6061 0.0000 -14.2977 0.0000
# 4 0.0000 0.0000 0.0000 25.4605 0.0000 -3.1702
# 5 -23.8697 -9.5700 -14.2977 0.0000 41.7499 0.0000
# 6 0.0000 0.0000 0.0000 -3.1702 0.0000 36.2872
#
#
#
# Elastic Compliance Matrix: (Units=1/GPa)
#
#
# Indices 1 2 3 4 5 6 
#
# 1 0.012292 -0.002230 -0.006972 0.000000 0.004129 0.000000
# 2 -0.002230 0.009588 -0.002513 0.000000 0.000062 0.000000
# 3 -0.006972 -0.002513 0.016781 0.000000 0.001185 0.000000
# 4 0.000000 0.000000 0.000000 0.039709 0.000000 0.003469
# 5 0.004129 0.000062 0.001185 0.000000 0.026733 0.000000
# 6 0.000000 0.000000 0.000000 0.003469 0.000000 0.027861
#
#
# Mechanical properties :
#
#
# Convention : Reuss Voigt Hill
#
# Bulk Modulus (GPa) = 65.65296 73.54244 69.59770
# Shear Modulus (GPa) = 30.96534 34.11985 32.54260
#
# Velocity S-wave (km/s) = 3.68246 3.86548 3.77508
# Velocity P-wave (km/s) = 6.84337 7.22002 7.03421
#
# Compressibility (1/GPa) = 0.01523161
#
# Stress axis : x y z
#
# Youngs Moduli (GPa) = 81.35186 104.29951 59.58970
#
# Poissons Ratio (x) = 0.23258 0.41548
# Poissons Ratio (y) = 0.18141 0.14973
# Poissons Ratio (z) = 0.56722 0.26207
#
# Static dielectric constant tensor:
#      x y z
#    x 4.440950 0.000000 -0.218270 
#    y 0.000000 4.086890 0.000000 
#    z -0.218270 0.000000 4.397020 
# 
# 
# High freq. dielectric constant tensor:
#      x y z
#    x 1.898650 0.000000 -0.006480 
#    y 0.000000 1.900180 0.000000 
#    z -0.006480 0.000000 1.920700 
# 
# From -- ./inp_files/19809.got.cif
#   From: 2010.06.25/outbox.cif.g09.slc.cpg/sg9_10_cif.got.tgz:19809.got - 2010.06.27 21:40:51.
