data_PCOD8056203
_publ_section_title
;
Structure prediction by ZEFSAII (Michael W. Deem and Ramdas Pophale) SiO2 
 PCOD8056203
Probable space group: C C
;
_chemical_formula_sum "Si O2"
_cell_formula_units_Z 32
_cell_length_a 6.189256
_cell_length_b 16.268641
_cell_length_c 16.269999
_cell_angle_alpha 90.000000
_cell_angle_beta 121.609903
_cell_angle_gamma 90.000000
_cell_volume 1395.183852
_symmetry_space_group_name_H-M "C C"
_symmetry_group_IT_number 9
_symmetry_cell_setting 'monoclinic'
loop_
_space_group_symop_operation_xyz
x,y,z
x,-y,1/2+z
1/2+x,1/2+y,z
1/2+x,1/2-y,1/2+z
loop_
_atom_site_type_symbol
_atom_site_label
_atom_site_fract_x
_atom_site_fract_y
_atom_site_fract_z
Si Si1 0.570950 0.824974 0.119570
Si Si2 0.789517 0.523618 0.264514
Si Si3 0.790138 0.059150 0.906363
Si Si4 0.511260 0.393877 0.287046
Si Si5 0.104483 0.937010 0.063232
Si Si6 0.209770 0.203752 0.292350
Si Si7 0.728644 0.797030 0.979145
Si Si8 0.982468 0.292684 0.396490
O O1 0.310603 0.876239 0.062880
O O2 0.595514 0.767364 0.204370
O O3 0.800197 0.890038 0.173404
O O4 0.609177 0.770343 0.043896
O O5 0.647687 0.481847 0.313248
O O6 0.713228 0.471734 0.169347
O O7 0.676197 0.614718 0.243941
O O8 0.092020 0.511762 0.337275
O O9 0.665478 0.127759 0.940867
O O10 0.882489 0.116731 0.850057
O O11 0.037085 0.016335 0.994482
O O12 0.711511 0.321991 0.307902
O O13 0.840162 0.887668 0.018453
O O14 0.511572 0.206947 0.366810
O O15 0.072242 0.219779 0.352637
O O16 0.953147 0.740346 0.985050
#
# Coordination Sequence:
#
# PCOD8056203 Si02
#       8
#     4   4   4   4   4   4   4   4
#     4  12  25  47  77 106 150 194 252 305 371 451
#     4  11  25  44  73 107 146 194 245 306 372 439
#     4  11  24  47  75 105 148 198 245 305 371 439
#     4  11  22  46  74 100 146 199 238 301 374 438
#     4  12  26  45  75 109 146 194 251 307 372 442
#     4  12  26  48  74 111 150 194 248 313 373 435
#     4  12  26  45  73 111 147 198 247 308 372 441
#     4  11  24  46  75 105 147 199 240 305 377 437
#
# _framework density 22.936045
#
# number of rings (size 3 to 8) (size 9 to 14) (size 15 to 20)
#    0.000    0.500    6.250    1.500    3.500    3.000 
#    0.000    0.000    2.750    0.000    0.000    0.000 
#    0.000    0.000    0.000    0.000    0.000    0.000 
#
# Total GULP energy -198262.111769 kJ/mol
# GULP energy per Si atom -12391.381986 kJ/mol
# Density = 2.288384 g / cm^3
# Si number density = 22.936045 Si / 1000 Ang^3
#
#
#
# Elastic Constant Matrix: (Units=GPa)
#
#
# Indices 1 2 3 4 5 6 
#
# 1 120.1408 57.2752 48.9188 0.0000 -10.5474 0.0000
# 2 57.2752 112.9045 44.2240 0.0000 -7.0263 0.0000
# 3 48.9188 44.2240 102.7495 0.0000 -4.6034 0.0000
# 4 0.0000 0.0000 0.0000 40.7363 0.0000 2.8620
# 5 -10.5474 -7.0263 -4.6034 0.0000 44.0794 0.0000
# 6 0.0000 0.0000 0.0000 2.8620 0.0000 34.2402
#
#
#
# Elastic Compliance Matrix: (Units=1/GPa)
#
#
# Indices 1 2 3 4 5 6 
#
# 1 0.012205 -0.004613 -0.003745 0.000000 0.001794 0.000000
# 2 -0.004613 0.012463 -0.003143 0.000000 0.000555 0.000000
# 3 -0.003745 -0.003143 0.012866 0.000000 -0.000053 0.000000
# 4 0.000000 0.000000 0.000000 0.024693 0.000000 -0.002064
# 5 0.001794 0.000555 -0.000053 0.000000 0.023198 0.000000
# 6 0.000000 0.000000 0.000000 -0.002064 0.000000 0.029378
#
#
# Mechanical properties :
#
#
# Convention : Reuss Voigt Hill
#
# Bulk Modulus (GPa) = 68.81498 70.73677 69.77587
# Shear Modulus (GPa) = 35.05109 36.16964 35.61037
#
# Velocity S-wave (km/s) = 3.91347 3.97543 3.94457
# Velocity P-wave (km/s) = 7.10552 7.20971 7.15780
#
# Compressibility (1/GPa) = 0.01453172
#
# Stress axis : x y z
#
# Youngs Moduli (GPa) = 81.93282 80.23911 77.72580
#
# Poissons Ratio (x) = 0.37014 0.29108
# Poissons Ratio (y) = 0.37796 0.24429
# Poissons Ratio (z) = 0.30684 0.25219
#
# Static dielectric constant tensor:
#      x y z
#    x 4.316190 0.000000 0.069530 
#    y 0.000000 4.133100 0.000000 
#    z 0.069530 0.000000 4.061410 
# 
# 
# High freq. dielectric constant tensor:
#      x y z
#    x 1.916940 0.000000 0.004410 
#    y 0.000000 1.901280 0.000000 
#    z 0.004410 0.000000 1.897950 
# 
# From -- ./inp_files/21943.got.cif
#   From: 2010.06.25/outbox.cif.g09.slc.cpg/sg9_11_cif.got.tgz:21943.got - 2010.06.27 21:40:51.
