data_PCOD8056071
_publ_section_title
;
Structure prediction by ZEFSAII (Michael W. Deem and Ramdas Pophale) SiO2 
 PCOD8056071
Probable space group: C C
;
_chemical_formula_sum "Si O2"
_cell_formula_units_Z 28
_cell_length_a 7.280878
_cell_length_b 13.446940
_cell_length_c 20.017716
_cell_angle_alpha 90.000000
_cell_angle_beta 139.513101
_cell_angle_gamma 90.000000
_cell_volume 1272.476773
_symmetry_space_group_name_H-M "C C"
_symmetry_group_IT_number 9
_symmetry_cell_setting 'monoclinic'
loop_
_space_group_symop_operation_xyz
x,y,z
x,-y,1/2+z
1/2+x,1/2+y,z
1/2+x,1/2-y,1/2+z
loop_
_atom_site_type_symbol
_atom_site_label
_atom_site_fract_x
_atom_site_fract_y
_atom_site_fract_z
Si Si1 0.969640 0.549689 0.577740
Si Si2 0.347914 0.925337 0.897053
Si Si3 0.526869 0.834136 0.558994
Si Si4 0.136302 0.614070 0.948266
Si Si5 0.313912 0.135111 0.670058
Si Si6 0.891254 0.804885 0.391124
Si Si7 0.582589 0.426513 0.236980
O O1 0.785804 0.564577 0.459410
O O2 0.065277 0.434560 0.612583
O O3 0.783453 0.587005 0.588396
O O4 0.261832 0.613954 0.652929
O O5 0.384713 0.812937 0.887926
O O6 0.627013 0.993065 0.955967
O O7 0.093150 0.968951 0.781171
O O8 0.700832 0.836235 0.537449
O O9 0.640236 0.738558 0.630041
O O10 0.195964 0.833037 0.447287
O O11 0.821121 0.647965 0.834199
O O12 0.369881 0.650375 0.960360
O O13 0.647074 0.150381 0.776829
O O14 0.172760 0.059493 0.684044
#
# Coordination Sequence:
#
# PCOD8056071 Si02
#       7
#     4   4   4   4   4   4   4
#     4  11  22  40  66  90 131 172 214 275 329 380
#     4   9  20  39  64  88 126 174 206 267 332 377
#     4  11  23  38  62  97 124 168 221 262 327 393
#     4   8  20  39  60  86 124 164 207 264 322 381
#     4  11  24  40  65  99 129 168 230 263 321 407
#     4  11  21  40  64  90 130 168 214 271 323 387
#     4   9  20  42  59  90 130 166 214 276 320 387
#
# _framework density 22.004332000000002
#
# number of rings (size 3 to 8) (size 9 to 14) (size 15 to 20)
#    0.857    1.143    0.000    3.429    0.000    3.429 
#    0.000    7.143    0.000    0.000    0.000    0.000 
#    0.000    0.000    0.000    0.000    0.000    0.000 
#
# Total GULP energy -173452.896997 kJ/mol
# GULP energy per Si atom -12389.492643 kJ/mol
# Density = 2.195425 g / cm^3
# Si number density = 22.004332 Si / 1000 Ang^3
#
#
#
# Elastic Constant Matrix: (Units=GPa)
#
#
# Indices 1 2 3 4 5 6 
#
# 1 100.4184 26.1895 28.2526 -0.0001 -20.2335 -0.0001
# 2 26.1895 64.6172 19.2750 -0.0001 -17.4121 0.0000
# 3 28.2526 19.2750 55.3738 0.0002 -5.8569 0.0000
# 4 -0.0001 -0.0001 0.0002 18.4082 0.0001 -7.6709
# 5 -20.2335 -17.4121 -5.8569 0.0001 30.4100 0.0000
# 6 -0.0001 0.0000 0.0000 -7.6709 0.0000 19.8706
#
#
#
# Elastic Compliance Matrix: (Units=1/GPa)
#
#
# Indices 1 2 3 4 5 6 
#
# 1 0.013350 -0.001992 -0.005409 0.000000 0.006700 0.000000
# 2 -0.001992 0.020307 -0.005066 0.000000 0.009327 0.000000
# 3 -0.005409 -0.005066 0.022350 0.000000 -0.002195 0.000000
# 4 0.000000 0.000000 0.000000 0.064738 0.000000 0.024992
# 5 0.006700 0.009327 -0.002195 0.000000 0.042259 0.000000
# 6 0.000000 0.000000 0.000000 0.024992 0.000000 0.059973
#
#
# Mechanical properties :
#
#
# Convention : Reuss Voigt Hill
#
# Bulk Modulus (GPa) = 32.18205 40.87152 36.52678
# Shear Modulus (GPa) = 19.35958 23.51723 21.43840
#
# Velocity S-wave (km/s) = 2.96937 3.27273 3.12473
# Velocity P-wave (km/s) = 5.13939 5.73547 5.44559
#
# Compressibility (1/GPa) = 0.03107322
#
# Stress axis : x y z
#
# Youngs Moduli (GPa) = 74.90807 49.24323 44.74219
#
# Poissons Ratio (x) = 0.09808 0.24202
# Poissons Ratio (y) = 0.14919 0.22667
# Poissons Ratio (z) = 0.40520 0.24947
#
# Static dielectric constant tensor:
#      x y z
#    x 3.834100 0.000000 -0.059130 
#    y 0.000000 3.728260 0.000000 
#    z -0.059130 0.000000 4.066280 
# 
# 
# High freq. dielectric constant tensor:
#      x y z
#    x 1.856250 0.000000 -0.011140 
#    y 0.000000 1.842530 0.000000 
#    z -0.011140 0.000000 1.867570 
# 
# From -- ./inp_files/32170.got.cif
#   From: 2010.06.25/outbox.cif.g09.slc.cpg/sg9_17_cif.got.tgz:32170.got - 2010.06.27 21:40:51.
