data_PCOD8056666
_publ_section_title
;
Structure prediction by ZEFSAII (Michael W. Deem and Ramdas Pophale) SiO2 
 PCOD8056666
Probable space group: C C
;
_chemical_formula_sum "Si O2"
_cell_formula_units_Z 24
_cell_length_a 5.012253
_cell_length_b 33.125334
_cell_length_c 5.859129
_cell_angle_alpha 90.000000
_cell_angle_beta 80.636056
_cell_angle_gamma 90.000000
_cell_volume 959.843268
_symmetry_space_group_name_H-M "C C"
_symmetry_group_IT_number 9
_symmetry_cell_setting 'monoclinic'
loop_
_space_group_symop_operation_xyz
x,y,z
x,-y,1/2+z
1/2+x,1/2+y,z
1/2+x,1/2-y,1/2+z
loop_
_atom_site_type_symbol
_atom_site_label
_atom_site_fract_x
_atom_site_fract_y
_atom_site_fract_z
Si Si1 0.949640 0.363323 0.513000
Si Si2 0.724998 0.927953 0.191976
Si Si3 0.190393 0.978096 0.282808
Si Si4 0.048456 0.797967 0.001801
Si Si5 0.418431 0.620998 0.275131
Si Si6 0.002803 0.284414 0.275714
O O1 0.668849 0.388701 0.570933
O O2 0.878001 0.316261 0.474756
O O3 0.116063 0.384313 0.286553
O O4 0.134169 0.365791 0.710800
O O5 0.489488 0.960562 0.218442
O O6 0.956765 0.944257 0.327557
O O7 0.861469 0.919425 0.927644
O O8 0.154232 0.999562 0.537473
O O9 0.050986 0.841916 0.893880
O O10 0.964203 0.762090 0.843077
O O11 0.817268 0.796706 0.226472
O O12 0.346413 0.790257 0.059459
#
# Coordination Sequence:
#
# PCOD8056666 Si02
#       6
#     4   4   4   4   4   4
#     4  12  26  45  74 108 149 196 251 310 379 442
#     4  12  28  50  80 112 157 192 253 312 374 478
#     4  12  30  54  84 118 157 204 253 318 402 478
#     4  12  24  43  66 100 147 194 254 312 369 439
#     4  12  26  45  74 108 149 196 251 310 379 442
#     4  12  24  43  66 100 147 194 254 312 369 439
#
# _framework density 25.004079999999998
#
# number of rings (size 3 to 8) (size 9 to 14) (size 15 to 20)
#    0.000    0.000    1.667    8.000    9.333    0.000 
#    0.000    0.000    0.000    0.000    0.000    0.000 
#    0.000    0.000    0.000    0.000    0.000    0.000 
#
# Total GULP energy -148737.322789 kJ/mol
# GULP energy per Si atom -12394.776899 kJ/mol
# Density = 2.494717 g / cm^3
# Si number density = 25.004080 Si / 1000 Ang^3
#
#
#
# Elastic Constant Matrix: (Units=GPa)
#
#
# Indices 1 2 3 4 5 6 
#
# 1 127.6975 19.0991 16.6808 0.0000 -0.5352 0.0000
# 2 19.0991 58.5763 18.7370 0.0000 8.1655 0.0000
# 3 16.6808 18.7370 81.2062 0.0000 7.9306 0.0000
# 4 0.0000 0.0000 0.0000 39.8137 0.0000 1.3831
# 5 -0.5352 8.1655 7.9306 0.0000 51.1892 0.0000
# 6 0.0000 0.0000 0.0000 1.3831 0.0000 40.5003
#
#
#
# Elastic Compliance Matrix: (Units=1/GPa)
#
#
# Indices 1 2 3 4 5 6 
#
# 1 0.008356 -0.002426 -0.001221 0.000000 0.000664 0.000000
# 2 -0.002426 0.019411 -0.003732 0.000000 -0.002544 0.000000
# 3 -0.001221 -0.003732 0.013575 0.000000 -0.001521 0.000000
# 4 0.000000 0.000000 0.000000 0.025147 0.000000 -0.000859
# 5 0.000664 -0.002544 -0.001521 0.000000 0.020184 0.000000
# 6 0.000000 0.000000 0.000000 -0.000859 0.000000 0.024721
#
#
# Mechanical properties :
#
#
# Convention : Reuss Voigt Hill
#
# Bulk Modulus (GPa) = 37.61860 41.83489 39.72675
# Shear Modulus (GPa) = 37.03325 40.49818 38.76572
#
# Velocity S-wave (km/s) = 3.85267 4.02887 3.94175
# Velocity P-wave (km/s) = 5.90494 6.19757 6.05303
#
# Compressibility (1/GPa) = 0.02658259
#
# Stress axis : x y z
#
# Youngs Moduli (GPa) = 119.67094 51.51656 73.66575
#
# Poissons Ratio (x) = 0.12500 0.08998
# Poissons Ratio (y) = 0.29037 0.27492
# Poissons Ratio (z) = 0.14617 0.19226
#
# Static dielectric constant tensor:
#      x y z
#    x 4.824440 0.000000 -0.231900 
#    y 0.000000 4.516180 0.000000 
#    z -0.231900 0.000000 4.575920 
# 
# 
# High freq. dielectric constant tensor:
#      x y z
#    x 2.021280 0.000000 -0.007730 
#    y 0.000000 1.999900 0.000000 
#    z -0.007730 0.000000 1.994110 
# 
# From -- ./inp_files/347.got.cif
#   From: 2010.06.25/outbox.cif.g09.slc.cpg/sg9_1_cif.got.tgz:347.got - 2010.06.27 21:40:51.
