data_PCOD8056185
_publ_section_title
;
Structure prediction by ZEFSAII (Michael W. Deem and Ramdas Pophale) SiO2 
 PCOD8056185
Probable space group: C C
;
_chemical_formula_sum "Si O2"
_cell_formula_units_Z 32
_cell_length_a 16.721957
_cell_length_b 14.410496
_cell_length_c 10.807537
_cell_angle_alpha 90.000000
_cell_angle_beta 32.586230
_cell_angle_gamma 90.000000
_cell_volume 1402.599084
_symmetry_space_group_name_H-M "C C"
_symmetry_group_IT_number 9
_symmetry_cell_setting 'monoclinic'
loop_
_space_group_symop_operation_xyz
x,y,z
x,-y,1/2+z
1/2+x,1/2+y,z
1/2+x,1/2-y,1/2+z
loop_
_atom_site_type_symbol
_atom_site_label
_atom_site_fract_x
_atom_site_fract_y
_atom_site_fract_z
Si Si1 0.412940 0.344317 0.060510
Si Si2 0.655904 0.059263 0.585586
Si Si3 0.675035 0.434470 0.591925
Si Si4 0.452173 0.763542 0.741612
Si Si5 0.430957 0.800809 0.328168
Si Si6 0.976773 0.126100 0.131208
Si Si7 0.116630 0.566718 0.912772
Si Si8 0.653437 0.355269 0.158696
O O1 0.394261 0.317425 0.227564
O O2 0.291596 0.419391 0.184741
O O3 0.567046 0.398560 0.841328
O O4 0.381047 0.255736 0.014531
O O5 0.597793 0.163848 0.639677
O O6 0.835202 0.059144 0.340998
O O7 0.591608 0.026185 0.805154
O O8 0.578823 0.000527 0.576291
O O9 0.831644 0.389542 0.423695
O O10 0.611819 0.398191 0.545262
O O11 0.694782 0.545002 0.546748
O O12 0.528478 0.838245 0.551310
O O13 0.571581 0.718282 0.676931
O O14 0.308479 0.807016 0.999207
O O15 0.430660 0.732767 0.211362
O O16 0.037949 0.117875 0.914773
#
# Coordination Sequence:
#
# PCOD8056185 Si02
#       8
#     4   4   4   4   4   4   4   4
#     4  11  22  44  77 100 139 186 242 282 359 440
#     4  12  26  45  76 107 147 186 244 300 361 431
#     4  11  25  45  73 106 138 188 240 298 351 434
#     4  12  27  48  71 103 145 195 239 295 372 430
#     4  11  23  45  75 102 137 189 235 297 353 433
#     4  11  26  45  72 106 142 189 242 292 369 425
#     4  12  25  46  73 111 141 191 241 300 361 430
#     4  12  30  46  71 105 147 192 239 308 358 435
#
# _framework density 22.814789999999999
#
# number of rings (size 3 to 8) (size 9 to 14) (size 15 to 20)
#    0.000    0.500    5.000    3.750    7.000    1.000 
#    4.500    0.000    0.000    0.000    0.000    0.000 
#    0.000    0.000    0.000    0.000    0.000    0.000 
#
# Total GULP energy -198310.101418 kJ/mol
# GULP energy per Si atom -12394.381339 kJ/mol
# Density = 2.276286 g / cm^3
# Si number density = 22.814790 Si / 1000 Ang^3
#
#
#
# Elastic Constant Matrix: (Units=GPa)
#
#
# Indices 1 2 3 4 5 6 
#
# 1 81.3745 35.0413 30.6824 0.0000 7.2096 0.0000
# 2 35.0413 102.9917 29.8596 0.0000 -1.3615 0.0000
# 3 30.6824 29.8596 81.1336 0.0000 1.8512 0.0000
# 4 0.0000 0.0000 0.0000 35.2041 0.0000 -4.4351
# 5 7.2096 -1.3615 1.8512 0.0000 43.2585 0.0000
# 6 0.0000 0.0000 0.0000 -4.4351 0.0000 29.3277
#
#
#
# Elastic Compliance Matrix: (Units=1/GPa)
#
#
# Indices 1 2 3 4 5 6 
#
# 1 0.016002 -0.004189 -0.004450 0.000000 -0.002608 0.000000
# 2 -0.004189 0.011977 -0.002851 0.000000 0.001197 0.000000
# 3 -0.004450 -0.002851 0.015058 0.000000 0.000008 0.000000
# 4 0.000000 0.000000 0.000000 0.028957 0.000000 0.004379
# 5 -0.002608 0.001197 0.000008 0.000000 0.023589 0.000000
# 6 0.000000 0.000000 0.000000 0.004379 0.000000 0.034760
#
#
# Mechanical properties :
#
#
# Convention : Reuss Voigt Hill
#
# Bulk Modulus (GPa) = 49.86047 50.74070 50.30058
# Shear Modulus (GPa) = 31.24850 32.88584 32.06717
#
# Velocity S-wave (km/s) = 3.70491 3.80073 3.75312
# Velocity P-wave (km/s) = 6.34064 6.44587 6.39347
#
# Compressibility (1/GPa) = 0.02005597
#
# Stress axis : x y z
#
# Youngs Moduli (GPa) = 62.49376 83.49295 66.41200
#
# Poissons Ratio (x) = 0.34971 0.29556
# Poissons Ratio (y) = 0.26176 0.18936
# Poissons Ratio (z) = 0.27812 0.23806
#
# Static dielectric constant tensor:
#      x y z
#    x 4.172990 0.000000 0.121010 
#    y 0.000000 4.257790 0.000000 
#    z 0.121010 0.000000 4.161950 
# 
# 
# High freq. dielectric constant tensor:
#      x y z
#    x 1.899980 0.000000 -0.009100 
#    y 0.000000 1.900100 0.000000 
#    z -0.009100 0.000000 1.902380 
# 
# From -- ./inp_files/7529.got.cif
#   From: 2010.06.25/outbox.cif.g09.slc.cpg/sg9_4_cif.got.tgz:7529.got - 2010.06.27 21:40:51.
