data_PCOD8056307
_publ_section_title
;
Structure prediction by ZEFSAII (Michael W. Deem and Ramdas Pophale) SiO2 
 PCOD8056307
Probable space group: C C
;
_chemical_formula_sum "Si O2"
_cell_formula_units_Z 28
_cell_length_a 10.033774
_cell_length_b 10.023150
_cell_length_c 14.573364
_cell_angle_alpha 90.000000
_cell_angle_beta 62.454664
_cell_angle_gamma 90.000000
_cell_volume 1299.505793
_symmetry_space_group_name_H-M "C C"
_symmetry_group_IT_number 9
_symmetry_cell_setting 'monoclinic'
loop_
_space_group_symop_operation_xyz
x,y,z
x,-y,1/2+z
1/2+x,1/2+y,z
1/2+x,1/2-y,1/2+z
loop_
_atom_site_type_symbol
_atom_site_label
_atom_site_fract_x
_atom_site_fract_y
_atom_site_fract_z
Si Si1 0.796770 0.480241 0.704710
Si Si2 0.108698 0.403741 0.096887
Si Si3 0.877914 0.783833 0.103283
Si Si4 0.997312 0.055836 0.725689
Si Si5 0.668301 0.623448 0.430402
Si Si6 0.041437 0.875190 0.551026
Si Si7 0.311975 0.618695 0.958825
O O1 0.840774 0.372746 0.612367
O O2 0.670021 0.577156 0.703321
O O3 0.727536 0.394306 0.809335
O O4 0.941400 0.567148 0.688928
O O5 0.225799 0.371387 0.141099
O O6 0.106619 0.273622 0.032041
O O7 0.161118 0.533036 0.023133
O O8 0.954391 0.817709 0.176839
O O9 0.995568 0.821751 0.984882
O O10 0.895192 0.047624 0.847861
O O11 0.978731 0.919896 0.671389
O O12 0.672438 0.480715 0.481398
O O13 0.773633 0.728206 0.449537
O O14 0.910822 0.884248 0.518186
#
# Coordination Sequence:
#
# PCOD8056307 Si02
#       7
#     4   4   4   4   4   4   4
#     4  12  24  44  72 105 137 189 240 289 357 427
#     4  12  26  43  71 103 137 186 239 286 357 425
#     4  11  23  46  69  99 142 185 230 296 355 416
#     4  11  23  46  71  98 143 182 232 295 352 413
#     4  11  24  47  71  99 147 185 235 296 355 419
#     4  11  26  44  69 103 146 177 235 300 348 415
#     4  12  24  46  71 105 138 192 233 294 358 421
#
# _framework density 21.546651000000001
#
# number of rings (size 3 to 8) (size 9 to 14) (size 15 to 20)
#    0.000    0.571    8.571    0.000    4.000    1.143 
#    5.143    0.000    0.000    0.000    0.000    0.000 
#    0.000    0.000    0.000    0.000    0.000    0.000 
#
# Total GULP energy -173580.557304 kJ/mol
# GULP energy per Si atom -12398.611236 kJ/mol
# Density = 2.149761 g / cm^3
# Si number density = 21.546651 Si / 1000 Ang^3
#
#
#
# Elastic Constant Matrix: (Units=GPa)
#
#
# Indices 1 2 3 4 5 6 
#
# 1 143.4948 44.1541 65.1383 0.0000 -7.8352 0.0000
# 2 44.1541 116.7835 32.0658 0.0000 -3.8748 0.0000
# 3 65.1383 32.0658 103.6635 0.0000 -8.8229 0.0000
# 4 0.0000 0.0000 0.0000 25.6950 0.0000 -0.1236
# 5 -7.8352 -3.8748 -8.8229 0.0000 25.2673 0.0000
# 6 0.0000 0.0000 0.0000 -0.1236 0.0000 41.5889
#
#
#
# Elastic Compliance Matrix: (Units=1/GPa)
#
#
# Indices 1 2 3 4 5 6 
#
# 1 0.010309 -0.002307 -0.005691 0.000000 0.000856 0.000000
# 2 -0.002307 0.009878 -0.001585 0.000000 0.000246 0.000000
# 3 -0.005691 -0.001585 0.013957 0.000000 0.002866 0.000000
# 4 0.000000 0.000000 0.000000 0.038919 0.000000 0.000116
# 5 0.000856 0.000246 0.002866 0.000000 0.040880 0.000000
# 6 0.000000 0.000000 0.000000 0.000116 0.000000 0.024045
#
#
# Mechanical properties :
#
#
# Convention : Reuss Voigt Hill
#
# Bulk Modulus (GPa) = 66.76545 71.85091 69.30818
# Shear Modulus (GPa) = 30.83600 33.34915 32.09258
#
# Velocity S-wave (km/s) = 3.78713 3.93843 3.86352
# Velocity P-wave (km/s) = 7.08356 7.35532 7.22072
#
# Compressibility (1/GPa) = 0.01497781
#
# Stress axis : x y z
#
# Youngs Moduli (GPa) = 97.00315 101.23116 71.64761
#
# Poissons Ratio (x) = 0.23349 0.40778
# Poissons Ratio (y) = 0.22374 0.11359
# Poissons Ratio (z) = 0.55209 0.16049
#
# Static dielectric constant tensor:
#      x y z
#    x 3.974580 0.000000 -0.122900 
#    y 0.000000 3.977950 0.000000 
#    z -0.122900 0.000000 3.847750 
# 
# 
# High freq. dielectric constant tensor:
#      x y z
#    x 1.850690 0.000000 -0.005550 
#    y 0.000000 1.850500 0.000000 
#    z -0.005550 0.000000 1.831670 
# 
# From -- ./inp_files/22578.got.cif
#   From: 2010.06.25/outbox.cif.g09.slc.cpg/sg9_12_cif.got.tgz:22578.got - 2010.06.27 21:40:51.
