data_PCOD8056790
_publ_section_title
;
Structure prediction by ZEFSAII (Michael W. Deem and Ramdas Pophale) SiO2 
 PCOD8056790
Probable space group: C C
;
_chemical_formula_sum "Si O2"
_cell_formula_units_Z 24
_cell_length_a 13.419724
_cell_length_b 4.717281
_cell_length_c 18.750827
_cell_angle_alpha 90.000000
_cell_angle_beta 135.163647
_cell_angle_gamma 90.000000
_cell_volume 836.944747
_symmetry_space_group_name_H-M "C C"
_symmetry_group_IT_number 9
_symmetry_cell_setting 'monoclinic'
loop_
_space_group_symop_operation_xyz
x,y,z
x,-y,1/2+z
1/2+x,1/2+y,z
1/2+x,1/2-y,1/2+z
loop_
_atom_site_type_symbol
_atom_site_label
_atom_site_fract_x
_atom_site_fract_y
_atom_site_fract_z
Si Si1 0.699050 0.684117 0.104050
Si Si2 0.682904 0.867903 0.350516
Si Si3 0.541689 0.978556 0.645985
Si Si4 0.931211 0.261635 0.884306
Si Si5 0.354691 0.492155 0.565415
Si Si6 0.405452 0.263706 0.773614
O O1 0.627588 0.878195 0.127152
O O2 0.816481 0.885715 0.124590
O O3 0.769592 0.392774 0.168349
O O4 0.575185 0.611158 0.984622
O O5 0.642457 0.079784 0.265531
O O6 0.819687 0.691563 0.392756
O O7 0.540698 0.681951 0.290586
O O8 0.723198 0.026316 0.444286
O O9 0.403349 0.166630 0.597624
O O10 0.484273 0.668829 0.595692
O O11 0.959729 0.569534 0.866656
O O12 0.863624 0.068643 0.786012
#
# Coordination Sequence:
#
# PCOD8056790 Si02
#       6
#     4   4   4   4   4   4
#     4  12  28  54  78 114 160 208 256 322 388 460
#     4  12  28  50  82 114 158 202 260 324 384 462
#     4  12  30  49  79 116 156 205 261 320 387 459
#     4  12  30  48  78 116 155 203 259 319 387 460
#     4  12  30  49  79 116 156 205 261 320 387 459
#     4  12  30  48  78 116 155 203 259 319 387 460
#
# _framework density 28.675732
#
# number of rings (size 3 to 8) (size 9 to 14) (size 15 to 20)
#    0.000    0.000    6.667    0.000    9.333    5.333 
#    0.000    0.000    0.000    0.000    0.000    0.000 
#    0.000    0.000    0.000    0.000    0.000    0.000 
#
# Total GULP energy -148810.988376 kJ/mol
# GULP energy per Si atom -12400.915698 kJ/mol
# Density = 2.861047 g / cm^3
# Si number density = 28.675732 Si / 1000 Ang^3
#
#
#
# Elastic Constant Matrix: (Units=GPa)
#
#
# Indices 1 2 3 4 5 6 
#
# 1 138.4076 -6.1250 0.3282 -0.0005 16.8693 0.0002
# 2 -6.1250 64.3949 -23.8495 -0.0015 3.5216 0.0013
# 3 0.3282 -23.8495 117.3824 -0.0006 1.3009 0.0007
# 4 -0.0005 -0.0015 -0.0006 29.5268 0.0000 6.3719
# 5 16.8693 3.5216 1.3009 0.0000 61.1922 -0.0001
# 6 0.0002 0.0013 0.0007 6.3719 -0.0001 28.7487
#
#
#
# Elastic Compliance Matrix: (Units=1/GPa)
#
#
# Indices 1 2 3 4 5 6 
#
# 1 0.007524 0.000901 0.000186 0.000000 -0.002130 0.000000
# 2 0.000901 0.016967 0.003459 0.000001 -0.001298 -0.000001
# 3 0.000186 0.003459 0.009226 0.000000 -0.000446 0.000000
# 4 0.000000 0.000001 0.000000 0.035569 0.000000 -0.007883
# 5 -0.002130 -0.001298 -0.000446 0.000000 0.017013 0.000000
# 6 0.000000 -0.000001 0.000000 -0.007883 0.000000 0.036531
#
#
# Mechanical properties :
#
#
# Convention : Reuss Voigt Hill
#
# Bulk Modulus (GPa) = 23.35960 28.98801 26.17381
# Shear Modulus (GPa) = 39.05963 47.21561 43.13762
#
# Velocity S-wave (km/s) = 3.69469 4.06215 3.88277
# Velocity P-wave (km/s) = 5.13466 5.66854 5.40819
#
# Compressibility (1/GPa) = 0.04280894
#
# Stress axis : x y z
#
# Youngs Moduli (GPa) = 132.90674 58.93782 108.38432
#
# Poissons Ratio (x) = -0.05310 -0.02012
# Poissons Ratio (y) = -0.11973 -0.37492
# Poissons Ratio (z) = -0.02467 -0.20388
#
# Static dielectric constant tensor:
#      x y z
#    x 5.532580 0.000000 0.015030 
#    y 0.000000 4.727510 0.000000 
#    z 0.015030 0.000000 5.642270 
# 
# 
# High freq. dielectric constant tensor:
#      x y z
#    x 2.188440 0.000000 0.001960 
#    y 0.000000 2.127950 0.000000 
#    z 0.001960 0.000000 2.194510 
# 
# From -- ./inp_files/33509.got.cif
#   From: 2010.06.25/outbox.cif.g09.slc.cpg/sg9_17_cif.got.tgz:33509.got - 2010.06.27 21:40:51.
