data_PCOD8056521
_publ_section_title
;
Structure prediction by ZEFSAII (Michael W. Deem and Ramdas Pophale) SiO2 
 PCOD8056521
Probable space group: C C
;
_chemical_formula_sum "Si O2"
_cell_formula_units_Z 24
_cell_length_a 11.808567
_cell_length_b 15.972149
_cell_length_c 8.423988
_cell_angle_alpha 90.000000
_cell_angle_beta 142.046040
_cell_angle_gamma 90.000000
_cell_volume 977.176983
_symmetry_space_group_name_H-M "C C"
_symmetry_group_IT_number 9
_symmetry_cell_setting 'monoclinic'
loop_
_space_group_symop_operation_xyz
x,y,z
x,-y,1/2+z
1/2+x,1/2+y,z
1/2+x,1/2-y,1/2+z
loop_
_atom_site_type_symbol
_atom_site_label
_atom_site_fract_x
_atom_site_fract_y
_atom_site_fract_z
Si Si1 0.373340 0.334439 0.498820
Si Si2 0.680376 0.589962 0.530227
Si Si3 0.215189 0.589385 0.535331
Si Si4 0.385117 0.165600 0.311499
Si Si5 0.578079 0.409987 0.280094
Si Si6 0.543242 0.089339 0.774891
O O1 0.566647 0.343041 0.800674
O O2 0.332469 0.411357 0.330617
O O3 0.379235 0.250006 0.405207
O O4 0.204390 0.340073 0.439852
O O5 0.629178 0.499972 0.405147
O O6 0.629267 0.598688 0.655208
O O7 0.897431 0.611214 0.752513
O O8 0.361030 0.611294 0.557778
O O9 0.129189 0.500037 0.405007
O O10 0.054078 0.659986 0.370486
O O11 0.425953 0.088653 0.479601
O O12 0.191812 0.157019 0.009628
#
# Coordination Sequence:
#
# PCOD8056521 Si02
#       6
#     4   4   4   4   4   4
#     4  11  27  48  81 114 158 211 264 334 407 472
#     4  12  26  46  78 116 162 209 272 330 399 487
#     4  11  25  45  79 113 155 212 269 318 399 488
#     4  11  27  48  81 114 158 211 264 334 407 472
#     4  12  26  46  78 116 162 209 272 330 399 487
#     4  11  25  45  79 113 155 212 269 318 399 488
#
# _framework density 24.560547
#
# number of rings (size 3 to 8) (size 9 to 14) (size 15 to 20)
#    0.000    0.667    3.333    3.000   14.000    1.333 
#    0.000    1.667    7.333    0.000    0.000    0.000 
#    0.000    0.000    0.000    0.000    0.000    0.000 
#
# Total GULP energy -148749.438315 kJ/mol
# GULP energy per Si atom -12395.786526 kJ/mol
# Density = 2.450465 g / cm^3
# Si number density = 24.560547 Si / 1000 Ang^3
#
#
#
# Elastic Constant Matrix: (Units=GPa)
#
#
# Indices 1 2 3 4 5 6 
#
# 1 226.0363 83.4364 76.5926 0.0000 42.6197 0.0000
# 2 83.4364 138.9301 77.9875 0.0000 0.9068 0.0000
# 3 76.5926 77.9875 135.7445 0.0000 9.7116 0.0000
# 4 0.0000 0.0000 0.0000 45.1143 0.0000 -10.6479
# 5 42.6197 0.9068 9.7116 0.0000 63.0054 0.0000
# 6 0.0000 0.0000 0.0000 -10.6479 0.0000 39.8330
#
#
#
# Elastic Compliance Matrix: (Units=1/GPa)
#
#
# Indices 1 2 3 4 5 6 
#
# 1 0.007058 -0.003178 -0.001839 0.000000 -0.004445 0.000000
# 2 -0.003178 0.012095 -0.005356 0.000000 0.002801 0.000000
# 3 -0.001839 -0.005356 0.011514 0.000000 -0.000454 0.000000
# 4 0.000000 0.000000 0.000000 0.023659 0.000000 0.006324
# 5 -0.004445 0.002801 -0.000454 0.000000 0.018908 0.000000
# 6 0.000000 0.000000 0.000000 0.006324 0.000000 0.026795
#
#
# Mechanical properties :
#
#
# Convention : Reuss Voigt Hill
#
# Bulk Modulus (GPa) = 100.78933 108.52710 104.65822
# Shear Modulus (GPa) = 40.29614 47.10351 43.69983
#
# Velocity S-wave (km/s) = 4.05493 4.38408 4.22271
# Velocity P-wave (km/s) = 7.94037 8.36124 8.15352
#
# Compressibility (1/GPa) = 0.00992168
#
# Stress axis : x y z
#
# Youngs Moduli (GPa) = 141.67567 82.68219 86.85165
#
# Poissons Ratio (x) = 0.26274 0.15971
# Poissons Ratio (y) = 0.45021 0.46517
# Poissons Ratio (z) = 0.26053 0.44284
#
# Static dielectric constant tensor:
#      x y z
#    x 5.156100 0.000000 0.488960 
#    y 0.000000 4.204430 0.000000 
#    z 0.488960 0.000000 4.985680 
# 
# 
# High freq. dielectric constant tensor:
#      x y z
#    x 1.998870 0.000000 0.024280 
#    y 0.000000 1.952470 0.000000 
#    z 0.024280 0.000000 1.976410 
# 
# From -- ./inp_files/7998.got.cif
#   From: 2010.06.25/outbox.cif.g09.slc.cpg/sg9_4_cif.got.tgz:7998.got - 2010.06.27 21:40:51.
