data_PCOD8056022
_publ_section_title
;
Structure prediction by ZEFSAII (Michael W. Deem and Ramdas Pophale) SiO2 
 PCOD8056022
Probable space group: C C
;
_chemical_formula_sum "Si O2"
_cell_formula_units_Z 20
_cell_length_a 18.831862
_cell_length_b 5.167476
_cell_length_c 9.443294
_cell_angle_alpha 90.000000
_cell_angle_beta 56.759971
_cell_angle_gamma 90.000000
_cell_volume 768.598782
_symmetry_space_group_name_H-M "C C"
_symmetry_group_IT_number 9
_symmetry_cell_setting 'monoclinic'
loop_
_space_group_symop_operation_xyz
x,y,z
x,-y,1/2+z
1/2+x,1/2+y,z
1/2+x,1/2-y,1/2+z
loop_
_atom_site_type_symbol
_atom_site_label
_atom_site_fract_x
_atom_site_fract_y
_atom_site_fract_z
Si Si1 0.017720 0.888479 0.617360
Si Si2 0.126449 0.403277 0.517489
Si Si3 0.275807 0.911486 0.794468
Si Si4 0.249564 0.693219 0.104187
Si Si5 0.408426 0.611419 0.502465
O O1 0.085504 0.666550 0.505493
O O2 0.059821 0.169010 0.585955
O O3 0.949273 0.904063 0.566115
O O4 0.976027 0.798865 0.811451
O O5 0.209159 0.328124 0.327290
O O6 0.161945 0.434235 0.640768
O O7 0.239736 0.178630 0.769852
O O8 0.370710 0.853260 0.633399
O O9 0.329908 0.507815 0.003513
O O10 0.273127 0.931938 0.967974
#
# Coordination Sequence:
#
# PCOD8056022 Si02
#       5
#     4   4   4   4   4
#     4  12  29  49  76 118 162 198 259 327 403 442
#     4  10  29  51  78 110 154 206 261 323 381 472
#     4  10  26  48  80 110 148 217 263 323 377 491
#     4  10  26  48  80 110 148 217 263 323 377 491
#     4  12  28  46  76 116 158 208 256 330 390 482
#
# _framework density 26.021381000000002
#
# number of rings (size 3 to 8) (size 9 to 14) (size 15 to 20)
#    1.200    0.000    2.000    0.000   16.800    0.000 
#    0.000    0.000    0.000    0.000    0.000    0.000 
#    0.000    0.000    0.000    0.000    0.000    0.000 
#
# Total GULP energy -123951.699229 kJ/mol
# GULP energy per Si atom -12395.169923 kJ/mol
# Density = 2.596216 g / cm^3
# Si number density = 26.021381 Si / 1000 Ang^3
#
#
#
# Elastic Constant Matrix: (Units=GPa)
#
#
# Indices 1 2 3 4 5 6 
#
# 1 121.2661 31.3417 -3.9640 0.0000 -8.3117 0.0000
# 2 31.3417 78.5607 -19.3506 0.0000 -9.2541 0.0000
# 3 -3.9640 -19.3506 85.1359 0.0000 -24.0765 0.0000
# 4 0.0000 0.0000 0.0000 28.7901 0.0000 -2.7849
# 5 -8.3117 -9.2541 -24.0765 0.0000 35.4323 0.0000
# 6 0.0000 0.0000 0.0000 -2.7849 0.0000 38.1026
#
#
#
# Elastic Compliance Matrix: (Units=1/GPa)
#
#
# Indices 1 2 3 4 5 6 
#
# 1 0.009247 -0.003554 -0.000032 0.000000 0.001219 0.000000
# 2 -0.003554 0.016384 0.005611 0.000000 0.007258 0.000000
# 3 -0.000032 0.005611 0.016627 0.000000 0.012756 0.000000
# 4 0.000000 0.000000 0.000000 0.034981 0.000000 0.002557
# 5 0.001219 0.007258 0.012756 0.000000 0.039072 0.000000
# 6 0.000000 0.000000 0.000000 0.002557 0.000000 0.026432
#
#
# Mechanical properties :
#
#
# Convention : Reuss Voigt Hill
#
# Bulk Modulus (GPa) = 21.59430 33.44632 27.52031
# Shear Modulus (GPa) = 32.44019 38.92738 35.68379
#
# Velocity S-wave (km/s) = 3.53466 3.87198 3.70716
# Velocity P-wave (km/s) = 4.99751 5.73332 5.37801
#
# Compressibility (1/GPa) = 0.04630852
#
# Stress axis : x y z
#
# Youngs Moduli (GPa) = 108.14019 61.03605 60.14234
#
# Poissons Ratio (x) = 0.21689 0.00195
# Poissons Ratio (y) = 0.38428 -0.33746
# Poissons Ratio (z) = 0.00350 -0.34248
#
# Static dielectric constant tensor:
#      x y z
#    x 4.837770 0.000000 -0.002060 
#    y 0.000000 4.164990 0.000000 
#    z -0.002060 0.000000 4.603320 
# 
# 
# High freq. dielectric constant tensor:
#      x y z
#    x 2.053820 0.000000 -0.002490 
#    y 0.000000 2.025930 0.000000 
#    z -0.002490 0.000000 2.045320 
# 
# From -- ./inp_files/11105.got.cif
#   From: 2010.06.25/outbox.cif.g09.slc.cpg/sg9_6_cif.got.tgz:11105.got - 2010.06.27 21:40:51.
