data_PCOD8056319
_publ_section_title
;
Structure prediction by ZEFSAII (Michael W. Deem and Ramdas Pophale) SiO2 
 PCOD8056319
Probable space group: C C
;
_chemical_formula_sum "Si O2"
_cell_formula_units_Z 32
_cell_length_a 28.624646
_cell_length_b 7.931579
_cell_length_c 17.949036
_cell_angle_alpha 90.000000
_cell_angle_beta 19.184655
_cell_angle_gamma 90.000000
_cell_volume 1339.141866
_symmetry_space_group_name_H-M "C C"
_symmetry_group_IT_number 9
_symmetry_cell_setting 'monoclinic'
loop_
_space_group_symop_operation_xyz
x,y,z
x,-y,1/2+z
1/2+x,1/2+y,z
1/2+x,1/2-y,1/2+z
loop_
_atom_site_type_symbol
_atom_site_label
_atom_site_fract_x
_atom_site_fract_y
_atom_site_fract_z
Si Si1 0.035640 0.368791 0.469600
Si Si2 0.461606 0.487413 0.563216
Si Si3 0.470336 0.368549 0.380705
Si Si4 0.173588 0.625978 0.008024
Si Si5 0.997045 0.569582 0.671342
Si Si6 0.691002 0.686376 0.811266
Si Si7 0.817074 0.627106 0.180654
Si Si8 0.353775 0.326669 0.981631
O O1 0.200249 0.418855 0.212982
O O2 0.034875 0.166146 0.470726
O O3 0.958889 0.447672 0.658961
O O4 0.951666 0.441428 0.525024
O O5 0.454202 0.447365 0.486823
O O6 0.562703 0.342484 0.445222
O O7 0.301836 0.499911 0.841528
O O8 0.620389 0.266034 0.148000
O O9 0.344731 0.237363 0.547387
O O10 0.466737 0.522718 0.326255
O O11 0.030694 0.534363 0.195469
O O12 0.243092 0.717469 0.832418
O O13 0.146735 0.657600 0.428567
O O14 0.882250 0.718554 0.862605
O O15 0.704194 0.521782 0.842429
O O16 0.870240 0.688198 0.020951
#
# Coordination Sequence:
#
# PCOD8056319 Si02
#       8
#     4   4   4   4   4   4   4   4
#     4  11  23  46  75 103 154 194 245 314 373 442
#     4  11  24  48  74 108 154 199 251 314 376 447
#     4  12  25  47  77 110 152 200 252 312 376 447
#     4  11  23  48  74 106 150 192 251 310 371 444
#     4  12  25  45  74 107 147 195 245 307 376 440
#     4  12  24  46  73 106 153 194 246 312 378 437
#     4  11  23  46  74 103 153 193 239 317 368 439
#     4  12  23  48  73 111 149 195 249 304 374 452
#
# _framework density 23.895900000000001
#
# number of rings (size 3 to 8) (size 9 to 14) (size 15 to 20)
#    0.000    0.500    7.500    1.500    1.750    2.000 
#   11.250    0.000    0.000    0.000    0.000    0.000 
#    0.000    0.000    0.000    0.000    0.000    0.000 
#
# Total GULP energy -198263.682992 kJ/mol
# GULP energy per Si atom -12391.480187 kJ/mol
# Density = 2.384151 g / cm^3
# Si number density = 23.895900 Si / 1000 Ang^3
#
#
#
# Elastic Constant Matrix: (Units=GPa)
#
#
# Indices 1 2 3 4 5 6 
#
# 1 98.7316 40.1280 41.1268 0.0000 -16.9359 0.0000
# 2 40.1280 88.1386 34.9543 0.0001 0.2258 -0.0002
# 3 41.1268 34.9543 109.4613 0.0002 3.7986 -0.0001
# 4 0.0000 0.0001 0.0002 56.9683 -0.0001 -3.3167
# 5 -16.9359 0.2258 3.7986 -0.0001 28.2822 0.0000
# 6 0.0000 -0.0002 -0.0001 -3.3167 0.0000 35.6155
#
#
#
# Elastic Compliance Matrix: (Units=1/GPa)
#
#
# Indices 1 2 3 4 5 6 
#
# 1 0.016058 -0.005499 -0.004634 0.000000 0.010282 0.000000
# 2 -0.005499 0.014880 -0.002579 0.000000 -0.003066 0.000000
# 3 -0.004634 -0.002579 0.011851 0.000000 -0.004346 0.000000
# 4 0.000000 0.000000 0.000000 0.017649 0.000000 0.001644
# 5 0.010282 -0.003066 -0.004346 0.000000 0.042123 0.000000
# 6 0.000000 0.000000 0.000000 0.001644 0.000000 0.028231
#
#
# Mechanical properties :
#
#
# Convention : Reuss Voigt Hill
#
# Bulk Modulus (GPa) = 57.58964 58.74996 58.16980
# Shear Modulus (GPa) = 30.86333 36.18136 33.52235
#
# Velocity S-wave (km/s) = 3.59775 3.89540 3.74953
# Velocity P-wave (km/s) = 6.43513 6.69861 6.56819
#
# Compressibility (1/GPa) = 0.01736423
#
# Stress axis : x y z
#
# Youngs Moduli (GPa) = 62.27607 67.20329 84.38055
#
# Poissons Ratio (x) = 0.36958 0.39101
# Poissons Ratio (y) = 0.34248 0.21763
# Poissons Ratio (z) = 0.28858 0.17332
#
# Static dielectric constant tensor:
#      x y z
#    x 4.255730 0.000000 -0.216340 
#    y 0.000000 4.402290 0.000000 
#    z -0.216340 0.000000 4.216940 
# 
# 
# High freq. dielectric constant tensor:
#      x y z
#    x 1.930800 0.000000 -0.009360 
#    y 0.000000 1.963700 0.000000 
#    z -0.009360 0.000000 1.939190 
# 
# From -- ./inp_files/31840.got.cif
#   From: 2010.06.25/outbox.cif.g09.slc.cpg/sg9_16_cif.got.tgz:31840.got - 2010.06.27 21:40:51.
