data_PCOD8056957
_publ_section_title
;
Structure prediction by ZEFSAII (Michael W. Deem and Ramdas Pophale) SiO2 
 PCOD8056957
Probable space group: P 2/M
;
_chemical_formula_sum "Si O2"
_cell_formula_units_Z 28
_cell_length_a 24.720796
_cell_length_b 8.730801
_cell_length_c 19.007468
_cell_angle_alpha 90.000000
_cell_angle_beta 156.917890
_cell_angle_gamma 90.000000
_cell_volume 1608.355868
_symmetry_space_group_name_H-M "P 2/M"
_symmetry_group_IT_number 10
_symmetry_cell_setting 'monoclinic'
loop_
_space_group_symop_operation_xyz
x,y,z
-x,y,-z
-x,-y,-z
x,-y,z
loop_
_atom_site_type_symbol
_atom_site_label
_atom_site_fract_x
_atom_site_fract_y
_atom_site_fract_z
Si Si1 0.654637 0.828895 0.655589
Si Si2 0.868659 0.819807 0.167307
Si Si3 0.607882 0.180693 0.069204
Si Si4 0.761471 0.322223 0.910394
Si Si5 0.510001 0.819170 0.350205
Si Si6 0.594425 0.318826 0.904246
Si Si7 0.086589 0.180719 0.538722
O O1 0.500000 0.815769 0.500000
O O2 0.760976 0.723554 0.826927
O O3 0.645080 0.784830 0.560725
O O4 0.711213 0.000000 0.732277
O O5 0.012470 0.774402 0.376791
O O6 0.841218 0.000000 0.137866
O O7 0.876942 0.764154 0.095846
O O8 0.745189 0.738866 0.061761
O O9 0.757330 0.242931 0.273176
O O10 0.609788 0.000000 0.056233
O O11 0.500000 0.224958 0.000000
O O12 0.561498 0.267811 0.943668
O O13 0.789917 0.500000 0.950948
O O14 0.615676 0.276672 0.768360
O O15 0.524691 0.758660 0.287955
O O16 0.475718 0.000000 0.311547
O O17 0.586193 0.500000 0.887158
O O18 0.000000 0.252187 0.500000
O O19 0.091045 0.000000 0.552959
#
# Coordination Sequence:
#
# PCOD8056957 Si02
#       7
#     4   4   4   4   4   4   4
#     4   8  14  24  36  52  77 113 152 184 221 269
#     4  10  17  28  46  63  87 119 155 192 228 270
#     4  10  20  35  53  70  90 120 156 193 234 278
#     4  10  17  23  34  56  87 116 147 185 228 273
#     4   9  16  26  40  56  79 114 155 190 222 268
#     4  11  20  29  43  65  93 119 151 190 233 276
#     4   9  16  29  50  72  90 113 154 198 231 269
#
# _framework density 17.409082000000001
#
# number of rings (size 3 to 8) (size 9 to 14) (size 15 to 20)
#    0.000    2.429    1.429    6.000    0.000    3.429 
#    0.000    2.143    0.000    0.000    0.000    0.000 
#    0.000    1.143    0.000   13.143    0.000    5.714 
#
# Total GULP energy -346941.561270 kJ/mol
# GULP energy per Si atom -12390.770045 kJ/mol
# Density = 1.736946 g / cm^3
# Si number density = 17.409082 Si / 1000 Ang^3
#
#
#
# Elastic Constant Matrix: (Units=GPa)
#
#
# Indices 1 2 3 4 5 6 
#
# 1 89.8837 36.5792 71.9797 0.0000 -34.2859 0.0000
# 2 36.5792 70.1305 30.5152 0.0000 -16.8564 0.0000
# 3 71.9797 30.5152 98.3968 0.0000 -34.9719 0.0000
# 4 0.0000 0.0000 0.0000 3.3623 0.0000 -5.4569
# 5 -34.2859 -16.8564 -34.9719 0.0000 39.8846 0.0000
# 6 0.0000 0.0000 0.0000 -5.4569 0.0000 17.3012
#
#
#
# Elastic Compliance Matrix: (Units=1/GPa)
#
#
# Indices 1 2 3 4 5 6 
#
# 1 0.031348 -0.006524 -0.017885 0.000000 0.008509 0.000000
# 2 -0.006524 0.018207 -0.000192 0.000000 0.001918 0.000000
# 3 -0.017885 -0.000192 0.025877 0.000000 0.007234 0.000000
# 4 0.000000 0.000000 0.000000 0.609325 0.000000 0.192183
# 5 0.008509 0.001918 0.007234 0.000000 0.039540 0.000000
# 6 0.000000 0.000000 0.000000 0.192183 0.000000 0.118414
#
#
# Mechanical properties :
#
#
# Convention : Reuss Voigt Hill
#
# Bulk Modulus (GPa) = 38.12404 59.61768 48.87086
# Shear Modulus (GPa) = 5.55151 20.06543 12.80847
#
# Velocity S-wave (km/s) = 1.78767 3.39866 2.71539
# Velocity P-wave (km/s) = 5.11933 7.05129 6.16150
#
# Compressibility (1/GPa) = 0.02623017
#
# Stress axis : x y z
#
# Youngs Moduli (GPa) = 31.89967 54.92541 38.64474
#
# Poissons Ratio (x) = 0.35832 0.69115
# Poissons Ratio (y) = 0.20810 0.00743
# Poissons Ratio (z) = 0.57051 0.01056
#
# Static dielectric constant tensor:
#      x y z
#    x 3.362330 0.000000 -0.790950 
#    y 0.000000 3.112750 0.000000 
#    z -0.790950 0.000000 3.486460 
# 
# 
# High freq. dielectric constant tensor:
#      x y z
#    x 1.640570 0.000000 -0.063110 
#    y 0.000000 1.664760 0.000000 
#    z -0.063110 0.000000 1.649830 
# 
# From -- ./inp_files/86688.got.cif
#   From: 2010.06.25/outbox.cif.g09.slc.cpg/sg10_44_cif.got.tgz:86688.got - 2010.06.27 22:07:45.
