data_PCOD8056741
_publ_section_title
;
Structure prediction by ZEFSAII (Michael W. Deem and Ramdas Pophale) SiO2 
 PCOD8056741
Probable space group: C C
;
_chemical_formula_sum "Si O2"
_cell_formula_units_Z 32
_cell_length_a 6.852971
_cell_length_b 11.495323
_cell_length_c 18.721132
_cell_angle_alpha 90.000000
_cell_angle_beta 114.427147
_cell_angle_gamma 90.000000
_cell_volume 1342.784509
_symmetry_space_group_name_H-M "C C"
_symmetry_group_IT_number 9
_symmetry_cell_setting 'monoclinic'
loop_
_space_group_symop_operation_xyz
x,y,z
x,-y,1/2+z
1/2+x,1/2+y,z
1/2+x,1/2-y,1/2+z
loop_
_atom_site_type_symbol
_atom_site_label
_atom_site_fract_x
_atom_site_fract_y
_atom_site_fract_z
Si Si1 0.836740 0.669806 0.322330
Si Si2 0.256313 0.528013 0.139313
Si Si3 0.018220 0.801593 0.594213
Si Si4 0.276594 0.053145 0.025749
Si Si5 0.687070 0.443197 0.229859
Si Si6 0.690452 0.321607 0.951167
Si Si7 0.744554 0.701043 0.880142
Si Si8 0.105901 0.373342 0.221088
O O1 0.752277 0.579787 0.250179
O O2 0.773107 0.622026 0.390014
O O3 0.737882 0.800334 0.298779
O O4 0.091916 0.685380 0.355778
O O5 0.365872 0.649780 0.135503
O O6 0.455775 0.436643 0.154780
O O7 0.203908 0.502240 0.216391
O O8 0.030976 0.520935 0.063165
O O9 0.868756 0.767515 0.505799
O O10 0.197091 0.890249 0.588789
O O11 0.128185 0.689791 0.646642
O O12 0.221933 0.138069 0.952629
O O13 0.151933 0.930406 0.998485
O O14 0.679488 0.383616 0.305959
O O15 0.859709 0.381341 0.206197
O O16 0.481165 0.247363 0.905172
#
# Coordination Sequence:
#
# PCOD8056741 Si02
#       8
#     4   4   4   4   4   4   4   4
#     4  12  26  46  72 106 143 190 242 298 362 436
#     4  12  26  46  74 106 144 192 236 298 362 434
#     4  12  27  47  73 109 149 186 240 300 363 437
#     4  12  27  47  74 109 145 190 247 300 360 441
#     4  12  27  47  74 109 145 190 247 300 360 441
#     4  12  26  46  72 106 143 190 242 298 362 436
#     4  12  26  46  74 104 144 190 242 304 362 420
#     4  12  27  47  73 109 149 186 240 300 363 437
#
# _framework density 23.831074999999998
#
# number of rings (size 3 to 8) (size 9 to 14) (size 15 to 20)
#    0.000    0.000    8.750    0.750    0.000    7.000 
#    0.000    0.000    0.000    0.000    0.000    0.000 
#    0.000    0.000    0.000    0.000    0.000    0.000 
#
# Total GULP energy -198252.753536 kJ/mol
# GULP energy per Si atom -12390.797096 kJ/mol
# Density = 2.377683 g / cm^3
# Si number density = 23.831075 Si / 1000 Ang^3
#
#
#
# Elastic Constant Matrix: (Units=GPa)
#
#
# Indices 1 2 3 4 5 6 
#
# 1 113.1910 35.0408 37.4882 0.0000 0.8385 0.0000
# 2 35.0408 83.1096 30.7302 0.0000 -4.2500 0.0000
# 3 37.4882 30.7302 84.2066 0.0000 5.7911 0.0000
# 4 0.0000 0.0000 0.0000 48.1779 0.0000 -6.9897
# 5 0.8385 -4.2500 5.7911 0.0000 45.6981 0.0000
# 6 0.0000 0.0000 0.0000 -6.9897 0.0000 38.2253
#
#
#
# Elastic Compliance Matrix: (Units=1/GPa)
#
#
# Indices 1 2 3 4 5 6 
#
# 1 0.011092 -0.003299 -0.003732 0.000000 -0.000037 0.000000
# 2 -0.003299 0.015065 -0.004166 0.000000 0.001990 0.000000
# 3 -0.003732 -0.004166 0.015212 0.000000 -0.002247 0.000000
# 4 0.000000 0.000000 0.000000 0.021322 0.000000 0.003899
# 5 -0.000037 0.001990 -0.002247 0.000000 0.022353 0.000000
# 6 0.000000 0.000000 0.000000 0.003899 0.000000 0.026874
#
#
# Mechanical properties :
#
#
# Convention : Reuss Voigt Hill
#
# Bulk Modulus (GPa) = 52.69830 54.11397 53.40613
# Shear Modulus (GPa) = 35.55266 38.23679 36.89473
#
# Velocity S-wave (km/s) = 3.86665 4.00996 3.93896
# Velocity P-wave (km/s) = 6.48814 6.64803 6.56857
#
# Compressibility (1/GPa) = 0.01897595
#
# Stress axis : x y z
#
# Youngs Moduli (GPa) = 90.15502 66.37757 65.73862
#
# Poissons Ratio (x) = 0.21896 0.24531
# Poissons Ratio (y) = 0.29740 0.27388
# Poissons Ratio (z) = 0.33643 0.27654
#
# Static dielectric constant tensor:
#      x y z
#    x 4.308370 0.000000 0.086450 
#    y 0.000000 4.224050 0.000000 
#    z 0.086450 0.000000 4.268160 
# 
# 
# High freq. dielectric constant tensor:
#      x y z
#    x 1.953990 0.000000 0.008500 
#    y 0.000000 1.941220 0.000000 
#    z 0.008500 0.000000 1.945130 
# 
# From -- ./inp_files/32009.got.cif
#   From: 2010.06.25/outbox.cif.g09.slc.cpg/sg9_17_cif.got.tgz:32009.got - 2010.06.27 21:40:51.
