data_PCOD8056961
_publ_section_title
;
Structure prediction by ZEFSAII (Michael W. Deem and Ramdas Pophale) SiO2 
 PCOD8056961
Probable space group: P 2/M
;
_chemical_formula_sum "Si O2"
_cell_formula_units_Z 32
_cell_length_a 12.442527
_cell_length_b 9.108912
_cell_length_c 20.889777
_cell_angle_alpha 90.000000
_cell_angle_beta 58.753870
_cell_angle_gamma 90.000000
_cell_volume 2024.174962
_symmetry_space_group_name_H-M "P 2/M"
_symmetry_group_IT_number 10
_symmetry_cell_setting 'monoclinic'
loop_
_space_group_symop_operation_xyz
x,y,z
-x,y,-z
-x,-y,-z
x,-y,z
loop_
_atom_site_type_symbol
_atom_site_label
_atom_site_fract_x
_atom_site_fract_y
_atom_site_fract_z
Si Si1 0.127051 0.162929 0.002164
Si Si2 0.058767 0.838514 0.411992
Si Si3 0.834193 0.673109 0.432414
Si Si4 0.784670 0.166606 0.320911
Si Si5 0.430107 0.170672 0.715415
Si Si6 0.733140 0.672146 0.139699
Si Si7 0.295271 0.826729 0.410126
Si Si8 0.937313 0.168820 0.157271
O O1 0.234982 0.271454 0.942330
O O2 0.184437 0.000000 0.981145
O O3 0.000000 0.174552 0.000000
O O4 0.081533 0.199594 0.089600
O O5 0.203299 0.788169 0.378419
O O6 0.000000 0.847362 0.500000
O O7 0.979454 0.725746 0.393466
O O8 0.052661 0.000000 0.381360
O O9 0.829889 0.500000 0.440098
O O10 0.781009 0.720886 0.380275
O O11 0.745690 0.742218 0.513578
O O12 0.667232 0.203397 0.311543
O O13 0.914974 0.187837 0.240246
O O14 0.775091 0.000000 0.349905
O O15 0.392762 0.256143 0.791925
O O16 0.566207 0.226823 0.651201
O O17 0.433028 0.000000 0.731737
O O18 0.714837 0.500000 0.142869
O O19 0.848071 0.716576 0.149323
O O20 0.289690 0.000000 0.426933
O O21 0.899555 0.000000 0.149724
#
# Coordination Sequence:
#
# PCOD8056961 Si02
#       8
#     4   4   4   4   4   4   4   4
#     4   8  13  23  38  54  74 103 141 177 206 241
#     4   8  15  30  50  67  81 100 133 177 218 253
#     4  11  21  30  43  64  89 114 139 171 213 256
#     4   9  17  30  45  60  83 115 148 177 206 245
#     4   9  18  32  47  61  81 113 148 178 210 248
#     4  10  17  23  35  57  84 111 137 168 208 250
#     4   9  18  33  51  66  80 105 143 182 216 250
#     4   8  15  27  41  55  74 107 146 179 209 241
#
# _framework density 15.808911
#
# number of rings (size 3 to 8) (size 9 to 14) (size 15 to 20)
#    0.000    3.000    0.000    4.500    0.000    7.500 
#    0.000    2.500    0.000    0.000    0.000    0.000 
#    0.000    1.000    0.000   11.500    0.000    6.625 
#
# Total GULP energy -396486.180675 kJ/mol
# GULP energy per Si atom -12390.193146 kJ/mol
# Density = 1.577293 g / cm^3
# Si number density = 15.808911 Si / 1000 Ang^3
#
#
#
# Elastic Constant Matrix: (Units=GPa)
#
#
# Indices 1 2 3 4 5 6 
#
# 1 52.8023 29.1265 45.1490 0.0000 -14.2962 0.0000
# 2 29.1265 85.2098 54.0376 0.0000 -13.3412 0.0000
# 3 45.1490 54.0376 110.6023 0.0000 -25.1914 0.0000
# 4 0.0000 0.0000 0.0000 13.7615 0.0000 -1.2850
# 5 -14.2962 -13.3412 -25.1914 0.0000 7.2085 0.0000
# 6 0.0000 0.0000 0.0000 -1.2850 0.0000 10.7934
#
#
#
# Elastic Compliance Matrix: (Units=1/GPa)
#
#
# Indices 1 2 3 4 5 6 
#
# 1 0.043267 -0.003165 0.010266 0.000000 0.115827 0.000000
# 2 -0.003165 0.017448 -0.006408 0.000000 0.003624 0.000000
# 3 0.010266 -0.006408 0.048609 0.000000 0.178373 0.000000
# 4 0.000000 0.000000 0.000000 0.073484 0.000000 0.008749
# 5 0.115827 0.003624 0.178373 0.000000 0.998508 0.000000
# 6 0.000000 0.000000 0.000000 0.008749 0.000000 0.093691
#
#
# Mechanical properties :
#
#
# Convention : Reuss Voigt Hill
#
# Bulk Modulus (GPa) = 9.03257 56.13782 32.58519
# Shear Modulus (GPa) = 3.81527 14.37276 9.09402
#
# Velocity S-wave (km/s) = 1.55519 3.01849 2.40103
# Velocity P-wave (km/s) = 2.99179 6.90910 5.32384
#
# Compressibility (1/GPa) = 0.11071048
#
# Stress axis : x y z
#
# Youngs Moduli (GPa) = 23.11250 57.31184 20.57248
#
# Poissons Ratio (x) = 0.18138 -0.21119
# Poissons Ratio (y) = 0.07315 0.13182
# Poissons Ratio (z) = -0.23727 0.36723
#
# Static dielectric constant tensor:
#      x y z
#    x 2.846410 0.000000 -0.236260 
#    y 0.000000 2.884780 0.000000 
#    z -0.236260 0.000000 3.356350 
# 
# 
# High freq. dielectric constant tensor:
#      x y z
#    x 1.552410 0.000000 -0.014550 
#    y 0.000000 1.600210 0.000000 
#    z -0.014550 0.000000 1.609740 
# 
# From -- ./inp_files/83361.got.cif
#   From: 2010.06.25/outbox.cif.g09.slc.cpg/sg10_42_cif.got.tgz:83361.got - 2010.06.27 22:07:45.
