data_PCOD8056465
_publ_section_title
;
Structure prediction by ZEFSAII (Michael W. Deem and Ramdas Pophale) SiO2 
 PCOD8056465
Probable space group: C C
;
_chemical_formula_sum "Si O2"
_cell_formula_units_Z 32
_cell_length_a 9.704468
_cell_length_b 9.529402
_cell_length_c 27.409329
_cell_angle_alpha 90.000000
_cell_angle_beta 144.826916
_cell_angle_gamma 90.000000
_cell_volume 1460.140825
_symmetry_space_group_name_H-M "C C"
_symmetry_group_IT_number 9
_symmetry_cell_setting 'monoclinic'
loop_
_space_group_symop_operation_xyz
x,y,z
x,-y,1/2+z
1/2+x,1/2+y,z
1/2+x,1/2-y,1/2+z
loop_
_atom_site_type_symbol
_atom_site_label
_atom_site_fract_x
_atom_site_fract_y
_atom_site_fract_z
Si Si1 0.666320 0.214303 0.010350
Si Si2 0.821000 0.568631 0.288409
Si Si3 0.036894 0.118295 0.300562
Si Si4 0.450014 0.452043 0.111276
Si Si5 0.737845 0.149391 0.925134
Si Si6 0.625122 0.697216 0.831094
Si Si7 0.032534 0.700260 0.194685
Si Si8 0.154939 0.972088 0.068965
O O1 0.768142 0.342844 0.071903
O O2 0.782393 0.222366 0.990363
O O3 0.385056 0.232850 0.925865
O O4 0.741109 0.067279 0.056925
O O5 0.614543 0.610830 0.266794
O O6 0.700299 0.506778 0.205375
O O7 0.005066 0.451979 0.362435
O O8 0.948498 0.711163 0.311657
O O9 0.211465 0.228396 0.377840
O O10 0.765502 0.167252 0.229551
O O11 0.064272 0.961249 0.328520
O O12 0.373632 0.313177 0.118772
O O13 0.495168 0.415802 0.067717
O O14 0.977135 0.060690 0.981954
O O15 0.606020 0.733524 0.767976
O O16 0.873972 0.561882 0.154108
#
# Coordination Sequence:
#
# PCOD8056465 Si02
#       8
#     4   4   4   4   4   4   4   4
#     4  11  24  47  67 100 142 181 229 293 346 415
#     4  12  24  46  73  99 138 188 226 290 352 413
#     4  12  25  42  74 102 136 184 236 288 345 419
#     4  11  25  44  68 100 144 180 227 289 354 409
#     4  11  24  47  68  98 143 182 228 291 357 408
#     4  12  25  46  72 100 136 187 237 283 346 424
#     4  12  26  47  70 103 141 185 236 286 348 422
#     4  11  27  43  70 100 142 187 227 292 352 416
#
# _framework density 21.915693999999998
#
# number of rings (size 3 to 8) (size 9 to 14) (size 15 to 20)
#    0.000    0.500    7.500    0.000    5.250    2.000 
#    2.250    0.000    0.000    0.000    0.000    0.000 
#    0.000    0.000    0.000    0.000    0.000    0.000 
#
# Total GULP energy -198426.087997 kJ/mol
# GULP energy per Si atom -12401.630500 kJ/mol
# Density = 2.186581 g / cm^3
# Si number density = 21.915694 Si / 1000 Ang^3
#
#
#
# Elastic Constant Matrix: (Units=GPa)
#
#
# Indices 1 2 3 4 5 6 
#
# 1 83.3248 50.0532 15.4263 0.0000 -3.7027 0.0000
# 2 50.0532 117.4231 15.7252 0.0000 -18.2310 0.0000
# 3 15.4263 15.7252 69.1195 0.0000 -12.2163 0.0000
# 4 0.0000 0.0000 0.0000 34.8863 0.0000 -0.6993
# 5 -3.7027 -18.2310 -12.2163 0.0000 26.3393 0.0000
# 6 0.0000 0.0000 0.0000 -0.6993 0.0000 37.8699
#
#
#
# Elastic Compliance Matrix: (Units=1/GPa)
#
#
# Indices 1 2 3 4 5 6 
#
# 1 0.016789 -0.007415 -0.002778 0.000000 -0.004061 0.000000
# 2 -0.007415 0.012893 0.000125 0.000000 0.007940 0.000000
# 3 -0.002778 0.000125 0.016345 0.000000 0.007277 0.000000
# 4 0.000000 0.000000 0.000000 0.028675 0.000000 0.000529
# 5 -0.004061 0.007940 0.007277 0.000000 0.046266 0.000000
# 6 0.000000 0.000000 0.000000 0.000529 0.000000 0.026416
#
#
# Mechanical properties :
#
#
# Convention : Reuss Voigt Hill
#
# Bulk Modulus (GPa) = 38.62240 48.03076 43.32658
# Shear Modulus (GPa) = 28.38472 32.39661 30.39066
#
# Velocity S-wave (km/s) = 3.60276 3.84896 3.72789
# Velocity P-wave (km/s) = 5.91337 6.45882 6.19210
#
# Compressibility (1/GPa) = 0.02589171
#
# Stress axis : x y z
#
# Youngs Moduli (GPa) = 59.56161 77.56162 61.17937
#
# Poissons Ratio (x) = 0.57513 0.16994
# Poissons Ratio (y) = 0.44166 -0.00764
# Poissons Ratio (z) = 0.16545 -0.00969
#
# Static dielectric constant tensor:
#      x y z
#    x 3.744300 0.000000 -0.066670 
#    y 0.000000 4.199470 0.000000 
#    z -0.066670 0.000000 4.008370 
# 
# 
# High freq. dielectric constant tensor:
#      x y z
#    x 1.850660 0.000000 -0.001530 
#    y 0.000000 1.875210 0.000000 
#    z -0.001530 0.000000 1.865750 
# 
# From -- ./inp_files/36342.got.cif
#   From: 2010.06.25/outbox.cif.g09.slc.cpg/sg9_19_cif.got.tgz:36342.got - 2010.06.27 21:40:51.
