data_PCOD8056028
_publ_section_title
;
Structure prediction by ZEFSAII (Michael W. Deem and Ramdas Pophale) SiO2 
 PCOD8056028
Probable space group: C C
;
_chemical_formula_sum "Si O2"
_cell_formula_units_Z 32
_cell_length_a 9.107686
_cell_length_b 13.553467
_cell_length_c 10.800933
_cell_angle_alpha 90.000000
_cell_angle_beta 94.647507
_cell_angle_gamma 90.000000
_cell_volume 1328.891207
_symmetry_space_group_name_H-M "C C"
_symmetry_group_IT_number 9
_symmetry_cell_setting 'monoclinic'
loop_
_space_group_symop_operation_xyz
x,y,z
x,-y,1/2+z
1/2+x,1/2+y,z
1/2+x,1/2-y,1/2+z
loop_
_atom_site_type_symbol
_atom_site_label
_atom_site_fract_x
_atom_site_fract_y
_atom_site_fract_z
Si Si1 0.181120 0.548354 0.663630
Si Si2 0.081000 0.688717 0.476288
Si Si3 0.833662 0.658342 0.987560
Si Si4 0.645896 0.485825 0.016274
Si Si5 0.262684 0.224731 0.548456
Si Si6 0.987808 0.945315 0.750390
Si Si7 0.065421 0.653991 0.195531
Si Si8 0.060811 0.276497 0.315940
O O1 0.175751 0.589555 0.521086
O O2 0.330064 0.498960 0.724185
O O3 0.060730 0.463123 0.669883
O O4 0.130871 0.651508 0.720248
O O5 0.180690 0.784824 0.482538
O O6 0.025739 0.672522 0.333856
O O7 0.938646 0.711119 0.553089
O O8 0.797618 0.542967 0.999123
O O9 0.918925 0.670867 0.865106
O O10 0.933916 0.700797 0.105801
O O11 0.682846 0.377998 0.066449
O O12 0.552846 0.489860 0.882115
O O13 0.568112 0.534628 0.127684
O O14 0.220539 0.297402 0.660446
O O15 0.197716 0.268107 0.418184
O O16 0.997377 0.826977 0.761404
#
# Coordination Sequence:
#
# PCOD8056028 Si02
#       8
#     4   4   4   4   4   4   4   4
#     4  12  29  46  83 111 162 206 269 321 410 480
#     4  12  29  46  82 113 155 211 263 325 409 476
#     4  11  27  48  78 112 156 203 264 328 403 478
#     4  11  27  47  81 114 162 211 264 327 411 480
#     4  10  27  50  76 112 157 206 265 332 394 485
#     4  11  28  50  79 121 160 209 270 334 402 487
#     4  11  29  50  76 111 160 204 264 329 397 487
#     4  10  26  53  77 116 158 204 271 330 398 489
#
# _framework density 24.080224000000001
#
# number of rings (size 3 to 8) (size 9 to 14) (size 15 to 20)
#    0.000    1.000    0.000    2.250   26.250    0.000 
#    0.000    0.000    0.000    0.000    0.000    0.000 
#    0.000    0.000    0.000    0.000    0.000    0.000 
#
# Total GULP energy -198304.373872 kJ/mol
# GULP energy per Si atom -12394.023367 kJ/mol
# Density = 2.402542 g / cm^3
# Si number density = 24.080224 Si / 1000 Ang^3
#
#
#
# Elastic Constant Matrix: (Units=GPa)
#
#
# Indices 1 2 3 4 5 6 
#
# 1 103.1311 33.8937 21.0272 0.0000 -0.3205 0.0000
# 2 33.8937 116.2137 37.2465 0.0000 -6.5640 0.0000
# 3 21.0272 37.2465 103.8946 0.0000 -11.6103 0.0000
# 4 0.0000 0.0000 0.0000 38.9553 0.0000 -2.1130
# 5 -0.3205 -6.5640 -11.6103 0.0000 33.4946 0.0000
# 6 0.0000 0.0000 0.0000 -2.1130 0.0000 40.3526
#
#
#
# Elastic Compliance Matrix: (Units=1/GPa)
#
#
# Indices 1 2 3 4 5 6 
#
# 1 0.010881 -0.002809 -0.001295 0.000000 -0.000895 0.000000
# 2 -0.002809 0.010464 -0.003076 0.000000 0.000958 0.000000
# 3 -0.001295 -0.003076 0.011361 0.000000 0.003323 0.000000
# 4 0.000000 0.000000 0.000000 0.025744 0.000000 0.001348
# 5 -0.000895 0.000958 0.003323 0.000000 0.031186 0.000000
# 6 0.000000 0.000000 0.000000 0.001348 0.000000 0.024852
#
#
# Mechanical properties :
#
#
# Convention : Reuss Voigt Hill
#
# Bulk Modulus (GPa) = 54.50716 56.39714 55.45215
# Shear Modulus (GPa) = 37.04704 37.96531 37.50617
#
# Velocity S-wave (km/s) = 3.92661 3.97497 3.95086
# Velocity P-wave (km/s) = 6.57590 6.67372 6.62499
#
# Compressibility (1/GPa) = 0.01834621
#
# Stress axis : x y z
#
# Youngs Moduli (GPa) = 91.90491 95.56639 88.01778
#
# Poissons Ratio (x) = 0.26843 0.11400
# Poissons Ratio (y) = 0.25815 0.27073
# Poissons Ratio (z) = 0.11904 0.29395
#
# Static dielectric constant tensor:
#      x y z
#    x 4.539430 0.000000 0.136010 
#    y 0.000000 4.482710 0.000000 
#    z 0.136010 0.000000 4.483160 
# 
# 
# High freq. dielectric constant tensor:
#      x y z
#    x 1.958670 0.000000 0.012440 
#    y 0.000000 1.968140 0.000000 
#    z 0.012440 0.000000 1.972830 
# 
# From -- ./inp_files/14635.got.cif
#   From: 2010.06.25/outbox.cif.g09.slc.cpg/sg9_8_cif.got.tgz:14635.got - 2010.06.27 21:40:51.
