data_PCOD8056599
_publ_section_title
;
Structure prediction by ZEFSAII (Michael W. Deem and Ramdas Pophale) SiO2 
 PCOD8056599
Probable space group: C C
;
_chemical_formula_sum "Si O2"
_cell_formula_units_Z 32
_cell_length_a 4.969437
_cell_length_b 17.136596
_cell_length_c 13.677149
_cell_angle_alpha 90.000000
_cell_angle_beta 97.608433
_cell_angle_gamma 90.000000
_cell_volume 1154.481277
_symmetry_space_group_name_H-M "C C"
_symmetry_group_IT_number 9
_symmetry_cell_setting 'monoclinic'
loop_
_space_group_symop_operation_xyz
x,y,z
x,-y,1/2+z
1/2+x,1/2+y,z
1/2+x,1/2-y,1/2+z
loop_
_atom_site_type_symbol
_atom_site_label
_atom_site_fract_x
_atom_site_fract_y
_atom_site_fract_z
Si Si1 0.399200 0.039525 0.644590
Si Si2 0.538285 0.907068 0.843677
Si Si3 0.269968 0.569417 0.864863
Si Si4 0.073177 0.686026 0.154179
Si Si5 0.593373 0.371600 0.963565
Si Si6 0.446514 0.794406 0.448892
Si Si7 0.176686 0.160653 0.761673
Si Si8 0.408475 0.448241 0.587189
O O1 0.193214 0.090514 0.567529
O O2 0.425499 0.101981 0.737365
O O3 0.677851 0.011938 0.608800
O O4 0.199864 0.964992 0.654074
O O5 0.482235 0.852355 0.749248
O O6 0.250766 0.912843 0.882804
O O7 0.768756 0.877894 0.930414
O O8 0.618968 0.993414 0.808676
O O9 0.068050 0.629458 0.904283
O O10 0.434533 0.603357 0.780801
O O11 0.446237 0.542646 0.969868
O O12 0.123842 0.778390 0.171865
O O13 0.330135 0.639029 0.119909
O O14 0.848270 0.683698 0.054737
O O15 0.653725 0.278325 0.964462
O O16 0.209872 0.781560 0.358349
#
# Coordination Sequence:
#
# PCOD8056599 Si02
#       8
#     4   4   4   4   4   4   4   4
#     4  12  25  51  78 116 152 209 261 320 393 464
#     4  12  26  47  79 110 151 201 261 316 391 457
#     4  11  26  47  76 113 159 202 265 327 394 462
#     4  11  26  50  72 115 149 209 256 322 390 473
#     4  12  24  50  77 111 152 202 254 322 380 473
#     4  11  27  49  72 110 161 204 260 324 395 469
#     4  12  27  48  78 114 155 213 260 328 392 477
#     4  11  27  50  78 113 159 204 259 325 389 467
#
# _framework density 27.718077999999998
#
# number of rings (size 3 to 8) (size 9 to 14) (size 15 to 20)
#    0.000    0.500    5.000    1.500    8.750    1.000 
#    4.500    0.000    0.000    0.000    0.000    0.000 
#    0.000    0.000    0.000    0.000    0.000    0.000 
#
# Total GULP energy -198243.608623 kJ/mol
# GULP energy per Si atom -12390.225539 kJ/mol
# Density = 2.765499 g / cm^3
# Si number density = 27.718078 Si / 1000 Ang^3
#
#
#
# Elastic Constant Matrix: (Units=GPa)
#
#
# Indices 1 2 3 4 5 6 
#
# 1 66.1230 3.8345 5.9208 0.0000 -11.6503 0.0000
# 2 3.8345 133.6925 45.0163 0.0000 -7.0661 0.0000
# 3 5.9208 45.0163 127.2588 0.0000 -3.9109 0.0000
# 4 0.0000 0.0000 0.0000 62.1496 0.0000 -1.3067
# 5 -11.6503 -7.0661 -3.9109 0.0000 36.3344 0.0000
# 6 0.0000 0.0000 0.0000 -1.3067 0.0000 27.6651
#
#
#
# Elastic Compliance Matrix: (Units=1/GPa)
#
#
# Indices 1 2 3 4 5 6 
#
# 1 0.016073 0.000008 -0.000594 0.000000 0.005091 0.000000
# 2 0.000008 0.008556 -0.002986 0.000000 0.001345 0.000000
# 3 -0.000594 -0.002986 0.008948 0.000000 0.000192 0.000000
# 4 0.000000 0.000000 0.000000 0.016106 0.000000 0.000761
# 5 0.005091 0.001345 0.000192 0.000000 0.029437 0.000000
# 6 0.000000 0.000000 0.000000 0.000761 0.000000 0.036183
#
#
# Mechanical properties :
#
#
# Convention : Reuss Voigt Hill
#
# Bulk Modulus (GPa) = 37.83089 48.51306 43.17198
# Shear Modulus (GPa) = 38.09321 43.38334 40.73828
#
# Velocity S-wave (km/s) = 3.71119 3.96051 3.83787
# Velocity P-wave (km/s) = 5.66056 6.20117 5.93702
#
# Compressibility (1/GPa) = 0.02643343
#
# Stress axis : x y z
#
# Youngs Moduli (GPa) = 62.21573 116.87676 111.76084
#
# Poissons Ratio (x) = -0.00096 0.06641
# Poissons Ratio (y) = -0.00051 0.33368
# Poissons Ratio (z) = 0.03697 0.34895
#
# Static dielectric constant tensor:
#      x y z
#    x 4.570270 0.000000 0.656850 
#    y 0.000000 5.492010 0.000000 
#    z 0.656850 0.000000 6.408180 
# 
# 
# High freq. dielectric constant tensor:
#      x y z
#    x 2.082800 0.000000 0.021260 
#    y 0.000000 2.152240 0.000000 
#    z 0.021260 0.000000 2.158330 
# 
# From -- ./inp_files/22068.got.cif
#   From: 2010.06.25/outbox.cif.g09.slc.cpg/sg9_12_cif.got.tgz:22068.got - 2010.06.27 21:40:51.
