data_PCOD8056174
_publ_section_title
;
Structure prediction by ZEFSAII (Michael W. Deem and Ramdas Pophale) SiO2 
 PCOD8056174
Probable space group: C C
;
_chemical_formula_sum "Si O2"
_cell_formula_units_Z 32
_cell_length_a 14.520854
_cell_length_b 12.172697
_cell_length_c 8.732188
_cell_angle_alpha 90.000000
_cell_angle_beta 62.729481
_cell_angle_gamma 90.000000
_cell_volume 1371.930287
_symmetry_space_group_name_H-M "C C"
_symmetry_group_IT_number 9
_symmetry_cell_setting 'monoclinic'
loop_
_space_group_symop_operation_xyz
x,y,z
x,-y,1/2+z
1/2+x,1/2+y,z
1/2+x,1/2-y,1/2+z
loop_
_atom_site_type_symbol
_atom_site_label
_atom_site_fract_x
_atom_site_fract_y
_atom_site_fract_z
Si Si1 0.877520 0.685162 0.960980
Si Si2 0.925268 0.111139 0.888117
Si Si3 0.585656 0.069465 0.842408
Si Si4 0.150547 0.365800 0.958948
Si Si5 0.185886 0.121034 0.918560
Si Si6 0.752009 0.769397 0.344638
Si Si7 0.891734 0.116654 0.259749
Si Si8 0.640567 0.409555 0.116009
O O1 0.799849 0.620998 0.907627
O O2 0.936187 0.779090 0.818614
O O3 0.966425 0.605864 0.958614
O O4 0.810680 0.744693 0.142754
O O5 0.831326 0.188861 0.912588
O O6 0.030864 0.151108 0.726524
O O7 0.905813 0.987518 0.854710
O O8 0.945922 0.110025 0.053670
O O9 0.622767 0.081849 0.641752
O O10 0.663149 0.139431 0.890317
O O11 0.590006 0.939832 0.880364
O O12 0.122544 0.236255 0.975883
O O13 0.270156 0.369790 0.824418
O O14 0.201267 0.083613 0.731099
O O15 0.119842 0.031701 0.065205
O O16 0.704288 0.656810 0.441575
#
# Coordination Sequence:
#
# PCOD8056174 Si02
#       8
#     4   4   4   4   4   4   4   4
#     4  11  26  46  73 109 149 202 247 317 388 451
#     4  12  25  41  76 107 144 199 258 313 376 459
#     4  12  26  45  78 106 150 196 254 305 391 455
#     4  11  25  47  72 108 151 197 243 317 380 445
#     4  11  26  51  71 109 153 195 256 320 377 456
#     4  12  24  48  72 110 155 193 256 321 376 458
#     4  11  22  44  71 106 149 188 255 317 376 440
#     4  12  28  46  77 105 151 204 255 310 394 444
#
# _framework density 23.324798999999999
#
# number of rings (size 3 to 8) (size 9 to 14) (size 15 to 20)
#    0.000    0.500    3.750    5.250    5.250    2.000 
#    2.250    0.000    0.000    0.000    0.000    0.000 
#    0.000    0.000    0.000    0.000    0.000    0.000 
#
# Total GULP energy -198461.198220 kJ/mol
# GULP energy per Si atom -12403.824889 kJ/mol
# Density = 2.327171 g / cm^3
# Si number density = 23.324799 Si / 1000 Ang^3
#
#
#
# Elastic Constant Matrix: (Units=GPa)
#
#
# Indices 1 2 3 4 5 6 
#
# 1 102.7281 52.3910 26.1432 0.0000 -1.1728 0.0000
# 2 52.3910 143.6397 60.7903 0.0000 8.6054 0.0000
# 3 26.1432 60.7903 127.3939 0.0000 15.9080 0.0000
# 4 0.0000 0.0000 0.0000 38.5980 0.0000 8.7775
# 5 -1.1728 8.6054 15.9080 0.0000 41.3008 0.0000
# 6 0.0000 0.0000 0.0000 8.7775 0.0000 39.0456
#
#
#
# Elastic Compliance Matrix: (Units=1/GPa)
#
#
# Indices 1 2 3 4 5 6 
#
# 1 0.012066 -0.004214 -0.000649 0.000000 0.001471 0.000000
# 2 -0.004214 0.010198 -0.003909 0.000000 -0.000739 0.000000
# 3 -0.000649 -0.003909 0.010241 0.000000 -0.003149 0.000000
# 4 0.000000 0.000000 0.000000 0.027304 0.000000 -0.006138
# 5 0.001471 -0.000739 -0.003149 0.000000 0.025621 0.000000
# 6 0.000000 0.000000 0.000000 -0.006138 0.000000 0.026991
#
#
# Mechanical properties :
#
#
# Convention : Reuss Voigt Hill
#
# Bulk Modulus (GPa) = 66.84313 72.49008 69.66660
# Shear Modulus (GPa) = 37.05038 39.41802 38.23420
#
# Velocity S-wave (km/s) = 3.98987 4.11537 4.05311
# Velocity P-wave (km/s) = 7.06719 7.32992 7.19975
#
# Compressibility (1/GPa) = 0.01496040
#
# Stress axis : x y z
#
# Youngs Moduli (GPa) = 82.88003 98.06191 97.64403
#
# Poissons Ratio (x) = 0.41327 0.06334
# Poissons Ratio (y) = 0.34929 0.38169
# Poissons Ratio (z) = 0.05376 0.38333
#
# Static dielectric constant tensor:
#      x y z
#    x 4.415320 0.000000 0.015380 
#    y 0.000000 4.382270 0.000000 
#    z 0.015380 0.000000 4.158390 
# 
# 
# High freq. dielectric constant tensor:
#      x y z
#    x 1.928500 0.000000 0.002120 
#    y 0.000000 1.924830 0.000000 
#    z 0.002120 0.000000 1.932010 
# 
# From -- ./inp_files/9231.got.cif
#   From: 2010.06.25/outbox.cif.g09.slc.cpg/sg9_5_cif.got.tgz:9231.got - 2010.06.27 21:40:51.
