data_PCOD8056388
_publ_section_title
;
Structure prediction by ZEFSAII (Michael W. Deem and Ramdas Pophale) SiO2 
 PCOD8056388
Probable space group: C C
;
_chemical_formula_sum "Si O2"
_cell_formula_units_Z 24
_cell_length_a 4.924156
_cell_length_b 13.194878
_cell_length_c 15.214844
_cell_angle_alpha 90.000000
_cell_angle_beta 68.757808
_cell_angle_gamma 90.000000
_cell_volume 921.398023
_symmetry_space_group_name_H-M "C C"
_symmetry_group_IT_number 9
_symmetry_cell_setting 'monoclinic'
loop_
_space_group_symop_operation_xyz
x,y,z
x,-y,1/2+z
1/2+x,1/2+y,z
1/2+x,1/2-y,1/2+z
loop_
_atom_site_type_symbol
_atom_site_label
_atom_site_fract_x
_atom_site_fract_y
_atom_site_fract_z
Si Si1 0.857310 0.931129 0.488770
Si Si2 0.906136 0.678634 0.928570
Si Si3 0.265606 0.016352 0.710787
Si Si4 0.914866 0.805451 0.247564
Si Si5 0.246559 0.638098 0.569201
Si Si6 0.767124 0.888374 0.695637
O O1 0.575839 0.906563 0.463957
O O2 0.790695 0.878487 0.589195
O O3 0.141141 0.879202 0.412543
O O4 0.926749 0.050042 0.497426
O O5 0.112341 0.726778 0.829176
O O6 0.758793 0.765044 0.005808
O O7 0.083406 0.918681 0.696768
O O8 0.517941 0.974171 0.746170
O O9 0.423117 0.087141 0.617449
O O10 0.031344 0.091691 0.782171
O O11 0.158610 0.720638 0.241077
O O12 0.370028 0.669787 0.649936
#
# Coordination Sequence:
#
# PCOD8056388 Si02
#       6
#     4   4   4   4   4   4
#     4  11  24  48  70 102 145 191 239 300 365 431
#     4  12  29  44  72 111 145 186 247 307 355 440
#     4  11  24  43  73 105 137 195 243 290 366 436
#     4  12  27  45  77 109 148 189 251 300 370 433
#     4  11  26  48  77 102 147 203 239 299 373 438
#     4  11  24  44  77 101 140 194 239 296 365 436
#
# _framework density 26.047377000000001
#
# number of rings (size 3 to 8) (size 9 to 14) (size 15 to 20)
#    0.000    0.667    5.000    3.000    4.667    2.667 
#    0.000    0.000    0.000    0.000    0.000    0.000 
#    0.000    0.000    0.000    0.000    0.000    0.000 
#
# Total GULP energy -148685.420490 kJ/mol
# GULP energy per Si atom -12390.451707 kJ/mol
# Density = 2.598809 g / cm^3
# Si number density = 26.047377 Si / 1000 Ang^3
#
#
#
# Elastic Constant Matrix: (Units=GPa)
#
#
# Indices 1 2 3 4 5 6 
#
# 1 120.8251 52.2748 20.3574 0.0000 -21.6650 0.0000
# 2 52.2748 148.2037 36.9096 0.0000 -9.2294 0.0000
# 3 20.3574 36.9096 36.4288 0.0000 -1.6114 0.0000
# 4 0.0000 0.0000 0.0000 20.2171 0.0000 -26.1775
# 5 -21.6650 -9.2294 -1.6114 0.0000 30.6675 0.0000
# 6 0.0000 0.0000 0.0000 -26.1775 0.0000 47.3623
#
#
#
# Elastic Compliance Matrix: (Units=1/GPa)
#
#
# Indices 1 2 3 4 5 6 
#
# 1 0.011247 -0.002736 -0.003206 0.000000 0.006954 0.000000
# 2 -0.002736 0.009846 -0.008422 0.000000 0.000588 0.000000
# 3 -0.003206 -0.008422 0.037650 0.000000 -0.002821 0.000000
# 4 0.000000 0.000000 0.000000 0.173955 0.000000 0.096146
# 5 0.006954 0.000588 -0.002821 0.000000 0.037549 0.000000
# 6 0.000000 0.000000 0.000000 0.096146 0.000000 0.074255
#
#
# Mechanical properties :
#
#
# Convention : Reuss Voigt Hill
#
# Bulk Modulus (GPa) = 33.31376 58.28235 45.79805
# Shear Modulus (GPa) = 13.04684 32.71044 22.87864
#
# Velocity S-wave (km/s) = 2.24048 3.54758 2.96691
# Velocity P-wave (km/s) = 4.41706 6.26135 5.41825
#
# Compressibility (1/GPa) = 0.03001763
#
# Stress axis : x y z
#
# Youngs Moduli (GPa) = 88.91277 101.56022 26.56023
#
# Poissons Ratio (x) = 0.27783 0.08515
# Poissons Ratio (y) = 0.24323 0.22368
# Poissons Ratio (z) = 0.28504 0.85530
#
# Static dielectric constant tensor:
#      x y z
#    x 4.842290 0.000000 -0.414230 
#    y 0.000000 4.987800 0.000000 
#    z -0.414230 0.000000 4.640110 
# 
# 
# High freq. dielectric constant tensor:
#      x y z
#    x 2.047610 0.000000 -0.020610 
#    y 0.000000 2.052040 0.000000 
#    z -0.020610 0.000000 2.031860 
# 
# From -- ./inp_files/31959.got.cif
#   From: 2010.06.25/outbox.cif.g09.slc.cpg/sg9_16_cif.got.tgz:31959.got - 2010.06.27 21:40:51.
