data_PCOD8056653
_publ_section_title
;
Structure prediction by ZEFSAII (Michael W. Deem and Ramdas Pophale) SiO2 
 PCOD8056653
Probable space group: C C
;
_chemical_formula_sum "Si O2"
_cell_formula_units_Z 32
_cell_length_a 7.996486
_cell_length_b 21.514106
_cell_length_c 10.704176
_cell_angle_alpha 90.000000
_cell_angle_beta 42.751891
_cell_angle_gamma 90.000000
_cell_volume 1250.067725
_symmetry_space_group_name_H-M "C C"
_symmetry_group_IT_number 9
_symmetry_cell_setting 'monoclinic'
loop_
_space_group_symop_operation_xyz
x,y,z
x,-y,1/2+z
1/2+x,1/2+y,z
1/2+x,1/2-y,1/2+z
loop_
_atom_site_type_symbol
_atom_site_label
_atom_site_fract_x
_atom_site_fract_y
_atom_site_fract_z
Si Si1 0.745910 0.608401 0.283990
Si Si2 0.523329 0.297417 0.201097
Si Si3 0.213075 0.561773 0.630381
Si Si4 0.560155 0.988540 0.481589
Si Si5 0.373998 0.180681 0.805447
Si Si6 0.488273 0.787618 0.517412
Si Si7 0.847037 0.794223 0.657269
Si Si8 0.957079 0.383792 0.930525
O O1 0.469990 0.596722 0.478015
O O2 0.928267 0.603844 0.300545
O O3 0.840079 0.558938 0.129995
O O4 0.769693 0.675641 0.207075
O O5 0.258390 0.318640 0.398891
O O6 0.613379 0.230203 0.204364
O O7 0.491033 0.283356 0.069235
O O8 0.729645 0.347503 0.117943
O O9 0.207378 0.505464 0.530636
O O10 0.207239 0.536851 0.777944
O O11 0.997711 0.612867 0.719841
O O12 0.438471 0.052577 0.511766
O O13 0.438814 0.211395 0.900238
O O14 0.466203 0.234199 0.660614
O O15 0.073520 0.175618 0.954881
O O16 0.717545 0.847800 0.813288
#
# Coordination Sequence:
#
# PCOD8056653 Si02
#       8
#     4   4   4   4   4   4   4   4
#     4  12  28  51  83 116 161 214 275 339 409 480
#     4  12  23  46  75 113 158 215 266 328 405 495
#     4  12  30  54  84 122 164 216 276 341 415 485
#     4  12  29  55  81 118 156 220 276 342 403 483
#     4  12  27  46  74 122 165 210 262 341 408 490
#     4  12  24  45  75 113 167 207 269 327 411 488
#     4  12  25  46  75 115 165 209 264 328 412 485
#     4  12  26  49  81 115 156 215 268 336 405 492
#
# _framework density 25.598614999999999
#
# number of rings (size 3 to 8) (size 9 to 14) (size 15 to 20)
#    0.000    0.000    6.250    2.250    3.500    2.000 
#    0.000    0.000    0.000    0.000    0.000    0.000 
#    0.000    0.000    0.000    0.000    0.000    0.000 
#
# Total GULP energy -198298.038758 kJ/mol
# GULP energy per Si atom -12393.627422 kJ/mol
# Density = 2.554035 g / cm^3
# Si number density = 25.598615 Si / 1000 Ang^3
#
#
#
# Elastic Constant Matrix: (Units=GPa)
#
#
# Indices 1 2 3 4 5 6 
#
# 1 73.4820 25.5489 34.3879 0.0000 -0.2020 0.0000
# 2 25.5489 58.3089 38.7681 0.0000 -13.3151 0.0000
# 3 34.3879 38.7681 162.6102 0.0000 -19.5013 0.0000
# 4 0.0000 0.0000 0.0000 32.9119 0.0000 7.4544
# 5 -0.2020 -13.3151 -19.5013 0.0000 47.9045 0.0000
# 6 0.0000 0.0000 0.0000 7.4544 0.0000 37.3052
#
#
#
# Elastic Compliance Matrix: (Units=1/GPa)
#
#
# Indices 1 2 3 4 5 6 
#
# 1 0.016959 -0.006472 -0.002366 0.000000 -0.002691 0.000000
# 2 -0.006472 0.023559 -0.003644 0.000000 0.005038 0.000000
# 3 -0.002366 -0.003644 0.007776 0.000000 0.002143 0.000000
# 4 0.000000 0.000000 0.000000 0.031825 0.000000 -0.006359
# 5 -0.002691 0.005038 0.002143 0.000000 0.023136 0.000000
# 6 0.000000 0.000000 0.000000 -0.006359 0.000000 0.028077
#
#
# Mechanical properties :
#
#
# Convention : Reuss Voigt Hill
#
# Bulk Modulus (GPa) = 42.86408 54.64565 48.75486
# Shear Modulus (GPa) = 30.47456 36.67072 33.57264
#
# Velocity S-wave (km/s) = 3.45407 3.78898 3.62540
# Velocity P-wave (km/s) = 5.71739 6.36673 6.05078
#
# Compressibility (1/GPa) = 0.02332956
#
# Stress axis : x y z
#
# Youngs Moduli (GPa) = 58.96607 42.44668 128.60521
#
# Poissons Ratio (x) = 0.27472 0.30428
# Poissons Ratio (y) = 0.38163 0.46862
# Poissons Ratio (z) = 0.13952 0.15467
#
# Static dielectric constant tensor:
#      x y z
#    x 4.951920 0.000000 0.285830 
#    y 0.000000 4.676100 0.000000 
#    z 0.285830 0.000000 5.010600 
# 
# 
# High freq. dielectric constant tensor:
#      x y z
#    x 2.027390 0.000000 0.015470 
#    y 0.000000 2.015600 0.000000 
#    z 0.015470 0.000000 2.039660 
# 
# From -- ./inp_files/15640.got.cif
#   From: 2010.06.25/outbox.cif.g09.slc.cpg/sg9_8_cif.got.tgz:15640.got - 2010.06.27 21:40:51.
