data_PCOD8056758
_publ_section_title
;
Structure prediction by ZEFSAII (Michael W. Deem and Ramdas Pophale) SiO2 
 PCOD8056758
Probable space group: C C
;
_chemical_formula_sum "Si O2"
_cell_formula_units_Z 28
_cell_length_a 7.519555
_cell_length_b 16.618212
_cell_length_c 13.177834
_cell_angle_alpha 90.000000
_cell_angle_beta 43.961296
_cell_angle_gamma 90.000000
_cell_volume 1143.109254
_symmetry_space_group_name_H-M "C C"
_symmetry_group_IT_number 9
_symmetry_cell_setting 'monoclinic'
loop_
_space_group_symop_operation_xyz
x,y,z
x,-y,1/2+z
1/2+x,1/2+y,z
1/2+x,1/2-y,1/2+z
loop_
_atom_site_type_symbol
_atom_site_label
_atom_site_fract_x
_atom_site_fract_y
_atom_site_fract_z
Si Si1 0.855300 0.943589 0.005430
Si Si2 0.091025 0.696696 0.350270
Si Si3 0.374622 0.841340 0.550039
Si Si4 0.885946 0.336230 0.156082
Si Si5 0.915696 0.054538 0.155055
Si Si6 0.685278 0.700478 0.350746
Si Si7 0.384792 0.437434 0.330349
O O1 0.591161 0.894175 0.125803
O O2 0.878713 0.029738 0.053010
O O3 0.088762 0.884411 0.934278
O O4 0.887705 0.972403 0.876525
O O5 0.337951 0.756686 0.245340
O O6 0.172584 0.606652 0.288452
O O7 0.966447 0.695818 0.512078
O O8 0.902229 0.730271 0.339783
O O9 0.451948 0.765041 0.448211
O O10 0.277219 0.808260 0.697825
O O11 0.623858 0.894549 0.467963
O O12 0.175259 0.896591 0.570420
O O13 0.623629 0.384295 0.262027
O O14 0.906142 0.963348 0.204171
#
# Coordination Sequence:
#
# PCOD8056758 Si02
#       7
#     4   4   4   4   4   4   4
#     4  12  28  47  77 111 151 203 255 320 379 446
#     4  12  26  49  77 114 153 203 253 309 383 457
#     4  12  27  51  74 112 157 198 258 310 380 460
#     4  12  27  51  74 112 157 198 258 310 380 460
#     4  12  28  47  77 111 151 203 255 320 379 446
#     4  12  26  49  77 114 153 203 253 309 383 457
#     4  12  26  50  74 108 156 194 256 324 372 452
#
# _framework density 24.494598
#
# number of rings (size 3 to 8) (size 9 to 14) (size 15 to 20)
#    0.000    0.000    4.286    4.286    8.000    0.000 
#    0.000    0.000    0.000    0.000    0.000    0.000 
#    0.000    0.000    0.000    0.000    0.000    0.000 
#
# Total GULP energy -173611.092555 kJ/mol
# GULP energy per Si atom -12400.792325 kJ/mol
# Density = 2.443885 g / cm^3
# Si number density = 24.494598 Si / 1000 Ang^3
#
#
#
# Elastic Constant Matrix: (Units=GPa)
#
#
# Indices 1 2 3 4 5 6 
#
# 1 102.7565 34.3391 52.0328 -0.0002 -7.2593 0.0001
# 2 34.3391 134.8831 65.7481 0.0001 -0.1052 0.0000
# 3 52.0328 65.7481 138.3057 -0.0005 -15.3025 0.0002
# 4 -0.0002 0.0001 -0.0005 40.3407 0.0002 -6.2379
# 5 -7.2593 -0.1052 -15.3025 0.0002 21.5950 -0.0001
# 6 0.0001 0.0000 0.0002 -6.2379 -0.0001 42.6084
#
#
#
# Elastic Compliance Matrix: (Units=1/GPa)
#
#
# Indices 1 2 3 4 5 6 
#
# 1 0.012188 -0.001224 -0.003853 0.000000 0.001361 0.000000
# 2 -0.001224 0.010019 -0.004712 0.000000 -0.003702 0.000000
# 3 -0.003853 -0.004712 0.011691 0.000000 0.006966 0.000000
# 4 0.000000 0.000000 0.000000 0.025363 0.000000 0.003713
# 5 0.001361 -0.003702 0.006966 0.000000 0.051683 0.000000
# 6 0.000000 0.000000 0.000000 0.003713 0.000000 0.024013
#
#
# Mechanical properties :
#
#
# Convention : Reuss Voigt Hill
#
# Bulk Modulus (GPa) = 69.83124 75.57613 72.70369
# Shear Modulus (GPa) = 31.38568 35.83050 33.60809
#
# Velocity S-wave (km/s) = 3.58345 3.82880 3.70815
# Velocity P-wave (km/s) = 6.75960 7.10404 6.93396
#
# Compressibility (1/GPa) = 0.01432024
#
# Stress axis : x y z
#
# Youngs Moduli (GPa) = 82.04903 99.80594 85.53727
#
# Poissons Ratio (x) = 0.12213 0.32957
# Poissons Ratio (y) = 0.10040 0.40308
# Poissons Ratio (z) = 0.31613 0.47031
#
# Static dielectric constant tensor:
#      x y z
#    x 4.320210 0.000000 -0.160090 
#    y 0.000000 4.527860 0.000000 
#    z -0.160090 0.000000 4.425830 
# 
# 
# High freq. dielectric constant tensor:
#      x y z
#    x 1.975670 0.000000 -0.003820 
#    y 0.000000 1.996260 0.000000 
#    z -0.003820 0.000000 1.983190 
# 
# From -- ./inp_files/23468.got.cif
#   From: 2010.06.25/outbox.cif.g09.slc.cpg/sg9_12_cif.got.tgz:23468.got - 2010.06.27 21:40:51.
