data_PCOD8056601
_publ_section_title
;
Structure prediction by ZEFSAII (Michael W. Deem and Ramdas Pophale) SiO2 
 PCOD8056601
Probable space group: C C
;
_chemical_formula_sum "Si O2"
_cell_formula_units_Z 28
_cell_length_a 13.686414
_cell_length_b 12.326828
_cell_length_c 7.400651
_cell_angle_alpha 90.000000
_cell_angle_beta 70.629850
_cell_angle_gamma 90.000000
_cell_volume 1177.890096
_symmetry_space_group_name_H-M "C C"
_symmetry_group_IT_number 9
_symmetry_cell_setting 'monoclinic'
loop_
_space_group_symop_operation_xyz
x,y,z
x,-y,1/2+z
1/2+x,1/2+y,z
1/2+x,1/2-y,1/2+z
loop_
_atom_site_type_symbol
_atom_site_label
_atom_site_fract_x
_atom_site_fract_y
_atom_site_fract_z
Si Si1 0.946780 0.278010 0.673640
Si Si2 0.781900 0.646691 0.807647
Si Si3 0.290586 0.599625 0.854099
Si Si4 0.573001 0.131391 0.798145
Si Si5 0.559912 0.277665 0.462431
Si Si6 0.354872 0.370550 0.705953
Si Si7 0.390698 0.031368 0.414248
O O1 0.870189 0.177162 0.700902
O O2 0.886236 0.393514 0.734345
O O3 0.017466 0.276456 0.452707
O O4 0.018947 0.277670 0.806748
O O5 0.659975 0.650934 0.846472
O O6 0.821795 0.765545 0.843021
O O7 0.858242 0.609995 0.598059
O O8 0.804060 0.563062 0.955579
O O9 0.182615 0.602500 0.817590
O O10 0.334241 0.477630 0.832938
O O11 0.283574 0.634524 0.067898
O O12 0.585978 0.181993 0.590260
O O13 0.505684 0.021189 0.846692
O O14 0.476512 0.364349 0.586015
#
# Coordination Sequence:
#
# PCOD8056601 Si02
#       7
#     4   4   4   4   4   4   4
#     4  11  26  50  70 110 148 189 258 311 365 468
#     4  12  26  46  76 108 153 192 252 318 380 446
#     4  11  28  45  74 104 150 195 252 304 387 440
#     4  12  27  45  81 108 139 208 253 304 385 455
#     4  11  27  49  73 106 153 192 249 314 379 437
#     4  11  26  48  70 110 149 198 249 319 363 466
#     4  12  24  47  74 108 148 194 251 318 371 452
#
# _framework density 23.771318999999998
#
# number of rings (size 3 to 8) (size 9 to 14) (size 15 to 20)
#    0.000    0.571    5.714    0.857   10.000    2.286 
#    0.000    0.000    0.000    0.000    0.000    0.000 
#    0.000    0.000    0.000    0.000    0.000    0.000 
#
# Total GULP energy -173609.462882 kJ/mol
# GULP energy per Si atom -12400.675920 kJ/mol
# Density = 2.371721 g / cm^3
# Si number density = 23.771319 Si / 1000 Ang^3
#
#
#
# Elastic Constant Matrix: (Units=GPa)
#
#
# Indices 1 2 3 4 5 6 
#
# 1 122.0166 43.7705 12.2507 0.0000 -23.2031 0.0000
# 2 43.7705 154.9943 15.4019 0.0000 -13.0970 0.0000
# 3 12.2507 15.4019 51.9178 0.0000 -3.7765 0.0000
# 4 0.0000 0.0000 0.0000 30.9211 0.0000 -3.9290
# 5 -23.2031 -13.0970 -3.7765 0.0000 31.5633 0.0000
# 6 0.0000 0.0000 0.0000 -3.9290 0.0000 32.4942
#
#
#
# Elastic Compliance Matrix: (Units=1/GPa)
#
#
# Indices 1 2 3 4 5 6 
#
# 1 0.010377 -0.002248 -0.001306 0.000000 0.006539 0.000000
# 2 -0.002248 0.007344 -0.001560 0.000000 0.001208 0.000000
# 3 -0.001306 -0.001560 0.020090 0.000000 0.000796 0.000000
# 4 0.000000 0.000000 0.000000 0.032845 0.000000 0.003971
# 5 0.006539 0.001208 0.000796 0.000000 0.037086 0.000000
# 6 0.000000 0.000000 0.000000 0.003971 0.000000 0.031255
#
#
# Mechanical properties :
#
#
# Convention : Reuss Voigt Hill
#
# Bulk Modulus (GPa) = 36.25542 52.41942 44.33742
# Shear Modulus (GPa) = 31.56183 36.16275 33.86229
#
# Velocity S-wave (km/s) = 3.64775 3.90459 3.77835
# Velocity P-wave (km/s) = 5.74685 6.51361 6.14221
#
# Compressibility (1/GPa) = 0.02758209
#
# Stress axis : x y z
#
# Youngs Moduli (GPa) = 96.37015 136.16886 49.77555
#
# Poissons Ratio (x) = 0.30611 0.06500
# Poissons Ratio (y) = 0.21664 0.07766
# Poissons Ratio (z) = 0.12585 0.21246
#
# Static dielectric constant tensor:
#      x y z
#    x 4.293510 0.000000 0.007140 
#    y 0.000000 4.427880 0.000000 
#    z 0.007140 0.000000 4.301660 
# 
# 
# High freq. dielectric constant tensor:
#      x y z
#    x 1.943030 0.000000 0.004810 
#    y 0.000000 1.949470 0.000000 
#    z 0.004810 0.000000 1.945530 
# 
# From -- ./inp_files/9207.got.cif
#   From: 2010.06.25/outbox.cif.g09.slc.cpg/sg9_5_cif.got.tgz:9207.got - 2010.06.27 21:40:51.
