data_PCOD8056399
_publ_section_title
;
Structure prediction by ZEFSAII (Michael W. Deem and Ramdas Pophale) SiO2 
 PCOD8056399
Probable space group: C C
;
_chemical_formula_sum "Si O2"
_cell_formula_units_Z 32
_cell_length_a 27.189278
_cell_length_b 11.917008
_cell_length_c 8.459829
_cell_angle_alpha 90.000000
_cell_angle_beta 148.805355
_cell_angle_gamma 90.000000
_cell_volume 1419.749961
_symmetry_space_group_name_H-M "C C"
_symmetry_group_IT_number 9
_symmetry_cell_setting 'monoclinic'
loop_
_space_group_symop_operation_xyz
x,y,z
x,-y,1/2+z
1/2+x,1/2+y,z
1/2+x,1/2-y,1/2+z
loop_
_atom_site_type_symbol
_atom_site_label
_atom_site_fract_x
_atom_site_fract_y
_atom_site_fract_z
Si Si1 0.811970 0.042265 0.810270
Si Si2 0.984081 0.104768 0.671766
Si Si3 0.093839 0.046294 0.265295
Si Si4 0.030584 0.745813 0.766451
Si Si5 0.352953 0.841488 0.612868
Si Si6 0.803577 0.452621 0.809442
Si Si7 0.222633 0.360883 0.755091
Si Si8 0.899519 0.752817 0.706546
O O1 0.780018 0.106510 0.567792
O O2 0.729909 0.959823 0.646975
O O3 0.833749 0.137862 0.998793
O O4 0.903939 0.968794 0.032244
O O5 0.945263 0.227745 0.508354
O O6 0.019270 0.051121 0.602995
O O7 0.070112 0.109408 0.034763
O O8 0.082837 0.135971 0.377956
O O9 0.195950 0.989389 0.542615
O O10 0.952063 0.722764 0.414427
O O11 0.982643 0.743967 0.805184
O O12 0.111360 0.651040 0.984283
O O13 0.318443 0.904979 0.676339
O O14 0.272270 0.754279 0.332082
O O15 0.366891 0.936117 0.516292
O O16 0.833980 0.357708 0.021401
#
# Coordination Sequence:
#
# PCOD8056399 Si02
#       8
#     4   4   4   4   4   4   4   4
#     4  12  22  44  69  99 137 185 230 299 350 410
#     4  12  22  38  73 102 135 180 248 293 342 411
#     4  12  22  41  69 107 132 184 247 292 337 430
#     4  11  24  46  71  98 138 188 228 290 357 415
#     4  11  24  46  68  99 145 183 222 291 357 417
#     4  11  25  43  68 102 148 181 224 288 369 418
#     4  12  25  44  71 102 139 181 238 290 353 417
#     4  11  24  44  69 101 140 188 227 289 363 416
#
# _framework density 22.539178
#
# number of rings (size 3 to 8) (size 9 to 14) (size 15 to 20)
#    0.000    0.500    7.500    1.500    1.750    4.000 
#    2.250    1.250    0.000    0.000    0.000    0.000 
#    0.000    0.000    0.000    0.000    0.000    0.000 
#
# Total GULP energy -198393.428764 kJ/mol
# GULP energy per Si atom -12399.589298 kJ/mol
# Density = 2.248788 g / cm^3
# Si number density = 22.539178 Si / 1000 Ang^3
#
#
#
# Elastic Constant Matrix: (Units=GPa)
#
#
# Indices 1 2 3 4 5 6 
#
# 1 46.3462 30.2874 23.8659 0.0000 14.0014 0.0000
# 2 30.2874 123.7243 34.2851 0.0000 14.6978 0.0000
# 3 23.8659 34.2851 87.3271 0.0000 11.6972 0.0000
# 4 0.0000 0.0000 0.0000 31.5634 0.0000 -0.7269
# 5 14.0014 14.6978 11.6972 0.0000 33.9439 0.0000
# 6 0.0000 0.0000 0.0000 -0.7269 0.0000 47.2080
#
#
#
# Elastic Compliance Matrix: (Units=1/GPa)
#
#
# Indices 1 2 3 4 5 6 
#
# 1 0.029990 -0.004913 -0.005132 0.000000 -0.008475 0.000000
# 2 -0.004913 0.010141 -0.002434 0.000000 -0.001526 0.000000
# 3 -0.005132 -0.002434 0.014033 0.000000 -0.001665 0.000000
# 4 0.000000 0.000000 0.000000 0.031694 0.000000 0.000488
# 5 -0.008475 -0.001526 -0.001665 0.000000 0.034190 0.000000
# 6 0.000000 0.000000 0.000000 0.000488 0.000000 0.021190
#
#
# Mechanical properties :
#
#
# Convention : Reuss Voigt Hill
#
# Bulk Modulus (GPa) = 34.24049 48.25270 41.24660
# Shear Modulus (GPa) = 28.42014 33.80701 31.11358
#
# Velocity S-wave (km/s) = 3.55480 3.87708 3.71943
# Velocity P-wave (km/s) = 5.66333 6.44183 6.06509
#
# Compressibility (1/GPa) = 0.02920519
#
# Stress axis : x y z
#
# Youngs Moduli (GPa) = 33.34417 98.61026 71.26285
#
# Poissons Ratio (x) = 0.48443 0.36574
# Poissons Ratio (y) = 0.16381 0.17349
# Poissons Ratio (z) = 0.17113 0.24006
#
# Static dielectric constant tensor:
#      x y z
#    x 3.925840 0.000000 -0.017710 
#    y 0.000000 4.544150 0.000000 
#    z -0.017710 0.000000 4.123800 
# 
# 
# High freq. dielectric constant tensor:
#      x y z
#    x 1.877620 0.000000 -0.004090 
#    y 0.000000 1.893830 0.000000 
#    z -0.004090 0.000000 1.887850 
# 
# From -- ./inp_files/9080.got.cif
#   From: 2010.06.25/outbox.cif.g09.slc.cpg/sg9_5_cif.got.tgz:9080.got - 2010.06.27 21:40:51.
