data_PCOD8056162
_publ_section_title
;
Structure prediction by ZEFSAII (Michael W. Deem and Ramdas Pophale) SiO2 
 PCOD8056162
Probable space group: C C
;
_chemical_formula_sum "Si O2"
_cell_formula_units_Z 32
_cell_length_a 20.800896
_cell_length_b 7.494778
_cell_length_c 9.526994
_cell_angle_alpha 90.000000
_cell_angle_beta 89.493434
_cell_angle_gamma 90.000000
_cell_volume 1485.182193
_symmetry_space_group_name_H-M "C C"
_symmetry_group_IT_number 9
_symmetry_cell_setting 'monoclinic'
loop_
_space_group_symop_operation_xyz
x,y,z
x,-y,1/2+z
1/2+x,1/2+y,z
1/2+x,1/2-y,1/2+z
loop_
_atom_site_type_symbol
_atom_site_label
_atom_site_fract_x
_atom_site_fract_y
_atom_site_fract_z
Si Si1 0.482870 0.187398 0.863690
Si Si2 0.198753 0.213907 0.039178
Si Si3 0.212051 0.819845 0.045092
Si Si4 0.126501 0.297121 0.301815
Si Si5 0.984434 0.681710 0.199836
Si Si6 0.393723 0.501587 0.757937
Si Si7 0.125215 0.296977 0.776935
Si Si8 0.806020 0.983128 0.509302
O O1 0.553206 0.264584 0.824865
O O2 0.431806 0.326801 0.805445
O O3 0.472261 0.002717 0.781525
O O4 0.475678 0.158137 0.031825
O O5 0.139248 0.268151 0.940879
O O6 0.228008 0.021280 0.996802
O O7 0.165539 0.179427 0.190003
O O8 0.255770 0.358019 0.040324
O O9 0.160924 0.718404 0.949367
O O10 0.180345 0.815600 0.199086
O O11 0.277624 0.710463 0.043596
O O12 0.130990 0.495459 0.240301
O O13 0.935507 0.820578 0.270390
O O14 0.054191 0.764821 0.234408
O O15 0.371279 0.494957 0.597417
O O16 0.327725 0.513202 0.847511
#
# Coordination Sequence:
#
# PCOD8056162 Si02
#       8
#     4   4   4   4   4   4   4   4
#     4  11  27  46  73 110 140 188 240 297 362 425
#     4  12  26  41  71 107 139 186 236 291 360 424
#     4  12  24  43  71 103 137 188 234 293 354 424
#     4  11  22  43  70 104 149 174 225 302 362 422
#     4  11  27  46  73 110 140 188 240 297 362 425
#     4  12  28  48  76  94 150 198 240 292 348 436
#     4  11  22  43  70 104 149 174 225 302 362 422
#     4  12  26  48  68 102 146 192 240 294 350 428
#
# _framework density 21.546177
#
# number of rings (size 3 to 8) (size 9 to 14) (size 15 to 20)
#    0.000    0.500    5.000    2.250   10.500    2.000 
#    0.000    0.000    0.000    0.000    0.000    0.000 
#    0.000    0.000    0.000    0.000    0.000    0.000 
#
# Total GULP energy -198427.875293 kJ/mol
# GULP energy per Si atom -12401.742206 kJ/mol
# Density = 2.149714 g / cm^3
# Si number density = 21.546177 Si / 1000 Ang^3
#
#
#
# Elastic Constant Matrix: (Units=GPa)
#
#
# Indices 1 2 3 4 5 6 
#
# 1 101.4517 52.5900 31.9323 0.0000 -0.2842 0.0000
# 2 52.5900 112.5632 32.0979 0.0000 -1.1075 0.0000
# 3 31.9323 32.0979 86.9689 0.0000 -0.4827 0.0000
# 4 0.0000 0.0000 0.0000 24.3058 0.0000 4.1245
# 5 -0.2842 -1.1075 -0.4827 0.0000 46.1498 0.0000
# 6 0.0000 0.0000 0.0000 4.1245 0.0000 21.6828
#
#
#
# Elastic Compliance Matrix: (Units=1/GPa)
#
#
# Indices 1 2 3 4 5 6 
#
# 1 0.013662 -0.005536 -0.002974 0.000000 -0.000080 0.000000
# 2 -0.005536 0.012174 -0.002459 0.000000 0.000232 0.000000
# 3 -0.002974 -0.002459 0.013498 0.000000 0.000064 0.000000
# 4 0.000000 0.000000 0.000000 0.042515 0.000000 -0.008087
# 5 -0.000080 0.000232 0.000064 0.000000 0.021674 0.000000
# 6 0.000000 0.000000 0.000000 -0.008087 0.000000 0.047658
#
#
# Mechanical properties :
#
#
# Convention : Reuss Voigt Hill
#
# Bulk Modulus (GPa) = 57.48159 59.35825 58.41992
# Shear Modulus (GPa) = 27.94583 30.71860 29.33221
#
# Velocity S-wave (km/s) = 3.60532 3.77995 3.69367
# Velocity P-wave (km/s) = 6.63833 6.83080 6.73525
#
# Compressibility (1/GPa) = 0.01739687
#
# Stress axis : x y z
#
# Youngs Moduli (GPa) = 73.19392 82.14353 74.08424
#
# Poissons Ratio (x) = 0.45474 0.22030
# Poissons Ratio (y) = 0.40520 0.18218
# Poissons Ratio (z) = 0.21765 0.20200
#
# Static dielectric constant tensor:
#      x y z
#    x 3.817130 0.000000 0.010560 
#    y 0.000000 3.780420 0.000000 
#    z 0.010560 0.000000 3.938240 
# 
# 
# High freq. dielectric constant tensor:
#      x y z
#    x 1.843550 0.000000 0.002670 
#    y 0.000000 1.851780 0.000000 
#    z 0.002670 0.000000 1.860690 
# 
# From -- ./inp_files/11233.got.cif
#   From: 2010.06.25/outbox.cif.g09.slc.cpg/sg9_6_cif.got.tgz:11233.got - 2010.06.27 21:40:51.
