data_PCOD8056806
_publ_section_title
;
Structure prediction by ZEFSAII (Michael W. Deem and Ramdas Pophale) SiO2 
 PCOD8056806
Probable space group: P 2/M
;
_chemical_formula_sum "Si O2"
_cell_formula_units_Z 20
_cell_length_a 7.958857
_cell_length_b 7.927153
_cell_length_c 19.208008
_cell_angle_alpha 90.000000
_cell_angle_beta 50.591720
_cell_angle_gamma 90.000000
_cell_volume 936.329036
_symmetry_space_group_name_H-M "P 2/M"
_symmetry_group_IT_number 10
_symmetry_cell_setting 'monoclinic'
loop_
_space_group_symop_operation_xyz
x,y,z
-x,y,-z
-x,-y,-z
x,-y,z
loop_
_atom_site_type_symbol
_atom_site_label
_atom_site_fract_x
_atom_site_fract_y
_atom_site_fract_z
Si Si1 0.105418 0.000000 0.397282
Si Si2 0.708614 0.000000 0.397297
Si Si3 0.122822 0.315026 0.715658
Si Si4 0.279078 0.687149 0.283970
Si Si5 0.154751 0.810522 0.095034
Si Si6 0.527958 0.307352 0.090126
O O1 0.252062 0.830967 0.349931
O O2 0.000000 0.000000 0.500000
O O3 0.921975 0.000000 0.387656
O O4 0.500000 0.000000 0.500000
O O5 0.706418 0.168385 0.350074
O O6 0.235644 0.500000 0.680943
O O7 0.918980 0.307383 0.717842
O O8 0.042180 0.290377 0.816458
O O9 0.291784 0.500000 0.315626
O O10 0.498455 0.724344 0.180975
O O11 0.362659 0.810807 0.091495
O O12 0.074476 0.000000 0.104697
O O13 0.226389 0.732141 0.001138
O O14 0.465671 0.500000 0.089227
#
# Coordination Sequence:
#
# PCOD8056806 Si02
#       6
#     2   2   4   4   4   4
#     4  10  20  32  49  67  87 117 150 188 231 266
#     4  10  20  34  49  67  89 115 152 192 227 266
#     4   9  16  28  42  60  87 118 148 180 221 268
#     4   8  16  27  41  60  86 117 148 180 218 265
#     4  10  15  19  32  55  83 117 147 174 210 261
#     4   9  15  21  31  52  82 118 148 173 210 262
#
# _framework density 21.360012999999999
#
# number of rings (size 3 to 8) (size 9 to 14) (size 15 to 20)
#    0.000    2.800    1.000    4.800    5.600    0.800 
#    0.000    0.000    0.000    0.000    0.000    0.000 
#    0.000    3.200    0.000    6.400    0.000    4.000 
#
# Total GULP energy -247795.285555 kJ/mol
# GULP energy per Si atom -12389.764278 kJ/mol
# Density = 2.131140 g / cm^3
# Si number density = 21.360013 Si / 1000 Ang^3
#
#
#
# Elastic Constant Matrix: (Units=GPa)
#
#
# Indices 1 2 3 4 5 6 
#
# 1 3.4541 1.9615 -1.3743 0.0000 -0.8679 0.0000
# 2 1.9615 196.9144 106.7970 0.0000 -0.8928 0.0000
# 3 -1.3743 106.7970 199.6050 0.0000 -7.7289 0.0000
# 4 0.0000 0.0000 0.0000 34.7480 0.0000 -1.4016
# 5 -0.8679 -0.8928 -7.7289 0.0000 15.4375 0.0000
# 6 0.0000 0.0000 0.0000 -1.4016 0.0000 2.1584
#
#
#
# Elastic Compliance Matrix: (Units=1/GPa)
#
#
# Indices 1 2 3 4 5 6 
#
# 1 0.300445 -0.006252 0.006173 0.000000 0.019621 0.000000
# 2 -0.006252 0.007320 -0.004035 0.000000 -0.001948 0.000000
# 3 0.006173 -0.004035 0.007358 0.000000 0.003798 0.000000
# 4 0.000000 0.000000 0.000000 0.029553 0.000000 0.019190
# 5 0.019621 -0.001948 0.003798 0.000000 0.067669 0.000000
# 6 0.000000 0.000000 0.000000 0.019190 0.000000 0.475767
#
#
# Mechanical properties :
#
#
# Convention : Reuss Voigt Hill
#
# Bulk Modulus (GPa) = 3.25843 68.30464 35.78153
# Shear Modulus (GPa) = 5.00681 29.97474 17.49077
#
# Velocity S-wave (km/s) = 1.53268 3.75014 2.86467
# Velocity P-wave (km/s) = 2.15892 7.12732 5.26591
#
# Compressibility (1/GPa) = 0.30689651
#
# Stress axis : x y z
#
# Youngs Moduli (GPa) = 3.32839 136.60730 135.89885
#
# Poissons Ratio (x) = 0.85407 -0.83896
# Poissons Ratio (y) = 0.02081 0.54837
# Poissons Ratio (z) = -0.02055 0.55123
#
# Static dielectric constant tensor:
#      x y z
#    x 2.827560 0.000000 0.149790 
#    y 0.000000 4.172520 0.000000 
#    z 0.149790 0.000000 2.219810 
# 
# 
# High freq. dielectric constant tensor:
#      x y z
#    x 1.736680 0.000000 -0.005750 
#    y 0.000000 1.854910 0.000000 
#    z -0.005750 0.000000 1.847240 
# 
# From -- ./inp_files/34079.got.cif
#   From: 2010.06.25/outbox.cif.g09.slc.cpg/sg10_18_cif.got.tgz:34079.got - 2010.06.27 22:07:45.
