data_PCOD8056775
_publ_section_title
;
Structure prediction by ZEFSAII (Michael W. Deem and Ramdas Pophale) SiO2 
 PCOD8056775
Probable space group: C C
;
_chemical_formula_sum "Si O2"
_cell_formula_units_Z 28
_cell_length_a 24.515403
_cell_length_b 4.721891
_cell_length_c 9.740872
_cell_angle_alpha 90.000000
_cell_angle_beta 68.577794
_cell_angle_gamma 90.000000
_cell_volume 1049.693595
_symmetry_space_group_name_H-M "C C"
_symmetry_group_IT_number 9
_symmetry_cell_setting 'monoclinic'
loop_
_space_group_symop_operation_xyz
x,y,z
x,-y,1/2+z
1/2+x,1/2+y,z
1/2+x,1/2-y,1/2+z
loop_
_atom_site_type_symbol
_atom_site_label
_atom_site_fract_x
_atom_site_fract_y
_atom_site_fract_z
Si Si1 0.744850 0.320872 0.339820
Si Si2 0.512777 0.838385 0.093917
Si Si3 0.432679 0.316223 0.179763
Si Si4 0.168130 0.894682 0.674739
Si Si5 0.817634 0.122212 0.629272
Si Si6 0.587833 0.890650 0.765172
Si Si7 0.332291 0.138331 0.435709
O O1 0.705921 0.286605 0.511287
O O2 0.709133 0.472388 0.252503
O O3 0.800083 0.535078 0.324847
O O4 0.766618 0.006837 0.274576
O O5 0.478395 0.561335 0.178522
O O6 0.543419 0.976248 0.197653
O O7 0.468088 0.068271 0.071033
O O8 0.557587 0.767966 0.930607
O O9 0.381274 0.446585 0.133789
O O10 0.401952 0.164931 0.340803
O O11 0.135540 0.622690 0.767877
O O12 0.120451 0.122985 0.666144
O O13 0.814458 0.450338 0.583953
O O14 0.811430 0.955420 0.490774
#
# Coordination Sequence:
#
# PCOD8056775 Si02
#       7
#     4   4   4   4   4   4   4
#     4  12  27  52  80 122 161 219 261 331 414 476
#     4  12  27  50  81 111 162 208 271 340 406 470
#     4  12  28  47  80 115 159 213 261 330 410 479
#     4  12  28  49  83 111 164 213 273 339 400 476
#     4  12  27  48  78 120 164 208 267 324 390 513
#     4  12  28  52  75 120 152 211 282 337 397 468
#     4  12  27  48  77 121 164 208 265 325 393 508
#
# _framework density 26.67445
#
# number of rings (size 3 to 8) (size 9 to 14) (size 15 to 20)
#    0.000    0.000    1.429    7.714    8.000    3.429 
#    0.000    0.000    0.000    0.000    0.000    0.000 
#    0.000    0.000    0.000    0.000    0.000    0.000 
#
# Total GULP energy -173600.600499 kJ/mol
# GULP energy per Si atom -12400.042893 kJ/mol
# Density = 2.661374 g / cm^3
# Si number density = 26.674450 Si / 1000 Ang^3
#
#
#
# Elastic Constant Matrix: (Units=GPa)
#
#
# Indices 1 2 3 4 5 6 
#
# 1 101.3711 28.0759 67.9510 0.0000 -19.1302 0.0000
# 2 28.0759 136.6166 51.1771 0.0000 -28.7099 0.0000
# 3 67.9510 51.1771 161.0276 0.0000 -6.2510 0.0000
# 4 0.0000 0.0000 0.0000 56.1482 0.0000 -21.8217
# 5 -19.1302 -28.7099 -6.2510 0.0000 49.5901 0.0000
# 6 0.0000 0.0000 0.0000 -21.8217 0.0000 52.3365
#
#
#
# Elastic Compliance Matrix: (Units=1/GPa)
#
#
# Indices 1 2 3 4 5 6 
#
# 1 0.014897 0.000345 -0.006195 0.000000 0.005165 0.000000
# 2 0.000345 0.009453 -0.002947 0.000000 0.005234 0.000000
# 3 -0.006195 -0.002947 0.009649 0.000000 -0.002880 0.000000
# 4 0.000000 0.000000 0.000000 0.021254 0.000000 0.008862
# 5 0.005165 0.005234 -0.002880 0.000000 0.024825 0.000000
# 6 0.000000 0.000000 0.000000 0.008862 0.000000 0.022802
#
#
# Mechanical properties :
#
#
# Convention : Reuss Voigt Hill
#
# Bulk Modulus (GPa) = 60.95839 77.04704 69.00271
# Shear Modulus (GPa) = 39.70074 48.40238 44.05156
#
# Velocity S-wave (km/s) = 3.86209 4.26439 4.06821
# Velocity P-wave (km/s) = 6.54141 7.29339 6.92761
#
# Compressibility (1/GPa) = 0.01640463
#
# Stress axis : x y z
#
# Youngs Moduli (GPa) = 67.12826 105.79075 103.63654
#
# Poissons Ratio (x) = -0.03648 0.64206
# Poissons Ratio (y) = -0.02315 0.30537
# Poissons Ratio (z) = 0.41588 0.31172
#
# Static dielectric constant tensor:
#      x y z
#    x 5.079280 0.000000 -0.279540 
#    y 0.000000 5.080550 0.000000 
#    z -0.279540 0.000000 5.044360 
# 
# 
# High freq. dielectric constant tensor:
#      x y z
#    x 2.079300 0.000000 -0.006760 
#    y 0.000000 2.091430 0.000000 
#    z -0.006760 0.000000 2.090510 
# 
# From -- ./inp_files/20449.got.cif
#   From: 2010.06.25/outbox.cif.g09.slc.cpg/sg9_11_cif.got.tgz:20449.got - 2010.06.27 21:40:51.
