data_PCOD8056148
_publ_section_title
;
Structure prediction by ZEFSAII (Michael W. Deem and Ramdas Pophale) SiO2 
 PCOD8056148
Probable space group: C C
;
_chemical_formula_sum "Si O2"
_cell_formula_units_Z 20
_cell_length_a 9.650095
_cell_length_b 16.094751
_cell_length_c 5.174427
_cell_angle_alpha 90.000000
_cell_angle_beta 78.670996
_cell_angle_gamma 90.000000
_cell_volume 788.011415
_symmetry_space_group_name_H-M "C C"
_symmetry_group_IT_number 9
_symmetry_cell_setting 'monoclinic'
loop_
_space_group_symop_operation_xyz
x,y,z
x,-y,1/2+z
1/2+x,1/2+y,z
1/2+x,1/2-y,1/2+z
loop_
_atom_site_type_symbol
_atom_site_label
_atom_site_fract_x
_atom_site_fract_y
_atom_site_fract_z
Si Si1 0.663720 0.454892 0.795520
Si Si2 0.173925 0.816370 0.146661
Si Si3 0.696081 0.944337 0.253621
Si Si4 0.392536 0.876077 0.451600
Si Si5 0.872379 0.210566 0.776142
O O1 0.603961 0.483673 0.540790
O O2 0.836535 0.443333 0.686600
O O3 0.619772 0.361984 0.901031
O O4 0.274521 0.881003 0.263998
O O5 0.028766 0.795107 0.349749
O O6 0.261874 0.734078 0.043005
O O7 0.545968 0.897743 0.290701
O O8 0.819222 0.875993 0.174052
O O9 0.713068 0.989616 0.520438
O O10 0.385154 0.781745 0.554887
#
# Coordination Sequence:
#
# PCOD8056148 Si02
#       5
#     4   4   4   4   4
#     4  11  22  42  68 108 145 189 251 318 383 452
#     4  11  26  45  80 109 157 208 276 320 393 479
#     4  12  30  52  79 119 167 208 260 335 410 469
#     4  11  25  46  80 111 153 213 264 321 390 491
#     4  11  27  49  75 119 154 216 263 334 394 481
#
# _framework density 25.380344000000001
#
# number of rings (size 3 to 8) (size 9 to 14) (size 15 to 20)
#    0.000    0.800    4.000    1.200   11.200    1.600 
#    0.000    0.000    0.000    0.000    0.000    0.000 
#    0.000    0.000    0.000    0.000    0.000    0.000 
#
# Total GULP energy -123891.037958 kJ/mol
# GULP energy per Si atom -12389.103796 kJ/mol
# Density = 2.532258 g / cm^3
# Si number density = 25.380344 Si / 1000 Ang^3
#
#
#
# Elastic Constant Matrix: (Units=GPa)
#
#
# Indices 1 2 3 4 5 6 
#
# 1 153.9599 33.4426 35.3389 0.0000 -21.5227 0.0000
# 2 33.4426 99.3140 34.8645 0.0000 -6.5884 0.0000
# 3 35.3389 34.8645 103.9730 0.0000 4.0864 0.0000
# 4 0.0000 0.0000 0.0000 45.3904 0.0000 -1.4217
# 5 -21.5227 -6.5884 4.0864 0.0000 29.7451 0.0000
# 6 0.0000 0.0000 0.0000 -1.4217 0.0000 42.2864
#
#
#
# Elastic Compliance Matrix: (Units=1/GPa)
#
#
# Indices 1 2 3 4 5 6 
#
# 1 0.008236 -0.001487 -0.002536 0.000000 0.005978 0.000000
# 2 -0.001487 0.011967 -0.003589 0.000000 0.002068 0.000000
# 3 -0.002536 -0.003589 0.011850 0.000000 -0.004258 0.000000
# 4 0.000000 0.000000 0.000000 0.022054 0.000000 0.000741
# 5 0.005978 0.002068 -0.004258 0.000000 0.038988 0.000000
# 6 0.000000 0.000000 0.000000 0.000741 0.000000 0.023673
#
#
# Mechanical properties :
#
#
# Convention : Reuss Voigt Hill
#
# Bulk Modulus (GPa) = 59.41420 62.72658 61.07039
# Shear Modulus (GPa) = 36.33705 40.39109 38.36407
#
# Velocity S-wave (km/s) = 3.78789 3.99360 3.89210
# Velocity P-wave (km/s) = 6.52619 6.78479 6.65675
#
# Compressibility (1/GPa) = 0.01683099
#
# Stress axis : x y z
#
# Youngs Moduli (GPa) = 121.41996 83.56544 84.38493
#
# Poissons Ratio (x) = 0.12422 0.21398
# Poissons Ratio (y) = 0.18050 0.30283
# Poissons Ratio (z) = 0.30789 0.29989
#
# Static dielectric constant tensor:
#      x y z
#    x 4.513550 0.000000 -0.267380 
#    y 0.000000 4.709900 0.000000 
#    z -0.267380 0.000000 4.551150 
# 
# 
# High freq. dielectric constant tensor:
#      x y z
#    x 1.995340 0.000000 -0.022570 
#    y 0.000000 2.031610 0.000000 
#    z -0.022570 0.000000 2.007710 
# 
# From -- ./inp_files/474.got.cif
#   From: 2010.06.25/outbox.cif.g09.slc.cpg/sg9_1_cif.got.tgz:474.got - 2010.06.27 21:40:51.
