data_PCOD8056542
_publ_section_title
;
Structure prediction by ZEFSAII (Michael W. Deem and Ramdas Pophale) SiO2 
 PCOD8056542
Probable space group: C C
;
_chemical_formula_sum "Si O2"
_cell_formula_units_Z 32
_cell_length_a 5.734248
_cell_length_b 18.353705
_cell_length_c 13.593730
_cell_angle_alpha 90.000000
_cell_angle_beta 118.336304
_cell_angle_gamma 90.000000
_cell_volume 1259.240744
_symmetry_space_group_name_H-M "C C"
_symmetry_group_IT_number 9
_symmetry_cell_setting 'monoclinic'
loop_
_space_group_symop_operation_xyz
x,y,z
x,-y,1/2+z
1/2+x,1/2+y,z
1/2+x,1/2-y,1/2+z
loop_
_atom_site_type_symbol
_atom_site_label
_atom_site_fract_x
_atom_site_fract_y
_atom_site_fract_z
Si Si1 0.724780 0.431725 0.701540
Si Si2 0.187871 0.031308 0.405294
Si Si3 0.667909 0.067274 0.999411
Si Si4 0.233011 0.276005 0.566177
Si Si5 0.379891 0.641956 0.472103
Si Si6 0.167396 0.458017 0.272862
Si Si7 0.707498 0.827755 0.143084
Si Si8 0.044804 0.696845 0.230225
O O1 0.787631 0.421904 0.831504
O O2 0.423645 0.454272 0.615211
O O3 0.920976 0.491662 0.693652
O O4 0.783271 0.353807 0.658897
O O5 0.095635 0.082727 0.478119
O O6 0.408075 0.974317 0.491075
O O7 0.953752 0.988352 0.300546
O O8 0.644304 0.154653 0.984844
O O9 0.697110 0.040377 0.895499
O O10 0.485451 0.232812 0.576234
O O11 0.258633 0.305666 0.684036
O O12 0.988908 0.221746 0.514652
O O13 0.253225 0.621641 0.554118
O O14 0.165817 0.653231 0.345264
O O15 0.118584 0.379412 0.214177
O O16 0.964503 0.781432 0.230123
#
# Coordination Sequence:
#
# PCOD8056542 Si02
#       8
#     4   4   4   4   4   4   4   4
#     4  11  25  50  76 110 154 208 266 323 405 479
#     4  11  27  48  74 115 154 210 261 337 397 489
#     4  11  27  46  80 108 155 209 258 332 409 471
#     4  11  27  46  76 110 145 206 260 333 394 480
#     4  11  27  47  78 110 151 207 262 326 407 475
#     4  11  28  47  74 116 155 202 264 337 392 483
#     4  11  28  47  76 116 155 203 264 336 395 477
#     4  11  25  47  74 109 145 205 267 320 395 484
#
# _framework density 25.412136
#
# number of rings (size 3 to 8) (size 9 to 14) (size 15 to 20)
#    0.000    1.000    2.500    0.750    8.750    6.000 
#    0.000    0.000    0.000    0.000    0.000    0.000 
#    0.000    0.000    0.000    0.000    0.000    0.000 
#
# Total GULP energy -198311.767173 kJ/mol
# GULP energy per Si atom -12394.485448 kJ/mol
# Density = 2.535430 g / cm^3
# Si number density = 25.412136 Si / 1000 Ang^3
#
#
#
# Elastic Constant Matrix: (Units=GPa)
#
#
# Indices 1 2 3 4 5 6 
#
# 1 120.7828 47.8267 41.1932 0.0000 -1.8483 0.0000
# 2 47.8267 133.2828 37.9524 0.0000 -2.0630 0.0000
# 3 41.1932 37.9524 90.0527 0.0000 2.7429 0.0000
# 4 0.0000 0.0000 0.0000 38.3839 0.0000 -0.5472
# 5 -1.8483 -2.0630 2.7429 0.0000 42.3977 0.0000
# 6 0.0000 0.0000 0.0000 -0.5472 0.0000 54.0720
#
#
#
# Elastic Compliance Matrix: (Units=1/GPa)
#
#
# Indices 1 2 3 4 5 6 
#
# 1 0.010649 -0.002750 -0.003730 0.000000 0.000572 0.000000
# 2 -0.002750 0.009254 -0.002657 0.000000 0.000502 0.000000
# 3 -0.003730 -0.002657 0.013967 0.000000 -0.001195 0.000000
# 4 0.000000 0.000000 0.000000 0.026056 0.000000 0.000264
# 5 0.000572 0.000502 -0.001195 0.000000 0.023713 0.000000
# 6 0.000000 0.000000 0.000000 0.000264 0.000000 0.018497
#
#
# Mechanical properties :
#
#
# Convention : Reuss Voigt Hill
#
# Bulk Modulus (GPa) = 64.12007 66.45143 65.28575
# Shear Modulus (GPa) = 39.80596 41.44711 40.62654
#
# Velocity S-wave (km/s) = 3.96209 4.04294 4.00272
# Velocity P-wave (km/s) = 6.79836 6.92821 6.86359
#
# Compressibility (1/GPa) = 0.01559574
#
# Stress axis : x y z
#
# Youngs Moduli (GPa) = 93.90431 108.05839 71.59765
#
# Poissons Ratio (x) = 0.29721 0.26702
# Poissons Ratio (y) = 0.25828 0.19026
# Poissons Ratio (z) = 0.35022 0.28714
#
# Static dielectric constant tensor:
#      x y z
#    x 4.895450 0.000000 0.014890 
#    y 0.000000 4.796110 0.000000 
#    z 0.014890 0.000000 4.373270 
# 
# 
# High freq. dielectric constant tensor:
#      x y z
#    x 2.025910 0.000000 -0.000980 
#    y 0.000000 2.027200 0.000000 
#    z -0.000980 0.000000 2.004710 
# 
# From -- ./inp_files/22114.got.cif
#   From: 2010.06.25/outbox.cif.g09.slc.cpg/sg9_12_cif.got.tgz:22114.got - 2010.06.27 21:40:51.
