data_PCOD8056406
_publ_section_title
;
Structure prediction by ZEFSAII (Michael W. Deem and Ramdas Pophale) SiO2 
 PCOD8056406
Probable space group: C C
;
_chemical_formula_sum "Si O2"
_cell_formula_units_Z 24
_cell_length_a 13.662198
_cell_length_b 18.038658
_cell_length_c 11.764046
_cell_angle_alpha 90.000000
_cell_angle_beta 158.954404
_cell_angle_gamma 90.000000
_cell_volume 1041.141974
_symmetry_space_group_name_H-M "C C"
_symmetry_group_IT_number 9
_symmetry_cell_setting 'monoclinic'
loop_
_space_group_symop_operation_xyz
x,y,z
x,-y,1/2+z
1/2+x,1/2+y,z
1/2+x,1/2-y,1/2+z
loop_
_atom_site_type_symbol
_atom_site_label
_atom_site_fract_x
_atom_site_fract_y
_atom_site_fract_z
Si Si1 0.651100 0.797649 0.198920
Si Si2 0.778026 0.424905 0.796991
Si Si3 0.004382 0.878362 0.734670
Si Si4 0.716563 0.701192 0.674214
Si Si5 0.414613 0.925528 0.549409
Si Si6 0.965846 0.042317 0.744214
O O1 0.932910 0.768935 0.448906
O O2 0.747267 0.823003 0.430967
O O3 0.512716 0.871708 0.996595
O O4 0.668828 0.389731 0.795433
O O5 0.524522 0.431941 0.436104
O O6 0.910735 0.505744 0.957464
O O7 0.885595 0.955321 0.654441
O O8 0.208572 0.843060 0.047074
O O9 0.416424 0.729131 0.380952
O O10 0.815249 0.648378 0.881581
O O11 0.234334 0.944550 0.462352
O O12 0.719308 0.910688 0.924361
#
# Coordination Sequence:
#
# PCOD8056406 Si02
#       6
#     4   4   4   4   4   4
#     4  12  24  41  65 101 142 175 222 285 356 408
#     4  11  25  46  72 104 144 183 238 287 348 415
#     4  11  24  44  73 107 139 179 232 301 351 408
#     4  12  27  46  74 105 144 183 231 295 353 412
#     4  11  25  47  70 105 141 187 240 278 345 425
#     4  11  25  44  76 102 138 185 239 288 341 416
#
# _framework density 23.051611000000001
#
# number of rings (size 3 to 8) (size 9 to 14) (size 15 to 20)
#    0.000    0.667    5.000    2.000    4.667    0.000 
#    0.000    5.000    0.000    0.000    0.000    0.000 
#    0.000    0.000    0.000    0.000    0.000    0.000 
#
# Total GULP energy -148778.051972 kJ/mol
# GULP energy per Si atom -12398.170998 kJ/mol
# Density = 2.299914 g / cm^3
# Si number density = 23.051611 Si / 1000 Ang^3
#
#
#
# Elastic Constant Matrix: (Units=GPa)
#
#
# Indices 1 2 3 4 5 6 
#
# 1 45.8235 16.3030 19.6811 0.0038 -5.7702 -0.0006
# 2 16.3030 72.3310 22.2912 0.0039 -6.7573 -0.0011
# 3 19.6811 22.2912 140.4666 0.0101 -11.5541 -0.0015
# 4 0.0038 0.0039 0.0101 59.6520 0.0029 -4.0235
# 5 -5.7702 -6.7573 -11.5541 0.0029 38.5008 -0.0001
# 6 -0.0006 -0.0011 -0.0015 -4.0235 -0.0001 24.5600
#
#
#
# Elastic Compliance Matrix: (Units=1/GPa)
#
#
# Indices 1 2 3 4 5 6 
#
# 1 0.024836 -0.004605 -0.002573 -0.000001 0.002142 0.000000
# 2 -0.004605 0.015528 -0.001693 0.000000 0.001527 0.000000
# 3 -0.002573 -0.001693 0.007887 -0.000001 0.001684 0.000000
# 4 -0.000001 0.000000 -0.000001 0.016951 -0.000002 0.002777
# 5 0.002142 0.001527 0.001684 -0.000002 0.027068 0.000000
# 6 0.000000 0.000000 0.000000 0.002777 0.000000 0.041172
#
#
# Mechanical properties :
#
#
# Convention : Reuss Voigt Hill
#
# Bulk Modulus (GPa) = 32.77793 41.68577 37.23185
# Shear Modulus (GPa) = 30.98798 37.89893 34.44346
#
# Velocity S-wave (km/s) = 3.67043 4.05914 3.86967
# Velocity P-wave (km/s) = 5.67565 6.33180 6.01268
#
# Compressibility (1/GPa) = 0.03050833
#
# Stress axis : x y z
#
# Youngs Moduli (GPa) = 40.26427 64.40078 126.79304
#
# Poissons Ratio (x) = 0.29656 0.32622
# Poissons Ratio (y) = 0.18541 0.21471
# Poissons Ratio (z) = 0.10359 0.10905
#
# Static dielectric constant tensor:
#      x y z
#    x 3.683540 0.000000 -0.040010 
#    y 0.000000 4.393980 -0.000020 
#    z -0.040010 -0.000020 4.340000 
# 
# 
# High freq. dielectric constant tensor:
#      x y z
#    x 1.874230 0.000000 0.002590 
#    y 0.000000 1.921800 0.000000 
#    z 0.002590 0.000000 1.932180 
# 
# From -- ./inp_files/18518.got.cif
#   From: 2010.06.25/outbox.cif.g09.slc.cpg/sg9_10_cif.got.tgz:18518.got - 2010.06.27 21:40:51.
