data_PCOD8056828
_publ_section_title
;
Structure prediction by ZEFSAII (Michael W. Deem and Ramdas Pophale) SiO2 
 PCOD8056828
Probable space group: P 2/M
;
_chemical_formula_sum "Si O2"
_cell_formula_units_Z 28
_cell_length_a 20.857453
_cell_length_b 8.875674
_cell_length_c 18.500507
_cell_angle_alpha 90.000000
_cell_angle_beta 26.558488
_cell_angle_gamma 90.000000
_cell_volume 1531.305117
_symmetry_space_group_name_H-M "P 2/M"
_symmetry_group_IT_number 10
_symmetry_cell_setting 'monoclinic'
loop_
_space_group_symop_operation_xyz
x,y,z
-x,y,-z
-x,-y,-z
x,-y,z
loop_
_atom_site_type_symbol
_atom_site_label
_atom_site_fract_x
_atom_site_fract_y
_atom_site_fract_z
Si Si1 0.336991 0.821173 0.592763
Si Si2 0.161407 0.820413 0.340416
Si Si3 0.323984 0.329354 0.462272
Si Si4 0.670135 0.178677 0.689118
Si Si5 0.665223 0.667341 0.108874
Si Si6 0.648587 0.321582 0.281404
Si Si7 0.655504 0.177072 0.976996
O O1 0.263341 0.759360 0.593587
O O2 0.263082 0.744651 0.738842
O O3 0.501274 0.770444 0.427420
O O4 0.321823 0.000000 0.611364
O O5 0.234779 0.763704 0.340052
O O6 0.249107 0.753791 0.183727
O O7 0.000000 0.757454 0.500000
O O8 0.162739 0.000000 0.336717
O O9 0.267624 0.500000 0.522352
O O10 0.265025 0.251306 0.448942
O O11 0.494957 0.321907 0.289384
O O12 0.674527 0.000000 0.675934
O O13 0.507458 0.235112 0.867101
O O14 0.711870 0.500000 0.039189
O O15 0.730976 0.708774 0.121840
O O16 0.720171 0.776131 0.989850
O O17 0.618050 0.500000 0.320997
O O18 0.660521 0.000000 0.966734
#
# Coordination Sequence:
#
# PCOD8056828 Si02
#       7
#     4   4   4   4   4   4   4
#     4  10  16  21  32  52  78 109 144 178 212 250
#     4   9  17  29  45  65  88 112 138 172 217 263
#     4   9  16  26  38  54  79 110 142 175 214 257
#     4   9  16  27  44  64  84 108 143 182 213 247
#     4   8  15  25  37  54  78 109 142 175 211 251
#     4   9  15  23  33  48  76 113 146 174 211 256
#     4   9  16  26  43  64  84 109 143 180 213 248
#
# _framework density 18.285056000000001
#
# number of rings (size 3 to 8) (size 9 to 14) (size 15 to 20)
#    0.000    3.000    0.000    4.286    0.000    5.714 
#    0.000    0.714    0.000    5.143    0.000    0.000 
#    0.000    1.143    0.000   13.143    0.000   13.571 
#
# Total GULP energy -346939.469801 kJ/mol
# GULP energy per Si atom -12390.695350 kJ/mol
# Density = 1.824344 g / cm^3
# Si number density = 18.285056 Si / 1000 Ang^3
#
#
#
# Elastic Constant Matrix: (Units=GPa)
#
#
# Indices 1 2 3 4 5 6 
#
# 1 151.3577 42.9707 74.1366 0.0000 51.3214 0.0000
# 2 42.9707 61.2556 23.2981 0.0000 13.2447 0.0000
# 3 74.1366 23.2981 50.0515 0.0000 17.3511 0.0000
# 4 0.0000 0.0000 0.0000 10.0659 0.0000 9.3852
# 5 51.3214 13.2447 17.3511 0.0000 28.3080 0.0000
# 6 0.0000 0.0000 0.0000 9.3852 0.0000 21.1163
#
#
#
# Elastic Compliance Matrix: (Units=1/GPa)
#
#
# Indices 1 2 3 4 5 6 
#
# 1 0.083533 -0.004280 -0.088800 0.000000 -0.095010 0.000000
# 2 -0.004280 0.020539 -0.003275 0.000000 0.000158 0.000000
# 3 -0.088800 -0.003275 0.122784 0.000000 0.087265 0.000000
# 4 0.000000 0.000000 0.000000 0.169646 0.000000 -0.075400
# 5 -0.095010 0.000158 0.087265 0.000000 0.154014 0.000000
# 6 0.000000 0.000000 0.000000 -0.075400 0.000000 0.080868
#
#
# Mechanical properties :
#
#
# Convention : Reuss Voigt Hill
#
# Bulk Modulus (GPa) = 29.28760 60.38618 44.83689
# Shear Modulus (GPa) = 5.98460 20.04865 13.01663
#
# Velocity S-wave (km/s) = 1.81109 3.31486 2.67099
# Velocity P-wave (km/s) = 4.51945 6.90997 5.83837
#
# Compressibility (1/GPa) = 0.03414414
#
# Stress axis : x y z
#
# Youngs Moduli (GPa) = 11.97134 48.68710 8.14440
#
# Poissons Ratio (x) = 0.20840 0.72322
# Poissons Ratio (y) = 0.05124 0.02667
# Poissons Ratio (z) = 1.06306 0.15946
#
# Static dielectric constant tensor:
#      x y z
#    x 3.857060 0.000000 0.644780 
#    y 0.000000 3.183180 0.000000 
#    z 0.644780 0.000000 3.145240 
# 
# 
# High freq. dielectric constant tensor:
#      x y z
#    x 1.713280 0.000000 0.052320 
#    y 0.000000 1.693420 0.000000 
#    z 0.052320 0.000000 1.651140 
# 
# From -- ./inp_files/79224.got.cif
#   From: 2010.06.25/outbox.cif.g09.slc.cpg/sg10_40_cif.got.tgz:79224.got - 2010.06.27 22:07:45.
