data_PCOD8056279
_publ_section_title
;
Structure prediction by ZEFSAII (Michael W. Deem and Ramdas Pophale) SiO2 
 PCOD8056279
Probable space group: C C
;
_chemical_formula_sum "Si O2"
_cell_formula_units_Z 24
_cell_length_a 4.961544
_cell_length_b 19.219819
_cell_length_c 10.645287
_cell_angle_alpha 90.000000
_cell_angle_beta 95.711087
_cell_angle_gamma 90.000000
_cell_volume 1010.095541
_symmetry_space_group_name_H-M "C C"
_symmetry_group_IT_number 9
_symmetry_cell_setting 'monoclinic'
loop_
_space_group_symop_operation_xyz
x,y,z
x,-y,1/2+z
1/2+x,1/2+y,z
1/2+x,1/2-y,1/2+z
loop_
_atom_site_type_symbol
_atom_site_label
_atom_site_fract_x
_atom_site_fract_y
_atom_site_fract_z
Si Si1 0.692610 0.487096 0.287370
Si Si2 0.230233 0.664873 0.414955
Si Si3 0.868874 0.976537 0.027665
Si Si4 0.597852 0.311255 0.502980
Si Si5 0.711802 0.355704 0.766258
Si Si6 0.597097 0.102699 0.937654
O O1 0.539604 0.493380 0.415029
O O2 0.763872 0.563512 0.245979
O O3 0.962626 0.438914 0.313169
O O4 0.525264 0.455288 0.162016
O O5 0.187886 0.591105 0.484289
O O6 0.153469 0.729479 0.498192
O O7 0.540236 0.664224 0.382700
O O8 0.015144 0.673864 0.291729
O O9 0.676116 0.043311 0.044683
O O10 0.536487 0.323774 0.646002
O O11 0.352488 0.346756 0.411029
O O12 0.878082 0.347383 0.485713
#
# Coordination Sequence:
#
# PCOD8056279 Si02
#       6
#     4   4   4   4   4   4
#     4  11  23  45  74 114 138 192 245 306 358 428
#     4  11  26  47  68 108 143 192 242 299 366 433
#     4  11  25  45  77 106 147 188 246 303 360 434
#     4  12  26  46  72 107 146 191 241 300 372 435
#     4  11  23  44  76  98 149 191 239 303 372 427
#     4  12  23  45  73 107 139 190 241 295 358 439
#
# _framework density 23.760128000000002
#
# number of rings (size 3 to 8) (size 9 to 14) (size 15 to 20)
#    0.000    0.667    5.000    2.000    2.333    2.667 
#    3.000    1.667    0.000    0.000    0.000    0.000 
#    0.000    0.000    0.000    0.000    0.000    0.000 
#
# Total GULP energy -148665.041700 kJ/mol
# GULP energy per Si atom -12388.753475 kJ/mol
# Density = 2.370605 g / cm^3
# Si number density = 23.760128 Si / 1000 Ang^3
#
#
#
# Elastic Constant Matrix: (Units=GPa)
#
#
# Indices 1 2 3 4 5 6 
#
# 1 111.6234 50.8391 29.7444 0.0000 23.0476 0.0000
# 2 50.8391 150.4042 18.4132 0.0000 -0.0874 0.0000
# 3 29.7444 18.4132 109.3317 0.0000 18.9411 0.0000
# 4 0.0000 0.0000 0.0000 24.0447 0.0000 5.8199
# 5 23.0476 -0.0874 18.9411 0.0000 34.2975 0.0000
# 6 0.0000 0.0000 0.0000 5.8199 0.0000 45.1900
#
#
#
# Elastic Compliance Matrix: (Units=1/GPa)
#
#
# Indices 1 2 3 4 5 6 
#
# 1 0.012868 -0.004179 -0.001434 0.000000 -0.007866 0.000000
# 2 -0.004179 0.008162 -0.000805 0.000000 0.003273 0.000000
# 3 -0.001434 -0.000805 0.010511 0.000000 -0.004843 0.000000
# 4 0.000000 0.000000 0.000000 0.042927 0.000000 -0.005529
# 5 -0.007866 0.003273 -0.004843 0.000000 0.037125 0.000000
# 6 0.000000 0.000000 0.000000 -0.005529 0.000000 0.022841
#
#
# Mechanical properties :
#
#
# Convention : Reuss Voigt Hill
#
# Bulk Modulus (GPa) = 53.46042 63.26140 58.36091
# Shear Modulus (GPa) = 32.57213 38.86394 35.71803
#
# Velocity S-wave (km/s) = 3.70655 4.04874 3.88142
# Velocity P-wave (km/s) = 6.39272 6.96701 6.68603
#
# Compressibility (1/GPa) = 0.01870543
#
# Stress axis : x y z
#
# Youngs Moduli (GPa) = 77.71098 122.52469 95.13572
#
# Poissons Ratio (x) = 0.51198 0.13647
# Poissons Ratio (y) = 0.32472 0.07656
# Poissons Ratio (z) = 0.11147 0.09861
#
# Static dielectric constant tensor:
#      x y z
#    x 4.274370 0.000000 0.276450 
#    y 0.000000 4.562330 0.000000 
#    z 0.276450 0.000000 4.431050 
# 
# 
# High freq. dielectric constant tensor:
#      x y z
#    x 1.944840 0.000000 0.023090 
#    y 0.000000 1.948220 0.000000 
#    z 0.023090 0.000000 1.922060 
# 
# From -- ./inp_files/12992.got.cif
#   From: 2010.06.25/outbox.cif.g09.slc.cpg/sg9_7_cif.got.tgz:12992.got - 2010.06.27 21:40:51.
