data_PCOD8056303
_publ_section_title
;
Structure prediction by ZEFSAII (Michael W. Deem and Ramdas Pophale) SiO2 
 PCOD8056303
Probable space group: C C
;
_chemical_formula_sum "Si O2"
_cell_formula_units_Z 24
_cell_length_a 9.069427
_cell_length_b 15.199354
_cell_length_c 6.828889
_cell_angle_alpha 90.000000
_cell_angle_beta 113.323310
_cell_angle_gamma 90.000000
_cell_volume 864.435720
_symmetry_space_group_name_H-M "C C"
_symmetry_group_IT_number 9
_symmetry_cell_setting 'monoclinic'
loop_
_space_group_symop_operation_xyz
x,y,z
x,-y,1/2+z
1/2+x,1/2+y,z
1/2+x,1/2-y,1/2+z
loop_
_atom_site_type_symbol
_atom_site_label
_atom_site_fract_x
_atom_site_fract_y
_atom_site_fract_z
Si Si1 0.980110 0.442214 0.984580
Si Si2 0.489698 0.804938 0.327575
Si Si3 0.167734 0.590741 0.216488
Si Si4 0.088942 0.115551 0.258308
Si Si5 0.763295 0.606246 0.972488
Si Si6 0.989162 0.940550 0.086483
O O1 0.751748 0.383111 0.708667
O O2 0.842692 0.517715 0.923468
O O3 0.950164 0.367009 0.124769
O O4 0.152570 0.492466 0.115360
O O5 0.647509 0.836236 0.534076
O O6 0.511652 0.710593 0.242088
O O7 0.342413 0.808996 0.406787
O O8 0.330045 0.607833 0.422524
O O9 0.008662 0.597128 0.277918
O O10 0.128406 0.075200 0.493549
O O11 0.957419 0.045025 0.103536
O O12 0.570826 0.604831 0.819110
#
# Coordination Sequence:
#
# PCOD8056303 Si02
#       6
#     4   4   4   4   4   4
#     4  11  23  45  81 113 153 213 262 329 407 483
#     4  11  28  47  76 120 156 206 276 332 397 484
#     4  11  24  47  78 113 163 210 263 330 407 485
#     4  12  28  47  79 117 160 212 269 337 406 476
#     4  11  26  50  83 115 158 211 273 331 409 487
#     4  12  27  48  77 114 158 214 263 329 416 475
#
# _framework density 27.763777999999999
#
# number of rings (size 3 to 8) (size 9 to 14) (size 15 to 20)
#    0.000    0.667    5.000    2.000    2.333    4.000 
#    0.000    0.000    0.000    0.000    0.000    0.000 
#    0.000    0.000    0.000    0.000    0.000    0.000 
#
# Total GULP energy -148678.197882 kJ/mol
# GULP energy per Si atom -12389.849824 kJ/mol
# Density = 2.770059 g / cm^3
# Si number density = 27.763778 Si / 1000 Ang^3
#
#
#
# Elastic Constant Matrix: (Units=GPa)
#
#
# Indices 1 2 3 4 5 6 
#
# 1 107.1914 55.6393 26.0897 0.0000 -24.2405 0.0000
# 2 55.6393 156.7095 31.5996 0.0000 -7.7184 0.0000
# 3 26.0897 31.5996 97.4538 0.0000 -8.3293 0.0000
# 4 0.0000 0.0000 0.0000 33.4759 0.0000 -17.3276
# 5 -24.2405 -7.7184 -8.3293 0.0000 59.9205 0.0000
# 6 0.0000 0.0000 0.0000 -17.3276 0.0000 42.5403
#
#
#
# Elastic Compliance Matrix: (Units=1/GPa)
#
#
# Indices 1 2 3 4 5 6 
#
# 1 0.012826 -0.003980 -0.001765 0.000000 0.004431 0.000000
# 2 -0.003980 0.008082 -0.001623 0.000000 -0.000795 0.000000
# 3 -0.001765 -0.001623 0.011316 0.000000 0.000650 0.000000
# 4 0.000000 0.000000 0.000000 0.037853 0.000000 0.015418
# 5 0.004431 -0.000795 0.000650 0.000000 0.018469 0.000000
# 6 0.000000 0.000000 0.000000 0.015418 0.000000 0.029787
#
#
# Mechanical properties :
#
#
# Convention : Reuss Voigt Hill
#
# Bulk Modulus (GPa) = 57.17875 65.33467 61.25671
# Shear Modulus (GPa) = 35.99730 43.72241 39.85985
#
# Velocity S-wave (km/s) = 3.60468 3.97268 3.79315
# Velocity P-wave (km/s) = 6.16152 6.68030 6.42615
#
# Compressibility (1/GPa) = 0.01748901
#
# Stress axis : x y z
#
# Youngs Moduli (GPa) = 77.96379 123.72444 88.37392
#
# Poissons Ratio (x) = 0.49242 0.15595
# Poissons Ratio (y) = 0.31029 0.14345
# Poissons Ratio (z) = 0.13758 0.20083
#
# Static dielectric constant tensor:
#      x y z
#    x 5.641500 0.000000 -0.324620 
#    y 0.000000 4.749160 0.000000 
#    z -0.324620 0.000000 5.388040 
# 
# 
# High freq. dielectric constant tensor:
#      x y z
#    x 2.143300 0.000000 -0.011530 
#    y 0.000000 2.081350 0.000000 
#    z -0.011530 0.000000 2.153340 
# 
# From -- ./inp_files/18225.got.cif
#   From: 2010.06.25/outbox.cif.g09.slc.cpg/sg9_10_cif.got.tgz:18225.got - 2010.06.27 21:40:51.
