data_PCOD8056350
_publ_section_title
;
Structure prediction by ZEFSAII (Michael W. Deem and Ramdas Pophale) SiO2 
 PCOD8056350
Probable space group: C C
;
_chemical_formula_sum "Si O2"
_cell_formula_units_Z 32
_cell_length_a 11.949291
_cell_length_b 9.417600
_cell_length_c 13.641496
_cell_angle_alpha 90.000000
_cell_angle_beta 65.117891
_cell_angle_gamma 90.000000
_cell_volume 1392.629731
_symmetry_space_group_name_H-M "C C"
_symmetry_group_IT_number 9
_symmetry_cell_setting 'monoclinic'
loop_
_space_group_symop_operation_xyz
x,y,z
x,-y,1/2+z
1/2+x,1/2+y,z
1/2+x,1/2-y,1/2+z
loop_
_atom_site_type_symbol
_atom_site_label
_atom_site_fract_x
_atom_site_fract_y
_atom_site_fract_z
Si Si1 0.464680 0.769237 0.016980
Si Si2 0.190895 0.307689 0.598639
Si Si3 0.507861 0.504263 0.387775
Si Si4 0.356581 0.297339 0.061291
Si Si5 0.595224 0.113168 0.657742
Si Si6 0.456424 0.674509 0.732995
Si Si7 0.196336 0.232899 0.383000
Si Si8 0.500896 0.060033 0.898970
O O1 0.325329 0.720994 0.093600
O O2 0.523847 0.807534 0.098362
O O3 0.534789 0.639251 0.938641
O O4 0.476308 0.898097 0.935832
O O5 0.160442 0.472329 0.592105
O O6 0.179628 0.214362 0.504643
O O7 0.084492 0.253786 0.710966
O O8 0.384647 0.580751 0.471986
O O9 0.468988 0.471669 0.289335
O O10 0.626959 0.606315 0.350618
O O11 0.212559 0.287655 0.145559
O O12 0.439914 0.344822 0.123089
O O13 0.399151 0.148839 0.997702
O O14 0.498057 0.084130 0.781769
O O15 0.341770 0.771074 0.809721
O O16 0.138338 0.386144 0.376201
#
# Coordination Sequence:
#
# PCOD8056350 Si02
#       8
#     4   4   4   4   4   4   4   4
#     4  12  26  47  73 109 150 194 251 307 365 444
#     4  12  25  49  72 103 156 199 234 316 379 438
#     4  11  25  44  73 113 142 193 253 306 364 453
#     4  11  24  47  73 104 152 191 244 312 375 440
#     4  12  25  47  74 106 152 198 245 309 381 436
#     4  12  23  46  78 102 146 202 239 302 384 442
#     4  11  23  48  76 104 151 197 243 304 384 439
#     4  11  25  48  73 109 143 198 247 304 374 448
#
# _framework density 22.978110000000001
#
# number of rings (size 3 to 8) (size 9 to 14) (size 15 to 20)
#    0.000    0.500    7.500    0.750    0.000    5.000 
#    4.500    0.000    0.000    0.000    0.000    0.000 
#    0.000    0.000    0.000    0.000    0.000    0.000 
#
# Total GULP energy -198294.376715 kJ/mol
# GULP energy per Si atom -12393.398545 kJ/mol
# Density = 2.292581 g / cm^3
# Si number density = 22.978110 Si / 1000 Ang^3
#
#
#
# Elastic Constant Matrix: (Units=GPa)
#
#
# Indices 1 2 3 4 5 6 
#
# 1 126.2588 35.0976 34.1294 0.0000 -11.2724 0.0000
# 2 35.0976 109.3080 23.1514 0.0000 -7.7465 0.0000
# 3 34.1294 23.1514 90.5196 0.0000 -11.8491 0.0000
# 4 0.0000 0.0000 0.0000 28.8227 0.0000 0.1442
# 5 -11.2724 -7.7465 -11.8491 0.0000 45.0639 0.0000
# 6 0.0000 0.0000 0.0000 0.1442 0.0000 37.8497
#
#
#
# Elastic Compliance Matrix: (Units=1/GPa)
#
#
# Indices 1 2 3 4 5 6 
#
# 1 0.009439 -0.002352 -0.002798 0.000000 0.001221 0.000000
# 2 -0.002352 0.010306 -0.001651 0.000000 0.000749 0.000000
# 3 -0.002798 -0.001651 0.012838 0.000000 0.002392 0.000000
# 4 0.000000 0.000000 0.000000 0.034695 0.000000 -0.000132
# 5 0.001221 0.000749 0.002392 0.000000 0.023254 0.000000
# 6 0.000000 0.000000 0.000000 -0.000132 0.000000 0.026421
#
#
# Mechanical properties :
#
#
# Convention : Reuss Voigt Hill
#
# Bulk Modulus (GPa) = 52.68129 56.76036 54.72082
# Shear Modulus (GPa) = 36.52784 37.92780 37.22782
#
# Velocity S-wave (km/s) = 3.99140 4.06717 4.02947
# Velocity P-wave (km/s) = 6.64968 6.84189 6.74647
#
# Compressibility (1/GPa) = 0.01898207
#
# Stress axis : x y z
#
# Youngs Moduli (GPa) = 105.94060 97.02702 77.89648
#
# Poissons Ratio (x) = 0.22818 0.21792
# Poissons Ratio (y) = 0.24915 0.12862
# Poissons Ratio (z) = 0.29638 0.16021
#
# Static dielectric constant tensor:
#      x y z
#    x 4.162010 0.000000 -0.064060 
#    y 0.000000 4.065830 0.000000 
#    z -0.064060 0.000000 4.315390 
# 
# 
# High freq. dielectric constant tensor:
#      x y z
#    x 1.902110 0.000000 -0.003940 
#    y 0.000000 1.898250 0.000000 
#    z -0.003940 0.000000 1.924090 
# 
# From -- ./inp_files/24343.got.cif
#   From: 2010.06.25/outbox.cif.g09.slc.cpg/sg9_13_cif.got.tgz:24343.got - 2010.06.27 21:40:51.
