data_PCOD8056403
_publ_section_title
;
Structure prediction by ZEFSAII (Michael W. Deem and Ramdas Pophale) SiO2 
 PCOD8056403
Probable space group: C C
;
_chemical_formula_sum "Si O2"
_cell_formula_units_Z 32
_cell_length_a 8.475389
_cell_length_b 18.260108
_cell_length_c 14.278378
_cell_angle_alpha 90.000000
_cell_angle_beta 138.417031
_cell_angle_gamma 90.000000
_cell_volume 1466.615359
_symmetry_space_group_name_H-M "C C"
_symmetry_group_IT_number 9
_symmetry_cell_setting 'monoclinic'
loop_
_space_group_symop_operation_xyz
x,y,z
x,-y,1/2+z
1/2+x,1/2+y,z
1/2+x,1/2-y,1/2+z
loop_
_atom_site_type_symbol
_atom_site_label
_atom_site_fract_x
_atom_site_fract_y
_atom_site_fract_z
Si Si1 0.185170 0.366515 0.642600
Si Si2 0.131713 0.893294 0.717144
Si Si3 0.026490 0.383263 0.159326
Si Si4 0.975641 0.116313 0.451360
Si Si5 0.846005 0.752765 0.247949
Si Si6 0.310361 0.468219 0.441042
Si Si7 0.352859 0.740672 0.530257
Si Si8 0.009607 0.512481 0.482922
O O1 0.418445 0.363371 0.684143
O O2 0.271176 0.363059 0.787382
O O3 0.044932 0.291852 0.564855
O O4 0.009832 0.434496 0.537794
O O5 0.315506 0.829156 0.775358
O O6 0.256164 0.961560 0.827121
O O7 0.019945 0.915115 0.567897
O O8 0.150504 0.304651 0.208532
O O9 0.117117 0.426159 0.291817
O O10 0.745015 0.368224 0.038918
O O11 0.095743 0.427512 0.096359
O O12 0.907510 0.159263 0.516022
O O13 0.952855 0.029434 0.448632
O O14 0.846833 0.758647 0.137973
O O15 0.105295 0.777157 0.392721
O O16 0.188886 0.506592 0.476232
#
# Coordination Sequence:
#
# PCOD8056403 Si02
#       8
#     4   4   4   4   4   4   4   4
#     4  11  25  46  70 103 141 183 233 288 349 419
#     4  11  24  47  69 102 145 181 229 292 349 416
#     4  12  25  44  74 104 138 191 234 284 357 418
#     4  12  24  47  70 103 146 179 234 293 346 418
#     4  12  26  46  70 104 140 185 235 290 347 427
#     4  11  25  43  71 106 138 183 232 290 350 421
#     4  12  27  45  72 100 142 186 232 290 355 412
#     4  11  24  44  72 102 140 186 231 283 355 419
#
# _framework density 21.818947000000001
#
# number of rings (size 3 to 8) (size 9 to 14) (size 15 to 20)
#    0.000    0.500    3.750    4.500    0.000    7.000 
#    6.750    0.000    0.000    0.000    0.000    0.000 
#    0.000    0.000    0.000    0.000    0.000    0.000 
#
# Total GULP energy -198380.955033 kJ/mol
# GULP energy per Si atom -12398.809690 kJ/mol
# Density = 2.176929 g / cm^3
# Si number density = 21.818947 Si / 1000 Ang^3
#
#
#
# Elastic Constant Matrix: (Units=GPa)
#
#
# Indices 1 2 3 4 5 6 
#
# 1 77.3743 49.0345 55.9007 -0.0004 13.4592 0.0002
# 2 49.0345 92.3251 34.1023 0.0015 -1.6435 -0.0001
# 3 55.9007 34.1023 138.9922 0.0024 -10.9888 -0.0011
# 4 -0.0004 0.0015 0.0024 6.4983 0.0015 2.8995
# 5 13.4592 -1.6435 -10.9888 0.0015 34.4498 -0.0004
# 6 0.0002 -0.0001 -0.0011 2.8995 -0.0004 41.2041
#
#
#
# Elastic Compliance Matrix: (Units=1/GPa)
#
#
# Indices 1 2 3 4 5 6 
#
# 1 0.032282 -0.013370 -0.011029 0.000014 -0.016768 -0.000002
# 2 -0.013370 0.017453 0.001615 -0.000007 0.006571 0.000001
# 3 -0.011029 0.001615 0.011880 -0.000008 0.008175 0.000001
# 4 0.000014 -0.000007 -0.000008 0.158876 -0.000015 -0.011180
# 5 -0.016768 0.006571 0.008175 -0.000015 0.038500 0.000002
# 6 -0.000002 0.000001 0.000001 -0.011180 0.000002 0.025056
#
#
# Mechanical properties :
#
#
# Convention : Reuss Voigt Hill
#
# Bulk Modulus (GPa) = 62.31655 65.19630 63.75643
# Shear Modulus (GPa) = 14.92700 27.74070 21.33385
#
# Velocity S-wave (km/s) = 2.61843 3.56954 3.13032
# Velocity P-wave (km/s) = 6.14527 6.85086 6.50763
#
# Compressibility (1/GPa) = 0.01604710
#
# Stress axis : x y z
#
# Youngs Moduli (GPa) = 30.97727 57.29768 84.17230
#
# Poissons Ratio (x) = 0.76606 0.92830
# Poissons Ratio (y) = 0.41416 -0.13591
# Poissons Ratio (z) = 0.34164 -0.09251
#
# Static dielectric constant tensor:
#      x y z
#    x 3.812710 0.000000 -0.149530 
#    y 0.000000 4.034580 0.000000 
#    z -0.149530 0.000000 4.458860 
# 
# 
# High freq. dielectric constant tensor:
#      x y z
#    x 1.863030 0.000000 -0.003140 
#    y 0.000000 1.860250 0.000000 
#    z -0.003140 0.000000 1.875230 
# 
# From -- ./inp_files/14806.got.cif
#   From: 2010.06.25/outbox.cif.g09.slc.cpg/sg9_8_cif.got.tgz:14806.got - 2010.06.27 21:40:51.
