data_PCOD8056302
_publ_section_title
;
Structure prediction by ZEFSAII (Michael W. Deem and Ramdas Pophale) SiO2 
 PCOD8056302
Probable space group: C C
;
_chemical_formula_sum "Si O2"
_cell_formula_units_Z 28
_cell_length_a 8.779801
_cell_length_b 11.113461
_cell_length_c 13.980354
_cell_angle_alpha 90.000000
_cell_angle_beta 115.106529
_cell_angle_gamma 90.000000
_cell_volume 1235.237409
_symmetry_space_group_name_H-M "C C"
_symmetry_group_IT_number 9
_symmetry_cell_setting 'monoclinic'
loop_
_space_group_symop_operation_xyz
x,y,z
x,-y,1/2+z
1/2+x,1/2+y,z
1/2+x,1/2-y,1/2+z
loop_
_atom_site_type_symbol
_atom_site_label
_atom_site_fract_x
_atom_site_fract_y
_atom_site_fract_z
Si Si1 0.737580 0.590941 0.652920
Si Si2 0.000870 0.250778 0.477650
Si Si3 0.003570 0.398452 0.736366
Si Si4 0.640814 0.000126 0.468093
Si Si5 0.843043 0.816229 0.754321
Si Si6 0.253953 0.270271 0.083528
Si Si7 0.476959 0.604142 0.088698
O O1 0.676536 0.692307 0.560120
O O2 0.888972 0.503997 0.658971
O O3 0.803927 0.673102 0.757119
O O4 0.577115 0.516301 0.643454
O O5 0.965551 0.165295 0.376532
O O6 0.839356 0.241980 0.502780
O O7 0.019115 0.393767 0.468708
O O8 0.893471 0.273504 0.699789
O O9 0.053094 0.425240 0.858992
O O10 0.169608 0.391348 0.714922
O O11 0.689128 0.090825 0.569401
O O12 0.814576 0.933975 0.483105
O O13 0.936303 0.837393 0.679805
O O14 0.086894 0.190093 0.050667
#
# Coordination Sequence:
#
# PCOD8056302 Si02
#       7
#     4   4   4   4   4   4   4
#     4  11  23  47  67 106 143 180 245 293 363 433
#     4  12  24  48  75 102 154 187 236 306 372 423
#     4  11  23  45  77 101 141 190 240 300 361 423
#     4  12  23  48  71 104 145 189 241 300 365 436
#     4  12  23  46  69 107 142 190 236 307 355 428
#     4  11  25  47  70 106 144 190 246 300 355 441
#     4  11  25  45  69 108 143 186 244 298 359 424
#
# _framework density 22.667708000000001
#
# number of rings (size 3 to 8) (size 9 to 14) (size 15 to 20)
#    0.000    0.571    7.143    0.000    0.000    3.429 
#   12.857    0.000    0.000    0.000    0.000    0.000 
#    0.000    0.000    0.000    0.000    0.000    0.000 
#
# Total GULP energy -173440.835623 kJ/mol
# GULP energy per Si atom -12388.631116 kJ/mol
# Density = 2.261612 g / cm^3
# Si number density = 22.667708 Si / 1000 Ang^3
#
#
#
# Elastic Constant Matrix: (Units=GPa)
#
#
# Indices 1 2 3 4 5 6 
#
# 1 87.9394 44.0790 46.3093 0.0000 3.8060 0.0000
# 2 44.0790 120.0760 51.0544 0.0000 2.1449 0.0000
# 3 46.3093 51.0544 111.3832 0.0000 8.3102 0.0000
# 4 0.0000 0.0000 0.0000 48.6464 0.0000 10.6970
# 5 3.8060 2.1449 8.3102 0.0000 24.5353 0.0000
# 6 0.0000 0.0000 0.0000 10.6970 0.0000 36.9826
#
#
#
# Elastic Compliance Matrix: (Units=1/GPa)
#
#
# Indices 1 2 3 4 5 6 
#
# 1 0.015808 -0.003745 -0.004819 0.000000 -0.000493 0.000000
# 2 -0.003745 0.011244 -0.003659 0.000000 0.000837 0.000000
# 3 -0.004819 -0.003659 0.012905 0.000000 -0.003304 0.000000
# 4 0.000000 0.000000 0.000000 0.021953 0.000000 -0.006350
# 5 -0.000493 0.000837 -0.003304 0.000000 0.041880 0.000000
# 6 0.000000 0.000000 0.000000 -0.006350 0.000000 0.028876
#
#
# Mechanical properties :
#
#
# Convention : Reuss Voigt Hill
#
# Bulk Modulus (GPa) = 64.47326 66.92046 65.69686
# Shear Modulus (GPa) = 30.81057 33.89658 32.35357
#
# Velocity S-wave (km/s) = 3.69077 3.87119 3.78206
# Velocity P-wave (km/s) = 6.83132 7.04045 6.93667
#
# Compressibility (1/GPa) = 0.01551031
#
# Stress axis : x y z
#
# Youngs Moduli (GPa) = 63.26044 88.93848 77.48791
#
# Poissons Ratio (x) = 0.33309 0.37340
# Poissons Ratio (y) = 0.23692 0.28354
# Poissons Ratio (z) = 0.30484 0.32544
#
# Static dielectric constant tensor:
#      x y z
#    x 4.006500 0.000000 0.393310 
#    y 0.000000 4.469870 0.000000 
#    z 0.393310 0.000000 4.078910 
# 
# 
# High freq. dielectric constant tensor:
#      x y z
#    x 1.889320 0.000000 0.030930 
#    y 0.000000 1.909460 0.000000 
#    z 0.030930 0.000000 1.883690 
# 
# From -- ./inp_files/14241.got.cif
#   From: 2010.06.25/outbox.cif.g09.slc.cpg/sg9_8_cif.got.tgz:14241.got - 2010.06.27 21:40:51.
