data_PCOD8056944
_publ_section_title
;
Structure prediction by ZEFSAII (Michael W. Deem and Ramdas Pophale) SiO2 
 PCOD8056944
Probable space group: P 2/M
;
_chemical_formula_sum "Si O2"
_cell_formula_units_Z 32
_cell_length_a 12.232524
_cell_length_b 9.035226
_cell_length_c 20.415266
_cell_angle_alpha 90.000000
_cell_angle_beta 114.343518
_cell_angle_gamma 90.000000
_cell_volume 2055.756331
_symmetry_space_group_name_H-M "P 2/M"
_symmetry_group_IT_number 10
_symmetry_cell_setting 'monoclinic'
loop_
_space_group_symop_operation_xyz
x,y,z
-x,y,-z
-x,-y,-z
x,-y,z
loop_
_atom_site_type_symbol
_atom_site_label
_atom_site_fract_x
_atom_site_fract_y
_atom_site_fract_z
Si Si1 0.564577 0.824986 0.243826
Si Si2 0.346646 0.172322 0.343082
Si Si3 0.593619 0.326284 0.379541
Si Si4 0.864860 0.176122 0.963838
Si Si5 0.319842 0.328051 0.994451
Si Si6 0.361026 0.835148 0.486252
Si Si7 0.426811 0.328039 0.884020
Si Si8 0.707945 0.828326 0.808394
O O1 0.636067 0.752399 0.322690
O O2 0.619196 0.766904 0.189093
O O3 0.426511 0.768898 0.212609
O O4 0.577870 0.000000 0.251879
O O5 0.458013 0.280677 0.360958
O O6 0.288032 0.203606 0.400407
O O7 0.256150 0.201680 0.259412
O O8 0.391349 0.000000 0.350952
O O9 0.607446 0.500000 0.374740
O O10 0.672516 0.273681 0.462103
O O11 0.792776 0.233504 0.008995
O O12 0.803176 0.243040 0.882286
O O13 0.864887 0.000000 0.965449
O O14 0.000000 0.237838 0.000000
O O15 0.294750 0.500000 0.000714
O O16 0.439288 0.278267 0.062572
O O17 0.336476 0.296344 0.921492
O O18 0.500000 0.824200 0.500000
O O19 0.328798 0.000000 0.501990
O O20 0.425920 0.500000 0.865042
O O21 0.707671 0.000000 0.824378
#
# Coordination Sequence:
#
# PCOD8056944 Si02
#       8
#     4   4   4   4   4   4   4   4
#     4  10  17  26  40  56  76 105 136 167 199 241
#     4   8  14  24  36  47  65  95 132 168 199 236
#     4  10  17  22  31  49  74 100 127 161 196 236
#     4  10  19  30  44  62  84 109 141 179 210 240
#     4   9  18  31  45  61  83 106 132 167 212 258
#     4   8  13  22  33  45  64  94 129 163 195 232
#     4   9  17  29  44  62  82 104 131 171 212 247
#     4   8  14  25  38  54  74  99 133 169 205 239
#
# _framework density 15.566046999999999
#
# number of rings (size 3 to 8) (size 9 to 14) (size 15 to 20)
#    0.000    3.000    1.250    3.750    0.000    3.000 
#    0.000    1.250    0.000    0.000    0.000    0.000 
#    0.000    0.000    0.000    1.125    0.000   24.375 
#
# Total GULP energy -396439.432942 kJ/mol
# GULP energy per Si atom -12388.732279 kJ/mol
# Density = 1.553062 g / cm^3
# Si number density = 15.566047 Si / 1000 Ang^3
#
#
#
# Elastic Constant Matrix: (Units=GPa)
#
#
# Indices 1 2 3 4 5 6 
#
# 1 47.6171 16.7579 30.6754 0.0000 -6.4117 0.0000
# 2 16.7579 64.1549 45.3698 0.0000 -13.1280 0.0000
# 3 30.6754 45.3698 138.3926 0.0000 -24.9052 0.0000
# 4 0.0000 0.0000 0.0000 24.0675 0.0000 -8.1410
# 5 -6.4117 -13.1280 -24.9052 0.0000 14.8104 0.0000
# 6 0.0000 0.0000 0.0000 -8.1410 0.0000 13.0856
#
#
#
# Elastic Compliance Matrix: (Units=1/GPa)
#
#
# Indices 1 2 3 4 5 6 
#
# 1 0.025062 -0.003352 -0.004357 0.000000 0.000552 0.000000
# 2 -0.003352 0.021772 -0.004564 0.000000 0.010173 0.000000
# 3 -0.004357 -0.004564 0.012361 0.000000 0.014855 0.000000
# 4 0.000000 0.000000 0.000000 0.052624 0.000000 0.032739
# 5 0.000552 0.010173 0.014855 0.000000 0.101757 0.000000
# 6 0.000000 0.000000 0.000000 0.032739 0.000000 0.096788
#
#
# Mechanical properties :
#
#
# Convention : Reuss Voigt Hill
#
# Bulk Modulus (GPa) = 28.86092 48.41898 38.63995
# Shear Modulus (GPa) = 14.43171 20.88345 17.65758
#
# Velocity S-wave (km/s) = 3.04818 3.66676 3.37169
# Velocity P-wave (km/s) = 5.56505 7.00713 6.32731
#
# Compressibility (1/GPa) = 0.03464893
#
# Stress axis : x y z
#
# Youngs Moduli (GPa) = 39.90165 45.93010 80.89993
#
# Poissons Ratio (x) = 0.15398 0.35246
# Poissons Ratio (y) = 0.13377 0.36921
# Poissons Ratio (z) = 0.17384 0.20962
#
# Static dielectric constant tensor:
#      x y z
#    x 2.417110 0.000000 -0.131440 
#    y 0.000000 2.786750 0.000000 
#    z -0.131440 0.000000 3.619900 
# 
# 
# High freq. dielectric constant tensor:
#      x y z
#    x 1.511570 0.000000 -0.024760 
#    y 0.000000 1.587140 0.000000 
#    z -0.024760 0.000000 1.621100 
# 
# From -- ./inp_files/83225.got.cif
#   From: 2010.06.25/outbox.cif.g09.slc.cpg/sg10_42_cif.got.tgz:83225.got - 2010.06.27 22:07:45.
