data_PCOD8056259
_publ_section_title
;
Structure prediction by ZEFSAII (Michael W. Deem and Ramdas Pophale) SiO2 
 PCOD8056259
Probable space group: C C
;
_chemical_formula_sum "Si O2"
_cell_formula_units_Z 32
_cell_length_a 15.395390
_cell_length_b 9.388448
_cell_length_c 19.510025
_cell_angle_alpha 90.000000
_cell_angle_beta 28.498742
_cell_angle_gamma 90.000000
_cell_volume 1345.512278
_symmetry_space_group_name_H-M "C C"
_symmetry_group_IT_number 9
_symmetry_cell_setting 'monoclinic'
loop_
_space_group_symop_operation_xyz
x,y,z
x,-y,1/2+z
1/2+x,1/2+y,z
1/2+x,1/2-y,1/2+z
loop_
_atom_site_type_symbol
_atom_site_label
_atom_site_fract_x
_atom_site_fract_y
_atom_site_fract_z
Si Si1 0.638670 0.238081 0.170020
Si Si2 0.582810 0.237096 0.678031
Si Si3 0.535442 0.600556 0.874317
Si Si4 0.014536 0.976836 0.160215
Si Si5 0.991372 0.769230 0.891026
Si Si6 0.620340 0.897013 0.433651
Si Si7 0.778111 0.628293 0.383116
Si Si8 0.879088 0.441788 0.204369
O O1 0.608989 0.347659 0.251202
O O2 0.606299 0.330473 0.124354
O O3 0.471405 0.126062 0.290223
O O4 0.836121 0.160881 0.033112
O O5 0.514922 0.398713 0.715514
O O6 0.784916 0.225133 0.510923
O O7 0.584986 0.202075 0.757983
O O8 0.474095 0.133743 0.702880
O O9 0.550234 0.430013 0.865804
O O10 0.698694 0.651492 0.811550
O O11 0.809523 0.961925 0.275193
O O12 0.147888 0.999045 0.002621
O O13 0.017426 0.667223 0.938958
O O14 0.672947 0.780311 0.455254
O O15 0.503009 0.022388 0.551690
O O16 0.816381 0.594917 0.276897
#
# Coordination Sequence:
#
# PCOD8056259 Si02
#       8
#     4   4   4   4   4   4   4   4
#     4  11  24  45  74 108 146 203 249 318 373 457
#     4  12  27  46  73 109 156 198 250 322 389 452
#     4  12  26  48  75 108 156 196 261 315 379 458
#     4  11  24  44  73 110 149 199 253 312 388 456
#     4  12  26  48  75 112 148 201 259 317 382 463
#     4  11  25  45  79 106 150 198 259 314 379 466
#     4  11  23  43  76 105 144 194 260 303 386 452
#     4  12  27  49  71 110 153 199 249 323 386 456
#
# _framework density 23.782762000000002
#
# number of rings (size 3 to 8) (size 9 to 14) (size 15 to 20)
#    0.000    0.500    3.750    4.500    5.250    3.000 
#    0.000    0.000    0.000    0.000    0.000    0.000 
#    0.000    0.000    0.000    0.000    0.000    0.000 
#
# Total GULP energy -198246.387503 kJ/mol
# GULP energy per Si atom -12390.399219 kJ/mol
# Density = 2.372863 g / cm^3
# Si number density = 23.782762 Si / 1000 Ang^3
#
#
#
# Elastic Constant Matrix: (Units=GPa)
#
#
# Indices 1 2 3 4 5 6 
#
# 1 116.5819 45.5251 55.6214 -0.0011 -16.1412 0.0004
# 2 45.5251 63.4950 43.5736 0.0045 5.2869 -0.0005
# 3 55.6214 43.5736 149.3853 0.0085 -19.2205 -0.0021
# 4 -0.0011 0.0045 0.0085 30.4686 -0.0015 2.7794
# 5 -16.1412 5.2869 -19.2205 -0.0015 44.5557 0.0002
# 6 0.0004 -0.0005 -0.0021 2.7794 0.0002 41.6350
#
#
#
# Elastic Compliance Matrix: (Units=1/GPa)
#
#
# Indices 1 2 3 4 5 6 
#
# 1 0.013680 -0.009020 -0.001786 0.000003 0.005256 -0.000001
# 2 -0.009020 0.026796 -0.005598 -0.000003 -0.008862 0.000000
# 3 -0.001786 -0.005598 0.009523 -0.000002 0.004125 0.000001
# 4 0.000003 -0.000003 -0.000002 0.033022 0.000002 -0.002204
# 5 0.005256 -0.008862 0.004125 0.000002 0.027179 0.000000
# 6 -0.000001 0.000000 0.000001 -0.002204 0.000000 0.024165
#
#
# Mechanical properties :
#
#
# Convention : Reuss Voigt Hill
#
# Bulk Modulus (GPa) = 58.17214 68.76692 63.46953
# Shear Modulus (GPa) = 28.91801 35.64798 32.28300
#
# Velocity S-wave (km/s) = 3.49079 3.87576 3.68830
# Velocity P-wave (km/s) = 6.38439 7.00044 6.69950
#
# Compressibility (1/GPa) = 0.01719036
#
# Stress axis : x y z
#
# Youngs Moduli (GPa) = 73.10014 37.31921 105.01216
#
# Poissons Ratio (x) = 0.33662 0.18758
# Poissons Ratio (y) = 0.65937 0.58783
# Poissons Ratio (z) = 0.13058 0.20890
#
# Static dielectric constant tensor:
#      x y z
#    x 4.292740 0.000000 -0.240360 
#    y 0.000000 4.110620 0.000010 
#    z -0.240360 0.000010 4.477990 
# 
# 
# High freq. dielectric constant tensor:
#      x y z
#    x 1.948420 0.000000 -0.005790 
#    y 0.000000 1.925310 0.000000 
#    z -0.005790 0.000000 1.962270 
# 
# From -- ./inp_files/33702.got.cif
#   From: 2010.06.25/outbox.cif.g09.slc.cpg/sg9_17_cif.got.tgz:33702.got - 2010.06.27 21:40:51.
