data_PCOD8056116
_publ_section_title
;
Structure prediction by ZEFSAII (Michael W. Deem and Ramdas Pophale) SiO2 
 PCOD8056116
Probable space group: C C
;
_chemical_formula_sum "Si O2"
_cell_formula_units_Z 32
_cell_length_a 9.957599
_cell_length_b 9.936950
_cell_length_c 34.864053
_cell_angle_alpha 90.000000
_cell_angle_beta 148.963306
_cell_angle_gamma 90.000000
_cell_volume 1778.637755
_symmetry_space_group_name_H-M "C C"
_symmetry_group_IT_number 9
_symmetry_cell_setting 'monoclinic'
loop_
_space_group_symop_operation_xyz
x,y,z
x,-y,1/2+z
1/2+x,1/2+y,z
1/2+x,1/2-y,1/2+z
loop_
_atom_site_type_symbol
_atom_site_label
_atom_site_fract_x
_atom_site_fract_y
_atom_site_fract_z
Si Si1 0.742600 0.742305 0.050390
Si Si2 0.766746 0.252833 0.799272
Si Si3 0.736116 0.548396 0.222448
Si Si4 0.262455 0.257696 0.723674
Si Si5 0.723623 0.048397 0.051618
Si Si6 0.526291 0.525720 0.050615
Si Si7 0.793303 0.252832 0.474792
Si Si8 0.044794 0.525718 0.223449
O O1 0.549626 0.642373 0.025022
O O2 0.741746 0.703021 0.005746
O O3 0.038112 0.728640 0.137032
O O4 0.638929 0.892415 0.032794
O O5 0.806646 0.360897 0.775673
O O6 0.529461 0.296982 0.768317
O O7 0.719488 0.106711 0.769561
O O8 0.022676 0.249998 0.887032
O O9 0.764363 0.392414 0.241272
O O10 0.443850 0.581055 0.137033
O O11 0.942323 0.578835 0.239189
O O12 0.221689 0.357629 0.749042
O O13 0.474809 0.139105 0.998394
O O14 0.829386 0.078837 0.034877
O O15 0.424309 0.393292 0.004502
O O16 0.801954 0.488366 0.137032
#
# Coordination Sequence:
#
# PCOD8056116 Si02
#       8
#     4   4   4   4   4   4   4   4
#     4   9  19  37  59  79 100 133 179 224 260 299
#     4  11  22  34  51  79 113 143 169 205 260 320
#     4   9  18  35  56  77 102 133 174 220 260 303
#     4   9  19  37  59  79 100 133 179 224 260 299
#     4   9  18  35  56  77 102 133 174 220 260 303
#     4   9  19  36  56  77 101 133 178 225 260 298
#     4  11  22  34  51  79 113 143 169 205 260 320
#     4   9  19  36  56  77 101 133 178 225 260 298
#
# _framework density 17.991296999999999
#
# number of rings (size 3 to 8) (size 9 to 14) (size 15 to 20)
#    0.000    2.500    0.000    3.750    0.000    6.000 
#    0.000    6.250    0.000    0.000    0.000    0.000 
#    0.000    0.000    0.000    0.000    0.000    0.000 
#
# Total GULP energy -198440.489067 kJ/mol
# GULP energy per Si atom -12402.530567 kJ/mol
# Density = 1.795035 g / cm^3
# Si number density = 17.991297 Si / 1000 Ang^3
#
#
#
# Elastic Constant Matrix: (Units=GPa)
#
#
# Indices 1 2 3 4 5 6 
#
# 1 131.2968 103.1866 66.2440 0.0001 -1.4193 0.0000
# 2 103.1866 122.9345 62.8561 0.0001 -1.3201 0.0000
# 3 66.2440 62.8561 98.9516 0.0008 0.3548 0.0000
# 4 0.0001 0.0001 0.0008 11.9939 0.0001 -0.9735
# 5 -1.4193 -1.3201 0.3548 0.0001 10.9079 0.0000
# 6 0.0000 0.0000 0.0000 -0.9735 0.0000 41.7904
#
#
#
# Elastic Compliance Matrix: (Units=1/GPa)
#
#
# Indices 1 2 3 4 5 6 
#
# 1 0.023844 -0.017532 -0.004830 0.000000 0.001138 0.000000
# 2 -0.017532 0.024970 -0.004128 0.000000 0.000875 0.000000
# 3 -0.004830 -0.004128 0.015967 -0.000001 -0.001647 0.000000
# 4 0.000000 0.000000 -0.000001 0.083533 0.000000 0.001946
# 5 0.001138 0.000875 -0.001647 0.000000 0.091984 0.000000
# 6 0.000000 0.000000 0.000000 0.001946 0.000000 0.023974
#
#
# Mechanical properties :
#
#
# Convention : Reuss Voigt Hill
#
# Bulk Modulus (GPa) = 84.73097 90.86179 87.79638
# Shear Modulus (GPa) = 15.56730 20.99821 18.28276
#
# Velocity S-wave (km/s) = 2.94474 3.42004 3.19125
# Velocity P-wave (km/s) = 7.66549 8.13685 7.90469
#
# Compressibility (1/GPa) = 0.01180206
#
# Stress axis : x y z
#
# Youngs Moduli (GPa) = 41.93944 40.04826 62.62816
#
# Poissons Ratio (x) = 0.70212 0.30249
# Poissons Ratio (y) = 0.73528 0.25851
# Poissons Ratio (z) = 0.20257 0.16530
#
# Static dielectric constant tensor:
#      x y z
#    x 3.457810 0.000000 -0.009610 
#    y 0.000000 3.461460 0.000000 
#    z -0.009610 0.000000 3.163260 
# 
# 
# High freq. dielectric constant tensor:
#      x y z
#    x 1.701260 0.000000 -0.000550 
#    y 0.000000 1.700290 0.000000 
#    z -0.000550 0.000000 1.684420 
# 
# From -- ./inp_files/24230.got.cif
#   From: 2010.06.25/outbox.cif.g09.slc.cpg/sg9_13_cif.got.tgz:24230.got - 2010.06.27 21:40:51.
