data_PCOD8056438
_publ_section_title
;
Structure prediction by ZEFSAII (Michael W. Deem and Ramdas Pophale) SiO2 
 PCOD8056438
Probable space group: C C
;
_chemical_formula_sum "Si O2"
_cell_formula_units_Z 28
_cell_length_a 14.665965
_cell_length_b 13.001169
_cell_length_c 9.033542
_cell_angle_alpha 90.000000
_cell_angle_beta 137.807230
_cell_angle_gamma 90.000000
_cell_volume 1156.856071
_symmetry_space_group_name_H-M "C C"
_symmetry_group_IT_number 9
_symmetry_cell_setting 'monoclinic'
loop_
_space_group_symop_operation_xyz
x,y,z
x,-y,1/2+z
1/2+x,1/2+y,z
1/2+x,1/2-y,1/2+z
loop_
_atom_site_type_symbol
_atom_site_label
_atom_site_fract_x
_atom_site_fract_y
_atom_site_fract_z
Si Si1 0.067380 0.567914 0.935950
Si Si2 0.543802 0.862179 0.736705
Si Si3 0.061748 0.866013 0.987136
Si Si4 0.842387 0.662322 0.470320
Si Si5 0.284513 0.201579 0.077462
Si Si6 0.643402 0.499282 0.826471
Si Si7 0.782501 0.220793 0.164901
O O1 0.057076 0.448896 0.880322
O O2 0.986310 0.641438 0.723798
O O3 0.020276 0.582245 0.049819
O O4 0.222973 0.606498 0.112476
O O5 0.408990 0.794795 0.610000
O O6 0.678593 0.791588 0.906975
O O7 0.945134 0.782718 0.881264
O O8 0.055802 0.920757 0.820658
O O9 0.041825 0.953623 0.084828
O O10 0.204687 0.803450 0.179249
O O11 0.853016 0.714140 0.322083
O O12 0.763212 0.554325 0.378275
O O13 0.756219 0.742322 0.465773
O O14 0.209914 0.091580 0.999647
#
# Coordination Sequence:
#
# PCOD8056438 Si02
#       7
#     4   4   4   4   4   4   4
#     4  12  27  50  80 112 155 209 261 319 392 465
#     4  12  31  49  80 112 158 204 261 327 389 465
#     4  11  25  47  76 108 144 196 243 313 373 456
#     4  11  25  48  77 108 148 206 254 310 388 464
#     4  12  28  48  78 113 154 199 264 317 387 466
#     4  11  24  45  76 106 145 194 250 305 376 454
#     4  11  26  45  81 109 150 192 259 309 389 448
#
# _framework density 24.203531000000002
#
# number of rings (size 3 to 8) (size 9 to 14) (size 15 to 20)
#    0.000    0.571    4.286    1.714   10.000    2.286 
#    0.000    0.000    0.000    0.000    0.000    0.000 
#    0.000    0.000    0.000    0.000    0.000    0.000 
#
# Total GULP energy -173542.522601 kJ/mol
# GULP energy per Si atom -12395.894472 kJ/mol
# Density = 2.414844 g / cm^3
# Si number density = 24.203531 Si / 1000 Ang^3
#
#
#
# Elastic Constant Matrix: (Units=GPa)
#
#
# Indices 1 2 3 4 5 6 
#
# 1 146.0115 64.5853 63.7616 0.0000 2.6472 0.0000
# 2 64.5853 95.4226 33.3898 0.0000 11.7539 0.0000
# 3 63.7616 33.3898 106.9406 0.0000 -1.4229 0.0000
# 4 0.0000 0.0000 0.0000 43.8219 0.0000 0.4396
# 5 2.6472 11.7539 -1.4229 0.0000 41.0698 0.0000
# 6 0.0000 0.0000 0.0000 0.4396 0.0000 44.2692
#
#
#
# Elastic Compliance Matrix: (Units=1/GPa)
#
#
# Indices 1 2 3 4 5 6 
#
# 1 0.011863 -0.006362 -0.005075 0.000000 0.000880 0.000000
# 2 -0.006362 0.015701 -0.001164 0.000000 -0.004124 0.000000
# 3 -0.005075 -0.001164 0.012755 0.000000 0.001102 0.000000
# 4 0.000000 0.000000 0.000000 0.022822 0.000000 -0.000227
# 5 0.000880 -0.004124 0.001102 0.000000 0.025510 0.000000
# 6 0.000000 0.000000 0.000000 -0.000227 0.000000 0.022591
#
#
# Mechanical properties :
#
#
# Convention : Reuss Voigt Hill
#
# Bulk Modulus (GPa) = 66.15025 74.64979 70.40002
# Shear Modulus (GPa) = 35.33973 38.27471 36.80722
#
# Velocity S-wave (km/s) = 3.82528 3.98096 3.90389
# Velocity P-wave (km/s) = 6.84839 7.21389 7.03352
#
# Compressibility (1/GPa) = 0.01511710
#
# Stress axis : x y z
#
# Youngs Moduli (GPa) = 84.29457 63.69056 78.40050
#
# Poissons Ratio (x) = 0.40520 0.39789
# Poissons Ratio (y) = 0.53628 0.09125
# Poissons Ratio (z) = 0.42781 0.07413
#
# Static dielectric constant tensor:
#      x y z
#    x 4.418060 0.000000 -0.147160 
#    y 0.000000 4.376660 0.000000 
#    z -0.147160 0.000000 4.248600 
# 
# 
# High freq. dielectric constant tensor:
#      x y z
#    x 1.970310 0.000000 -0.014440 
#    y 0.000000 1.961040 0.000000 
#    z -0.014440 0.000000 1.954910 
# 
# From -- ./inp_files/9742.got.cif
#   From: 2010.06.25/outbox.cif.g09.slc.cpg/sg9_5_cif.got.tgz:9742.got - 2010.06.27 21:40:51.
