data_PCOD8056585
_publ_section_title
;
Structure prediction by ZEFSAII (Michael W. Deem and Ramdas Pophale) SiO2 
 PCOD8056585
Probable space group: C C
;
_chemical_formula_sum "Si O2"
_cell_formula_units_Z 28
_cell_length_a 15.574524
_cell_length_b 12.085430
_cell_length_c 9.658517
_cell_angle_alpha 90.000000
_cell_angle_beta 140.259087
_cell_angle_gamma 90.000000
_cell_volume 1162.260905
_symmetry_space_group_name_H-M "C C"
_symmetry_group_IT_number 9
_symmetry_cell_setting 'monoclinic'
loop_
_space_group_symop_operation_xyz
x,y,z
x,-y,1/2+z
1/2+x,1/2+y,z
1/2+x,1/2-y,1/2+z
loop_
_atom_site_type_symbol
_atom_site_label
_atom_site_fract_x
_atom_site_fract_y
_atom_site_fract_z
Si Si1 0.497350 0.841858 0.659480
Si Si2 0.298509 0.292301 0.531465
Si Si3 0.746519 0.189200 0.289128
Si Si4 0.078232 0.056355 0.029940
Si Si5 0.065115 0.697887 0.542515
Si Si6 0.424506 0.501700 0.586027
Si Si7 0.367689 0.072418 0.468284
O O1 0.591675 0.798763 0.649318
O O2 0.354298 0.778833 0.478446
O O3 0.467324 0.973281 0.631625
O O4 0.586573 0.817057 0.905759
O O5 0.242695 0.304560 0.617752
O O6 0.190272 0.342195 0.288743
O O7 0.416829 0.379393 0.645023
O O8 0.343794 0.164108 0.560951
O O9 0.787006 0.071158 0.407836
O O10 0.053969 0.174826 0.068150
O O11 0.231078 0.018320 0.241550
O O12 0.978747 0.982145 0.997584
O O13 0.038702 0.059797 0.820890
O O14 0.928190 0.637190 0.412980
#
# Coordination Sequence:
#
# PCOD8056585 Si02
#       7
#     4   4   4   4   4   4   4
#     4  12  31  49  80 114 160 202 261 322 388 462
#     4  11  27  49  80 110 154 201 259 320 392 461
#     4  12  30  49  79 114 160 203 262 322 392 457
#     4  11  26  44  77 110 150 203 252 314 383 467
#     4  11  26  48  75 107 150 200 258 308 389 457
#     4  12  24  48  76 110 151 203 256 316 391 457
#     4  11  28  47  79 113 157 200 260 320 389 459
#
# _framework density 24.090976000000001
#
# number of rings (size 3 to 8) (size 9 to 14) (size 15 to 20)
#    0.000    0.571    4.286    0.857   14.000    3.429 
#    0.000    0.000    0.000    0.000    0.000    0.000 
#    0.000    0.000    0.000    0.000    0.000    0.000 
#
# Total GULP energy -173516.863490 kJ/mol
# GULP energy per Si atom -12394.061678 kJ/mol
# Density = 2.403614 g / cm^3
# Si number density = 24.090976 Si / 1000 Ang^3
#
#
#
# Elastic Constant Matrix: (Units=GPa)
#
#
# Indices 1 2 3 4 5 6 
#
# 1 137.2096 37.2336 41.7312 0.0000 -6.0663 0.0000
# 2 37.2336 94.3513 35.6232 0.0000 4.6373 0.0000
# 3 41.7312 35.6232 102.4256 0.0000 -12.3855 0.0000
# 4 0.0000 0.0000 0.0000 29.5536 0.0000 5.5686
# 5 -6.0663 4.6373 -12.3855 0.0000 47.7835 0.0000
# 6 0.0000 0.0000 0.0000 5.5686 0.0000 30.5206
#
#
#
# Elastic Compliance Matrix: (Units=1/GPa)
#
#
# Indices 1 2 3 4 5 6 
#
# 1 0.008800 -0.002513 -0.002629 0.000000 0.000680 0.000000
# 2 -0.002513 0.013182 -0.003875 0.000000 -0.002603 0.000000
# 3 -0.002629 -0.003875 0.012582 0.000000 0.003303 0.000000
# 4 0.000000 0.000000 0.000000 0.035042 0.000000 -0.006394
# 5 0.000680 -0.002603 0.003303 0.000000 0.022123 0.000000
# 6 0.000000 0.000000 0.000000 -0.006394 0.000000 0.033931
#
#
# Mechanical properties :
#
#
# Convention : Reuss Voigt Hill
#
# Bulk Modulus (GPa) = 60.50429 62.57362 61.53896
# Shear Modulus (GPa) = 33.51137 36.19810 34.85474
#
# Velocity S-wave (km/s) = 3.73370 3.88049 3.80780
# Velocity P-wave (km/s) = 6.61489 6.79028 6.70316
#
# Compressibility (1/GPa) = 0.01652775
#
# Stress axis : x y z
#
# Youngs Moduli (GPa) = 113.63892 75.86331 79.48166
#
# Poissons Ratio (x) = 0.19068 0.20895
# Poissons Ratio (y) = 0.28563 0.30801
# Poissons Ratio (z) = 0.29875 0.29398
#
# Static dielectric constant tensor:
#      x y z
#    x 4.225510 0.000000 0.050490 
#    y 0.000000 4.410190 0.000000 
#    z 0.050490 0.000000 4.198410 
# 
# 
# High freq. dielectric constant tensor:
#      x y z
#    x 1.954440 0.000000 -0.002370 
#    y 0.000000 1.965020 0.000000 
#    z -0.002370 0.000000 1.956860 
# 
# From -- ./inp_files/9739.got.cif
#   From: 2010.06.25/outbox.cif.g09.slc.cpg/sg9_5_cif.got.tgz:9739.got - 2010.06.27 21:40:51.
