data_PCOD8056455
_publ_section_title
;
Structure prediction by ZEFSAII (Michael W. Deem and Ramdas Pophale) SiO2 
 PCOD8056455
Probable space group: C C
;
_chemical_formula_sum "Si O2"
_cell_formula_units_Z 32
_cell_length_a 16.017900
_cell_length_b 14.022134
_cell_length_c 8.078684
_cell_angle_alpha 90.000000
_cell_angle_beta 135.780785
_cell_angle_gamma 90.000000
_cell_volume 1265.451993
_symmetry_space_group_name_H-M "C C"
_symmetry_group_IT_number 9
_symmetry_cell_setting 'monoclinic'
loop_
_space_group_symop_operation_xyz
x,y,z
x,-y,1/2+z
1/2+x,1/2+y,z
1/2+x,1/2-y,1/2+z
loop_
_atom_site_type_symbol
_atom_site_label
_atom_site_fract_x
_atom_site_fract_y
_atom_site_fract_z
Si Si1 0.598400 0.616208 0.423010
Si Si2 0.127168 0.184386 0.963994
Si Si3 0.862033 0.422666 0.219754
Si Si4 0.474224 0.466847 0.428058
Si Si5 0.087774 0.369794 0.706869
Si Si6 0.107478 0.706264 0.748457
Si Si7 0.372777 0.883154 0.852666
Si Si8 0.699889 0.971636 0.555492
O O1 0.733067 0.578684 0.620525
O O2 0.535723 0.572199 0.496660
O O3 0.599915 0.731667 0.409049
O O4 0.516820 0.575307 0.160096
O O5 0.173889 0.233431 0.202305
O O6 0.249774 0.135031 0.080097
O O7 0.106667 0.261122 0.791278
O O8 0.020085 0.107083 0.847213
O O9 0.925009 0.524402 0.336839
O O10 0.954308 0.354855 0.446781
O O11 0.850896 0.399156 0.014229
O O12 0.331733 0.482635 0.226953
O O13 0.177491 0.415181 0.695381
O O14 0.105798 0.441349 0.890157
O O15 0.974193 0.697020 0.480308
O O16 0.175624 0.607124 0.876675
#
# Coordination Sequence:
#
# PCOD8056455 Si02
#       8
#     4   4   4   4   4   4   4   4
#     4  11  24  46  73 104 151 205 248 317 385 461
#     4  11  27  49  73 111 149 207 254 319 392 463
#     4  12  22  49  74 105 146 199 254 310 374 461
#     4  11  25  48  73 107 156 200 254 312 394 460
#     4  12  26  47  78 113 151 199 262 318 386 455
#     4  11  25  45  72 109 147 201 249 316 393 451
#     4  12  25  48  75 103 152 194 258 311 381 460
#     4  12  26  48  72 116 156 199 255 325 387 463
#
# _framework density 25.287407999999999
#
# number of rings (size 3 to 8) (size 9 to 14) (size 15 to 20)
#    0.000    0.500    6.250    1.500    7.000    1.000 
#    6.750    0.000    0.000    0.000    0.000    0.000 
#    0.000    0.000    0.000    0.000    0.000    0.000 
#
# Total GULP energy -198258.494010 kJ/mol
# GULP energy per Si atom -12391.155876 kJ/mol
# Density = 2.522985 g / cm^3
# Si number density = 25.287408 Si / 1000 Ang^3
#
#
#
# Elastic Constant Matrix: (Units=GPa)
#
#
# Indices 1 2 3 4 5 6 
#
# 1 60.8497 -0.6290 40.1713 0.0000 24.7242 0.0000
# 2 -0.6290 94.3200 42.3005 0.0000 23.9265 0.0000
# 3 40.1713 42.3005 112.3791 0.0000 28.3365 0.0000
# 4 0.0000 0.0000 0.0000 51.7312 0.0000 2.7538
# 5 24.7242 23.9265 28.3365 0.0000 29.7567 0.0000
# 6 0.0000 0.0000 0.0000 2.7538 0.0000 32.7308
#
#
#
# Elastic Compliance Matrix: (Units=1/GPa)
#
#
# Indices 1 2 3 4 5 6 
#
# 1 0.034841 0.011993 -0.009525 0.000000 -0.029521 0.000000
# 2 0.011993 0.018288 -0.006515 0.000000 -0.018466 0.000000
# 3 -0.009525 -0.006515 0.015054 0.000000 -0.001183 0.000000
# 4 0.000000 0.000000 0.000000 0.019418 0.000000 -0.001634
# 5 -0.029521 -0.018466 -0.001183 0.000000 0.074109 0.000000
# 6 0.000000 0.000000 0.000000 -0.001634 0.000000 0.030690
#
#
# Mechanical properties :
#
#
# Convention : Reuss Voigt Hill
#
# Bulk Modulus (GPa) = 16.64185 47.91492 32.27839
# Shear Modulus (GPa) = 22.67354 35.22415 28.94885
#
# Velocity S-wave (km/s) = 2.99763 3.73628 3.38715
# Velocity P-wave (km/s) = 4.31004 6.13207 5.29994
#
# Compressibility (1/GPa) = 0.06008947
#
# Stress axis : x y z
#
# Youngs Moduli (GPa) = 28.70207 54.68043 66.42916
#
# Poissons Ratio (x) = -0.65576 0.63271
# Poissons Ratio (y) = -0.34421 0.43276
# Poissons Ratio (z) = 0.27337 0.35622
#
# Static dielectric constant tensor:
#      x y z
#    x 4.518160 0.000000 0.067810 
#    y 0.000000 4.633300 0.000000 
#    z 0.067810 0.000000 4.862820 
# 
# 
# High freq. dielectric constant tensor:
#      x y z
#    x 1.999520 0.000000 -0.000600 
#    y 0.000000 2.022880 0.000000 
#    z -0.000600 0.000000 2.015680 
# 
# From -- ./inp_files/10913.got.cif
#   From: 2010.06.25/outbox.cif.g09.slc.cpg/sg9_6_cif.got.tgz:10913.got - 2010.06.27 21:40:51.
