data_PCOD8056102
_publ_section_title
;
Structure prediction by ZEFSAII (Michael W. Deem and Ramdas Pophale) SiO2 
 PCOD8056102
Probable space group: C C
;
_chemical_formula_sum "Si O2"
_cell_formula_units_Z 32
_cell_length_a 11.126388
_cell_length_b 14.362183
_cell_length_c 11.357538
_cell_angle_alpha 90.000000
_cell_angle_beta 49.982006
_cell_angle_gamma 90.000000
_cell_volume 1389.947314
_symmetry_space_group_name_H-M "C C"
_symmetry_group_IT_number 9
_symmetry_cell_setting 'monoclinic'
loop_
_space_group_symop_operation_xyz
x,y,z
x,-y,1/2+z
1/2+x,1/2+y,z
1/2+x,1/2-y,1/2+z
loop_
_atom_site_type_symbol
_atom_site_label
_atom_site_fract_x
_atom_site_fract_y
_atom_site_fract_z
Si Si1 0.553210 0.178276 0.184130
Si Si2 0.754423 0.873086 0.783526
Si Si3 0.777668 0.263218 0.472521
Si Si4 0.097660 0.943468 0.530737
Si Si5 0.061560 0.642183 0.748704
Si Si6 0.321438 0.921579 0.196277
Si Si7 0.571479 0.039092 0.969337
Si Si8 0.231681 0.144116 0.515744
O O1 0.656432 0.151017 0.230397
O O2 0.367548 0.166994 0.333283
O O3 0.591038 0.280735 0.108737
O O4 0.616479 0.112172 0.040211
O O5 0.776571 0.775932 0.838946
O O6 0.912760 0.927670 0.650451
O O7 0.661988 0.941278 0.931657
O O8 0.675375 0.356795 0.550595
O O9 0.959118 0.283947 0.390401
O O10 0.719455 0.186904 0.600983
O O11 0.151337 0.939880 0.360121
O O12 0.152800 0.042645 0.548983
O O13 0.942332 0.607778 0.723274
O O14 0.113511 0.563632 0.807699
O O15 0.311814 0.848682 0.094912
O O16 0.385724 0.018124 0.100225
#
# Coordination Sequence:
#
# PCOD8056102 Si02
#       8
#     4   4   4   4   4   4   4   4
#     4  12  28  47  73 108 149 196 242 301 369 437
#     4  12  26  44  76 109 140 193 247 299 355 443
#     4  11  22  44  73 102 137 178 246 292 355 422
#     4  11  26  46  72 111 141 187 241 307 357 427
#     4  11  23  42  69 102 136 187 236 291 349 431
#     4  11  21  44  76  99 139 191 240 288 361 430
#     4  12  25  46  70 102 151 190 237 297 373 423
#     4  12  27  49  75 107 151 192 243 305 369 431
#
# _framework density 23.022455999999998
#
# number of rings (size 3 to 8) (size 9 to 14) (size 15 to 20)
#    0.000    0.500    5.000    3.750    5.250    1.000 
#    2.250    0.000    0.000    0.000    0.000    0.000 
#    0.000    0.000    0.000    0.000    0.000    0.000 
#
# Total GULP energy -198289.978171 kJ/mol
# GULP energy per Si atom -12393.123636 kJ/mol
# Density = 2.297006 g / cm^3
# Si number density = 23.022456 Si / 1000 Ang^3
#
#
#
# Elastic Constant Matrix: (Units=GPa)
#
#
# Indices 1 2 3 4 5 6 
#
# 1 30.6947 18.5073 15.9243 0.0000 -15.5427 0.0000
# 2 18.5073 123.4466 37.2224 0.0000 -4.3313 0.0000
# 3 15.9243 37.2224 112.5405 -0.0001 -13.8014 0.0001
# 4 0.0000 0.0000 -0.0001 52.9967 0.0000 -3.6632
# 5 -15.5427 -4.3313 -13.8014 0.0000 30.5936 0.0000
# 6 0.0000 0.0000 0.0001 -3.6632 0.0000 30.3094
#
#
#
# Elastic Compliance Matrix: (Units=1/GPa)
#
#
# Indices 1 2 3 4 5 6 
#
# 1 0.048906 -0.005875 -0.002151 0.000000 0.023044 0.000000
# 2 -0.005875 0.009704 -0.002727 0.000000 -0.002841 0.000000
# 3 -0.002151 -0.002727 0.010491 0.000000 0.003254 0.000000
# 4 0.000000 0.000000 0.000000 0.019028 0.000000 0.002300
# 5 0.023044 -0.002841 0.003254 0.000000 0.045459 0.000000
# 6 0.000000 0.000000 0.000000 0.002300 0.000000 0.033271
#
#
# Mechanical properties :
#
#
# Convention : Reuss Voigt Hill
#
# Bulk Modulus (GPa) = 21.01038 45.55441 33.28240
# Shear Modulus (GPa) = 24.48227 35.78179 30.13203
#
# Velocity S-wave (km/s) = 3.26453 3.94663 3.62167
# Velocity P-wave (km/s) = 4.83274 6.37163 5.65478
#
# Compressibility (1/GPa) = 0.04759551
#
# Stress axis : x y z
#
# Youngs Moduli (GPa) = 20.44749 103.05111 95.32055
#
# Poissons Ratio (x) = 0.60542 0.20503
# Poissons Ratio (y) = 0.12013 0.25991
# Poissons Ratio (z) = 0.04398 0.28098
#
# Static dielectric constant tensor:
#      x y z
#    x 3.775430 0.000000 -0.119440 
#    y 0.000000 4.333980 0.000000 
#    z -0.119440 0.000000 4.649460 
# 
# 
# High freq. dielectric constant tensor:
#      x y z
#    x 1.876030 0.000000 -0.000640 
#    y 0.000000 1.920070 0.000000 
#    z -0.000640 0.000000 1.934120 
# 
# From -- ./inp_files/16862.got.cif
#   From: 2010.06.25/outbox.cif.g09.slc.cpg/sg9_9_cif.got.tgz:16862.got - 2010.06.27 21:40:51.
