data_PCOD8056615
_publ_section_title
;
Structure prediction by ZEFSAII (Michael W. Deem and Ramdas Pophale) SiO2 
 PCOD8056615
Probable space group: C C
;
_chemical_formula_sum "Si O2"
_cell_formula_units_Z 32
_cell_length_a 17.933481
_cell_length_b 5.416244
_cell_length_c 12.918746
_cell_angle_alpha 90.000000
_cell_angle_beta 89.496011
_cell_angle_gamma 90.000000
_cell_volume 1254.776498
_symmetry_space_group_name_H-M "C C"
_symmetry_group_IT_number 9
_symmetry_cell_setting 'monoclinic'
loop_
_space_group_symop_operation_xyz
x,y,z
x,-y,1/2+z
1/2+x,1/2+y,z
1/2+x,1/2-y,1/2+z
loop_
_atom_site_type_symbol
_atom_site_label
_atom_site_fract_x
_atom_site_fract_y
_atom_site_fract_z
Si Si1 0.620400 0.744585 0.026140
Si Si2 0.699848 0.598730 0.678121
Si Si3 0.348627 0.827909 0.677696
Si Si4 0.760598 0.026341 0.043273
Si Si5 0.874308 0.256113 0.904247
Si Si6 0.509599 0.916451 0.633331
Si Si7 0.964137 0.230212 0.427264
Si Si8 0.567348 0.575368 0.814591
O O1 0.655595 0.505400 0.079612
O O2 0.693033 0.894938 0.983099
O O3 0.567507 0.860630 0.117280
O O4 0.567392 0.698357 0.928507
O O5 0.781598 0.507728 0.701329
O O6 0.715584 0.881162 0.646555
O O7 0.652976 0.542099 0.781448
O O8 0.327219 0.650756 0.582224
O O9 0.361309 0.684170 0.784808
O O10 0.421652 0.989014 0.643956
O O11 0.797279 0.244530 0.972588
O O12 0.912108 0.528236 0.910378
O O13 0.922022 0.028120 0.945300
O O14 0.516092 0.756911 0.527814
O O15 0.528129 0.754562 0.733355
O O16 0.020604 0.182928 0.327904
#
# Coordination Sequence:
#
# PCOD8056615 Si02
#       8
#     4   4   4   4   4   4   4   4
#     4  11  28  49  79 116 162 217 274 336 414 488
#     4  11  27  49  75 114 158 213 266 339 401 488
#     4  11  27  47  81 114 153 213 269 337 402 493
#     4  11  26  51  76 115 164 208 269 336 409 483
#     4  12  28  49  82 117 162 210 273 332 408 485
#     4  12  25  52  78 116 158 207 269 342 402 484
#     4  12  28  51  77 122 158 215 266 341 403 479
#     4  12  27  48  80 114 157 215 272 333 413 490
#
# _framework density 25.502548999999998
#
# number of rings (size 3 to 8) (size 9 to 14) (size 15 to 20)
#    0.000    0.500    3.750    2.250    8.750    0.000 
#    0.000    0.000    0.000    0.000    0.000    0.000 
#    0.000    0.000    0.000    0.000    0.000    0.000 
#
# Total GULP energy -198226.227582 kJ/mol
# GULP energy per Si atom -12389.139224 kJ/mol
# Density = 2.544450 g / cm^3
# Si number density = 25.502549 Si / 1000 Ang^3
#
#
#
# Elastic Constant Matrix: (Units=GPa)
#
#
# Indices 1 2 3 4 5 6 
#
# 1 176.4893 44.9569 37.8613 0.0000 -21.2084 0.0000
# 2 44.9569 89.0096 0.2819 0.0000 -4.4742 0.0000
# 3 37.8613 0.2819 77.5833 0.0000 -12.8593 0.0000
# 4 0.0000 0.0000 0.0000 28.2050 0.0000 -18.0583
# 5 -21.2084 -4.4742 -12.8593 0.0000 50.3638 0.0000
# 6 0.0000 0.0000 0.0000 -18.0583 0.0000 38.4458
#
#
#
# Elastic Compliance Matrix: (Units=1/GPa)
#
#
# Indices 1 2 3 4 5 6 
#
# 1 0.007571 -0.003713 -0.003349 0.000000 0.002003 0.000000
# 2 -0.003713 0.013107 0.001773 0.000000 0.000054 0.000000
# 3 -0.003349 0.001773 0.014942 0.000000 0.002562 0.000000
# 4 0.000000 0.000000 0.000000 0.050702 0.000000 0.023815
# 5 0.002003 0.000054 0.002562 0.000000 0.021358 0.000000
# 6 0.000000 0.000000 0.000000 0.023815 0.000000 0.037197
#
#
# Mechanical properties :
#
#
# Convention : Reuss Voigt Hill
#
# Bulk Modulus (GPa) = 39.93202 56.58692 48.25947
# Shear Modulus (GPa) = 30.52458 40.73507 35.62982
#
# Velocity S-wave (km/s) = 3.46341 4.00095 3.74185
# Velocity P-wave (km/s) = 5.62900 6.60154 6.13458
#
# Compressibility (1/GPa) = 0.02504256
#
# Stress axis : x y z
#
# Youngs Moduli (GPa) = 132.08316 76.29508 66.92513
#
# Poissons Ratio (x) = 0.28326 0.22415
# Poissons Ratio (y) = 0.49038 -0.11866
# Poissons Ratio (z) = 0.44237 -0.13528
#
# Static dielectric constant tensor:
#      x y z
#    x 5.138220 0.000000 -0.286800 
#    y 0.000000 4.491620 0.000000 
#    z -0.286800 0.000000 4.895110 
# 
# 
# High freq. dielectric constant tensor:
#      x y z
#    x 2.050700 0.000000 -0.008930 
#    y 0.000000 1.998050 0.000000 
#    z -0.008930 0.000000 2.022360 
# 
# From -- ./inp_files/26373.got.cif
#   From: 2010.06.25/outbox.cif.g09.slc.cpg/sg9_14_cif.got.tgz:26373.got - 2010.06.27 21:40:51.
