data_PCOD8056180
_publ_section_title
;
Structure prediction by ZEFSAII (Michael W. Deem and Ramdas Pophale) SiO2 
 PCOD8056180
Probable space group: C C
;
_chemical_formula_sum "Si O2"
_cell_formula_units_Z 32
_cell_length_a 12.121217
_cell_length_b 13.321299
_cell_length_c 11.925171
_cell_angle_alpha 90.000000
_cell_angle_beta 133.157808
_cell_angle_gamma 90.000000
_cell_volume 1404.644282
_symmetry_space_group_name_H-M "C C"
_symmetry_group_IT_number 9
_symmetry_cell_setting 'monoclinic'
loop_
_space_group_symop_operation_xyz
x,y,z
x,-y,1/2+z
1/2+x,1/2+y,z
1/2+x,1/2-y,1/2+z
loop_
_atom_site_type_symbol
_atom_site_label
_atom_site_fract_x
_atom_site_fract_y
_atom_site_fract_z
Si Si1 0.471530 0.141248 0.048700
Si Si2 0.379020 0.154298 0.382429
Si Si3 0.153006 0.360681 0.456886
Si Si4 0.855905 0.322595 0.122945
Si Si5 0.425924 0.364731 0.075506
Si Si6 0.192358 0.515599 0.308378
Si Si7 0.228455 0.656833 0.656628
Si Si8 0.733317 0.553683 0.738342
O O1 0.493088 0.254989 0.100522
O O2 0.523494 0.063325 0.181539
O O3 0.587108 0.112081 0.030717
O O4 0.304466 0.118636 0.889721
O O5 0.354980 0.133389 0.497498
O O6 0.282650 0.246824 0.266427
O O7 0.559174 0.172461 0.487768
O O8 0.311701 0.054571 0.277181
O O9 0.294674 0.289500 0.572438
O O10 0.208357 0.464140 0.440990
O O11 0.026921 0.312704 0.286803
O O12 0.753034 0.390540 0.132696
O O13 0.348445 0.363607 0.142587
O O14 0.558423 0.448196 0.154171
O O15 0.309134 0.391522 0.894543
O O16 0.233655 0.439137 0.239593
#
# Coordination Sequence:
#
# PCOD8056180 Si02
#       8
#     4   4   4   4   4   4   4   4
#     4  11  24  47  71 102 149 190 246 298 377 430
#     4  12  26  49  75 105 151 197 246 301 374 434
#     4  11  23  42  73 102 140 189 239 301 354 431
#     4  11  22  44  74 102 140 187 247 295 355 428
#     4  12  29  45  72 112 149 189 245 307 371 447
#     4  12  25  48  73 105 145 197 241 304 370 432
#     4  12  29  48  74 109 153 196 242 307 369 446
#     4  11  26  45  74 111 141 197 242 307 362 444
#
# _framework density 22.781568
#
# number of rings (size 3 to 8) (size 9 to 14) (size 15 to 20)
#    0.000    0.500    5.000    1.500    8.750    3.000 
#    0.000    0.000    0.000    0.000    0.000    0.000 
#    0.000    0.000    0.000    0.000    0.000    0.000 
#
# Total GULP energy -198387.469324 kJ/mol
# GULP energy per Si atom -12399.216833 kJ/mol
# Density = 2.272972 g / cm^3
# Si number density = 22.781568 Si / 1000 Ang^3
#
#
#
# Elastic Constant Matrix: (Units=GPa)
#
#
# Indices 1 2 3 4 5 6 
#
# 1 109.8073 36.8789 50.4359 0.0000 6.9507 0.0000
# 2 36.8789 131.7342 50.0414 0.0000 -1.3714 0.0000
# 3 50.4359 50.0414 82.1484 0.0000 5.2231 0.0000
# 4 0.0000 0.0000 0.0000 55.2234 0.0000 6.5240
# 5 6.9507 -1.3714 5.2231 0.0000 30.3275 0.0000
# 6 0.0000 0.0000 0.0000 6.5240 0.0000 25.1200
#
#
#
# Elastic Compliance Matrix: (Units=1/GPa)
#
#
# Indices 1 2 3 4 5 6 
#
# 1 0.012833 -0.000858 -0.007246 0.000000 -0.001732 0.000000
# 2 -0.000858 0.010002 -0.005669 0.000000 0.001625 0.000000
# 3 -0.007246 -0.005669 0.020207 0.000000 -0.002076 0.000000
# 4 0.000000 0.000000 0.000000 0.018681 0.000000 -0.004852
# 5 -0.001732 0.001625 -0.002076 0.000000 0.033801 0.000000
# 6 0.000000 0.000000 0.000000 -0.004852 0.000000 0.041069
#
#
# Mechanical properties :
#
#
# Convention : Reuss Voigt Hill
#
# Bulk Modulus (GPa) = 64.53562 66.48916 65.51239
# Shear Modulus (GPa) = 29.53244 34.55643 32.04444
#
# Velocity S-wave (km/s) = 3.60437 3.89891 3.75453
# Velocity P-wave (km/s) = 6.76102 7.03687 6.90033
#
# Compressibility (1/GPa) = 0.01549532
#
# Stress axis : x y z
#
# Youngs Moduli (GPa) = 77.92480 99.98312 49.48711
#
# Poissons Ratio (x) = 0.08579 0.35859
# Poissons Ratio (y) = 0.06686 0.28055
# Poissons Ratio (z) = 0.56465 0.56682
#
# Static dielectric constant tensor:
#      x y z
#    x 4.147890 0.000000 0.020010 
#    y 0.000000 4.155690 0.000000 
#    z 0.020010 0.000000 4.548150 
# 
# 
# High freq. dielectric constant tensor:
#      x y z
#    x 1.898010 0.000000 -0.002420 
#    y 0.000000 1.908230 0.000000 
#    z -0.002420 0.000000 1.909790 
# 
# From -- ./inp_files/16873.got.cif
#   From: 2010.06.25/outbox.cif.g09.slc.cpg/sg9_9_cif.got.tgz:16873.got - 2010.06.27 21:40:51.
