data_PCOD8056745
_publ_section_title
;
Structure prediction by ZEFSAII (Michael W. Deem and Ramdas Pophale) SiO2 
 PCOD8056745
Probable space group: C C
;
_chemical_formula_sum "Si O2"
_cell_formula_units_Z 32
_cell_length_a 11.484291
_cell_length_b 16.551071
_cell_length_c 9.023369
_cell_angle_alpha 90.000000
_cell_angle_beta 126.369216
_cell_angle_gamma 90.000000
_cell_volume 1381.050387
_symmetry_space_group_name_H-M "C C"
_symmetry_group_IT_number 9
_symmetry_cell_setting 'monoclinic'
loop_
_space_group_symop_operation_xyz
x,y,z
x,-y,1/2+z
1/2+x,1/2+y,z
1/2+x,1/2-y,1/2+z
loop_
_atom_site_type_symbol
_atom_site_label
_atom_site_fract_x
_atom_site_fract_y
_atom_site_fract_z
Si Si1 0.170040 0.613079 0.125000
Si Si2 0.219690 0.921275 0.042221
Si Si3 0.994439 0.664048 0.251142
Si Si4 0.998929 0.337555 0.238694
Si Si5 0.658227 0.076663 0.608262
Si Si6 0.951555 0.843139 0.334848
Si Si7 0.231115 0.914569 0.403269
Si Si8 0.961632 0.155865 0.188387
O O1 0.191708 0.517334 0.159911
O O2 0.305619 0.654259 0.147546
O O3 0.137227 0.660119 0.253825
O O4 0.024245 0.628749 0.922383
O O5 0.331869 0.852996 0.070746
O O6 0.215305 0.924426 0.215935
O O7 0.062349 0.905421 0.855054
O O8 0.280830 0.003275 0.018993
O O9 0.974175 0.748017 0.323004
O O10 0.024801 0.593835 0.395495
O O11 0.850638 0.649882 0.046127
O O12 0.032710 0.243442 0.255230
O O13 0.116101 0.385909 0.232748
O O14 0.800383 0.123719 0.656134
O O15 0.955993 0.866680 0.511601
O O16 0.075079 0.890749 0.344299
#
# Coordination Sequence:
#
# PCOD8056745 Si02
#       8
#     4   4   4   4   4   4   4   4
#     4  12  26  48  75 108 144 194 254 305 362 441
#     4  12  28  47  76 108 149 193 243 304 370 439
#     4  12  28  45  76 110 149 192 247 307 369 436
#     4  12  26  47  74 105 147 191 249 303 368 436
#     4  12  26  48  76 106 150 197 245 305 368 443
#     4  12  28  49  73 109 151 194 244 306 376 438
#     4  12  28  48  74 110 150 193 243 304 369 442
#     4  12  28  48  76 106 148 196 245 306 374 439
#
# _framework density 23.170770000000001
#
# number of rings (size 3 to 8) (size 9 to 14) (size 15 to 20)
#    0.000    0.000    3.750    5.250    8.750    0.000 
#    0.000    0.000    0.000    0.000    0.000    0.000 
#    0.000    0.000    0.000    0.000    0.000    0.000 
#
# Total GULP energy -198434.571257 kJ/mol
# GULP energy per Si atom -12402.160704 kJ/mol
# Density = 2.311803 g / cm^3
# Si number density = 23.170770 Si / 1000 Ang^3
#
#
#
# Elastic Constant Matrix: (Units=GPa)
#
#
# Indices 1 2 3 4 5 6 
#
# 1 101.5216 8.8861 29.9736 0.0000 -0.2878 0.0000
# 2 8.8861 72.9518 21.2257 0.0000 0.6923 0.0000
# 3 29.9736 21.2257 119.0086 0.0000 -3.6301 0.0000
# 4 0.0000 0.0000 0.0000 32.6923 0.0000 -2.9371
# 5 -0.2878 0.6923 -3.6301 0.0000 37.3357 0.0000
# 6 0.0000 0.0000 0.0000 -2.9371 0.0000 33.6291
#
#
#
# Elastic Compliance Matrix: (Units=1/GPa)
#
#
# Indices 1 2 3 4 5 6 
#
# 1 0.010663 -0.000543 -0.002594 0.000000 -0.000160 0.000000
# 2 -0.000543 0.014496 -0.002464 0.000000 -0.000513 0.000000
# 3 -0.002594 -0.002464 0.009525 0.000000 0.000952 0.000000
# 4 0.000000 0.000000 0.000000 0.030830 0.000000 0.002693
# 5 -0.000160 -0.000513 0.000952 0.000000 0.026885 0.000000
# 6 0.000000 0.000000 0.000000 0.002693 0.000000 0.029971
#
#
# Mechanical properties :
#
#
# Convention : Reuss Voigt Hill
#
# Bulk Modulus (GPa) = 42.58613 45.96143 44.27378
# Shear Modulus (GPa) = 35.36117 36.29119 35.82618
#
# Velocity S-wave (km/s) = 3.91079 3.96188 3.93642
# Velocity P-wave (km/s) = 6.22989 6.38809 6.30948
#
# Compressibility (1/GPa) = 0.02348182
#
# Stress axis : x y z
#
# Youngs Moduli (GPa) = 93.78283 68.98614 104.99183
#
# Poissons Ratio (x) = 0.03744 0.27231
# Poissons Ratio (y) = 0.05089 0.25873
# Poissons Ratio (z) = 0.24324 0.17000
#
# Static dielectric constant tensor:
#      x y z
#    x 4.244190 0.000000 -0.065700 
#    y 0.000000 4.348500 0.000000 
#    z -0.065700 0.000000 4.266160 
# 
# 
# High freq. dielectric constant tensor:
#      x y z
#    x 1.932560 0.000000 -0.002790 
#    y 0.000000 1.915780 0.000000 
#    z -0.002790 0.000000 1.928040 
# 
# From -- ./inp_files/7664.got.cif
#   From: 2010.06.25/outbox.cif.g09.slc.cpg/sg9_4_cif.got.tgz:7664.got - 2010.06.27 21:40:51.
