data_PCOD8056766
_publ_section_title
;
Structure prediction by ZEFSAII (Michael W. Deem and Ramdas Pophale) SiO2 
 PCOD8056766
Probable space group: C C
;
_chemical_formula_sum "Si O2"
_cell_formula_units_Z 20
_cell_length_a 20.665523
_cell_length_b 6.812626
_cell_length_c 9.024209
_cell_angle_alpha 90.000000
_cell_angle_beta 33.557498
_cell_angle_gamma 90.000000
_cell_volume 702.291378
_symmetry_space_group_name_H-M "C C"
_symmetry_group_IT_number 9
_symmetry_cell_setting 'monoclinic'
loop_
_space_group_symop_operation_xyz
x,y,z
x,-y,1/2+z
1/2+x,1/2+y,z
1/2+x,1/2-y,1/2+z
loop_
_atom_site_type_symbol
_atom_site_label
_atom_site_fract_x
_atom_site_fract_y
_atom_site_fract_z
Si Si1 0.723770 0.728182 0.178710
Si Si2 0.042441 0.071181 0.885113
Si Si3 0.695462 0.050150 0.447218
Si Si4 0.920340 0.154361 0.838972
Si Si5 0.981486 0.590457 0.684163
O O1 0.654717 0.544988 0.236966
O O2 0.686855 0.819753 0.410479
O O3 0.854408 0.667998 0.965358
O O4 0.715540 0.915731 0.083249
O O5 0.022752 0.055893 0.747254
O O6 0.038745 0.306258 0.929011
O O7 0.922906 0.987140 0.191257
O O8 0.569461 0.146366 0.650171
O O9 0.797606 0.165092 0.159012
O O10 0.969817 0.358635 0.681244
#
# Coordination Sequence:
#
# PCOD8056766 Si02
#       5
#     4   4   4   4   4
#     4  12  28  52  83 122 166 214 278 340 410 495
#     4  12  27  53  79 120 163 211 271 337 403 490
#     4  12  26  51  82 121 160 218 270 337 410 491
#     4  12  26  53  82 118 163 215 274 337 412 485
#     4  12  27  49  82 117 164 216 269 331 413 483
#
# _framework density 28.478206
#
# number of rings (size 3 to 8) (size 9 to 14) (size 15 to 20)
#    0.000    0.000    6.000    2.400    2.800    1.600 
#    7.200    0.000    0.000    0.000    0.000    0.000 
#    0.000    0.000    0.000    0.000    0.000    0.000 
#
# Total GULP energy -123892.564075 kJ/mol
# GULP energy per Si atom -12389.256408 kJ/mol
# Density = 2.841339 g / cm^3
# Si number density = 28.478206 Si / 1000 Ang^3
#
#
#
# Elastic Constant Matrix: (Units=GPa)
#
#
# Indices 1 2 3 4 5 6 
#
# 1 99.2128 44.0052 33.5855 0.0000 -24.8579 0.0000
# 2 44.0052 148.6753 9.0823 -0.0001 -3.8624 0.0001
# 3 33.5855 9.0823 35.4294 0.0000 -27.4901 -0.0001
# 4 0.0000 -0.0001 0.0000 35.3708 0.0000 -17.7611
# 5 -24.8579 -3.8624 -27.4901 0.0000 62.9628 0.0000
# 6 0.0000 0.0001 -0.0001 -17.7611 0.0000 41.9251
#
#
#
# Elastic Compliance Matrix: (Units=1/GPa)
#
#
# Indices 1 2 3 4 5 6 
#
# 1 0.017004 -0.004109 -0.015203 0.000000 -0.000176 0.000000
# 2 -0.004109 0.007837 0.001513 0.000000 -0.000481 0.000000
# 3 -0.015203 0.001513 0.056960 0.000000 0.018960 0.000000
# 4 0.000000 0.000000 0.000000 0.035911 0.000000 0.015213
# 5 -0.000176 -0.000481 0.018960 0.000000 0.024061 0.000000
# 6 0.000000 0.000000 0.000000 0.015213 0.000000 0.030297
#
#
# Mechanical properties :
#
#
# Convention : Reuss Voigt Hill
#
# Bulk Modulus (GPa) = 21.64320 50.74039 36.19180
# Shear Modulus (GPa) = 22.41457 41.16137 31.78797
#
# Velocity S-wave (km/s) = 2.80853 3.80592 3.34461
# Velocity P-wave (km/s) = 4.25835 6.09666 5.25846
#
# Compressibility (1/GPa) = 0.04620389
#
# Stress axis : x y z
#
# Youngs Moduli (GPa) = 58.81001 127.59526 17.55621
#
# Poissons Ratio (x) = 0.52426 0.26690
# Poissons Ratio (y) = 0.24164 -0.02656
# Poissons Ratio (z) = 0.89406 -0.19301
#
# Static dielectric constant tensor:
#      x y z
#    x 5.279340 0.000000 -0.379050 
#    y 0.000000 5.449800 0.000000 
#    z -0.379050 0.000000 5.202150 
# 
# 
# High freq. dielectric constant tensor:
#      x y z
#    x 2.160630 0.000000 -0.019280 
#    y 0.000000 2.157200 0.000000 
#    z -0.019280 0.000000 2.168480 
# 
# From -- ./inp_files/11189.got.cif
#   From: 2010.06.25/outbox.cif.g09.slc.cpg/sg9_6_cif.got.tgz:11189.got - 2010.06.27 21:40:51.
