data_PCOD8056093
_publ_section_title
;
Structure prediction by ZEFSAII (Michael W. Deem and Ramdas Pophale) SiO2 
 PCOD8056093
Probable space group: C C
;
_chemical_formula_sum "Si O2"
_cell_formula_units_Z 28
_cell_length_a 7.848187
_cell_length_b 21.728169
_cell_length_c 9.842902
_cell_angle_alpha 90.000000
_cell_angle_beta 48.749821
_cell_angle_gamma 90.000000
_cell_volume 1261.943063
_symmetry_space_group_name_H-M "C C"
_symmetry_group_IT_number 9
_symmetry_cell_setting 'monoclinic'
loop_
_space_group_symop_operation_xyz
x,y,z
x,-y,1/2+z
1/2+x,1/2+y,z
1/2+x,1/2-y,1/2+z
loop_
_atom_site_type_symbol
_atom_site_label
_atom_site_fract_x
_atom_site_fract_y
_atom_site_fract_z
Si Si1 0.422940 0.552635 0.521300
Si Si2 0.816268 0.941444 0.385442
Si Si3 0.949359 0.190514 0.789466
Si Si4 0.873725 0.383062 0.686371
Si Si5 0.651662 0.167790 0.579458
Si Si6 0.924812 0.686954 0.422000
Si Si7 0.955602 0.714854 0.932699
O O1 0.386410 0.489575 0.461740
O O2 0.409996 0.538246 0.688720
O O3 0.661333 0.579258 0.349556
O O4 0.230052 0.601264 0.587453
O O5 0.921750 0.875666 0.373361
O O6 0.544382 0.932247 0.527731
O O7 0.151511 0.185449 0.574260
O O8 0.009834 0.242253 0.868660
O O9 0.722655 0.213225 0.831453
O O10 0.812086 0.329490 0.609370
O O11 0.996805 0.350346 0.749878
O O12 0.551864 0.157690 0.482576
O O13 0.857120 0.216560 0.481369
O O14 0.444336 0.188661 0.785179
#
# Coordination Sequence:
#
# PCOD8056093 Si02
#       7
#     4   4   4   4   4   4   4
#     4  12  26  50  70 100 139 189 239 285 348 417
#     4  11  27  46  73  98 137 187 241 284 340 424
#     4  11  21  44  66 102 138 187 223 283 355 425
#     4  11  24  47  75  99 137 190 223 291 362 421
#     4  12  24  42  67 110 141 176 234 298 345 425
#     4  12  24  39  73 106 143 176 230 293 361 419
#     4  11  22  42  72 101 139 183 230 286 365 415
#
# _framework density 22.188006999999999
#
# number of rings (size 3 to 8) (size 9 to 14) (size 15 to 20)
#    0.000    0.571    4.286    6.000    2.000    2.286 
#    5.143    0.000    0.000    0.000    0.000    0.000 
#    0.000    0.000    0.000    0.000    0.000    0.000 
#
# Total GULP energy -173605.922190 kJ/mol
# GULP energy per Si atom -12400.423014 kJ/mol
# Density = 2.213751 g / cm^3
# Si number density = 22.188007 Si / 1000 Ang^3
#
#
#
# Elastic Constant Matrix: (Units=GPa)
#
#
# Indices 1 2 3 4 5 6 
#
# 1 51.2381 21.8618 18.2147 0.0000 1.7583 0.0000
# 2 21.8618 110.7340 24.6416 0.0000 4.6721 0.0000
# 3 18.2147 24.6416 116.4981 0.0000 -4.3701 0.0000
# 4 0.0000 0.0000 0.0000 31.3200 0.0000 7.1551
# 5 1.7583 4.6721 -4.3701 0.0000 34.9318 0.0000
# 6 0.0000 0.0000 0.0000 7.1551 0.0000 26.8565
#
#
#
# Elastic Compliance Matrix: (Units=1/GPa)
#
#
# Indices 1 2 3 4 5 6 
#
# 1 0.022098 -0.003721 -0.002704 0.000000 -0.000953 0.000000
# 2 -0.003721 0.010185 -0.001624 0.000000 -0.001378 0.000000
# 3 -0.002704 -0.001624 0.009408 0.000000 0.001530 0.000000
# 4 0.000000 0.000000 0.000000 0.033998 0.000000 -0.009058
# 5 -0.000953 -0.001378 0.001530 0.000000 0.029051 0.000000
# 6 0.000000 0.000000 0.000000 -0.009058 0.000000 0.039648
#
#
# Mechanical properties :
#
#
# Convention : Reuss Voigt Hill
#
# Bulk Modulus (GPa) = 39.07354 45.32292 42.19823
# Shear Modulus (GPa) = 29.58301 32.87182 31.22741
#
# Velocity S-wave (km/s) = 3.65538 3.85322 3.75560
# Velocity P-wave (km/s) = 5.95518 6.34567 6.15352
#
# Compressibility (1/GPa) = 0.02559277
#
# Stress axis : x y z
#
# Youngs Moduli (GPa) = 45.25255 98.18522 106.29780
#
# Poissons Ratio (x) = 0.36534 0.28741
# Poissons Ratio (y) = 0.16838 0.17265
# Poissons Ratio (z) = 0.12235 0.15947
#
# Static dielectric constant tensor:
#      x y z
#    x 3.636340 0.000000 -0.010450 
#    y 0.000000 4.063120 0.000000 
#    z -0.010450 0.000000 4.429190 
# 
# 
# High freq. dielectric constant tensor:
#      x y z
#    x 1.845600 0.000000 -0.001020 
#    y 0.000000 1.871150 0.000000 
#    z -0.001020 0.000000 1.903330 
# 
# From -- ./inp_files/5881.got.cif
#   From: 2010.06.25/outbox.cif.g09.slc.cpg/sg9_3_cif.got.tgz:5881.got - 2010.06.27 21:40:51.
