data_PCOD8056428
_publ_section_title
;
Structure prediction by ZEFSAII (Michael W. Deem and Ramdas Pophale) SiO2 
 PCOD8056428
Probable space group: C C
;
_chemical_formula_sum "Si O2"
_cell_formula_units_Z 32
_cell_length_a 14.903806
_cell_length_b 12.412325
_cell_length_c 9.325576
_cell_angle_alpha 90.000000
_cell_angle_beta 52.168873
_cell_angle_gamma 90.000000
_cell_volume 1362.558562
_symmetry_space_group_name_H-M "C C"
_symmetry_group_IT_number 9
_symmetry_cell_setting 'monoclinic'
loop_
_space_group_symop_operation_xyz
x,y,z
x,-y,1/2+z
1/2+x,1/2+y,z
1/2+x,1/2-y,1/2+z
loop_
_atom_site_type_symbol
_atom_site_label
_atom_site_fract_x
_atom_site_fract_y
_atom_site_fract_z
Si Si1 0.520700 0.826565 0.916410
Si Si2 0.371396 0.214740 0.025055
Si Si3 0.718039 0.941248 0.894070
Si Si4 0.804500 0.522953 0.635905
Si Si5 0.145100 0.031580 0.540093
Si Si6 0.031218 0.747593 0.087766
Si Si7 0.464358 0.345702 0.688112
Si Si8 0.682229 0.124982 0.734321
O O1 0.627259 0.888454 0.876232
O O2 0.542593 0.809645 0.727591
O O3 0.402619 0.888831 0.053118
O O4 0.513254 0.709784 0.997710
O O5 0.401910 0.256575 0.158075
O O6 0.250880 0.270482 0.114540
O O7 0.358189 0.087078 0.023402
O O8 0.462841 0.258674 0.818506
O O9 0.837095 0.881022 0.778792
O O10 0.745555 0.057051 0.797149
O O11 0.663690 0.946855 0.107971
O O12 0.699270 0.560752 0.640207
O O13 0.750884 0.511021 0.844983
O O14 0.043873 0.945381 0.655630
O O15 0.095974 0.139670 0.517563
O O16 0.068489 0.666014 0.922142
#
# Coordination Sequence:
#
# PCOD8056428 Si02
#       8
#     4   4   4   4   4   4   4   4
#     4  12  28  44  75 111 155 199 255 325 385 457
#     4  11  24  45  73 101 145 197 254 303 386 452
#     4  11  26  47  73 108 152 197 265 312 389 464
#     4  12  26  47  73 111 148 195 250 311 383 458
#     4  12  26  46  75 110 148 195 256 308 382 458
#     4  12  25  44  72 106 146 194 256 312 379 453
#     4  11  27  46  76 106 151 205 254 319 384 458
#     4  11  24  45  73 103 143 200 244 322 376 450
#
# _framework density 23.485227999999999
#
# number of rings (size 3 to 8) (size 9 to 14) (size 15 to 20)
#    0.000    0.500    1.250    6.000    7.000    6.000 
#    0.000    0.000    0.000    0.000    0.000    0.000 
#    0.000    0.000    0.000    0.000    0.000    0.000 
#
# Total GULP energy -198388.858501 kJ/mol
# GULP energy per Si atom -12399.303656 kJ/mol
# Density = 2.343177 g / cm^3
# Si number density = 23.485228 Si / 1000 Ang^3
#
#
#
# Elastic Constant Matrix: (Units=GPa)
#
#
# Indices 1 2 3 4 5 6 
#
# 1 121.1191 16.8971 12.6408 0.0000 6.6738 0.0000
# 2 16.8971 73.0553 13.7385 0.0000 2.1861 0.0000
# 3 12.6408 13.7385 111.8334 0.0000 12.3909 0.0000
# 4 0.0000 0.0000 0.0000 35.1598 0.0000 4.0962
# 5 6.6738 2.1861 12.3909 0.0000 41.2129 0.0000
# 6 0.0000 0.0000 0.0000 4.0962 0.0000 40.1469
#
#
#
# Elastic Compliance Matrix: (Units=1/GPa)
#
#
# Indices 1 2 3 4 5 6 
#
# 1 0.008641 -0.001847 -0.000626 0.000000 -0.001113 0.000000
# 2 -0.001847 0.014409 -0.001562 0.000000 0.000004 0.000000
# 3 -0.000626 -0.001562 0.009501 0.000000 -0.002672 0.000000
# 4 0.000000 0.000000 0.000000 0.028784 0.000000 -0.002937
# 5 -0.001113 0.000004 -0.002672 0.000000 0.025248 0.000000
# 6 0.000000 0.000000 0.000000 -0.002937 0.000000 0.025208
#
#
# Mechanical properties :
#
#
# Convention : Reuss Voigt Hill
#
# Bulk Modulus (GPa) = 40.85100 43.61782 42.23441
# Shear Modulus (GPa) = 39.05607 40.81934 39.93770
#
# Velocity S-wave (km/s) = 4.08242 4.17356 4.12824
# Velocity P-wave (km/s) = 6.29711 6.46820 6.38323
#
# Compressibility (1/GPa) = 0.02447921
#
# Stress axis : x y z
#
# Youngs Moduli (GPa) = 115.73042 69.40042 105.25644
#
# Poissons Ratio (x) = 0.12821 0.06594
# Poissons Ratio (y) = 0.21380 0.16439
# Poissons Ratio (z) = 0.07250 0.10839
#
# Static dielectric constant tensor:
#      x y z
#    x 4.315370 0.000000 0.182680 
#    y 0.000000 4.281300 0.000000 
#    z 0.182680 0.000000 4.313790 
# 
# 
# High freq. dielectric constant tensor:
#      x y z
#    x 1.947470 0.000000 0.006380 
#    y 0.000000 1.932990 0.000000 
#    z 0.006380 0.000000 1.935310 
# 
# From -- ./inp_files/9221.got.cif
#   From: 2010.06.25/outbox.cif.g09.slc.cpg/sg9_5_cif.got.tgz:9221.got - 2010.06.27 21:40:51.
