data_PCOD8056032
_publ_section_title
;
Structure prediction by ZEFSAII (Michael W. Deem and Ramdas Pophale) SiO2 
 PCOD8056032
Probable space group: C C
;
_chemical_formula_sum "Si O2"
_cell_formula_units_Z 24
_cell_length_a 5.309527
_cell_length_b 16.803041
_cell_length_c 12.908965
_cell_angle_alpha 90.000000
_cell_angle_beta 126.351356
_cell_angle_gamma 90.000000
_cell_volume 927.567073
_symmetry_space_group_name_H-M "C C"
_symmetry_group_IT_number 9
_symmetry_cell_setting 'monoclinic'
loop_
_space_group_symop_operation_xyz
x,y,z
x,-y,1/2+z
1/2+x,1/2+y,z
1/2+x,1/2-y,1/2+z
loop_
_atom_site_type_symbol
_atom_site_label
_atom_site_fract_x
_atom_site_fract_y
_atom_site_fract_z
Si Si1 0.919840 0.966026 0.068990
Si Si2 0.905476 0.122118 0.765359
Si Si3 0.678764 0.375112 0.717092
Si Si4 0.755509 0.774582 0.856851
Si Si5 0.679890 0.465523 0.916867
Si Si6 0.838199 0.721957 0.643257
O O1 0.109409 0.047714 0.131727
O O2 0.549808 0.983625 0.993673
O O3 0.020601 0.897303 0.175547
O O4 0.048692 0.932395 0.992664
O O5 0.061114 0.199508 0.854294
O O6 0.084970 0.895820 0.813533
O O7 0.980334 0.045597 0.851992
O O8 0.494498 0.299422 0.626458
O O9 0.047249 0.354790 0.802774
O O10 0.850755 0.745451 0.766630
O O11 0.013059 0.789970 0.006560
O O12 0.034865 0.359110 0.171091
#
# Coordination Sequence:
#
# PCOD8056032 Si02
#       6
#     4   4   4   4   4   4
#     4  11  27  47  81 112 163 205 266 326 401 469
#     4  10  27  46  73 120 152 209 265 329 395 476
#     4  10  27  46  73 120 152 209 265 329 395 476
#     4  11  27  47  81 111 161 208 267 329 399 470
#     4  11  27  47  81 112 163 205 266 326 401 469
#     4  11  27  47  81 111 161 208 267 329 399 470
#
# _framework density 25.874137999999999
#
# number of rings (size 3 to 8) (size 9 to 14) (size 15 to 20)
#    0.000    1.333    0.000    1.000   18.667    5.333 
#    0.000    0.000    0.000    0.000    0.000    0.000 
#    0.000    0.000    0.000    0.000    0.000    0.000 
#
# Total GULP energy -148780.731925 kJ/mol
# GULP energy per Si atom -12398.394327 kJ/mol
# Density = 2.581525 g / cm^3
# Si number density = 25.874138 Si / 1000 Ang^3
#
#
#
# Elastic Constant Matrix: (Units=GPa)
#
#
# Indices 1 2 3 4 5 6 
#
# 1 127.2971 40.9004 32.6809 0.0000 5.9524 0.0000
# 2 40.9004 145.7800 17.7295 0.0000 24.0319 0.0000
# 3 32.6809 17.7295 87.1872 0.0000 2.9244 0.0000
# 4 0.0000 0.0000 0.0000 24.9311 0.0000 20.3915
# 5 5.9524 24.0319 2.9244 0.0000 63.9094 0.0000
# 6 0.0000 0.0000 0.0000 20.3915 0.0000 45.1317
#
#
#
# Elastic Compliance Matrix: (Units=1/GPa)
#
#
# Indices 1 2 3 4 5 6 
#
# 1 0.009365 -0.002277 -0.003051 0.000000 0.000124 0.000000
# 2 -0.002277 0.008040 -0.000688 0.000000 -0.002780 0.000000
# 3 -0.003051 -0.000688 0.012755 0.000000 -0.000041 0.000000
# 4 0.000000 0.000000 0.000000 0.063622 0.000000 -0.028746
# 5 0.000124 -0.002780 -0.000041 0.000000 0.016683 0.000000
# 6 0.000000 0.000000 0.000000 -0.028746 0.000000 0.035145
#
#
# Mechanical properties :
#
#
# Convention : Reuss Voigt Hill
#
# Bulk Modulus (GPa) = 55.16671 60.32067 57.74369
# Shear Modulus (GPa) = 30.54644 44.72468 37.63556
#
# Velocity S-wave (km/s) = 3.43968 4.16209 3.81801
# Velocity P-wave (km/s) = 6.09448 6.81623 6.46544
#
# Compressibility (1/GPa) = 0.01812687
#
# Stress axis : x y z
#
# Youngs Moduli (GPa) = 106.78353 124.37227 78.40240
#
# Poissons Ratio (x) = 0.28315 0.23924
# Poissons Ratio (y) = 0.24311 0.05397
# Poissons Ratio (z) = 0.32584 0.08562
#
# Static dielectric constant tensor:
#      x y z
#    x 4.609570 0.000000 0.162740 
#    y 0.000000 5.005690 0.000000 
#    z 0.162740 0.000000 4.633360 
# 
# 
# High freq. dielectric constant tensor:
#      x y z
#    x 2.039370 0.000000 0.006420 
#    y 0.000000 2.070540 0.000000 
#    z 0.006420 0.000000 2.031440 
# 
# From -- ./inp_files/13131.got.cif
#   From: 2010.06.25/outbox.cif.g09.slc.cpg/sg9_7_cif.got.tgz:13131.got - 2010.06.27 21:40:51.
