data_PCOD8056224
_publ_section_title
;
Structure prediction by ZEFSAII (Michael W. Deem and Ramdas Pophale) SiO2 
 PCOD8056224
Probable space group: C C
;
_chemical_formula_sum "Si O2"
_cell_formula_units_Z 32
_cell_length_a 29.201636
_cell_length_b 5.211106
_cell_length_c 8.993111
_cell_angle_alpha 90.000000
_cell_angle_beta 97.365372
_cell_angle_gamma 90.000000
_cell_volume 1357.215271
_symmetry_space_group_name_H-M "C C"
_symmetry_group_IT_number 9
_symmetry_cell_setting 'monoclinic'
loop_
_space_group_symop_operation_xyz
x,y,z
x,-y,1/2+z
1/2+x,1/2+y,z
1/2+x,1/2-y,1/2+z
loop_
_atom_site_type_symbol
_atom_site_label
_atom_site_fract_x
_atom_site_fract_y
_atom_site_fract_z
Si Si1 0.905590 0.721597 0.186770
Si Si2 0.028520 0.197988 0.034166
Si Si3 0.948816 0.898497 0.925007
Si Si4 0.161376 0.301654 0.479336
Si Si5 0.998240 0.518174 0.776944
Si Si6 0.767563 0.790848 0.495726
Si Si7 0.800632 0.290645 0.674266
Si Si8 0.629941 0.315181 0.633577
O O1 0.942277 0.507574 0.248180
O O2 0.854190 0.628963 0.199274
O O3 0.917377 0.972358 0.287367
O O4 0.911902 0.752023 0.011809
O O5 0.024694 0.278302 0.860115
O O6 0.078011 0.073773 0.087500
O O7 0.979409 0.065133 0.056330
O O8 0.025645 0.452480 0.135927
O O9 0.996202 0.765608 0.881636
O O10 0.214356 0.373325 0.473750
O O11 0.137695 0.551458 0.544440
O O12 0.137993 0.236285 0.311349
O O13 0.160757 0.051089 0.586218
O O14 0.773595 0.526872 0.588833
O O15 0.783121 0.750689 0.333409
O O16 0.795572 0.026649 0.579898
#
# Coordination Sequence:
#
# PCOD8056224 Si02
#       8
#     4   4   4   4   4   4   4   4
#     4  11  25  40  68  97 134 181 230 275 339 401
#     4  11  25  41  66  97 134 181 229 277 341 400
#     4  11  23  41  63  92 137 178 219 277 331 400
#     4  12  26  50  73 108 141 188 232 302 369 423
#     4  11  23  41  63  92 137 178 219 277 332 399
#     4  12  26  49  74 106 145 185 233 302 368 423
#     4  12  28  45  78 107 144 186 242 294 349 440
#     4  12  28  45  79 105 144 185 244 294 349 442
#
# _framework density 23.577691999999999
#
# number of rings (size 3 to 8) (size 9 to 14) (size 15 to 20)
#    0.000    0.500    2.500    5.250    7.000    0.000 
#    0.000    0.000    0.000    0.000    0.000    0.000 
#    0.000    0.000    0.000    0.000    0.000    0.000 
#
# Total GULP energy -198236.960200 kJ/mol
# GULP energy per Si atom -12389.810013 kJ/mol
# Density = 2.352403 g / cm^3
# Si number density = 23.577692 Si / 1000 Ang^3
#
#
#
# Elastic Constant Matrix: (Units=GPa)
#
#
# Indices 1 2 3 4 5 6 
#
# 1 85.2272 -9.9957 -3.2964 0.0000 11.7975 0.0000
# 2 -9.9957 81.7948 17.2841 0.0000 -3.6908 0.0000
# 3 -3.2964 17.2841 105.6735 0.0000 -5.0746 0.0000
# 4 0.0000 0.0000 0.0000 29.3368 0.0000 -7.6901
# 5 11.7975 -3.6908 -5.0746 0.0000 31.1329 0.0000
# 6 0.0000 0.0000 0.0000 -7.6901 0.0000 29.9282
#
#
#
# Elastic Compliance Matrix: (Units=1/GPa)
#
#
# Indices 1 2 3 4 5 6 
#
# 1 0.012524 0.001333 -0.000048 0.000000 -0.004596 0.000000
# 2 0.001333 0.012848 -0.002027 0.000000 0.000688 0.000000
# 3 -0.000048 -0.002027 0.009860 0.000000 0.001385 0.000000
# 4 0.000000 0.000000 0.000000 0.036549 0.000000 0.009391
# 5 -0.004596 0.000688 0.001385 0.000000 0.034169 0.000000
# 6 0.000000 0.000000 0.000000 0.009391 0.000000 0.035826
#
#
# Mechanical properties :
#
#
# Convention : Reuss Voigt Hill
#
# Bulk Modulus (GPa) = 29.63107 31.18660 30.40884
# Shear Modulus (GPa) = 32.36074 35.99317 34.17695
#
# Velocity S-wave (km/s) = 3.70877 3.91138 3.81142
# Velocity P-wave (km/s) = 5.56189 5.80124 5.68283
#
# Compressibility (1/GPa) = 0.03374836
#
# Stress axis : x y z
#
# Youngs Moduli (GPa) = 79.84668 77.83336 101.42369
#
# Poissons Ratio (x) = -0.10377 0.00488
# Poissons Ratio (y) = -0.10646 0.20557
# Poissons Ratio (z) = 0.00384 0.15775
#
# Static dielectric constant tensor:
#      x y z
#    x 4.377990 0.000000 0.043930 
#    y 0.000000 4.290100 0.000000 
#    z 0.043930 0.000000 4.354800 
# 
# 
# High freq. dielectric constant tensor:
#      x y z
#    x 1.933960 0.000000 -0.001600 
#    y 0.000000 1.938030 0.000000 
#    z -0.001600 0.000000 1.956130 
# 
# From -- ./inp_files/12559.got.cif
#   From: 2010.06.25/outbox.cif.g09.slc.cpg/sg9_7_cif.got.tgz:12559.got - 2010.06.27 21:40:51.
