data_PCOD8056012
_publ_section_title
;
Structure prediction by ZEFSAII (Michael W. Deem and Ramdas Pophale) SiO2 
 PCOD8056012
Probable space group: C C
;
_chemical_formula_sum "Si O2"
_cell_formula_units_Z 32
_cell_length_a 8.250185
_cell_length_b 20.029369
_cell_length_c 15.652511
_cell_angle_alpha 90.000000
_cell_angle_beta 145.652412
_cell_angle_gamma 90.000000
_cell_volume 1459.342664
_symmetry_space_group_name_H-M "C C"
_symmetry_group_IT_number 9
_symmetry_cell_setting 'monoclinic'
loop_
_space_group_symop_operation_xyz
x,y,z
x,-y,1/2+z
1/2+x,1/2+y,z
1/2+x,1/2-y,1/2+z
loop_
_atom_site_type_symbol
_atom_site_label
_atom_site_fract_x
_atom_site_fract_y
_atom_site_fract_z
Si Si1 0.447190 0.257048 0.525430
Si Si2 0.219561 0.457029 0.814380
Si Si3 0.312077 0.342385 0.079904
Si Si4 0.928909 0.653458 0.778537
Si Si5 0.812553 0.617483 0.237345
Si Si6 0.267058 0.458236 0.506777
Si Si7 0.743943 0.372585 0.022403
Si Si8 0.171663 0.457837 0.124057
O O1 0.643601 0.222146 0.539870
O O2 0.658603 0.311460 0.658844
O O3 0.314387 0.204960 0.535476
O O4 0.160044 0.288466 0.359478
O O5 0.256908 0.504466 0.748156
O O6 0.909405 0.420857 0.691492
O O7 0.299937 0.498091 0.935119
O O8 0.412438 0.390733 0.885676
O O9 0.615008 0.318988 0.170860
O O10 0.383759 0.396869 0.186290
O O11 0.099421 0.377344 0.919080
O O12 0.895710 0.610352 0.678277
O O13 0.058295 0.604595 0.904930
O O14 0.578907 0.566728 0.174830
O O15 0.123218 0.494271 0.523670
O O16 0.867480 0.421238 0.004042
#
# Coordination Sequence:
#
# PCOD8056012 Si02
#       8
#     4   4   4   4   4   4   4   4
#     4  10  26  44  67 102 137 182 243 281 340 410
#     4  12  24  41  73 100 139 180 227 280 352 412
#     4  11  24  43  73  98 139 187 227 287 348 410
#     4  11  23  46  70  96 143 188 224 291 346 406
#     4  11  24  47  66  98 142 183 223 292 342 404
#     4  11  25  43  69 102 144 177 224 283 350 416
#     4  11  23  44  68 100 137 181 228 287 335 415
#     4  11  25  40  68 106 139 174 232 273 351 417
#
# _framework density 21.927679000000001
#
# number of rings (size 3 to 8) (size 9 to 14) (size 15 to 20)
#    0.000    1.000    3.750    1.500    8.750    0.000 
#    0.000    0.000    0.000    0.000    0.000    0.000 
#    0.000    0.000    0.000    0.000    0.000    0.000 
#
# Total GULP energy -198213.639020 kJ/mol
# GULP energy per Si atom -12388.352439 kJ/mol
# Density = 2.187777 g / cm^3
# Si number density = 21.927679 Si / 1000 Ang^3
#
#
#
# Elastic Constant Matrix: (Units=GPa)
#
#
# Indices 1 2 3 4 5 6 
#
# 1 127.3667 58.8990 50.8698 -0.0020 5.2804 -0.0010
# 2 58.8990 123.9012 47.5841 0.0014 9.6234 -0.0004
# 3 50.8698 47.5841 96.3427 -0.0191 19.6711 -0.0242
# 4 -0.0020 0.0014 -0.0191 30.2752 0.0003 4.6792
# 5 5.2804 9.6234 19.6711 0.0003 40.0510 0.0032
# 6 -0.0010 -0.0004 -0.0242 4.6792 0.0032 39.1419
#
#
#
# Elastic Compliance Matrix: (Units=1/GPa)
#
#
# Indices 1 2 3 4 5 6 
#
# 1 0.011308 -0.003803 -0.004418 -0.000002 0.001593 -0.000002
# 2 -0.003803 0.011239 -0.003439 -0.000003 -0.000510 -0.000002
# 3 -0.004418 -0.003439 0.015697 0.000008 -0.006301 0.000009
# 4 -0.000002 -0.000003 0.000008 0.033652 -0.000003 -0.004023
# 5 0.001593 -0.000510 -0.006301 -0.000003 0.027975 -0.000006
# 6 -0.000002 -0.000002 0.000009 -0.004023 -0.000006 0.026029
#
#
# Mechanical properties :
#
#
# Convention : Reuss Voigt Hill
#
# Bulk Modulus (GPa) = 66.99936 73.59070 70.29503
# Shear Modulus (GPa) = 32.42635 34.57746 33.50191
#
# Velocity S-wave (km/s) = 3.84967 3.97531 3.91300
# Velocity P-wave (km/s) = 7.09796 7.39624 7.24863
#
# Compressibility (1/GPa) = 0.01492552
#
# Stress axis : x y z
#
# Youngs Moduli (GPa) = 88.43065 88.97611 63.70480
#
# Poissons Ratio (x) = 0.33834 0.28144
# Poissons Ratio (y) = 0.33627 0.21908
# Poissons Ratio (z) = 0.39068 0.30599
#
# Static dielectric constant tensor:
#      x y z
#    x 4.182980 0.000000 0.110810 
#    y 0.000000 4.106780 -0.000020 
#    z 0.110810 -0.000020 3.770200 
# 
# 
# High freq. dielectric constant tensor:
#      x y z
#    x 1.873900 0.000000 0.014370 
#    y 0.000000 1.872100 0.000000 
#    z 0.014370 0.000000 1.846100 
# 
# From -- ./inp_files/11025.got.cif
#   From: 2010.06.25/outbox.cif.g09.slc.cpg/sg9_6_cif.got.tgz:11025.got - 2010.06.27 21:40:51.
