data_PCOD8056479
_publ_section_title
;
Structure prediction by ZEFSAII (Michael W. Deem and Ramdas Pophale) SiO2 
 PCOD8056479
Probable space group: C C
;
_chemical_formula_sum "Si O2"
_cell_formula_units_Z 28
_cell_length_a 7.806498
_cell_length_b 17.979364
_cell_length_c 11.220172
_cell_angle_alpha 90.000000
_cell_angle_beta 49.878473
_cell_angle_gamma 90.000000
_cell_volume 1204.230016
_symmetry_space_group_name_H-M "C C"
_symmetry_group_IT_number 9
_symmetry_cell_setting 'monoclinic'
loop_
_space_group_symop_operation_xyz
x,y,z
x,-y,1/2+z
1/2+x,1/2+y,z
1/2+x,1/2-y,1/2+z
loop_
_atom_site_type_symbol
_atom_site_label
_atom_site_fract_x
_atom_site_fract_y
_atom_site_fract_z
Si Si1 0.448890 0.223625 0.930920
Si Si2 0.589490 0.889825 0.565274
Si Si3 0.789979 0.389706 0.072725
Si Si4 0.748435 0.116253 0.249998
Si Si5 0.624706 0.616411 0.392815
Si Si6 0.438936 0.500569 0.320527
Si Si7 0.952380 0.732490 0.679333
O O1 0.561051 0.304148 0.869706
O O2 0.500780 0.184873 0.779073
O O3 0.556957 0.180756 0.993317
O O4 0.182954 0.228207 0.043157
O O5 0.750470 0.873433 0.605884
O O6 0.352551 0.912414 0.727566
O O7 0.710078 0.953347 0.433729
O O8 0.663558 0.450974 0.209183
O O9 0.835124 0.317013 0.131378
O O10 0.627516 0.372921 0.033850
O O11 0.022081 0.416813 0.910932
O O12 0.785805 0.198870 0.284419
O O13 0.933176 0.055465 0.207618
O O14 0.447266 0.552857 0.435010
#
# Coordination Sequence:
#
# PCOD8056479 Si02
#       7
#     4   4   4   4   4   4   4
#     4  12  24  45  72  99 140 182 233 284 345 405
#     4  11  26  43  70 106 136 182 231 285 346 409
#     4  11  26  43  70 106 136 182 231 285 346 409
#     4  11  24  48  69 101 145 177 229 291 342 410
#     4  11  24  48  69 101 145 177 229 291 342 410
#     4  12  24  46  72 104 138 186 228 282 352 412
#     4  12  24  45  72  99 140 182 233 284 345 405
#
# _framework density 23.251373000000001
#
# number of rings (size 3 to 8) (size 9 to 14) (size 15 to 20)
#    0.000    0.571    4.286    2.571    4.000    2.286 
#   10.286    0.000    0.000    0.000    0.000    0.000 
#    0.000    0.000    0.000    0.000    0.000    0.000 
#
# Total GULP energy -173495.486752 kJ/mol
# GULP energy per Si atom -12392.534768 kJ/mol
# Density = 2.319845 g / cm^3
# Si number density = 23.251373 Si / 1000 Ang^3
#
#
#
# Elastic Constant Matrix: (Units=GPa)
#
#
# Indices 1 2 3 4 5 6 
#
# 1 128.2127 72.7025 33.8788 0.0000 25.8092 0.0000
# 2 72.7025 139.4631 48.7078 0.0000 10.6261 0.0000
# 3 33.8788 48.7078 77.3012 0.0000 20.1086 0.0000
# 4 0.0000 0.0000 0.0000 29.7541 0.0000 6.9719
# 5 25.8092 10.6261 20.1086 0.0000 41.6999 0.0000
# 6 0.0000 0.0000 0.0000 6.9719 0.0000 53.4255
#
#
#
# Elastic Compliance Matrix: (Units=1/GPa)
#
#
# Indices 1 2 3 4 5 6 
#
# 1 0.012459 -0.005998 -0.000083 0.000000 -0.006143 0.000000
# 2 -0.005998 0.012091 -0.005893 0.000000 0.003473 0.000000
# 3 -0.000083 -0.005893 0.018618 0.000000 -0.007425 0.000000
# 4 0.000000 0.000000 0.000000 0.034669 0.000000 -0.004524
# 5 -0.006143 0.003473 -0.007425 0.000000 0.030478 0.000000
# 6 0.000000 0.000000 0.000000 -0.004524 0.000000 0.019308
#
#
# Mechanical properties :
#
#
# Convention : Reuss Voigt Hill
#
# Bulk Modulus (GPa) = 52.03235 72.83945 62.43590
# Shear Modulus (GPa) = 31.65018 37.62178 34.63598
#
# Velocity S-wave (km/s) = 3.69347 4.02686 3.86376
# Velocity P-wave (km/s) = 6.37305 7.28119 6.84220
#
# Compressibility (1/GPa) = 0.01921881
#
# Stress axis : x y z
#
# Youngs Moduli (GPa) = 80.26234 82.70866 53.71281
#
# Poissons Ratio (x) = 0.49608 0.00447
# Poissons Ratio (y) = 0.48140 0.31654
# Poissons Ratio (z) = 0.00668 0.48741
#
# Static dielectric constant tensor:
#      x y z
#    x 4.431130 0.000000 0.178360 
#    y 0.000000 3.902360 0.000000 
#    z 0.178360 0.000000 4.153730 
# 
# 
# High freq. dielectric constant tensor:
#      x y z
#    x 1.936420 0.000000 0.011560 
#    y 0.000000 1.905320 0.000000 
#    z 0.011560 0.000000 1.920310 
# 
# From -- ./inp_files/15026.got.cif
#   From: 2010.06.25/outbox.cif.g09.slc.cpg/sg9_8_cif.got.tgz:15026.got - 2010.06.27 21:40:51.
