data_PCOD8056333
_publ_section_title
;
Structure prediction by ZEFSAII (Michael W. Deem and Ramdas Pophale) SiO2 
 PCOD8056333
Probable space group: C C
;
_chemical_formula_sum "Si O2"
_cell_formula_units_Z 32
_cell_length_a 9.028477
_cell_length_b 17.121546
_cell_length_c 10.478386
_cell_angle_alpha 90.000000
_cell_angle_beta 113.256938
_cell_angle_gamma 90.000000
_cell_volume 1488.147913
_symmetry_space_group_name_H-M "C C"
_symmetry_group_IT_number 9
_symmetry_cell_setting 'monoclinic'
loop_
_space_group_symop_operation_xyz
x,y,z
x,-y,1/2+z
1/2+x,1/2+y,z
1/2+x,1/2-y,1/2+z
loop_
_atom_site_type_symbol
_atom_site_label
_atom_site_fract_x
_atom_site_fract_y
_atom_site_fract_z
Si Si1 0.392530 0.819642 0.625000
Si Si2 0.703421 0.429786 0.383438
Si Si3 0.349218 0.205492 0.540550
Si Si4 0.134852 0.192841 0.248871
Si Si5 0.985565 0.063592 0.359277
Si Si6 0.073484 0.834943 0.118205
Si Si7 0.123173 0.546687 0.260669
Si Si8 0.479514 0.043545 0.482876
O O1 0.274596 0.854231 0.477653
O O2 0.290689 0.822557 0.717864
O O3 0.451811 0.733400 0.614484
O O4 0.553291 0.869818 0.696996
O O5 0.589378 0.486395 0.429660
O O6 0.588529 0.397844 0.234487
O O7 0.846083 0.484665 0.381342
O O8 0.209601 0.240460 0.397179
O O9 0.501864 0.259109 0.623459
O O10 0.255582 0.190588 0.641577
O O11 0.407308 0.128797 0.484192
O O12 0.056889 0.109657 0.260968
O O13 0.803998 0.038693 0.273564
O O14 0.982897 0.123408 0.473512
O O15 0.109202 0.539114 0.410781
O O16 0.035934 0.481688 0.143725
#
# Coordination Sequence:
#
# PCOD8056333 Si02
#       8
#     4   4   4   4   4   4   4   4
#     4  11  26  43  72 103 144 184 239 302 366 433
#     4  11  25  44  73  98 140 194 232 293 368 438
#     4  11  24  45  72 100 146 186 241 304 370 438
#     4  11  25  44  71 101 145 187 241 299 376 430
#     4  11  26  46  70 101 144 187 240 302 355 453
#     4  11  26  44  73 103 141 185 241 295 373 436
#     4  11  25  43  72 104 144 184 251 299 365 435
#     4  11  23  47  69 102 142 197 237 304 367 447
#
# _framework density 21.503236999999999
#
# number of rings (size 3 to 8) (size 9 to 14) (size 15 to 20)
#    0.000    1.000    3.750    1.500   14.000    0.000 
#    2.250    0.000    0.000    0.000    0.000    0.000 
#    0.000    0.000    0.000    0.000    0.000    0.000 
#
# Total GULP energy -198295.057905 kJ/mol
# GULP energy per Si atom -12393.441119 kJ/mol
# Density = 2.145429 g / cm^3
# Si number density = 21.503237 Si / 1000 Ang^3
#
#
#
# Elastic Constant Matrix: (Units=GPa)
#
#
# Indices 1 2 3 4 5 6 
#
# 1 121.7536 41.6137 34.5851 0.0000 2.6085 0.0000
# 2 41.6137 96.9019 34.5645 0.0000 2.6569 0.0000
# 3 34.5851 34.5645 78.6783 0.0000 -1.4124 0.0000
# 4 0.0000 0.0000 0.0000 22.6900 0.0000 -0.2956
# 5 2.6085 2.6569 -1.4124 0.0000 41.9445 0.0000
# 6 0.0000 0.0000 0.0000 -0.2956 0.0000 30.9940
#
#
#
# Elastic Compliance Matrix: (Units=1/GPa)
#
#
# Indices 1 2 3 4 5 6 
#
# 1 0.010215 -0.003281 -0.003058 0.000000 -0.000530 0.000000
# 2 -0.003281 0.013330 -0.004428 0.000000 -0.000789 0.000000
# 3 -0.003058 -0.004428 0.016018 0.000000 0.001010 0.000000
# 4 0.000000 0.000000 0.000000 0.044078 0.000000 0.000420
# 5 -0.000530 -0.000789 0.001010 0.000000 0.023958 0.000000
# 6 0.000000 0.000000 0.000000 0.000420 0.000000 0.032268
#
#
# Mechanical properties :
#
#
# Convention : Reuss Voigt Hill
#
# Bulk Modulus (GPa) = 55.47001 57.65116 56.56058
# Shear Modulus (GPa) = 29.86676 31.56375 30.71525
#
# Velocity S-wave (km/s) = 3.73089 3.83542 3.78352
# Velocity P-wave (km/s) = 6.66420 6.81782 6.74145
#
# Compressibility (1/GPa) = 0.01802776
#
# Stress axis : x y z
#
# Youngs Moduli (GPa) = 97.89630 75.01959 62.43130
#
# Poissons Ratio (x) = 0.24616 0.19093
# Poissons Ratio (y) = 0.32123 0.27643
# Poissons Ratio (z) = 0.29939 0.33217
#
# Static dielectric constant tensor:
#      x y z
#    x 3.993960 0.000000 -0.038020 
#    y 0.000000 3.824150 0.000000 
#    z -0.038020 0.000000 3.924600 
# 
# 
# High freq. dielectric constant tensor:
#      x y z
#    x 1.852420 0.000000 0.003100 
#    y 0.000000 1.836580 0.000000 
#    z 0.003100 0.000000 1.850320 
# 
# From -- ./inp_files/14703.got.cif
#   From: 2010.06.25/outbox.cif.g09.slc.cpg/sg9_8_cif.got.tgz:14703.got - 2010.06.27 21:40:51.
