data_PCOD8056166
_publ_section_title
;
Structure prediction by ZEFSAII (Michael W. Deem and Ramdas Pophale) SiO2 
 PCOD8056166
Probable space group: C C
;
_chemical_formula_sum "Si O2"
_cell_formula_units_Z 32
_cell_length_a 12.265477
_cell_length_b 9.610881
_cell_length_c 13.806957
_cell_angle_alpha 90.000000
_cell_angle_beta 115.290958
_cell_angle_gamma 90.000000
_cell_volume 1471.587507
_symmetry_space_group_name_H-M "C C"
_symmetry_group_IT_number 9
_symmetry_cell_setting 'monoclinic'
loop_
_space_group_symop_operation_xyz
x,y,z
x,-y,1/2+z
1/2+x,1/2+y,z
1/2+x,1/2-y,1/2+z
loop_
_atom_site_type_symbol
_atom_site_label
_atom_site_fract_x
_atom_site_fract_y
_atom_site_fract_z
Si Si1 0.461320 0.819361 0.526810
Si Si2 0.296103 0.676225 0.595014
Si Si3 0.209676 0.422501 0.680334
Si Si4 0.583655 0.753619 0.381702
Si Si5 0.314696 0.916881 0.954601
Si Si6 0.373457 0.101103 0.262341
Si Si7 0.373643 0.809601 0.175665
Si Si8 0.146211 0.434483 0.868402
O O1 0.425556 0.697273 0.589510
O O2 0.566979 0.924074 0.602897
O O3 0.496830 0.743426 0.441500
O O4 0.342047 0.917579 0.468611
O O5 0.288154 0.546016 0.663717
O O6 0.283913 0.810561 0.659934
O O7 0.195658 0.662584 0.473338
O O8 0.257188 0.284076 0.647810
O O9 0.228865 0.424010 0.803618
O O10 0.674421 0.622983 0.416734
O O11 0.498631 0.737608 0.255229
O O12 0.648313 0.904917 0.405197
O O13 0.354332 0.856447 0.866328
O O14 0.390099 0.843517 0.068823
O O15 0.514322 0.123265 0.291440
O O16 0.343649 0.941426 0.231368
#
# Coordination Sequence:
#
# PCOD8056166 Si02
#       8
#     4   4   4   4   4   4   4   4
#     4  12  22  45  73  98 145 184 235 293 361 420
#     4  12  24  43  74 106 135 190 238 290 359 427
#     4  12  24  45  72  98 146 187 237 295 358 424
#     4  11  23  45  71 102 140 192 237 292 365 419
#     4  12  22  42  74  99 142 191 233 294 363 424
#     4  11  24  42  71 106 136 188 246 286 359 427
#     4  11  23  45  70 100 141 192 233 298 365 420
#     4  11  22  43  73  99 143 190 231 300 354 417
#
# _framework density 21.745225000000001
#
# number of rings (size 3 to 8) (size 9 to 14) (size 15 to 20)
#    0.000    0.500    7.500    2.250    0.000    1.000 
#    4.500    0.000   13.750    0.000    0.000    0.000 
#    0.000    0.000    0.000    0.000    0.000    0.000 
#
# Total GULP energy -198327.684112 kJ/mol
# GULP energy per Si atom -12395.480257 kJ/mol
# Density = 2.169573 g / cm^3
# Si number density = 21.745225 Si / 1000 Ang^3
#
#
#
# Elastic Constant Matrix: (Units=GPa)
#
#
# Indices 1 2 3 4 5 6 
#
# 1 116.4362 67.7184 53.9496 0.0000 -18.1068 0.0000
# 2 67.7184 88.5427 40.9071 0.0000 3.2674 0.0000
# 3 53.9496 40.9071 129.7483 0.0000 -17.6902 0.0000
# 4 0.0000 0.0000 0.0000 35.2953 0.0000 -1.1782
# 5 -18.1068 3.2674 -17.6902 0.0000 46.2459 0.0000
# 6 0.0000 0.0000 0.0000 -1.1782 0.0000 45.4119
#
#
#
# Elastic Compliance Matrix: (Units=1/GPa)
#
#
# Indices 1 2 3 4 5 6 
#
# 1 0.018688 -0.013379 -0.002559 0.000000 0.007283 0.000000
# 2 -0.013379 0.023117 -0.002809 0.000000 -0.007946 0.000000
# 3 -0.002559 -0.002809 0.010073 0.000000 0.003049 0.000000
# 4 0.000000 0.000000 0.000000 0.028357 0.000000 0.000736
# 5 0.007283 -0.007946 0.003049 0.000000 0.026203 0.000000
# 6 0.000000 0.000000 0.000000 0.000736 0.000000 0.022040
#
#
# Mechanical properties :
#
#
# Convention : Reuss Voigt Hill
#
# Bulk Modulus (GPa) = 69.52336 73.31969 71.42153
# Shear Modulus (GPa) = 29.27968 36.86744 33.07356
#
# Velocity S-wave (km/s) = 3.67343 4.12202 3.90418
# Velocity P-wave (km/s) = 7.07342 7.51303 7.29654
#
# Compressibility (1/GPa) = 0.01438365
#
# Stress axis : x y z
#
# Youngs Moduli (GPa) = 53.51012 43.25749 99.27801
#
# Poissons Ratio (x) = 0.57875 0.25408
# Poissons Ratio (y) = 0.71592 0.27885
# Poissons Ratio (z) = 0.13695 0.12150
#
# Static dielectric constant tensor:
#      x y z
#    x 3.909060 0.000000 -0.181720 
#    y 0.000000 3.749270 0.000000 
#    z -0.181720 0.000000 4.251080 
# 
# 
# High freq. dielectric constant tensor:
#      x y z
#    x 1.843210 0.000000 -0.018830 
#    y 0.000000 1.829810 0.000000 
#    z -0.018830 0.000000 1.879520 
# 
# From -- ./inp_files/24406.got.cif
#   From: 2010.06.25/outbox.cif.g09.slc.cpg/sg9_13_cif.got.tgz:24406.got - 2010.06.27 21:40:51.
