data_PCOD8056663
_publ_section_title
;
Structure prediction by ZEFSAII (Michael W. Deem and Ramdas Pophale) SiO2 
 PCOD8056663
Probable space group: C C
;
_chemical_formula_sum "Si O2"
_cell_formula_units_Z 32
_cell_length_a 11.442839
_cell_length_b 14.398019
_cell_length_c 9.250960
_cell_angle_alpha 90.000000
_cell_angle_beta 69.650308
_cell_angle_gamma 90.000000
_cell_volume 1429.009872
_symmetry_space_group_name_H-M "C C"
_symmetry_group_IT_number 9
_symmetry_cell_setting 'monoclinic'
loop_
_space_group_symop_operation_xyz
x,y,z
x,-y,1/2+z
1/2+x,1/2+y,z
1/2+x,1/2-y,1/2+z
loop_
_atom_site_type_symbol
_atom_site_label
_atom_site_fract_x
_atom_site_fract_y
_atom_site_fract_z
Si Si1 0.878800 0.265218 0.976220
Si Si2 0.205700 0.578285 0.731385
Si Si3 0.620277 0.792139 0.034719
Si Si4 0.196521 0.630003 0.206768
Si Si5 0.193629 0.074448 0.459560
Si Si6 0.464501 0.324198 0.157196
Si Si7 0.014582 0.634945 0.049931
Si Si8 0.732912 0.603978 0.117418
O O1 0.807502 0.358794 0.958106
O O2 0.965542 0.224216 0.812873
O O3 0.972241 0.280813 0.070471
O O4 0.778175 0.187387 0.058375
O O5 0.128314 0.615287 0.628064
O O6 0.253052 0.472704 0.700720
O O7 0.326974 0.641305 0.686165
O O8 0.117375 0.586269 0.907352
O O9 0.694564 0.813287 0.856076
O O10 0.681923 0.703380 0.086483
O O11 0.058368 0.617524 0.197462
O O12 0.167668 0.079175 0.298530
O O13 0.068178 0.097341 0.602291
O O14 0.213100 0.968325 0.496797
O O15 0.504787 0.245615 0.022682
O O16 0.878865 0.594317 0.086390
#
# Coordination Sequence:
#
# PCOD8056663 Si02
#       8
#     4   4   4   4   4   4   4   4
#     4  12  25  48  74 108 151 199 247 311 377 441
#     4  12  28  46  75 111 147 201 250 315 375 442
#     4  12  27  47  70 115 147 190 256 307 375 442
#     4  12  27  46  75 108 148 199 250 311 372 449
#     4  12  28  49  79 108 152 200 251 309 375 450
#     4  12  23  50  76 102 154 197 247 304 381 442
#     4  12  24  50  72 101 152 195 250 302 374 445
#     4  12  30  48  75 113 147 203 249 311 377 445
#
# _framework density 22.393125999999999
#
# number of rings (size 3 to 8) (size 9 to 14) (size 15 to 20)
#    0.000    0.000    6.250    1.500   12.250    1.000 
#    0.000    0.000    0.000    0.000    0.000    0.000 
#    0.000    0.000    0.000    0.000    0.000    0.000 
#
# Total GULP energy -198400.369106 kJ/mol
# GULP energy per Si atom -12400.023069 kJ/mol
# Density = 2.234216 g / cm^3
# Si number density = 22.393126 Si / 1000 Ang^3
#
#
#
# Elastic Constant Matrix: (Units=GPa)
#
#
# Indices 1 2 3 4 5 6 
#
# 1 88.8329 2.7873 29.7540 0.0000 6.9955 0.0000
# 2 2.7873 108.9294 45.3132 0.0000 7.1226 0.0000
# 3 29.7540 45.3132 108.7489 0.0000 10.8212 0.0000
# 4 0.0000 0.0000 0.0000 35.3030 0.0000 9.0135
# 5 6.9955 7.1226 10.8212 0.0000 33.1599 0.0000
# 6 0.0000 0.0000 0.0000 9.0135 0.0000 28.8301
#
#
#
# Elastic Compliance Matrix: (Units=1/GPa)
#
#
# Indices 1 2 3 4 5 6 
#
# 1 0.012645 0.001399 -0.003873 0.000000 -0.001704 0.000000
# 2 0.001399 0.011286 -0.004976 0.000000 -0.001095 0.000000
# 3 -0.003873 -0.004976 0.012549 0.000000 -0.002209 0.000000
# 4 0.000000 0.000000 0.000000 0.030783 0.000000 -0.009624
# 5 -0.001704 -0.001095 -0.002209 0.000000 0.031473 0.000000
# 6 0.000000 0.000000 0.000000 -0.009624 0.000000 0.037695
#
#
# Mechanical properties :
#
#
# Convention : Reuss Voigt Hill
#
# Bulk Modulus (GPa) = 46.34247 51.35781 48.85014
# Shear Modulus (GPa) = 31.54097 34.70239 33.12168
#
# Velocity S-wave (km/s) = 3.75709 3.94088 3.85008
# Velocity P-wave (km/s) = 6.28974 6.60998 6.45184
#
# Compressibility (1/GPa) = 0.02157848
#
# Stress axis : x y z
#
# Youngs Moduli (GPa) = 79.08506 88.60352 79.69053
#
# Poissons Ratio (x) = -0.12395 0.30864
# Poissons Ratio (y) = -0.11064 0.39658
# Poissons Ratio (z) = 0.30629 0.44093
#
# Static dielectric constant tensor:
#      x y z
#    x 4.066110 0.000000 0.063630 
#    y 0.000000 4.078430 0.000000 
#    z 0.063630 0.000000 4.078690 
# 
# 
# High freq. dielectric constant tensor:
#      x y z
#    x 1.889890 0.000000 0.000040 
#    y 0.000000 1.890690 0.000000 
#    z 0.000040 0.000000 1.884810 
# 
# From -- ./inp_files/7480.got.cif
#   From: 2010.06.25/outbox.cif.g09.slc.cpg/sg9_4_cif.got.tgz:7480.got - 2010.06.27 21:40:51.
