data_PCOD8056580
_publ_section_title
;
Structure prediction by ZEFSAII (Michael W. Deem and Ramdas Pophale) SiO2 
 PCOD8056580
Probable space group: C C
;
_chemical_formula_sum "Si O2"
_cell_formula_units_Z 28
_cell_length_a 7.669583
_cell_length_b 9.335424
_cell_length_c 19.259411
_cell_angle_alpha 90.000000
_cell_angle_beta 124.683694
_cell_angle_gamma 90.000000
_cell_volume 1133.919622
_symmetry_space_group_name_H-M "C C"
_symmetry_group_IT_number 9
_symmetry_cell_setting 'monoclinic'
loop_
_space_group_symop_operation_xyz
x,y,z
x,-y,1/2+z
1/2+x,1/2+y,z
1/2+x,1/2-y,1/2+z
loop_
_atom_site_type_symbol
_atom_site_label
_atom_site_fract_x
_atom_site_fract_y
_atom_site_fract_z
Si Si1 0.693050 0.094698 0.494890
Si Si2 0.576908 0.622055 0.915208
Si Si3 0.766340 0.099706 0.284716
Si Si4 0.885413 0.397232 0.359039
Si Si5 0.160843 0.954311 0.067548
Si Si6 0.307091 0.882071 0.730623
Si Si7 0.117534 0.398415 0.142529
O O1 0.531207 0.213041 0.426129
O O2 0.674422 0.099603 0.574211
O O3 0.936045 0.128408 0.525277
O O4 0.616548 0.945890 0.441435
O O5 0.373133 0.532668 0.847951
O O6 0.748395 0.625787 0.894917
O O7 0.681241 0.553806 0.005933
O O8 0.904271 0.247806 0.318871
O O9 0.558110 0.124583 0.281958
O O10 0.695424 0.053289 0.190608
O O11 0.759986 0.518136 0.286349
O O12 0.371955 0.858158 0.105259
O O13 0.176933 0.053537 0.137849
O O14 0.240646 0.716713 0.718390
#
# Coordination Sequence:
#
# PCOD8056580 Si02
#       7
#     4   4   4   4   4   4   4
#     4  12  27  50  81 111 157 200 258 318 379 456
#     4  12  25  49  75 113 152 200 258 315 379 455
#     4  11  27  48  75 112 156 196 260 313 379 465
#     4  12  26  47  77 113 152 206 249 319 385 448
#     4  11  26  46  77 116 150 196 256 318 380 455
#     4  11  26  50  74 114 151 200 259 315 379 460
#     4  11  25  54  77 113 156 202 252 322 383 447
#
# _framework density 24.693106
#
# number of rings (size 3 to 8) (size 9 to 14) (size 15 to 20)
#    0.000    0.571    2.857    4.286    4.000    6.857 
#    5.143    0.000    0.000    0.000    0.000    0.000 
#    0.000    0.000    0.000    0.000    0.000    0.000 
#
# Total GULP energy -173484.751635 kJ/mol
# GULP energy per Si atom -12391.767974 kJ/mol
# Density = 2.463690 g / cm^3
# Si number density = 24.693106 Si / 1000 Ang^3
#
#
#
# Elastic Constant Matrix: (Units=GPa)
#
#
# Indices 1 2 3 4 5 6 
#
# 1 115.2432 56.5580 53.3913 0.0000 5.5376 0.0000
# 2 56.5580 141.7633 75.9022 0.0000 4.4487 0.0000
# 3 53.3913 75.9022 136.5861 0.0000 -7.3819 0.0000
# 4 0.0000 0.0000 0.0000 107.8568 0.0000 -39.1672
# 5 5.5376 4.4487 -7.3819 0.0000 56.9483 0.0000
# 6 0.0000 0.0000 0.0000 -39.1672 0.0000 65.8573
#
#
#
# Elastic Compliance Matrix: (Units=1/GPa)
#
#
# Indices 1 2 3 4 5 6 
#
# 1 0.011568 -0.003015 -0.002915 0.000000 -0.001267 0.000000
# 2 -0.003015 0.010960 -0.004977 0.000000 -0.001208 0.000000
# 3 -0.002915 -0.004977 0.011343 0.000000 0.002143 0.000000
# 4 0.000000 0.000000 0.000000 0.011826 0.000000 0.007033
# 5 -0.001267 -0.001208 0.002143 0.000000 0.018055 0.000000
# 6 0.000000 0.000000 0.000000 0.007033 0.000000 0.019367
#
#
# Mechanical properties :
#
#
# Convention : Reuss Voigt Hill
#
# Bulk Modulus (GPa) = 82.94442 85.03285 83.98863
# Shear Modulus (GPa) = 45.89217 59.98188 52.93703
#
# Velocity S-wave (km/s) = 4.31571 4.93393 4.63514
# Velocity P-wave (km/s) = 7.64832 8.18345 7.92041
#
# Compressibility (1/GPa) = 0.01205627
#
# Stress axis : x y z
#
# Youngs Moduli (GPa) = 86.44291 91.24497 88.16312
#
# Poissons Ratio (x) = 0.27507 0.25702
# Poissons Ratio (y) = 0.26060 0.43880
# Poissons Ratio (z) = 0.25200 0.45414
#
# Static dielectric constant tensor:
#      x y z
#    x 4.358930 0.000000 -0.035740 
#    y 0.000000 -1.463160 0.000000 
#    z -0.035740 0.000000 4.810390 
# 
# 
# High freq. dielectric constant tensor:
#      x y z
#    x 1.972370 0.000000 -0.007000 
#    y 0.000000 1.979280 0.000000 
#    z -0.007000 0.000000 2.014060 
# 
# From -- ./inp_files/32362.got.cif
#   From: 2010.06.25/outbox.cif.g09.slc.cpg/sg9_17_cif.got.tgz:32362.got - 2010.06.27 21:40:51.
