data_PCOD8056461
_publ_section_title
;
Structure prediction by ZEFSAII (Michael W. Deem and Ramdas Pophale) SiO2 
 PCOD8056461
Probable space group: C C
;
_chemical_formula_sum "Si O2"
_cell_formula_units_Z 24
_cell_length_a 14.771318
_cell_length_b 11.605526
_cell_length_c 11.106542
_cell_angle_alpha 90.000000
_cell_angle_beta 31.952189
_cell_angle_gamma 90.000000
_cell_volume 1007.609250
_symmetry_space_group_name_H-M "C C"
_symmetry_group_IT_number 9
_symmetry_cell_setting 'monoclinic'
loop_
_space_group_symop_operation_xyz
x,y,z
x,-y,1/2+z
1/2+x,1/2+y,z
1/2+x,1/2-y,1/2+z
loop_
_atom_site_type_symbol
_atom_site_label
_atom_site_fract_x
_atom_site_fract_y
_atom_site_fract_z
Si Si1 0.096040 0.607325 0.465770
Si Si2 0.553395 0.590301 0.132636
Si Si3 0.191960 0.705144 0.591136
Si Si4 0.062523 0.352324 0.494668
Si Si5 0.764921 0.678772 0.696382
Si Si6 0.699307 0.651091 0.494483
O O1 0.059596 0.645478 0.645421
O O2 0.158066 0.474824 0.397489
O O3 0.254323 0.684528 0.238403
O O4 0.935054 0.624322 0.560366
O O5 0.370157 0.637707 0.381049
O O6 0.699837 0.659412 0.044292
O O7 0.596055 0.617568 0.944257
O O8 0.564400 0.453708 0.141412
O O9 0.112075 0.704317 0.813058
O O10 0.110277 0.268243 0.550787
O O11 0.859627 0.375941 0.727095
O O12 0.768142 0.663533 0.550984
#
# Coordination Sequence:
#
# PCOD8056461 Si02
#       6
#     4   4   4   4   4   4
#     4  11  25  46  78 105 150 200 251 312 370 447
#     4  11  25  46  79 108 147 198 254 309 374 451
#     4  11  26  46  78 107 150 197 255 304 383 443
#     4  12  29  47  72 114 156 198 247 312 383 441
#     4  11  24  46  77 107 146 198 256 305 378 438
#     4  12  29  47  76 111 157 199 249 314 380 444
#
# _framework density 23.818757999999999
#
# number of rings (size 3 to 8) (size 9 to 14) (size 15 to 20)
#    0.000    0.667    1.667    6.000    9.333    2.667 
#    0.000    0.000    0.000    0.000    0.000    0.000 
#    0.000    0.000    0.000    0.000    0.000    0.000 
#
# Total GULP energy -148765.073829 kJ/mol
# GULP energy per Si atom -12397.089486 kJ/mol
# Density = 2.376455 g / cm^3
# Si number density = 23.818758 Si / 1000 Ang^3
#
#
#
# Elastic Constant Matrix: (Units=GPa)
#
#
# Indices 1 2 3 4 5 6 
#
# 1 138.7184 53.5189 45.5026 0.0000 8.0226 0.0000
# 2 53.5189 197.4041 25.8785 0.0000 -2.9865 0.0000
# 3 45.5026 25.8785 109.4701 0.0000 6.7579 0.0000
# 4 0.0000 0.0000 0.0000 26.1063 0.0000 -6.8919
# 5 8.0226 -2.9865 6.7579 0.0000 38.2914 0.0000
# 6 0.0000 0.0000 0.0000 -6.8919 0.0000 24.4714
#
#
#
# Elastic Compliance Matrix: (Units=1/GPa)
#
#
# Indices 1 2 3 4 5 6 
#
# 1 0.009156 -0.002083 -0.003220 0.000000 -0.001513 0.000000
# 2 -0.002083 0.005717 -0.000546 0.000000 0.000979 0.000000
# 3 -0.003220 -0.000546 0.010680 0.000000 -0.001253 0.000000
# 4 0.000000 0.000000 0.000000 0.041382 0.000000 0.011654
# 5 -0.001513 0.000979 -0.001253 0.000000 0.026730 0.000000
# 6 0.000000 0.000000 0.000000 0.011654 0.000000 0.044146
#
#
# Mechanical properties :
#
#
# Convention : Reuss Voigt Hill
#
# Bulk Modulus (GPa) = 72.17866 77.26585 74.72225
# Shear Modulus (GPa) = 32.44070 39.15333 35.79701
#
# Velocity S-wave (km/s) = 3.69451 4.05878 3.88092
# Velocity P-wave (km/s) = 6.96909 7.38068 7.17784
#
# Compressibility (1/GPa) = 0.01385451
#
# Stress axis : x y z
#
# Youngs Moduli (GPa) = 109.21466 174.91997 93.63470
#
# Poissons Ratio (x) = 0.36438 0.30151
# Poissons Ratio (y) = 0.22751 0.05112
# Poissons Ratio (z) = 0.35168 0.09551
#
# Static dielectric constant tensor:
#      x y z
#    x 4.291690 0.000000 0.025000 
#    y 0.000000 4.486800 0.000000 
#    z 0.025000 0.000000 4.252560 
# 
# 
# High freq. dielectric constant tensor:
#      x y z
#    x 1.942000 0.000000 0.005790 
#    y 0.000000 1.950350 0.000000 
#    z 0.005790 0.000000 1.941630 
# 
# From -- ./inp_files/16338.got.cif
#   From: 2010.06.25/outbox.cif.g09.slc.cpg/sg9_9_cif.got.tgz:16338.got - 2010.06.27 21:40:51.
