data_PCOD8056417
_publ_section_title
;
Structure prediction by ZEFSAII (Michael W. Deem and Ramdas Pophale) SiO2 
 PCOD8056417
Probable space group: C C
;
_chemical_formula_sum "Si O2"
_cell_formula_units_Z 28
_cell_length_a 11.829074
_cell_length_b 10.995256
_cell_length_c 15.994697
_cell_angle_alpha 90.000000
_cell_angle_beta 32.541205
_cell_angle_gamma 90.000000
_cell_volume 1119.021689
_symmetry_space_group_name_H-M "C C"
_symmetry_group_IT_number 9
_symmetry_cell_setting 'monoclinic'
loop_
_space_group_symop_operation_xyz
x,y,z
x,-y,1/2+z
1/2+x,1/2+y,z
1/2+x,1/2-y,1/2+z
loop_
_atom_site_type_symbol
_atom_site_label
_atom_site_fract_x
_atom_site_fract_y
_atom_site_fract_z
Si Si1 0.862210 0.803311 0.747670
Si Si2 0.405313 0.177275 0.550624
Si Si3 0.545006 0.828886 0.270489
Si Si4 0.815393 0.333123 0.843335
Si Si5 0.287094 0.357436 0.490005
Si Si6 0.230563 0.996433 0.543771
Si Si7 0.969351 0.110115 0.429497
O O1 0.824173 0.761261 0.676236
O O2 0.926103 0.676589 0.754662
O O3 0.041743 0.902925 0.650683
O O4 0.646672 0.862199 0.917179
O O5 0.416564 0.259190 0.461240
O O6 0.255306 0.060602 0.620631
O O7 0.452791 0.929205 0.389903
O O8 0.791647 0.849692 0.106440
O O9 0.489589 0.695199 0.337321
O O10 0.052986 0.371331 0.673617
O O11 0.797761 0.190578 0.885569
O O12 0.706222 0.403389 0.987691
O O13 0.688444 0.372183 0.840581
O O14 0.415394 0.481023 0.422628
#
# Coordination Sequence:
#
# PCOD8056417 Si02
#       7
#     4   4   4   4   4   4   4
#     4  12  24  48  72 108 143 199 244 308 375 443
#     4  11  25  45  78 105 146 195 249 299 390 432
#     4  12  25  48  66 108 150 182 261 299 363 462
#     4  11  25  47  73 105 149 194 248 306 380 435
#     4  11  25  48  73 111 149 189 256 312 359 462
#     4  11  24  45  69 106 146 185 249 309 349 462
#     4  12  26  47  75 105 153 200 237 319 376 434
#
# _framework density 25.021857000000001
#
# number of rings (size 3 to 8) (size 9 to 14) (size 15 to 20)
#    0.000    0.571    4.286    3.429    2.000    3.429 
#    5.143    0.000    0.000    0.000    0.000    0.000 
#    0.000    0.000    0.000    0.000    0.000    0.000 
#
# Total GULP energy -173510.127650 kJ/mol
# GULP energy per Si atom -12393.580546 kJ/mol
# Density = 2.496491 g / cm^3
# Si number density = 25.021857 Si / 1000 Ang^3
#
#
#
# Elastic Constant Matrix: (Units=GPa)
#
#
# Indices 1 2 3 4 5 6 
#
# 1 89.6139 43.6208 14.9407 0.0009 -11.2477 -0.0004
# 2 43.6208 131.1491 18.8639 -0.0042 -1.6634 -0.0004
# 3 14.9407 18.8639 105.3797 -0.0135 -20.2417 -0.0012
# 4 0.0009 -0.0042 -0.0135 0.5872 0.0035 -22.3560
# 5 -11.2477 -1.6634 -20.2417 0.0035 32.3621 0.0003
# 6 -0.0004 -0.0004 -0.0012 -22.3560 0.0003 34.4217
#
#
#
# Elastic Compliance Matrix: (Units=1/GPa)
#
#
# Indices 1 2 3 4 5 6 
#
# 1 0.013982 -0.004549 -0.000318 0.000004 0.004427 0.000002
# 2 -0.004549 0.009314 -0.001403 -0.000002 -0.001979 -0.000001
# 3 -0.000318 -0.001403 0.011082 -0.000009 0.006749 -0.000006
# 4 0.000004 -0.000002 -0.000009 -0.071775 0.000004 -0.046616
# 5 0.004427 -0.001979 0.006749 0.000004 0.036559 0.000002
# 6 0.000002 -0.000001 -0.000006 -0.046616 0.000002 -0.001224
#
#
# Mechanical properties :
#
#
# Convention : Reuss Voigt Hill
#
# Bulk Modulus (GPa) = 45.78727 53.44373 49.61550
# Shear Modulus (GPa) = 281.61009 30.05535 155.83272
#
# Velocity S-wave (km/s) = 10.62026 3.46954 7.90024
# Velocity P-wave (km/s) = 12.98943 6.12009 10.15334
#
# Compressibility (1/GPa) = 0.02184013
#
# Stress axis : x y z
#
# Youngs Moduli (GPa) = 71.52237 107.36050 90.23636
#
# Poissons Ratio (x) = 0.48833 0.02867
# Poissons Ratio (y) = 0.32532 0.12657
# Poissons Ratio (z) = 0.02273 0.15059
#
# Static dielectric constant tensor:
#      x y z
#    x 4.693170 0.000000 -0.030540 
#    y 0.000000 4.675610 0.000000 
#    z -0.030540 0.000000 4.494160 
# 
# 
# High freq. dielectric constant tensor:
#      x y z
#    x 1.997370 0.000000 -0.000810 
#    y 0.000000 1.993930 0.000000 
#    z -0.000810 0.000000 2.014010 
# 
# From -- ./inp_files/7009.got.cif
#   From: 2010.06.25/outbox.cif.g09.slc.cpg/sg9_4_cif.got.tgz:7009.got - 2010.06.27 21:40:51.
