data_PCOD8056491
_publ_section_title
;
Structure prediction by ZEFSAII (Michael W. Deem and Ramdas Pophale) SiO2 
 PCOD8056491
Probable space group: C C
;
_chemical_formula_sum "Si O2"
_cell_formula_units_Z 28
_cell_length_a 5.148840
_cell_length_b 23.838491
_cell_length_c 11.679518
_cell_angle_alpha 90.000000
_cell_angle_beta 127.129809
_cell_angle_gamma 90.000000
_cell_volume 1142.927009
_symmetry_space_group_name_H-M "C C"
_symmetry_group_IT_number 9
_symmetry_cell_setting 'monoclinic'
loop_
_space_group_symop_operation_xyz
x,y,z
x,-y,1/2+z
1/2+x,1/2+y,z
1/2+x,1/2-y,1/2+z
loop_
_atom_site_type_symbol
_atom_site_label
_atom_site_fract_x
_atom_site_fract_y
_atom_site_fract_z
Si Si1 0.023620 0.841640 0.146630
Si Si2 0.250310 0.763842 0.674303
Si Si3 0.261812 0.643084 0.340588
Si Si4 0.723935 0.546109 0.796516
Si Si5 0.648493 0.581480 0.242271
Si Si6 0.712705 0.199796 0.876728
Si Si7 0.925817 0.085037 0.931391
O O1 0.988853 0.907038 0.175440
O O2 0.340060 0.816763 0.296222
O O3 0.752486 0.797342 0.114774
O O4 0.026787 0.838389 0.007711
O O5 0.559444 0.804540 0.732597
O O6 0.241199 0.755603 0.808336
O O7 0.904093 0.790365 0.546127
O O8 0.437141 0.611374 0.283618
O O9 0.023031 0.601459 0.349249
O O10 0.594536 0.484898 0.732532
O O11 0.694177 0.552230 0.927290
O O12 0.090661 0.550308 0.848794
O O13 0.540863 0.600172 0.088203
O O14 0.871870 0.145409 0.855629
#
# Coordination Sequence:
#
# PCOD8056491 Si02
#       7
#     4   4   4   4   4   4   4
#     4  11  28  46  76 113 149 206 253 324 378 460
#     4  12  25  46  76 112 153 203 255 317 382 464
#     4  12  29  49  77 114 154 199 259 316 384 459
#     4  11  26  46  77 106 152 197 258 312 384 448
#     4  12  28  48  77 111 153 201 255 320 379 457
#     4  11  26  46  73 108 159 196 256 309 390 449
#     4  11  24  49  72 110 148 204 252 310 381 453
#
# _framework density 24.498504000000001
#
# number of rings (size 3 to 8) (size 9 to 14) (size 15 to 20)
#    0.000    0.571    4.286    1.714   10.000    0.000 
#    0.000    0.000    0.000    0.000    0.000    0.000 
#    0.000    0.000    0.000    0.000    0.000    0.000 
#
# Total GULP energy -173504.692712 kJ/mol
# GULP energy per Si atom -12393.192337 kJ/mol
# Density = 2.444274 g / cm^3
# Si number density = 24.498504 Si / 1000 Ang^3
#
#
#
# Elastic Constant Matrix: (Units=GPa)
#
#
# Indices 1 2 3 4 5 6 
#
# 1 109.6314 45.5704 27.9443 0.0000 -9.7987 0.0000
# 2 45.5704 152.3261 37.8403 0.0000 -2.6854 0.0000
# 3 27.9443 37.8403 128.6098 0.0000 -3.0264 0.0000
# 4 0.0000 0.0000 0.0000 29.9688 0.0000 -3.0870
# 5 -9.7987 -2.6854 -3.0264 0.0000 32.3969 0.0000
# 6 0.0000 0.0000 0.0000 -3.0870 0.0000 42.8872
#
#
#
# Elastic Compliance Matrix: (Units=1/GPa)
#
#
# Indices 1 2 3 4 5 6 
#
# 1 0.010946 -0.002858 -0.001468 0.000000 0.002937 0.000000
# 2 -0.002858 0.007834 -0.001693 0.000000 -0.000373 0.000000
# 3 -0.001468 -0.001693 0.008598 0.000000 0.000219 0.000000
# 4 0.000000 0.000000 0.000000 0.033617 0.000000 0.002420
# 5 0.002937 -0.000373 0.000219 0.000000 0.031745 0.000000
# 6 0.000000 0.000000 0.000000 0.002420 0.000000 0.023491
#
#
# Mechanical properties :
#
#
# Convention : Reuss Voigt Hill
#
# Bulk Modulus (GPa) = 65.19174 68.14194 66.66684
# Shear Modulus (GPa) = 37.48614 39.66474 38.57544
#
# Velocity S-wave (km/s) = 3.91594 4.02813 3.97243
# Velocity P-wave (km/s) = 6.86399 7.03630 6.95068
#
# Compressibility (1/GPa) = 0.01533937
#
# Stress axis : x y z
#
# Youngs Moduli (GPa) = 91.35520 127.65130 116.31052
#
# Poissons Ratio (x) = 0.36485 0.17078
# Poissons Ratio (y) = 0.26111 0.19688
# Poissons Ratio (z) = 0.13414 0.21607
#
# Static dielectric constant tensor:
#      x y z
#    x 4.130050 0.000000 0.090540 
#    y 0.000000 4.762610 0.000000 
#    z 0.090540 0.000000 4.396300 
# 
# 
# High freq. dielectric constant tensor:
#      x y z
#    x 1.959850 0.000000 -0.002980 
#    y 0.000000 1.993180 0.000000 
#    z -0.002980 0.000000 1.974800 
# 
# From -- ./inp_files/13794.got.cif
#   From: 2010.06.25/outbox.cif.g09.slc.cpg/sg9_7_cif.got.tgz:13794.got - 2010.06.27 21:40:51.
