data_PCOD8056389
_publ_section_title
;
Structure prediction by ZEFSAII (Michael W. Deem and Ramdas Pophale) SiO2 
 PCOD8056389
Probable space group: C C
;
_chemical_formula_sum "Si O2"
_cell_formula_units_Z 28
_cell_length_a 15.106175
_cell_length_b 11.139070
_cell_length_c 14.057657
_cell_angle_alpha 90.000000
_cell_angle_beta 29.725561
_cell_angle_gamma 90.000000
_cell_volume 1172.906304
_symmetry_space_group_name_H-M "C C"
_symmetry_group_IT_number 9
_symmetry_cell_setting 'monoclinic'
loop_
_space_group_symop_operation_xyz
x,y,z
x,-y,1/2+z
1/2+x,1/2+y,z
1/2+x,1/2-y,1/2+z
loop_
_atom_site_type_symbol
_atom_site_label
_atom_site_fract_x
_atom_site_fract_y
_atom_site_fract_z
Si Si1 0.259380 0.521548 0.899560
Si Si2 0.553448 0.865988 0.944203
Si Si3 0.979501 0.518954 0.318137
Si Si4 0.617009 0.571172 0.134628
Si Si5 0.614005 0.209426 0.773398
Si Si6 0.939430 0.128902 0.567322
Si Si7 0.662133 0.391497 0.379932
O O1 0.412812 0.474953 0.828107
O O2 0.348860 0.632200 0.756967
O O3 0.209143 0.422227 0.865421
O O4 0.086707 0.557966 0.122675
O O5 0.366510 0.906845 0.161478
O O6 0.571867 0.723458 0.915521
O O7 0.566604 0.912323 0.824560
O O8 0.764241 0.537841 0.507763
O O9 0.987275 0.374496 0.328179
O O10 0.647943 0.666443 0.188431
O O11 0.650817 0.633419 0.002177
O O12 0.789982 0.129155 0.623898
O O13 0.546066 0.247257 0.943690
O O14 0.061275 0.011337 0.440791
#
# Coordination Sequence:
#
# PCOD8056389 Si02
#       7
#     4   4   4   4   4   4   4
#     4  11  25  48  73 114 153 197 247 315 374 448
#     4  12  25  46  76 105 154 196 252 306 384 451
#     4  12  25  44  75 109 148 199 252 311 371 453
#     4  11  24  43  75 113 144 187 262 315 361 440
#     4  12  23  43  75 112 143 194 256 314 369 447
#     4  11  25  44  76 108 154 190 247 311 387 437
#     4  11  25  46  74 109 146 199 248 316 378 452
#
# _framework density 23.872326000000001
#
# number of rings (size 3 to 8) (size 9 to 14) (size 15 to 20)
#    0.000    0.571    4.286    4.286    2.000    0.000 
#    0.000    1.429    3.143    0.000    0.000    0.000 
#    0.000    0.000    0.000    0.000    0.000    0.000 
#
# Total GULP energy -173519.495915 kJ/mol
# GULP energy per Si atom -12394.249708 kJ/mol
# Density = 2.381799 g / cm^3
# Si number density = 23.872326 Si / 1000 Ang^3
#
#
#
# Elastic Constant Matrix: (Units=GPa)
#
#
# Indices 1 2 3 4 5 6 
#
# 1 109.0621 29.9368 38.5097 -0.0002 -8.6763 0.0001
# 2 29.9368 45.0411 22.6101 -0.0001 1.7383 0.0001
# 3 38.5097 22.6101 113.6226 -0.0004 -5.3187 0.0001
# 4 -0.0002 -0.0001 -0.0004 28.7810 0.0003 2.2098
# 5 -8.6763 1.7383 -5.3187 0.0003 49.3734 -0.0001
# 6 0.0001 0.0001 0.0001 2.2098 -0.0001 36.2645
#
#
#
# Elastic Compliance Matrix: (Units=1/GPa)
#
#
# Indices 1 2 3 4 5 6 
#
# 1 0.012147 -0.006817 -0.002662 0.000000 0.002088 0.000000
# 2 -0.006817 0.028589 -0.003499 0.000000 -0.002582 0.000000
# 3 -0.002662 -0.003499 0.010436 0.000000 0.000780 0.000000
# 4 0.000000 0.000000 0.000000 0.034908 0.000000 -0.002127
# 5 0.002088 -0.002582 0.000780 0.000000 0.020796 0.000000
# 6 0.000000 0.000000 0.000000 -0.002127 0.000000 0.027705
#
#
# Mechanical properties :
#
#
# Convention : Reuss Voigt Hill
#
# Bulk Modulus (GPa) = 39.66060 49.98211 44.82136
# Shear Modulus (GPa) = 29.59558 34.66172 32.12865
#
# Velocity S-wave (km/s) = 3.52482 3.81460 3.67257
# Velocity P-wave (km/s) = 5.76329 6.35486 6.06629
#
# Compressibility (1/GPa) = 0.02521394
#
# Stress axis : x y z
#
# Youngs Moduli (GPa) = 82.32744 34.97797 95.81951
#
# Poissons Ratio (x) = 0.23846 0.25512
# Poissons Ratio (y) = 0.56126 0.33531
# Poissons Ratio (z) = 0.21919 0.12240
#
# Static dielectric constant tensor:
#      x y z
#    x 4.324300 0.000000 -0.097810 
#    y 0.000000 4.027870 0.000000 
#    z -0.097810 0.000000 4.739550 
# 
# 
# High freq. dielectric constant tensor:
#      x y z
#    x 1.949190 0.000000 -0.007890 
#    y 0.000000 1.908810 0.000000 
#    z -0.007890 0.000000 1.974350 
# 
# From -- ./inp_files/25890.got.cif
#   From: 2010.06.25/outbox.cif.g09.slc.cpg/sg9_13_cif.got.tgz:25890.got - 2010.06.27 21:40:51.
