data_PCOD8056587
_publ_section_title
;
Structure prediction by ZEFSAII (Michael W. Deem and Ramdas Pophale) SiO2 
 PCOD8056587
Probable space group: C C
;
_chemical_formula_sum "Si O2"
_cell_formula_units_Z 32
_cell_length_a 11.106374
_cell_length_b 14.945961
_cell_length_c 8.458122
_cell_angle_alpha 90.000000
_cell_angle_beta 88.140111
_cell_angle_gamma 90.000000
_cell_volume 1403.269963
_symmetry_space_group_name_H-M "C C"
_symmetry_group_IT_number 9
_symmetry_cell_setting 'monoclinic'
loop_
_space_group_symop_operation_xyz
x,y,z
x,-y,1/2+z
1/2+x,1/2+y,z
1/2+x,1/2-y,1/2+z
loop_
_atom_site_type_symbol
_atom_site_label
_atom_site_fract_x
_atom_site_fract_y
_atom_site_fract_z
Si Si1 0.396650 0.790471 0.154570
Si Si2 0.344845 0.389451 0.514336
Si Si3 0.354152 0.282934 0.994332
Si Si4 0.116587 0.385226 0.992929
Si Si5 0.725164 0.562413 0.755823
Si Si6 0.342170 0.094393 0.081617
Si Si7 0.604474 0.938762 0.640958
Si Si8 0.446196 0.442292 0.186711
O O1 0.398489 0.709328 0.030651
O O2 0.414607 0.753129 0.331169
O O3 0.509962 0.848296 0.102133
O O4 0.281403 0.857439 0.147011
O O5 0.206079 0.371719 0.571833
O O6 0.355276 0.420847 0.333646
O O7 0.414461 0.459669 0.623792
O O8 0.219389 0.312996 0.958934
O O9 0.346479 0.201015 0.121378
O O10 0.432707 0.365424 0.055013
O O11 0.167941 0.465666 0.099459
O O12 0.073235 0.422154 0.825013
O O13 0.782034 0.464868 0.720051
O O14 0.582355 0.559041 0.742990
O O15 0.758003 0.581578 0.934090
O O16 0.480679 0.065078 0.046813
#
# Coordination Sequence:
#
# PCOD8056587 Si02
#       8
#     4   4   4   4   4   4   4   4
#     4  11  27  46  71 105 151 190 243 305 371 432
#     4  12  26  45  74 106 144 199 240 305 375 438
#     4  11  27  47  69 114 144 191 246 304 368 449
#     4  12  26  48  76 108 151 191 251 313 366 440
#     4  11  26  48  67 106 145 191 240 300 362 451
#     4  11  26  45  73 100 145 192 240 302 367 433
#     4  12  25  48  77 106 147 192 252 313 365 439
#     4  12  27  47  73 105 151 196 240 302 374 444
#
# _framework density 22.803879999999999
#
# number of rings (size 3 to 8) (size 9 to 14) (size 15 to 20)
#    0.000    0.500    3.750    3.000   10.500    0.000 
#    0.000    0.000    0.000    0.000    0.000    0.000 
#    0.000    0.000    0.000    0.000    0.000    0.000 
#
# Total GULP energy -198404.074777 kJ/mol
# GULP energy per Si atom -12400.254674 kJ/mol
# Density = 2.275198 g / cm^3
# Si number density = 22.803880 Si / 1000 Ang^3
#
#
#
# Elastic Constant Matrix: (Units=GPa)
#
#
# Indices 1 2 3 4 5 6 
#
# 1 117.8353 0.5319 30.3746 0.0000 2.2603 0.0000
# 2 0.5319 98.8955 12.8705 0.0000 0.1924 0.0000
# 3 30.3746 12.8705 83.0620 0.0000 -9.8053 0.0000
# 4 0.0000 0.0000 0.0000 40.9676 0.0000 -2.6383
# 5 2.2603 0.1924 -9.8053 0.0000 28.0533 0.0000
# 6 0.0000 0.0000 0.0000 -2.6383 0.0000 23.7034
#
#
#
# Elastic Compliance Matrix: (Units=1/GPa)
#
#
# Indices 1 2 3 4 5 6 
#
# 1 0.009502 0.000446 -0.003791 0.000000 -0.002094 0.000000
# 2 0.000446 0.010352 -0.001857 0.000000 -0.000756 0.000000
# 3 -0.003791 -0.001857 0.014343 0.000000 0.005331 0.000000
# 4 0.000000 0.000000 0.000000 0.024586 0.000000 0.002737
# 5 -0.002094 -0.000756 0.005331 0.000000 0.037684 0.000000
# 6 0.000000 0.000000 0.000000 0.002737 0.000000 0.042493
#
#
# Mechanical properties :
#
#
# Convention : Reuss Voigt Hill
#
# Bulk Modulus (GPa) = 42.02691 43.03853 42.53272
# Shear Modulus (GPa) = 31.78788 35.61257 33.70023
#
# Velocity S-wave (km/s) = 3.73764 3.95611 3.84842
# Velocity P-wave (km/s) = 6.09067 6.30730 6.19993
#
# Compressibility (1/GPa) = 0.02379428
#
# Stress axis : x y z
#
# Youngs Moduli (GPa) = 105.24352 96.59625 69.72276
#
# Poissons Ratio (x) = -0.04311 0.26432
# Poissons Ratio (y) = -0.04697 0.12944
# Poissons Ratio (z) = 0.39898 0.17934
#
# Static dielectric constant tensor:
#      x y z
#    x 4.011530 0.000000 -0.035690 
#    y 0.000000 4.645500 0.000000 
#    z -0.035690 0.000000 3.935130 
# 
# 
# High freq. dielectric constant tensor:
#      x y z
#    x 1.904040 0.000000 -0.003150 
#    y 0.000000 1.919180 0.000000 
#    z -0.003150 0.000000 1.892840 
# 
# From -- ./inp_files/7460.got.cif
#   From: 2010.06.25/outbox.cif.g09.slc.cpg/sg9_4_cif.got.tgz:7460.got - 2010.06.27 21:40:51.
