data_PCOD8056707
_publ_section_title
;
Structure prediction by ZEFSAII (Michael W. Deem and Ramdas Pophale) SiO2 
 PCOD8056707
Probable space group: C C
;
_chemical_formula_sum "Si O2"
_cell_formula_units_Z 32
_cell_length_a 8.633772
_cell_length_b 11.354570
_cell_length_c 16.389784
_cell_angle_alpha 90.000000
_cell_angle_beta 114.540760
_cell_angle_gamma 90.000000
_cell_volume 1461.593068
_symmetry_space_group_name_H-M "C C"
_symmetry_group_IT_number 9
_symmetry_cell_setting 'monoclinic'
loop_
_space_group_symop_operation_xyz
x,y,z
x,-y,1/2+z
1/2+x,1/2+y,z
1/2+x,1/2-y,1/2+z
loop_
_atom_site_type_symbol
_atom_site_label
_atom_site_fract_x
_atom_site_fract_y
_atom_site_fract_z
Si Si1 0.882470 0.525926 0.463990
Si Si2 0.744854 0.027475 0.780601
Si Si3 0.670049 0.722341 0.197699
Si Si4 0.232397 0.476754 0.469746
Si Si5 0.936804 0.619261 0.137363
Si Si6 0.039682 0.875386 0.109394
Si Si7 0.804001 0.271870 0.048166
Si Si8 0.097146 0.017138 0.286260
O O1 0.881891 0.458211 0.549086
O O2 0.809354 0.656369 0.464947
O O3 0.751699 0.462409 0.373344
O O4 0.066925 0.546100 0.464229
O O5 0.600232 0.940158 0.715453
O O6 0.927065 0.971769 0.802209
O O7 0.752925 0.152450 0.736172
O O8 0.721558 0.044244 0.871392
O O9 0.784721 0.633548 0.168670
O O10 0.495577 0.747687 0.114947
O O11 0.637986 0.652142 0.273755
O O12 0.402697 0.547757 0.529209
O O13 0.214763 0.353015 0.513742
O O14 0.966600 0.748679 0.111339
O O15 0.210207 0.853574 0.094639
O O16 0.081427 0.938608 0.202640
#
# Coordination Sequence:
#
# PCOD8056707 Si02
#       8
#     4   4   4   4   4   4   4   4
#     4  12  26  47  71 106 145 185 240 294 355 423
#     4  12  27  48  72 106 145 186 238 296 354 426
#     4  12  25  46  77 102 141 188 240 292 358 423
#     4  12  27  48  72 106 145 186 238 296 354 426
#     4  12  25  48  75 103 144 191 233 292 360 422
#     4  12  25  48  75 103 144 191 233 292 360 422
#     4  12  25  46  77 102 141 188 240 292 358 423
#     4  12  26  47  71 106 145 185 240 294 355 423
#
# _framework density 21.893917999999999
#
# number of rings (size 3 to 8) (size 9 to 14) (size 15 to 20)
#    0.000    0.000    5.000    5.250    3.500    1.000 
#    4.500    0.000    0.000    0.000    0.000    0.000 
#    0.000    0.000    0.000    0.000    0.000    0.000 
#
# Total GULP energy -198422.760294 kJ/mol
# GULP energy per Si atom -12401.422518 kJ/mol
# Density = 2.184409 g / cm^3
# Si number density = 21.893918 Si / 1000 Ang^3
#
#
#
# Elastic Constant Matrix: (Units=GPa)
#
#
# Indices 1 2 3 4 5 6 
#
# 1 120.4289 34.0070 21.3510 0.0000 -6.3703 0.0000
# 2 34.0070 80.4680 22.5241 0.0000 -1.2022 0.0000
# 3 21.3510 22.5241 112.7968 0.0000 7.3409 0.0000
# 4 0.0000 0.0000 0.0000 16.3074 0.0000 -0.7404
# 5 -6.3703 -1.2022 7.3409 0.0000 39.3082 0.0000
# 6 0.0000 0.0000 0.0000 -0.7404 0.0000 35.7323
#
#
#
# Elastic Compliance Matrix: (Units=1/GPa)
#
#
# Indices 1 2 3 4 5 6 
#
# 1 0.009655 -0.003721 -0.001193 0.000000 0.001674 0.000000
# 2 -0.003721 0.014629 -0.002234 0.000000 0.000262 0.000000
# 3 -0.001193 -0.002234 0.009672 0.000000 -0.002068 0.000000
# 4 0.000000 0.000000 0.000000 0.061379 0.000000 0.001272
# 5 0.001674 0.000262 -0.002068 0.000000 0.026105 0.000000
# 6 0.000000 0.000000 0.000000 0.001272 0.000000 0.028012
#
#
# Mechanical properties :
#
#
# Convention : Reuss Voigt Hill
#
# Bulk Modulus (GPa) = 50.86740 52.16198 51.51469
# Shear Modulus (GPa) = 29.35952 33.99036 31.67494
#
# Velocity S-wave (km/s) = 3.66593 3.94446 3.80774
# Velocity P-wave (km/s) = 6.41893 6.67994 6.55073
#
# Compressibility (1/GPa) = 0.01965896
#
# Stress axis : x y z
#
# Youngs Moduli (GPa) = 103.57832 68.35691 103.39065
#
# Poissons Ratio (x) = 0.25436 0.12338
# Poissons Ratio (y) = 0.38543 0.23097
# Poissons Ratio (z) = 0.12360 0.15270
#
# Static dielectric constant tensor:
#      x y z
#    x 4.283990 0.000000 -0.008900 
#    y 0.000000 4.607170 0.000000 
#    z -0.008900 0.000000 4.111720 
# 
# 
# High freq. dielectric constant tensor:
#      x y z
#    x 1.879320 0.000000 -0.005590 
#    y 0.000000 1.873310 0.000000 
#    z -0.005590 0.000000 1.869780 
# 
# From -- ./inp_files/22721.got.cif
#   From: 2010.06.25/outbox.cif.g09.slc.cpg/sg9_12_cif.got.tgz:22721.got - 2010.06.27 21:40:51.
