data_PCOD8056361
_publ_section_title
;
Structure prediction by ZEFSAII (Michael W. Deem and Ramdas Pophale) SiO2 
 PCOD8056361
Probable space group: C C
;
_chemical_formula_sum "Si O2"
_cell_formula_units_Z 32
_cell_length_a 14.640053
_cell_length_b 11.549901
_cell_length_c 8.918500
_cell_angle_alpha 90.000000
_cell_angle_beta 58.695850
_cell_angle_gamma 90.000000
_cell_volume 1288.500947
_symmetry_space_group_name_H-M "C C"
_symmetry_group_IT_number 9
_symmetry_cell_setting 'monoclinic'
loop_
_space_group_symop_operation_xyz
x,y,z
x,-y,1/2+z
1/2+x,1/2+y,z
1/2+x,1/2-y,1/2+z
loop_
_atom_site_type_symbol
_atom_site_label
_atom_site_fract_x
_atom_site_fract_y
_atom_site_fract_z
Si Si1 0.585660 0.119290 0.846240
Si Si2 0.988143 0.151562 0.447326
Si Si3 0.004302 0.399467 0.090449
Si Si4 0.137700 0.026282 0.720439
Si Si5 0.266723 0.114927 0.865629
Si Si6 0.803510 0.887381 0.312648
Si Si7 0.336996 0.365146 0.819691
Si Si8 0.942593 0.186567 0.937963
O O1 0.582876 0.120405 0.666103
O O2 0.702652 0.157130 0.805081
O O3 0.508261 0.216935 0.981586
O O4 0.550164 0.999715 0.947788
O O5 0.896586 0.088724 0.615672
O O6 0.948871 0.155215 0.308524
O O7 0.097069 0.077838 0.361934
O O8 0.889319 0.428352 0.262170
O O9 0.995381 0.295720 0.976849
O O10 0.192875 0.966363 0.530697
O O11 0.225628 0.102194 0.730781
O O12 0.034519 0.109144 0.776174
O O13 0.260660 0.252225 0.912240
O O14 0.851065 0.791094 0.388276
O O15 0.779122 0.013021 0.412646
O O16 0.372316 0.381539 0.618332
#
# Coordination Sequence:
#
# PCOD8056361 Si02
#       8
#     4   4   4   4   4   4   4   4
#     4  12  30  49  80 112 159 214 263 327 417 468
#     4  12  26  49  74 110 160 198 267 338 387 480
#     4  11  28  54  75 114 165 208 266 337 398 492
#     4  12  24  45  79 115 145 209 257 320 398 474
#     4  11  26  44  80 108 157 202 261 321 404 468
#     4  12  27  47  79 118 152 205 276 327 399 483
#     4  11  23  50  75 104 159 210 251 338 389 468
#     4  11  24  50  76 113 159 202 265 328 392 475
#
# _framework density 24.835062000000001
#
# number of rings (size 3 to 8) (size 9 to 14) (size 15 to 20)
#    0.000    0.500    5.000    2.250    8.750    0.000 
#    9.000    0.000    0.000    0.000    0.000    0.000 
#    0.000    0.000    0.000    0.000    0.000    0.000 
#
# Total GULP energy -198222.942320 kJ/mol
# GULP energy per Si atom -12388.933895 kJ/mol
# Density = 2.477854 g / cm^3
# Si number density = 24.835062 Si / 1000 Ang^3
#
#
#
# Elastic Constant Matrix: (Units=GPa)
#
#
# Indices 1 2 3 4 5 6 
#
# 1 175.6527 50.9822 46.8901 0.0000 25.5056 0.0000
# 2 50.9822 132.1806 33.2881 0.0000 10.8829 0.0000
# 3 46.8901 33.2881 97.9419 0.0000 -5.4914 0.0000
# 4 0.0000 0.0000 0.0000 41.4061 0.0000 1.9051
# 5 25.5056 10.8829 -5.4914 0.0000 28.9079 0.0000
# 6 0.0000 0.0000 0.0000 1.9051 0.0000 32.4127
#
#
#
# Elastic Compliance Matrix: (Units=1/GPa)
#
#
# Indices 1 2 3 4 5 6 
#
# 1 0.008256 -0.001613 -0.003819 0.000000 -0.007402 0.000000
# 2 -0.001613 0.008997 -0.002422 0.000000 -0.002424 0.000000
# 3 -0.003819 -0.002422 0.013243 0.000000 0.006797 0.000000
# 4 0.000000 0.000000 0.000000 0.024216 0.000000 -0.001423
# 5 -0.007402 -0.002424 0.006797 0.000000 0.043327 0.000000
# 6 0.000000 0.000000 0.000000 -0.001423 0.000000 0.030936
#
#
# Mechanical properties :
#
#
# Convention : Reuss Voigt Hill
#
# Bulk Modulus (GPa) = 67.62312 74.23287 70.92799
# Shear Modulus (GPa) = 33.41993 38.85302 36.13647
#
# Velocity S-wave (km/s) = 3.67232 3.95959 3.81866
# Velocity P-wave (km/s) = 6.72825 7.13160 6.93286
#
# Compressibility (1/GPa) = 0.01478784
#
# Stress axis : x y z
#
# Youngs Moduli (GPa) = 121.13054 111.14915 75.51317
#
# Poissons Ratio (x) = 0.17927 0.28840
# Poissons Ratio (y) = 0.19537 0.18286
# Poissons Ratio (z) = 0.46262 0.26915
#
# Static dielectric constant tensor:
#      x y z
#    x 4.834770 0.000000 0.180070 
#    y 0.000000 4.456090 0.000000 
#    z 0.180070 0.000000 4.270500 
# 
# 
# High freq. dielectric constant tensor:
#      x y z
#    x 2.000860 0.000000 0.006260 
#    y 0.000000 1.990020 0.000000 
#    z 0.006260 0.000000 1.980450 
# 
# From -- ./inp_files/9237.got.cif
#   From: 2010.06.25/outbox.cif.g09.slc.cpg/sg9_5_cif.got.tgz:9237.got - 2010.06.27 21:40:51.
