data_PCOD8056077
_publ_section_title
;
Structure prediction by ZEFSAII (Michael W. Deem and Ramdas Pophale) SiO2 
 PCOD8056077
Probable space group: C C
;
_chemical_formula_sum "Si O2"
_cell_formula_units_Z 28
_cell_length_a 5.356662
_cell_length_b 18.315833
_cell_length_c 15.011369
_cell_angle_alpha 90.000000
_cell_angle_beta 59.027083
_cell_angle_gamma 90.000000
_cell_volume 1262.786983
_symmetry_space_group_name_H-M "C C"
_symmetry_group_IT_number 9
_symmetry_cell_setting 'monoclinic'
loop_
_space_group_symop_operation_xyz
x,y,z
x,-y,1/2+z
1/2+x,1/2+y,z
1/2+x,1/2-y,1/2+z
loop_
_atom_site_type_symbol
_atom_site_label
_atom_site_fract_x
_atom_site_fract_y
_atom_site_fract_z
Si Si1 0.201290 0.804258 0.564120
Si Si2 0.408545 0.449828 0.604524
Si Si3 0.405245 0.038752 0.749856
Si Si4 0.621054 0.153870 0.836829
Si Si5 0.323709 0.928515 0.060182
Si Si6 0.314038 0.527441 0.931396
Si Si7 0.100810 0.775679 0.135034
O O1 0.378587 0.800777 0.437513
O O2 0.403023 0.770890 0.603794
O O3 0.118212 0.887582 0.606253
O O4 0.885458 0.766759 0.616070
O O5 0.592356 0.522418 0.551181
O O6 0.283027 0.428060 0.530441
O O7 0.149301 0.475532 0.717128
O O8 0.490910 0.119314 0.770383
O O9 0.311661 0.052701 0.666413
O O10 0.143652 0.004546 0.853532
O O11 0.711940 0.083958 0.876547
O O12 0.897770 0.203594 0.757644
O O13 0.230414 0.845609 0.059414
O O14 0.638576 0.950840 0.963591
#
# Coordination Sequence:
#
# PCOD8056077 Si02
#       7
#     4   4   4   4   4   4   4
#     4  12  28  48  75 109 155 196 244 312 378 457
#     4  11  23  42  73 110 138 187 255 314 358 440
#     4  11  21  40  76 105 140 191 255 304 369 448
#     4  12  24  48  74 104 142 216 238 298 404 454
#     4  11  23  42  73 110 138 187 255 314 358 440
#     4  11  21  40  76 105 140 191 255 304 369 448
#     4  12  28  48  75 109 155 196 244 312 378 457
#
# _framework density 22.173175000000001
#
# number of rings (size 3 to 8) (size 9 to 14) (size 15 to 20)
#    0.000    0.571    5.714    1.714    4.000    0.000 
#    2.571    2.857    0.000    0.000    0.000    0.000 
#    0.000    0.000    0.000    0.000    0.000    0.000 
#
# Total GULP energy -173526.057352 kJ/mol
# GULP energy per Si atom -12394.718382 kJ/mol
# Density = 2.212271 g / cm^3
# Si number density = 22.173175 Si / 1000 Ang^3
#
#
#
# Elastic Constant Matrix: (Units=GPa)
#
#
# Indices 1 2 3 4 5 6 
#
# 1 100.0470 23.9157 32.1485 0.0000 -24.1551 0.0000
# 2 23.9157 67.3646 19.4254 0.0000 -9.5422 0.0000
# 3 32.1485 19.4254 113.1072 0.0000 -34.4190 0.0000
# 4 0.0000 0.0000 0.0000 36.7327 0.0000 -12.0136
# 5 -24.1551 -9.5422 -34.4190 0.0000 51.6551 0.0000
# 6 0.0000 0.0000 0.0000 -12.0136 0.0000 48.8572
#
#
#
# Elastic Compliance Matrix: (Units=1/GPa)
#
#
# Indices 1 2 3 4 5 6 
#
# 1 0.012302 -0.003307 -0.001711 0.000000 0.004002 0.000000
# 2 -0.003307 0.016586 -0.001815 0.000000 0.000308 0.000000
# 3 -0.001711 -0.001815 0.011657 0.000000 0.006632 0.000000
# 4 0.000000 0.000000 0.000000 0.029605 0.000000 0.007280
# 5 0.004002 0.000308 0.006632 0.000000 0.025707 0.000000
# 6 0.000000 0.000000 0.000000 0.007280 0.000000 0.022258
#
#
# Mechanical properties :
#
#
# Convention : Reuss Voigt Hill
#
# Bulk Modulus (GPa) = 37.20326 47.94422 42.57374
# Shear Modulus (GPa) = 35.52678 41.11761 38.32220
#
# Velocity S-wave (km/s) = 4.00714 4.31093 4.16181
# Velocity P-wave (km/s) = 6.18260 6.81530 6.50665
#
# Compressibility (1/GPa) = 0.02687937
#
# Stress axis : x y z
#
# Youngs Moduli (GPa) = 81.28909 60.29304 85.78288
#
# Poissons Ratio (x) = 0.19940 0.14676
# Poissons Ratio (y) = 0.26884 0.15567
# Poissons Ratio (z) = 0.13907 0.10941
#
# Static dielectric constant tensor:
#      x y z
#    x 4.261250 0.000000 -0.327850 
#    y 0.000000 4.051650 0.000000 
#    z -0.327850 0.000000 4.226030 
# 
# 
# High freq. dielectric constant tensor:
#      x y z
#    x 1.896430 0.000000 -0.014290 
#    y 0.000000 1.852330 0.000000 
#    z -0.014290 0.000000 1.873430 
# 
# From -- ./inp_files/21888.got.cif
#   From: 2010.06.25/outbox.cif.g09.slc.cpg/sg9_11_cif.got.tgz:21888.got - 2010.06.27 21:40:51.
