data_PCOD8056147
_publ_section_title
;
Structure prediction by ZEFSAII (Michael W. Deem and Ramdas Pophale) SiO2 
 PCOD8056147
Probable space group: C C
;
_chemical_formula_sum "Si O2"
_cell_formula_units_Z 32
_cell_length_a 6.457013
_cell_length_b 18.733927
_cell_length_c 12.355055
_cell_angle_alpha 90.000000
_cell_angle_beta 86.935835
_cell_angle_gamma 90.000000
_cell_volume 1492.395090
_symmetry_space_group_name_H-M "C C"
_symmetry_group_IT_number 9
_symmetry_cell_setting 'monoclinic'
loop_
_space_group_symop_operation_xyz
x,y,z
x,-y,1/2+z
1/2+x,1/2+y,z
1/2+x,1/2-y,1/2+z
loop_
_atom_site_type_symbol
_atom_site_label
_atom_site_fract_x
_atom_site_fract_y
_atom_site_fract_z
Si Si1 0.194880 0.512406 0.990430
Si Si2 0.379156 0.572294 0.179673
Si Si3 0.893491 0.298630 0.169757
Si Si4 0.406902 0.880808 0.380881
Si Si5 0.404573 0.119523 0.455765
Si Si6 0.571991 0.188020 0.252402
Si Si7 0.207699 0.822668 0.592093
Si Si8 0.603548 0.491373 0.865416
O O1 0.436600 0.505983 0.961121
O O2 0.101933 0.579670 0.928872
O O3 0.082275 0.438466 0.971983
O O4 0.199882 0.531441 0.117265
O O5 0.255534 0.630447 0.251779
O O6 0.556691 0.609286 0.102306
O O7 0.489503 0.516648 0.254628
O O8 0.984782 0.339785 0.271514
O O9 0.679608 0.262164 0.215738
O O10 0.075281 0.248306 0.118704
O O11 0.828646 0.350438 0.073048
O O12 0.307164 0.824376 0.468960
O O13 0.247802 0.940739 0.347613
O O14 0.480654 0.185299 0.377271
O O15 0.220381 0.080834 0.396696
O O16 0.391535 0.169763 0.173237
#
# Coordination Sequence:
#
# PCOD8056147 Si02
#       8
#     4   4   4   4   4   4   4   4
#     4  11  24  40  71  99 133 168 209 281 329 396
#     4  11  22  42  68 100 128 173 218 260 346 385
#     4  11  28  42  66  96 130 179 222 270 312 393
#     4  11  25  44  65 102 133 168 223 268 333 388
#     4  11  25  44  65 102 133 168 223 268 333 388
#     4  11  23  45  66  90 133 181 217 269 320 390
#     4  11  23  45  66  90 133 181 217 269 320 390
#     4  11  24  40  71  99 133 168 209 281 329 396
#
# _framework density 21.442045
#
# number of rings (size 3 to 8) (size 9 to 14) (size 15 to 20)
#    0.000    1.000    5.000    0.750    3.500    3.000 
#    0.000    0.000    0.000    0.000    0.000    0.000 
#    0.000    0.000    0.000    0.000    0.000    0.000 
#
# Total GULP energy -198383.745843 kJ/mol
# GULP energy per Si atom -12398.984115 kJ/mol
# Density = 2.139324 g / cm^3
# Si number density = 21.442045 Si / 1000 Ang^3
#
#
#
# Elastic Constant Matrix: (Units=GPa)
#
#
# Indices 1 2 3 4 5 6 
#
# 1 90.4327 31.8046 29.7878 0.0000 12.4628 0.0000
# 2 31.8046 91.9338 54.9426 0.0000 3.2136 0.0000
# 3 29.7878 54.9426 153.6771 0.0000 10.2881 0.0000
# 4 0.0000 0.0000 0.0000 34.5157 0.0000 -0.5007
# 5 12.4628 3.2136 10.2881 0.0000 42.9134 0.0000
# 6 0.0000 0.0000 0.0000 -0.5007 0.0000 8.3223
#
#
#
# Elastic Compliance Matrix: (Units=1/GPa)
#
#
# Indices 1 2 3 4 5 6 
#
# 1 0.013192 -0.003882 -0.000947 0.000000 -0.003313 0.000000
# 2 -0.003882 0.014976 -0.004677 0.000000 0.001127 0.000000
# 3 -0.000947 -0.004677 0.008457 0.000000 -0.001402 0.000000
# 4 0.000000 0.000000 0.000000 0.028998 0.000000 0.001745
# 5 -0.003313 0.001127 -0.001402 0.000000 0.024517 0.000000
# 6 0.000000 0.000000 0.000000 0.001745 0.000000 0.120265
#
#
# Mechanical properties :
#
#
# Convention : Reuss Voigt Hill
#
# Bulk Modulus (GPa) = 56.77949 63.23484 60.00716
# Shear Modulus (GPa) = 21.25061 31.78416 26.51738
#
# Velocity S-wave (km/s) = 3.15154 3.85428 3.52049
# Velocity P-wave (km/s) = 6.30721 7.02584 6.67620
#
# Compressibility (1/GPa) = 0.01761199
#
# Stress axis : x y z
#
# Youngs Moduli (GPa) = 75.80462 66.77260 118.24667
#
# Poissons Ratio (x) = 0.25919 0.11203
# Poissons Ratio (y) = 0.29425 0.55308
# Poissons Ratio (z) = 0.07182 0.31232
#
# Static dielectric constant tensor:
#      x y z
#    x 3.916590 0.000000 -0.045130 
#    y 0.000000 3.785130 0.000000 
#    z -0.045130 0.000000 3.894940 
# 
# 
# High freq. dielectric constant tensor:
#      x y z
#    x 1.847470 0.000000 0.004930 
#    y 0.000000 1.833480 0.000000 
#    z 0.004930 0.000000 1.852910 
# 
# From -- ./inp_files/13365.got.cif
#   From: 2010.06.25/outbox.cif.g09.slc.cpg/sg9_7_cif.got.tgz:13365.got - 2010.06.27 21:40:51.
