data_PCOD8056138
_publ_section_title
;
Structure prediction by ZEFSAII (Michael W. Deem and Ramdas Pophale) SiO2 
 PCOD8056138
Probable space group: C C
;
_chemical_formula_sum "Si O2"
_cell_formula_units_Z 32
_cell_length_a 22.335554
_cell_length_b 12.505323
_cell_length_c 7.767746
_cell_angle_alpha 90.000000
_cell_angle_beta 37.600197
_cell_angle_gamma 90.000000
_cell_volume 1323.798153
_symmetry_space_group_name_H-M "C C"
_symmetry_group_IT_number 9
_symmetry_cell_setting 'monoclinic'
loop_
_space_group_symop_operation_xyz
x,y,z
x,-y,1/2+z
1/2+x,1/2+y,z
1/2+x,1/2-y,1/2+z
loop_
_atom_site_type_symbol
_atom_site_label
_atom_site_fract_x
_atom_site_fract_y
_atom_site_fract_z
Si Si1 0.526850 0.446158 0.302530
Si Si2 0.497140 0.842800 0.206912
Si Si3 0.709831 0.157375 0.296184
Si Si4 0.180040 0.946343 0.700399
Si Si5 0.907955 0.129364 0.372454
Si Si6 0.709822 0.930264 0.179567
Si Si7 0.298952 0.870823 0.131124
Si Si8 0.497311 0.930068 0.822870
O O1 0.604743 0.498603 0.247531
O O2 0.456734 0.534192 0.371325
O O3 0.457148 0.366933 0.568245
O O4 0.602558 0.383710 0.001805
O O5 0.603405 0.793118 0.002177
O O6 0.422495 0.746898 0.420549
O O7 0.478519 0.941869 0.378075
O O8 0.487853 0.883782 0.033637
O O9 0.719751 0.116115 0.467825
O O10 0.784156 0.253500 0.082822
O O11 0.728382 0.058379 0.124921
O O12 0.250553 0.033230 0.632674
O O13 0.249691 0.866623 0.435441
O O14 0.791819 0.116775 0.620003
O O15 0.603525 0.905763 0.501056
O O16 0.415165 0.882808 0.883356
#
# Coordination Sequence:
#
# PCOD8056138 Si02
#       8
#     4   4   4   4   4   4   4   4
#     4   9  19  37  61  96 132 159 203 265 319 375
#     4  11  23  43  65  90 127 171 214 265 319 376
#     4  11  23  43  65  90 127 171 214 265 319 376
#     4   9  19  37  61  96 132 159 203 265 319 375
#     4  11  22  41  67  94 128 171 212 261 323 384
#     4  11  24  43  64  94 132 169 215 265 312 381
#     4  11  22  41  67  94 128 171 212 261 323 384
#     4  11  24  43  64  94 132 169 215 265 312 381
#
# _framework density 24.172872000000002
#
# number of rings (size 3 to 8) (size 9 to 14) (size 15 to 20)
#    0.000    1.500    0.000    7.500    0.000    1.000 
#    0.000   21.250    0.000    1.500    0.000    0.000 
#    0.000    0.000    0.000    0.000    0.000    0.000 
#
# Total GULP energy -198285.964458 kJ/mol
# GULP energy per Si atom -12392.872779 kJ/mol
# Density = 2.411785 g / cm^3
# Si number density = 24.172872 Si / 1000 Ang^3
#
#
#
# Elastic Constant Matrix: (Units=GPa)
#
#
# Indices 1 2 3 4 5 6 
#
# 1 141.1180 23.5244 35.7917 0.0000 -41.5290 0.0000
# 2 23.5244 97.3118 18.7086 0.0000 -27.0662 0.0000
# 3 35.7917 18.7086 72.0781 0.0000 -32.6407 0.0000
# 4 0.0000 0.0000 0.0000 16.5326 0.0000 -14.9255
# 5 -41.5290 -27.0662 -32.6407 0.0000 52.1110 0.0000
# 6 0.0000 0.0000 0.0000 -14.9255 0.0000 32.4551
#
#
#
# Elastic Compliance Matrix: (Units=1/GPa)
#
#
# Indices 1 2 3 4 5 6 
#
# 1 0.009422 -0.000184 -0.001778 0.000000 0.006299 0.000000
# 2 -0.000184 0.012024 -0.000374 0.000000 0.005864 0.000000
# 3 -0.001778 -0.000374 0.019717 0.000000 0.010739 0.000000
# 4 0.000000 0.000000 0.000000 0.103427 0.000000 0.047564
# 5 0.006299 0.005864 0.010739 0.000000 0.033982 0.000000
# 6 0.000000 0.000000 0.000000 0.047564 0.000000 0.052686
#
#
# Mechanical properties :
#
#
# Convention : Reuss Voigt Hill
#
# Bulk Modulus (GPa) = 27.40432 51.83971 39.62202
# Shear Modulus (GPa) = 20.15377 35.71860 27.93619
#
# Velocity S-wave (km/s) = 2.89058 3.84817 3.40322
# Velocity P-wave (km/s) = 4.74363 6.42156 5.64529
#
# Compressibility (1/GPa) = 0.03649059
#
# Stress axis : x y z
#
# Youngs Moduli (GPa) = 106.13832 83.16923 50.71782
#
# Poissons Ratio (x) = 0.01528 0.09019
# Poissons Ratio (y) = 0.01950 0.01897
# Poissons Ratio (z) = 0.18874 0.03110
#
# Static dielectric constant tensor:
#      x y z
#    x 4.805450 0.000000 0.099350 
#    y 0.000000 4.134420 0.000000 
#    z 0.099350 0.000000 3.528010 
# 
# 
# High freq. dielectric constant tensor:
#      x y z
#    x 1.984950 0.000000 -0.010600 
#    y 0.000000 1.938500 0.000000 
#    z -0.010600 0.000000 1.957610 
# 
# From -- ./inp_files/12184.got.cif
#   From: 2010.06.25/outbox.cif.g09.slc.cpg/sg9_7_cif.got.tgz:12184.got - 2010.06.27 21:40:51.
