data_PCOD8056230
_publ_section_title
;
Structure prediction by ZEFSAII (Michael W. Deem and Ramdas Pophale) SiO2 
 PCOD8056230
Probable space group: C C
;
_chemical_formula_sum "Si O2"
_cell_formula_units_Z 32
_cell_length_a 30.491476
_cell_length_b 5.215492
_cell_length_c 8.991082
_cell_angle_alpha 90.000000
_cell_angle_beta 71.569271
_cell_angle_gamma 90.000000
_cell_volume 1356.493150
_symmetry_space_group_name_H-M "C C"
_symmetry_group_IT_number 9
_symmetry_cell_setting 'monoclinic'
loop_
_space_group_symop_operation_xyz
x,y,z
x,-y,1/2+z
1/2+x,1/2+y,z
1/2+x,1/2-y,1/2+z
loop_
_atom_site_type_symbol
_atom_site_label
_atom_site_fract_x
_atom_site_fract_y
_atom_site_fract_z
Si Si1 0.078720 0.814479 0.002450
Si Si2 0.853881 0.279857 0.095105
Si Si3 0.946495 0.519276 0.943447
Si Si4 0.897239 0.900684 0.827023
Si Si5 0.716047 0.206172 0.533457
Si Si6 0.748752 0.709967 0.663609
Si Si7 0.977145 0.802154 0.165985
Si Si8 0.609953 0.198461 0.636020
O O1 0.085834 0.549836 0.086654
O O2 0.026816 0.927062 0.082915
O O3 0.109796 0.049222 0.030025
O O4 0.086677 0.763126 0.819487
O O5 0.859672 0.243942 0.266416
O O6 0.802259 0.370148 0.118081
O O7 0.890451 0.496565 0.013198
O O8 0.866376 0.031925 0.985071
O O9 0.944416 0.763845 0.838209
O O10 0.972323 0.277555 0.843521
O O11 0.974793 0.549886 0.063931
O O12 0.928064 0.064853 0.674823
O O13 0.723453 0.471040 0.613908
O O14 0.728331 0.241183 0.348164
O O15 0.662908 0.124882 0.606631
O O16 0.744781 0.969662 0.571505
#
# Coordination Sequence:
#
# PCOD8056230 Si02
#       8
#     4   4   4   4   4   4   4   4
#     4  12  27  44  76 107 141 185 238 292 345 431
#     4  11  25  39  67  93 135 176 230 273 336 396
#     4  11  23  42  61  92 133 179 218 276 328 395
#     4  11  23  42  61  92 133 179 218 276 328 395
#     4  12  26  50  74 106 142 184 230 296 364 422
#     4  12  27  44  76 107 141 185 238 292 345 431
#     4  11  25  39  67  93 135 176 230 273 336 396
#     4  12  26  50  74 106 142 184 230 296 364 422
#
# _framework density 23.590240000000001
#
# number of rings (size 3 to 8) (size 9 to 14) (size 15 to 20)
#    0.000    0.500    2.500    5.250    7.000    0.000 
#    0.000    0.000    0.000    0.000    0.000    0.000 
#    0.000    0.000    0.000    0.000    0.000    0.000 
#
# Total GULP energy -198238.225886 kJ/mol
# GULP energy per Si atom -12389.889118 kJ/mol
# Density = 2.353655 g / cm^3
# Si number density = 23.590240 Si / 1000 Ang^3
#
#
#
# Elastic Constant Matrix: (Units=GPa)
#
#
# Indices 1 2 3 4 5 6 
#
# 1 64.9920 -5.6097 3.9448 0.0000 -13.8787 0.0000
# 2 -5.6097 84.4621 7.2979 0.0000 16.2641 0.0000
# 3 3.9448 7.2979 93.1097 0.0000 8.7070 0.0000
# 4 0.0000 0.0000 0.0000 22.3350 0.0000 9.9533
# 5 -13.8787 16.2641 8.7070 0.0000 42.5235 0.0000
# 6 0.0000 0.0000 0.0000 9.9533 0.0000 35.2956
#
#
#
# Elastic Compliance Matrix: (Units=1/GPa)
#
#
# Indices 1 2 3 4 5 6 
#
# 1 0.016680 0.000127 -0.001245 0.000000 0.005650 0.000000
# 2 0.000127 0.012810 -0.000566 0.000000 -0.004742 0.000000
# 3 -0.001245 -0.000566 0.011067 0.000000 -0.002456 0.000000
# 4 0.000000 0.000000 0.000000 0.051208 0.000000 -0.014441
# 5 0.005650 -0.004742 -0.002456 0.000000 0.027677 0.000000
# 6 0.000000 0.000000 0.000000 -0.014441 0.000000 0.032404
#
#
# Mechanical properties :
#
#
# Convention : Reuss Voigt Hill
#
# Bulk Modulus (GPa) = 26.88946 28.20332 27.54639
# Shear Modulus (GPa) = 29.83119 35.82619 32.82869
#
# Velocity S-wave (km/s) = 3.55992 3.90126 3.73449
# Velocity P-wave (km/s) = 5.32172 5.68107 5.50433
#
# Compressibility (1/GPa) = 0.03718929
#
# Stress axis : x y z
#
# Youngs Moduli (GPa) = 59.95343 78.06318 90.36044
#
# Poissons Ratio (x) = -0.00994 0.11250
# Poissons Ratio (y) = -0.00764 0.05114
# Poissons Ratio (z) = 0.07464 0.04418
#
# Static dielectric constant tensor:
#      x y z
#    x 4.201540 0.000000 0.059100 
#    y 0.000000 4.262990 0.000000 
#    z 0.059100 0.000000 4.345160 
# 
# 
# High freq. dielectric constant tensor:
#      x y z
#    x 1.936700 0.000000 0.007150 
#    y 0.000000 1.938070 0.000000 
#    z 0.007150 0.000000 1.954440 
# 
# From -- ./inp_files/12557.got.cif
#   From: 2010.06.25/outbox.cif.g09.slc.cpg/sg9_7_cif.got.tgz:12557.got - 2010.06.27 21:40:51.
