data_PCOD8056759
_publ_section_title
;
Structure prediction by ZEFSAII (Michael W. Deem and Ramdas Pophale) SiO2 
 PCOD8056759
Probable space group: C C
;
_chemical_formula_sum "Si O2"
_cell_formula_units_Z 28
_cell_length_a 6.294000
_cell_length_b 17.842970
_cell_length_c 10.494001
_cell_angle_alpha 90.000000
_cell_angle_beta 107.450548
_cell_angle_gamma 90.000000
_cell_volume 1124.274849
_symmetry_space_group_name_H-M "C C"
_symmetry_group_IT_number 9
_symmetry_cell_setting 'monoclinic'
loop_
_space_group_symop_operation_xyz
x,y,z
x,-y,1/2+z
1/2+x,1/2+y,z
1/2+x,1/2-y,1/2+z
loop_
_atom_site_type_symbol
_atom_site_label
_atom_site_fract_x
_atom_site_fract_y
_atom_site_fract_z
Si Si1 0.458530 0.261111 0.518490
Si Si2 0.423786 0.488889 0.518487
Si Si3 0.661621 0.686613 0.820078
Si Si4 0.522280 0.063386 0.820077
Si Si5 0.737045 0.125000 0.610263
Si Si6 0.526014 0.292668 0.822943
Si Si7 0.660752 0.542669 0.322939
O O1 0.593917 0.320315 0.455695
O O2 0.547306 0.176588 0.514774
O O3 0.513552 0.284309 0.670063
O O4 0.201407 0.263224 0.424622
O O5 0.331300 0.573411 0.514777
O O6 0.587032 0.486776 0.424614
O O7 0.520343 0.465686 0.670058
O O8 0.225600 0.429685 0.455694
O O9 0.835610 0.624999 0.807398
O O10 0.438089 0.678361 0.696403
O O11 0.778819 0.768832 0.825512
O O12 0.622136 0.071639 0.696401
O O13 0.410517 0.981167 0.825511
O O14 0.617289 0.375000 0.870757
#
# Coordination Sequence:
#
# PCOD8056759 Si02
#       7
#     4   4   4   4   4   4   4
#     4  12  27  49  74 114 153 201 263 322 398 476
#     4  12  27  49  74 114 153 201 263 322 398 476
#     4  12  26  49  79 108 157 206 259 333 399 474
#     4  12  26  49  79 108 157 206 259 333 399 474
#     4  12  26  52  78 112 158 204 266 332 404 466
#     4  12  30  46  78 115 155 203 266 323 398 478
#     4  12  30  46  78 115 155 203 266 323 398 478
#
# _framework density 24.904941000000001
#
# number of rings (size 3 to 8) (size 9 to 14) (size 15 to 20)
#    0.000    0.000    5.714    1.714   14.000    0.000 
#    2.571    0.000    0.000    0.000    0.000    0.000 
#    0.000    0.000    0.000    0.000    0.000    0.000 
#
# Total GULP energy -173508.717201 kJ/mol
# GULP energy per Si atom -12393.479800 kJ/mol
# Density = 2.484826 g / cm^3
# Si number density = 24.904941 Si / 1000 Ang^3
#
#
#
# Elastic Constant Matrix: (Units=GPa)
#
#
# Indices 1 2 3 4 5 6 
#
# 1 139.5415 27.5368 45.2584 0.0000 3.1120 0.0000
# 2 27.5368 55.6148 -4.7011 0.0000 1.7147 0.0000
# 3 45.2584 -4.7011 112.1490 0.0000 -1.6546 0.0000
# 4 0.0000 0.0000 0.0000 31.0697 0.0000 1.0809
# 5 3.1120 1.7147 -1.6546 0.0000 18.1346 0.0000
# 6 0.0000 0.0000 0.0000 1.0809 0.0000 51.3833
#
#
#
# Elastic Compliance Matrix: (Units=1/GPa)
#
#
# Indices 1 2 3 4 5 6 
#
# 1 0.009508 -0.005004 -0.004069 0.000000 -0.001530 0.000000
# 2 -0.005004 0.020728 0.002876 0.000000 -0.000839 0.000000
# 3 -0.004069 0.002876 0.010700 0.000000 0.001403 0.000000
# 4 0.000000 0.000000 0.000000 0.032209 0.000000 -0.000678
# 5 -0.001530 -0.000839 0.001403 0.000000 0.055613 0.000000
# 6 0.000000 0.000000 0.000000 -0.000678 0.000000 0.019476
#
#
# Mechanical properties :
#
#
# Convention : Reuss Voigt Hill
#
# Bulk Modulus (GPa) = 35.03818 49.27708 42.15763
# Shear Modulus (GPa) = 29.38711 36.06493 32.72602
#
# Velocity S-wave (km/s) = 3.43880 3.80952 3.62890
# Velocity P-wave (km/s) = 5.46502 6.25931 5.87560
#
# Compressibility (1/GPa) = 0.02854030
#
# Stress axis : x y z
#
# Youngs Moduli (GPa) = 105.17644 48.24465 93.45663
#
# Poissons Ratio (x) = 0.24144 0.38030
# Poissons Ratio (y) = 0.52635 -0.26879
# Poissons Ratio (z) = 0.42799 -0.13876
#
# Static dielectric constant tensor:
#      x y z
#    x 5.180040 0.000000 0.041240 
#    y 0.000000 5.018460 0.000000 
#    z 0.041240 0.000000 4.404960 
# 
# 
# High freq. dielectric constant tensor:
#      x y z
#    x 2.005490 0.000000 0.000420 
#    y 0.000000 1.989410 0.000000 
#    z 0.000420 0.000000 1.997530 
# 
# From -- ./inp_files/13531.got.cif
#   From: 2010.06.25/outbox.cif.g09.slc.cpg/sg9_7_cif.got.tgz:13531.got - 2010.06.27 21:40:51.
