data_PCOD8056038
_publ_section_title
;
Structure prediction by ZEFSAII (Michael W. Deem and Ramdas Pophale) SiO2 
 PCOD8056038
Probable space group: C C
;
_chemical_formula_sum "Si O2"
_cell_formula_units_Z 24
_cell_length_a 13.895967
_cell_length_b 17.209270
_cell_length_c 5.065817
_cell_angle_alpha 90.000000
_cell_angle_beta 99.079055
_cell_angle_gamma 90.000000
_cell_volume 1196.259266
_symmetry_space_group_name_H-M "C C"
_symmetry_group_IT_number 9
_symmetry_cell_setting 'monoclinic'
loop_
_space_group_symop_operation_xyz
x,y,z
x,-y,1/2+z
1/2+x,1/2+y,z
1/2+x,1/2-y,1/2+z
loop_
_atom_site_type_symbol
_atom_site_label
_atom_site_fract_x
_atom_site_fract_y
_atom_site_fract_z
Si Si1 0.541550 0.829293 0.841240
Si Si2 0.344805 0.215708 0.342657
Si Si3 0.537561 0.930267 0.356431
Si Si4 0.850489 0.465577 0.729225
Si Si5 0.752952 0.211640 0.296292
Si Si6 0.751671 0.042538 0.104441
O O1 0.460884 0.765655 0.901625
O O2 0.492589 0.873324 0.563953
O O3 0.636673 0.784685 0.777941
O O4 0.567836 0.883764 0.103013
O O5 0.289935 0.228111 0.594291
O O6 0.343685 0.123452 0.300350
O O7 0.296675 0.267855 0.097947
O O8 0.461109 0.997225 0.233971
O O9 0.633866 0.964251 0.543112
O O10 0.796448 0.483727 0.431742
O O11 0.787052 0.127058 0.210761
O O12 0.792492 0.980108 0.334684
#
# Coordination Sequence:
#
# PCOD8056038 Si02
#       6
#     4   4   4   4   4   4
#     4  11  22  38  60  83 128 171 196 254 308 370
#     4  12  23  39  59  87 133 172 198 258 308 380
#     4  11  19  33  55  94 121 151 196 242 324 396
#     4  12  20  33  55  92 123 158 194 244 317 393
#     4  11  25  40  55  93 128 166 215 238 320 391
#     4  11  21  35  58  85 121 158 193 258 309 376
#
# _framework density 20.062541
#
# number of rings (size 3 to 8) (size 9 to 14) (size 15 to 20)
#    0.000    0.667    3.333    8.000    2.333    0.000 
#    0.000    0.000    0.000    0.000    0.000   23.333 
#    0.000    0.000    0.000    0.000    0.000    0.000 
#
# Total GULP energy -148684.766971 kJ/mol
# GULP energy per Si atom -12390.397248 kJ/mol
# Density = 2.001688 g / cm^3
# Si number density = 20.062541 Si / 1000 Ang^3
#
#
#
# Elastic Constant Matrix: (Units=GPa)
#
#
# Indices 1 2 3 4 5 6 
#
# 1 77.9152 34.6871 21.6686 0.0000 -12.2644 0.0000
# 2 34.6871 63.8904 7.8163 0.0000 -3.7475 0.0000
# 3 21.6686 7.8163 102.1030 0.0000 -22.3196 0.0000
# 4 0.0000 0.0000 0.0000 47.9572 0.0000 -6.0215
# 5 -12.2644 -3.7475 -22.3196 0.0000 29.6312 0.0000
# 6 0.0000 0.0000 0.0000 -6.0215 0.0000 26.5822
#
#
#
# Elastic Compliance Matrix: (Units=1/GPa)
#
#
# Indices 1 2 3 4 5 6 
#
# 1 0.018386 -0.009440 -0.002127 0.000000 0.004814 0.000000
# 2 -0.009440 0.020688 0.000165 0.000000 -0.001167 0.000000
# 3 -0.002127 0.000165 0.012025 0.000000 0.008198 0.000000
# 4 0.000000 0.000000 0.000000 0.021462 0.000000 0.004862
# 5 0.004814 -0.001167 0.008198 0.000000 0.041768 0.000000
# 6 0.000000 0.000000 0.000000 0.004862 0.000000 0.038721
#
#
# Mechanical properties :
#
#
# Convention : Reuss Voigt Hill
#
# Bulk Modulus (GPa) = 35.34172 41.36141 38.35156
# Shear Modulus (GPa) = 26.98526 32.81655 29.90090
#
# Velocity S-wave (km/s) = 3.67148 4.04878 3.86474
# Velocity P-wave (km/s) = 5.96884 6.52057 6.25080
#
# Compressibility (1/GPa) = 0.02829517
#
# Stress axis : x y z
#
# Youngs Moduli (GPa) = 54.38876 48.33693 83.16040
#
# Poissons Ratio (x) = 0.45628 0.17688
# Poissons Ratio (y) = 0.51341 -0.01368
# Poissons Ratio (z) = 0.11568 -0.00795
#
# Static dielectric constant tensor:
#      x y z
#    x 3.509820 0.000000 -0.387060 
#    y 0.000000 3.629000 0.000000 
#    z -0.387060 0.000000 4.556250 
# 
# 
# High freq. dielectric constant tensor:
#      x y z
#    x 1.726200 0.000000 -0.031650 
#    y 0.000000 1.769260 0.000000 
#    z -0.031650 0.000000 1.827810 
# 
# From -- ./inp_files/2412.got.cif
#   From: 2010.06.25/outbox.cif.g09.slc.cpg/sg9_2_cif.got.tgz:2412.got - 2010.06.27 21:40:51.
