data_PCOD8056765
_publ_section_title
;
Structure prediction by ZEFSAII (Michael W. Deem and Ramdas Pophale) SiO2 
 PCOD8056765
Probable space group: C C
;
_chemical_formula_sum "Si O2"
_cell_formula_units_Z 32
_cell_length_a 25.694479
_cell_length_b 9.274957
_cell_length_c 8.941463
_cell_angle_alpha 90.000000
_cell_angle_beta 37.314625
_cell_angle_gamma 90.000000
_cell_volume 1291.725092
_symmetry_space_group_name_H-M "C C"
_symmetry_group_IT_number 9
_symmetry_cell_setting 'monoclinic'
loop_
_space_group_symop_operation_xyz
x,y,z
x,-y,1/2+z
1/2+x,1/2+y,z
1/2+x,1/2-y,1/2+z
loop_
_atom_site_type_symbol
_atom_site_label
_atom_site_fract_x
_atom_site_fract_y
_atom_site_fract_z
Si Si1 0.880300 0.161881 0.653650
Si Si2 0.958278 0.433470 0.321914
Si Si3 0.725354 0.203903 0.513819
Si Si4 0.817528 0.349730 0.052347
Si Si5 0.547398 0.860742 0.836278
Si Si6 0.534603 0.447490 0.356864
Si Si7 0.723239 0.055527 0.829463
Si Si8 0.153666 0.020468 0.328007
O O1 0.903819 0.297495 0.498432
O O2 0.810100 0.073348 0.723439
O O3 0.844003 0.209083 0.897385
O O4 0.962459 0.063894 0.493824
O O5 0.894304 0.536738 0.378015
O O6 0.001311 0.507526 0.363437
O O7 0.038057 0.390406 0.033830
O O8 0.800476 0.298845 0.263218
O O9 0.746492 0.090783 0.601985
O O10 0.661623 0.322198 0.730117
O O11 0.690660 0.107664 0.451007
O O12 0.739914 0.426184 0.138289
O O13 0.498025 0.712420 0.905845
O O14 0.646919 0.841173 0.561496
O O15 0.570438 0.445477 0.443814
O O16 0.623983 0.470045 0.065961
#
# Coordination Sequence:
#
# PCOD8056765 Si02
#       8
#     4   4   4   4   4   4   4   4
#     4  12  29  50  79 120 162 210 273 335 406 482
#     4  12  28  49  80 115 164 206 269 330 403 483
#     4  12  27  48  83 115 161 209 275 325 401 483
#     4  12  27  50  81 116 162 215 268 332 408 490
#     4  12  28  50  78 113 161 210 262 329 407 479
#     4  12  29  48  81 116 163 205 271 335 408 471
#     4  12  28  50  80 116 160 213 269 335 403 485
#     4  12  26  51  80 115 159 214 269 329 404 491
#
# _framework density 24.773074000000001
#
# number of rings (size 3 to 8) (size 9 to 14) (size 15 to 20)
#    0.000    0.000    3.750    4.500    7.000    3.000 
#    0.000    0.000    0.000    0.000    0.000    0.000 
#    0.000    0.000    0.000    0.000    0.000    0.000 
#
# Total GULP energy -198303.590261 kJ/mol
# GULP energy per Si atom -12393.974391 kJ/mol
# Density = 2.471669 g / cm^3
# Si number density = 24.773074 Si / 1000 Ang^3
#
#
#
# Elastic Constant Matrix: (Units=GPa)
#
#
# Indices 1 2 3 4 5 6 
#
# 1 87.1348 26.8501 41.8309 0.0000 -4.3385 0.0000
# 2 26.8501 117.5989 37.8434 0.0000 0.6496 0.0000
# 3 41.8309 37.8434 113.8551 0.0000 18.2682 0.0000
# 4 0.0000 0.0000 0.0000 42.5628 0.0000 9.4623
# 5 -4.3385 0.6496 18.2682 0.0000 39.3461 0.0000
# 6 0.0000 0.0000 0.0000 9.4623 0.0000 37.6535
#
#
#
# Elastic Compliance Matrix: (Units=1/GPa)
#
#
# Indices 1 2 3 4 5 6 
#
# 1 0.014884 -0.001614 -0.005618 0.000000 0.004276 0.000000
# 2 -0.001614 0.009771 -0.002809 0.000000 0.000965 0.000000
# 3 -0.005618 -0.002809 0.012829 0.000000 -0.006529 0.000000
# 4 0.000000 0.000000 0.000000 0.024885 0.000000 -0.006254
# 5 0.004276 0.000965 -0.006529 0.000000 0.028903 0.000000
# 6 0.000000 0.000000 0.000000 -0.006254 0.000000 0.028129
#
#
# Mechanical properties :
#
#
# Convention : Reuss Voigt Hill
#
# Bulk Modulus (GPa) = 57.47079 59.07086 58.27082
# Shear Modulus (GPa) = 34.41552 38.05011 36.23281
#
# Velocity S-wave (km/s) = 3.73128 3.92337 3.82853
# Velocity P-wave (km/s) = 6.46626 6.66485 6.56631
#
# Compressibility (1/GPa) = 0.01740014
#
# Stress axis : x y z
#
# Youngs Moduli (GPa) = 67.18720 102.34628 77.95043
#
# Poissons Ratio (x) = 0.16519 0.43793
# Poissons Ratio (y) = 0.10844 0.21900
# Poissons Ratio (z) = 0.37746 0.28754
#
# Static dielectric constant tensor:
#      x y z
#    x 4.143690 0.000000 0.204560 
#    y 0.000000 4.609690 0.000000 
#    z 0.204560 0.000000 4.730230 
# 
# 
# High freq. dielectric constant tensor:
#      x y z
#    x 1.970060 0.000000 0.016000 
#    y 0.000000 2.004540 0.000000 
#    z 0.016000 0.000000 2.005160 
# 
# From -- ./inp_files/12400.got.cif
#   From: 2010.06.25/outbox.cif.g09.slc.cpg/sg9_7_cif.got.tgz:12400.got - 2010.06.27 21:40:51.
