data_PCOD8056181
_publ_section_title
;
Structure prediction by ZEFSAII (Michael W. Deem and Ramdas Pophale) SiO2 
 PCOD8056181
Probable space group: C C
;
_chemical_formula_sum "Si O2"
_cell_formula_units_Z 32
_cell_length_a 9.642990
_cell_length_b 10.149801
_cell_length_c 15.778226
_cell_angle_alpha 90.000000
_cell_angle_beta 110.492694
_cell_angle_gamma 90.000000
_cell_volume 1446.557639
_symmetry_space_group_name_H-M "C C"
_symmetry_group_IT_number 9
_symmetry_cell_setting 'monoclinic'
loop_
_space_group_symop_operation_xyz
x,y,z
x,-y,1/2+z
1/2+x,1/2+y,z
1/2+x,1/2-y,1/2+z
loop_
_atom_site_type_symbol
_atom_site_label
_atom_site_fract_x
_atom_site_fract_y
_atom_site_fract_z
Si Si1 0.774160 0.049425 0.180460
Si Si2 0.589918 0.946424 0.300746
Si Si3 0.177560 0.820228 0.891054
Si Si4 0.989455 0.205969 0.953787
Si Si5 0.213849 0.420966 0.999461
Si Si6 0.275574 0.847190 0.207448
Si Si7 0.561668 0.585205 0.797231
Si Si8 0.033857 0.914678 0.023544
O O1 0.826139 0.200644 0.194413
O O2 0.666459 0.011190 0.235202
O O3 0.923648 0.965000 0.213217
O O4 0.698045 0.025962 0.072810
O O5 0.627583 0.791880 0.314827
O O6 0.411845 0.948454 0.251813
O O7 0.646670 0.017793 0.398521
O O8 0.346085 0.788452 0.951981
O O9 0.071348 0.825094 0.950318
O O10 0.164487 0.964554 0.848895
O O11 0.127054 0.292713 0.011262
O O12 0.994148 0.179085 0.854501
O O13 0.995037 0.066883 0.000328
O O14 0.378838 0.361165 0.025580
O O15 0.173222 0.825921 0.267660
O O16 0.173354 0.912306 0.114585
#
# Coordination Sequence:
#
# PCOD8056181 Si02
#       8
#     4   4   4   4   4   4   4   4
#     4  12  26  47  71 103 143 185 237 293 354 418
#     4  12  25  46  74 103 142 187 238 290 355 420
#     4  11  22  44  74  98 138 182 233 293 354 414
#     4  11  25  45  72 100 139 183 237 289 356 418
#     4  12  26  48  73 104 146 188 233 297 353 419
#     4  12  27  44  71 102 143 184 235 289 355 422
#     4  11  23  45  69 102 137 185 230 292 351 418
#     4  11  26  45  68 104 140 182 235 291 354 419
#
# _framework density 22.121480999999999
#
# number of rings (size 3 to 8) (size 9 to 14) (size 15 to 20)
#    0.000    0.500    5.000    3.000    3.500    2.000 
#    4.500    0.000    0.000    0.000    0.000    0.000 
#    0.000    0.000    0.000    0.000    0.000    0.000 
#
# Total GULP energy -198366.412032 kJ/mol
# GULP energy per Si atom -12397.900752 kJ/mol
# Density = 2.207113 g / cm^3
# Si number density = 22.121481 Si / 1000 Ang^3
#
#
#
# Elastic Constant Matrix: (Units=GPa)
#
#
# Indices 1 2 3 4 5 6 
#
# 1 137.0635 32.8337 38.5966 0.0000 14.7261 0.0000
# 2 32.8337 46.9902 10.9192 0.0000 3.0126 0.0000
# 3 38.5966 10.9192 104.3893 0.0000 5.5524 0.0000
# 4 0.0000 0.0000 0.0000 27.1341 0.0000 9.5419
# 5 14.7261 3.0126 5.5524 0.0000 41.9568 0.0000
# 6 0.0000 0.0000 0.0000 9.5419 0.0000 37.6573
#
#
#
# Elastic Compliance Matrix: (Units=1/GPa)
#
#
# Indices 1 2 3 4 5 6 
#
# 1 0.009831 -0.006035 -0.002863 0.000000 -0.002638 0.000000
# 2 -0.006035 0.025584 -0.000463 0.000000 0.000342 0.000000
# 3 -0.002863 -0.000463 0.010707 0.000000 -0.000379 0.000000
# 4 0.000000 0.000000 0.000000 0.040459 0.000000 -0.010252
# 5 -0.002638 0.000342 -0.000379 0.000000 0.024786 0.000000
# 6 0.000000 0.000000 0.000000 -0.010252 0.000000 0.029153
#
#
# Mechanical properties :
#
#
# Convention : Reuss Voigt Hill
#
# Bulk Modulus (GPa) = 36.49764 50.34910 43.42337
# Shear Modulus (GPa) = 29.69560 35.08919 32.39239
#
# Velocity S-wave (km/s) = 3.66784 3.98704 3.83076
# Velocity P-wave (km/s) = 5.87128 6.63363 6.26406
#
# Compressibility (1/GPa) = 0.02739903
#
# Stress axis : x y z
#
# Youngs Moduli (GPa) = 101.71503 39.08765 93.39858
#
# Poissons Ratio (x) = 0.23589 0.26744
# Poissons Ratio (y) = 0.61385 0.04323
# Poissons Ratio (z) = 0.29125 0.01809
#
# Static dielectric constant tensor:
#      x y z
#    x 4.210540 0.000000 -0.004830 
#    y 0.000000 3.930940 0.000000 
#    z -0.004830 0.000000 4.139590 
# 
# 
# High freq. dielectric constant tensor:
#      x y z
#    x 1.886560 0.000000 0.000710 
#    y 0.000000 1.869700 0.000000 
#    z 0.000710 0.000000 1.871480 
# 
# From -- ./inp_files/22913.got.cif
#   From: 2010.06.25/outbox.cif.g09.slc.cpg/sg9_12_cif.got.tgz:22913.got - 2010.06.27 21:40:51.
