data_PCOD8056868
_publ_section_title
;
Structure prediction by ZEFSAII (Michael W. Deem and Ramdas Pophale) SiO2 
 PCOD8056868
Probable space group: P 2/M
;
_chemical_formula_sum "Si O2"
_cell_formula_units_Z 28
_cell_length_a 10.248307
_cell_length_b 14.485773
_cell_length_c 12.488873
_cell_angle_alpha 90.000000
_cell_angle_beta 75.420041
_cell_angle_gamma 90.000000
_cell_volume 1794.326407
_symmetry_space_group_name_H-M "P 2/M"
_symmetry_group_IT_number 10
_symmetry_cell_setting 'monoclinic'
loop_
_space_group_symop_operation_xyz
x,y,z
-x,y,-z
-x,-y,-z
x,-y,z
loop_
_atom_site_type_symbol
_atom_site_label
_atom_site_fract_x
_atom_site_fract_y
_atom_site_fract_z
Si Si1 0.795631 0.210009 0.727338
Si Si2 0.138291 0.106934 0.915540
Si Si3 0.869436 0.399054 0.386255
Si Si4 0.653818 0.894172 0.942818
Si Si5 0.889250 0.790227 0.293288
Si Si6 0.842490 0.103418 0.510401
Si Si7 0.816169 0.600940 0.633122
O O1 0.698163 0.171250 0.837664
O O2 0.768887 0.155050 0.622982
O O3 0.752661 0.316813 0.716665
O O4 0.949632 0.199152 0.733394
O O5 0.163892 0.168110 0.805912
O O6 0.130414 0.000000 0.882667
O O7 0.261172 0.127482 0.968963
O O8 0.000000 0.137723 0.000000
O O9 0.833106 0.500000 0.343895
O O10 0.840938 0.316834 0.308261
O O11 0.785409 0.383645 0.513349
O O12 0.024794 0.395482 0.384872
O O13 0.676500 0.000000 0.902489
O O14 0.500000 0.872631 0.000000
O O15 0.815978 0.843592 0.405184
O O16 0.000000 0.101677 0.500000
O O17 0.784105 0.000000 0.513469
O O18 0.760183 0.500000 0.681200
#
# Coordination Sequence:
#
# PCOD8056868 Si02
#       7
#     4   4   4   4   4   4   4
#     4  10  16  26  44  66  93 120 154 193 227 273
#     4  10  19  31  47  67  91 123 159 193 227 268
#     4   8  13  22  37  62  97 126 146 176 229 287
#     4  10  21  35  49  65  89 126 165 194 223 267
#     4  10  16  25  43  68  96 119 148 190 235 274
#     4   9  16  22  34  63  95 118 139 182 240 278
#     4   8  13  22  38  63  94 123 150 182 227 280
#
# _framework density 15.604741000000001
#
# number of rings (size 3 to 8) (size 9 to 14) (size 15 to 20)
#    0.000    2.714    2.857    1.714    0.000    1.143 
#    0.000    0.000    0.000    2.571    0.000    4.000 
#    0.000    2.286    0.000    0.000    0.000    0.000 
#
# Total GULP energy -347047.972346 kJ/mol
# GULP energy per Si atom -12394.570441 kJ/mol
# Density = 1.556922 g / cm^3
# Si number density = 15.604741 Si / 1000 Ang^3
#
#
#
# Elastic Constant Matrix: (Units=GPa)
#
#
# Indices 1 2 3 4 5 6 
#
# 1 47.4688 28.2594 31.5834 0.0000 1.9772 0.0000
# 2 28.2594 147.3065 82.4057 0.0000 2.5341 0.0000
# 3 31.5834 82.4057 115.2438 0.0000 7.7744 0.0000
# 4 0.0000 0.0000 0.0000 27.0067 0.0000 0.6895
# 5 1.9772 2.5341 7.7744 0.0000 11.1723 0.0000
# 6 0.0000 0.0000 0.0000 0.6895 0.0000 8.0969
#
#
#
# Elastic Compliance Matrix: (Units=1/GPa)
#
#
# Indices 1 2 3 4 5 6 
#
# 1 0.026009 -0.001674 -0.005924 0.000000 -0.000101 0.000000
# 2 -0.001674 0.011533 -0.008008 0.000000 0.003252 0.000000
# 3 -0.005924 -0.008008 0.016613 0.000000 -0.008696 0.000000
# 4 0.000000 0.000000 0.000000 0.037109 0.000000 -0.003160
# 5 -0.000101 0.003252 -0.008696 0.000000 0.094838 0.000000
# 6 0.000000 0.000000 0.000000 -0.003160 0.000000 0.123773
#
#
# Mechanical properties :
#
#
# Convention : Reuss Voigt Hill
#
# Bulk Modulus (GPa) = 43.58403 66.05736 54.82070
# Shear Modulus (GPa) = 14.33753 20.43988 17.38871
#
# Velocity S-wave (km/s) = 3.03445 3.62311 3.34177
# Velocity P-wave (km/s) = 6.34569 7.74119 7.07792
#
# Compressibility (1/GPa) = 0.02294418
#
# Stress axis : x y z
#
# Youngs Moduli (GPa) = 38.44849 86.70515 60.19217
#
# Poissons Ratio (x) = 0.14511 0.35660
# Poissons Ratio (y) = 0.06435 0.48200
# Poissons Ratio (z) = 0.22778 0.69431
#
# Static dielectric constant tensor:
#      x y z
#    x 2.450530 0.000000 0.066790 
#    y 0.000000 3.384980 0.000000 
#    z 0.066790 0.000000 2.874570 
# 
# 
# High freq. dielectric constant tensor:
#      x y z
#    x 1.535150 0.000000 0.007410 
#    y 0.000000 1.610300 0.000000 
#    z 0.007410 0.000000 1.589870 
# 
# From -- ./inp_files/24930.got.cif
#   From: 2010.06.25/outbox.cif.g09.slc.cpg/sg10_13_cif.got.tgz:24930.got - 2010.06.27 22:07:45.
