data_PCOD8056985
_publ_section_title
;
Structure prediction by ZEFSAII (Michael W. Deem and Ramdas Pophale) SiO2 
 PCOD8056985
Probable space group: P 2/M
;
_chemical_formula_sum "Si O2"
_cell_formula_units_Z 28
_cell_length_a 20.454300
_cell_length_b 9.160339
_cell_length_c 18.122707
_cell_angle_alpha 90.000000
_cell_angle_beta 151.614471
_cell_angle_gamma 90.000000
_cell_volume 1614.285192
_symmetry_space_group_name_H-M "P 2/M"
_symmetry_group_IT_number 10
_symmetry_cell_setting 'monoclinic'
loop_
_space_group_symop_operation_xyz
x,y,z
-x,y,-z
-x,-y,-z
x,-y,z
loop_
_atom_site_type_symbol
_atom_site_label
_atom_site_fract_x
_atom_site_fract_y
_atom_site_fract_z
Si Si1 0.325154 0.829049 0.033646
Si Si2 0.626999 0.831526 0.477953
Si Si3 0.162293 0.670600 0.583251
Si Si4 0.344839 0.672076 0.198283
Si Si5 0.852033 0.327988 0.263374
Si Si6 0.354037 0.165057 0.663494
Si Si7 0.335593 0.161904 0.328600
O O1 0.273606 0.748876 0.057140
O O2 0.485078 0.795512 0.178029
O O3 0.296662 0.000000 0.013808
O O4 0.241600 0.766557 0.882543
O O5 0.503547 0.716758 0.357040
O O6 0.707817 0.809373 0.480894
O O7 0.721693 0.803408 0.644916
O O8 0.569355 0.000000 0.422636
O O9 0.173302 0.500000 0.585753
O O10 0.191261 0.714358 0.696488
O O11 0.277749 0.736244 0.646025
O O12 0.010038 0.719754 0.407471
O O13 0.326163 0.500000 0.173267
O O14 0.277968 0.726864 0.209598
O O15 0.831382 0.500000 0.228328
O O16 0.331041 0.000000 0.666247
O O17 0.500000 0.171504 0.500000
O O18 0.290075 0.000000 0.258924
#
# Coordination Sequence:
#
# PCOD8056985 Si02
#       7
#     4   4   4   4   4   4   4
#     4  10  20  33  48  69  97 127 158 194 236 279
#     4   8  15  27  40  58  89 126 157 189 230 273
#     4   9  19  35  53  71  94 123 154 191 236 283
#     4  10  17  24  38  62  91 121 154 193 233 274
#     4   9  19  36  53  70  93 122 157 194 232 280
#     4   9  18  31  47  70  99 126 157 195 232 275
#     4   8  13  23  38  55  83 123 158 187 226 273
#
# _framework density 17.345137999999999
#
# number of rings (size 3 to 8) (size 9 to 14) (size 15 to 20)
#    0.000    3.000    0.000    4.286    0.000    7.143 
#    0.000    4.286    0.000    0.000    0.000    1.000 
#    0.000    8.000    0.000    0.000    0.000    0.000 
#
# Total GULP energy -346931.420413 kJ/mol
# GULP energy per Si atom -12390.407872 kJ/mol
# Density = 1.730566 g / cm^3
# Si number density = 17.345138 Si / 1000 Ang^3
#
#
#
# Elastic Constant Matrix: (Units=GPa)
#
#
# Indices 1 2 3 4 5 6 
#
# 1 83.7602 59.9571 75.8771 0.0000 -41.3194 0.0000
# 2 59.9571 88.6724 45.8824 0.0000 -22.0069 0.0000
# 3 75.8771 45.8824 61.9405 0.0000 -23.7623 0.0000
# 4 0.0000 0.0000 0.0000 23.4232 0.0000 -7.7186
# 5 -41.3194 -22.0069 -23.7623 0.0000 21.8400 0.0000
# 6 0.0000 0.0000 0.0000 -7.7186 0.0000 28.7914
#
#
#
# Elastic Compliance Matrix: (Units=1/GPa)
#
#
# Indices 1 2 3 4 5 6 
#
# 1 -0.047821 -0.000428 0.041236 0.000000 -0.046039 0.000000
# 2 -0.000428 0.018807 -0.011067 0.000000 0.006100 0.000000
# 3 0.041236 -0.011067 -0.000894 0.000000 0.065890 0.000000
# 4 0.000000 0.000000 0.000000 0.046830 0.000000 0.012554
# 5 -0.046039 0.006100 0.065890 0.000000 0.036522 0.000000
# 6 0.000000 0.000000 0.000000 0.012554 0.000000 0.038098
#
#
# Mechanical properties :
#
#
# Convention : Reuss Voigt Hill
#
# Bulk Modulus (GPa) = 33.81359 66.42291 50.11825
# Shear Modulus (GPa) = 119.27704 18.32137 68.79920
#
# Velocity S-wave (km/s) = 8.30157 3.25358 6.30483
# Velocity P-wave (km/s) = 10.55581 7.24516 9.05310
#
# Compressibility (1/GPa) = 0.02957391
#
# Stress axis : x y z
#
# Youngs Moduli (GPa) = -20.91144 53.17091 -1118.78704
#
# Poissons Ratio (x) = 0.02277 46.13385
# Poissons Ratio (y) = -0.00896 -12.38131
# Poissons Ratio (z) = 0.86230 0.58843
#
# Static dielectric constant tensor:
#      x y z
#    x 3.594170 0.000000 -0.451350 
#    y 0.000000 3.118280 0.000000 
#    z -0.451350 0.000000 3.020300 
# 
# 
# High freq. dielectric constant tensor:
#      x y z
#    x 1.669620 0.000000 -0.043310 
#    y 0.000000 1.667520 0.000000 
#    z -0.043310 0.000000 1.630880 
# 
# From -- ./inp_files/75746.got.cif
#   From: 2010.06.25/outbox.cif.g09.slc.cpg/sg10_38_cif.got.tgz:75746.got - 2010.06.27 22:07:45.
