data_PCOD8056561
_publ_section_title
;
Structure prediction by ZEFSAII (Michael W. Deem and Ramdas Pophale) SiO2 
 PCOD8056561
Probable space group: C C
;
_chemical_formula_sum "Si O2"
_cell_formula_units_Z 32
_cell_length_a 14.183919
_cell_length_b 17.744451
_cell_length_c 8.855436
_cell_angle_alpha 90.000000
_cell_angle_beta 39.581651
_cell_angle_gamma 90.000000
_cell_volume 1420.132889
_symmetry_space_group_name_H-M "C C"
_symmetry_group_IT_number 9
_symmetry_cell_setting 'monoclinic'
loop_
_space_group_symop_operation_xyz
x,y,z
x,-y,1/2+z
1/2+x,1/2+y,z
1/2+x,1/2-y,1/2+z
loop_
_atom_site_type_symbol
_atom_site_label
_atom_site_fract_x
_atom_site_fract_y
_atom_site_fract_z
Si Si1 0.742050 0.915732 0.812940
Si Si2 0.494786 0.704245 0.027398
Si Si3 0.268928 0.429882 0.448219
Si Si4 0.812402 0.680624 0.245878
Si Si5 0.077841 0.288414 0.622711
Si Si6 0.083858 0.063684 0.465171
Si Si7 0.438822 0.155254 0.774412
Si Si8 0.148493 0.088693 0.041678
O O1 0.877376 0.858489 0.625200
O O2 0.711101 0.946528 0.685948
O O3 0.778747 0.988606 0.862490
O O4 0.603959 0.873704 0.054485
O O5 0.407352 0.771048 0.215627
O O6 0.606411 0.667176 0.011631
O O7 0.578999 0.742576 0.780276
O O8 0.149451 0.371331 0.533173
O O9 0.437202 0.398946 0.222111
O O10 0.682036 0.741473 0.380763
O O11 0.727814 0.601053 0.364810
O O12 0.909986 0.701555 0.271874
O O13 0.919764 0.678226 0.971152
O O14 0.069037 0.076326 0.302411
O O15 0.102135 0.975872 0.481656
O O16 0.323819 0.091232 0.860609
#
# Coordination Sequence:
#
# PCOD8056561 Si02
#       8
#     4   4   4   4   4   4   4   4
#     4  12  27  46  74 109 151 194 247 308 372 444
#     4  12  26  49  73 106 148 197 246 305 376 449
#     4  12  27  47  74 111 148 197 246 306 378 442
#     4  11  28  46  75 105 144 190 250 306 366 445
#     4  12  28  47  77 108 149 196 250 312 370 450
#     4  11  25  49  73 111 147 198 249 310 377 445
#     4  11  28  45  72 106 147 197 246 305 373 443
#     4  11  27  45  76 106 150 197 248 310 376 450
#
# _framework density 22.533102
#
# number of rings (size 3 to 8) (size 9 to 14) (size 15 to 20)
#    0.000    0.500    2.500    3.750   14.000    1.000 
#    0.000    0.000    0.000    0.000    0.000    0.000 
#    0.000    0.000    0.000    0.000    0.000    0.000 
#
# Total GULP energy -198367.170504 kJ/mol
# GULP energy per Si atom -12397.948156 kJ/mol
# Density = 2.248182 g / cm^3
# Si number density = 22.533102 Si / 1000 Ang^3
#
#
#
# Elastic Constant Matrix: (Units=GPa)
#
#
# Indices 1 2 3 4 5 6 
#
# 1 91.5360 26.4398 46.2838 0.0018 -0.4014 -0.0028
# 2 26.4398 100.7414 57.0409 0.0008 0.2226 -0.0015
# 3 46.2838 57.0409 118.7541 0.0018 2.2535 -0.0017
# 4 0.0018 0.0008 0.0018 43.3431 -0.0012 7.6325
# 5 -0.4014 0.2226 2.2535 -0.0012 37.3819 0.0016
# 6 -0.0028 -0.0015 -0.0017 7.6325 0.0016 49.4988
#
#
#
# Elastic Compliance Matrix: (Units=1/GPa)
#
#
# Indices 1 2 3 4 5 6 
#
# 1 0.013658 -0.000778 -0.004958 0.000000 0.000450 0.000001
# 2 -0.000778 0.013683 -0.006274 0.000000 0.000288 0.000000
# 3 -0.004958 -0.006274 0.013382 0.000000 -0.000823 0.000000
# 4 0.000000 0.000000 0.000000 0.023716 0.000001 -0.003657
# 5 0.000450 0.000288 -0.000823 0.000001 0.026804 -0.000001
# 6 0.000001 0.000000 0.000000 -0.003657 -0.000001 0.020766
#
#
# Mechanical properties :
#
#
# Convention : Reuss Voigt Hill
#
# Bulk Modulus (GPa) = 59.87228 63.39561 61.63394
# Shear Modulus (GPa) = 35.31133 38.12923 36.72028
#
# Velocity S-wave (km/s) = 3.96294 4.11803 4.04123
# Velocity P-wave (km/s) = 6.89698 7.12786 7.01337
#
# Compressibility (1/GPa) = 0.01670222
#
# Stress axis : x y z
#
# Youngs Moduli (GPa) = 73.21507 73.08545 74.72511
#
# Poissons Ratio (x) = 0.05689 0.37048
# Poissons Ratio (y) = 0.05699 0.46884
# Poissons Ratio (z) = 0.36299 0.45855
#
# Static dielectric constant tensor:
#      x y z
#    x 3.995240 0.000000 0.053470 
#    y 0.000000 4.128030 0.000000 
#    z 0.053470 0.000000 4.260380 
# 
# 
# High freq. dielectric constant tensor:
#      x y z
#    x 1.887760 0.000000 -0.002230 
#    y 0.000000 1.898410 0.000000 
#    z -0.002230 0.000000 1.902220 
# 
# From -- ./inp_files/9945.got.cif
#   From: 2010.06.25/outbox.cif.g09.slc.cpg/sg9_5_cif.got.tgz:9945.got - 2010.06.27 21:40:51.
