data_PCOD8056178
_publ_section_title
;
Structure prediction by ZEFSAII (Michael W. Deem and Ramdas Pophale) SiO2 
 PCOD8056178
Probable space group: C C
;
_chemical_formula_sum "Si O2"
_cell_formula_units_Z 32
_cell_length_a 14.512247
_cell_length_b 9.556588
_cell_length_c 11.943179
_cell_angle_alpha 90.000000
_cell_angle_beta 58.232296
_cell_angle_gamma 90.000000
_cell_volume 1408.228885
_symmetry_space_group_name_H-M "C C"
_symmetry_group_IT_number 9
_symmetry_cell_setting 'monoclinic'
loop_
_space_group_symop_operation_xyz
x,y,z
x,-y,1/2+z
1/2+x,1/2+y,z
1/2+x,1/2-y,1/2+z
loop_
_atom_site_type_symbol
_atom_site_label
_atom_site_fract_x
_atom_site_fract_y
_atom_site_fract_z
Si Si1 0.704510 0.810120 0.245910
Si Si2 0.131611 0.075331 0.442168
Si Si3 0.702628 0.637673 0.735058
Si Si4 0.490138 0.068466 0.791740
Si Si5 0.271016 0.915635 0.531273
Si Si6 0.417551 0.436198 0.198373
Si Si7 0.485369 0.755562 0.844183
Si Si8 0.420237 0.250434 0.646767
O O1 0.693469 0.716244 0.365257
O O2 0.599684 0.906482 0.291396
O O3 0.715980 0.713977 0.129254
O O4 0.807454 0.909200 0.200372
O O5 0.017934 0.126665 0.564027
O O6 0.119631 0.974949 0.342681
O O7 0.198595 0.968622 0.475861
O O8 0.781192 0.554626 0.600341
O O9 0.615214 0.742299 0.737046
O O10 0.791961 0.720306 0.750321
O O11 0.493286 0.134530 0.664623
O O12 0.458818 0.905056 0.806234
O O13 0.389449 0.139737 0.920789
O O14 0.417426 0.362745 0.320387
O O15 0.439744 0.601214 0.194526
O O16 0.455562 0.745542 0.994431
#
# Coordination Sequence:
#
# PCOD8056178 Si02
#       8
#     4   4   4   4   4   4   4   4
#     4  11  27  42  70 108 146 192 244 304 360 428
#     4  11  22  44  73 104 141 194 240 296 367 436
#     4  11  23  44  72 102 144 182 242 296 364 430
#     4  12  26  47  72 105 150 192 243 300 362 436
#     4  11  22  44  73 104 141 194 240 296 367 436
#     4  12  26  47  72 105 150 192 243 300 362 436
#     4  12  27  46  74 108 144 190 245 300 363 430
#     4  12  27  46  74 108 144 190 245 300 363 430
#
# _framework density 22.723578
#
# number of rings (size 3 to 8) (size 9 to 14) (size 15 to 20)
#    0.000    0.500    5.000    3.000    3.500    2.000 
#    0.000    3.750    0.000    0.000    0.000    0.000 
#    0.000    0.000    0.000    0.000    0.000    0.000 
#
# Total GULP energy -198330.161726 kJ/mol
# GULP energy per Si atom -12395.635108 kJ/mol
# Density = 2.267186 g / cm^3
# Si number density = 22.723578 Si / 1000 Ang^3
#
#
#
# Elastic Constant Matrix: (Units=GPa)
#
#
# Indices 1 2 3 4 5 6 
#
# 1 136.3454 31.4125 40.1602 0.0000 -9.5766 0.0000
# 2 31.4125 122.6696 39.5918 0.0000 17.5696 0.0000
# 3 40.1602 39.5918 108.7218 0.0000 1.7106 0.0000
# 4 0.0000 0.0000 0.0000 24.1321 0.0000 1.6702
# 5 -9.5766 17.5696 1.7106 0.0000 38.6503 0.0000
# 6 0.0000 0.0000 0.0000 1.6702 0.0000 44.1396
#
#
#
# Elastic Compliance Matrix: (Units=1/GPa)
#
#
# Indices 1 2 3 4 5 6 
#
# 1 0.008747 -0.001845 -0.002608 0.000000 0.003121 0.000000
# 2 -0.001845 0.010308 -0.002993 0.000000 -0.005011 0.000000
# 3 -0.002608 -0.002993 0.011248 0.000000 0.000217 0.000000
# 4 0.000000 0.000000 0.000000 0.041547 0.000000 -0.001572
# 5 0.003121 -0.005011 0.000217 0.000000 0.028915 0.000000
# 6 0.000000 0.000000 0.000000 -0.001572 0.000000 0.022715
#
#
# Mechanical properties :
#
#
# Convention : Reuss Voigt Hill
#
# Bulk Modulus (GPa) = 64.89473 65.56286 65.22880
# Shear Modulus (GPa) = 34.84083 38.48923 36.66503
#
# Velocity S-wave (km/s) = 3.91992 4.12005 4.02123
# Velocity P-wave (km/s) = 7.00771 7.17970 7.09422
#
# Compressibility (1/GPa) = 0.01540957
#
# Stress axis : x y z
#
# Youngs Moduli (GPa) = 114.32639 97.00963 88.90569
#
# Poissons Ratio (x) = 0.17900 0.23188
# Poissons Ratio (y) = 0.21095 0.26613
# Poissons Ratio (z) = 0.29818 0.29039
#
# Static dielectric constant tensor:
#      x y z
#    x 4.094880 0.000000 -0.025910 
#    y 0.000000 4.092360 0.000000 
#    z -0.025910 0.000000 4.259230 
# 
# 
# High freq. dielectric constant tensor:
#      x y z
#    x 1.900110 0.000000 -0.006500 
#    y 0.000000 1.896740 0.000000 
#    z -0.006500 0.000000 1.895160 
# 
# From -- ./inp_files/17896.got.cif
#   From: 2010.06.25/outbox.cif.g09.slc.cpg/sg9_9_cif.got.tgz:17896.got - 2010.06.27 21:40:51.
