data_PCOD8056104
_publ_section_title
;
Structure prediction by ZEFSAII (Michael W. Deem and Ramdas Pophale) SiO2 
 PCOD8056104
Probable space group: C C
;
_chemical_formula_sum "Si O2"
_cell_formula_units_Z 32
_cell_length_a 6.433334
_cell_length_b 26.658387
_cell_length_c 8.732788
_cell_angle_alpha 90.000000
_cell_angle_beta 77.529880
_cell_angle_gamma 90.000000
_cell_volume 1462.360834
_symmetry_space_group_name_H-M "C C"
_symmetry_group_IT_number 9
_symmetry_cell_setting 'monoclinic'
loop_
_space_group_symop_operation_xyz
x,y,z
x,-y,1/2+z
1/2+x,1/2+y,z
1/2+x,1/2-y,1/2+z
loop_
_atom_site_type_symbol
_atom_site_label
_atom_site_fract_x
_atom_site_fract_y
_atom_site_fract_z
Si Si1 0.863220 0.877168 0.255990
Si Si2 0.113841 0.304956 0.095566
Si Si3 0.176712 0.123483 0.236557
Si Si4 0.312381 0.558426 0.235759
Si Si5 0.359545 0.715329 0.267644
Si Si6 0.132224 0.355026 0.602867
Si Si7 0.309555 0.894239 0.058234
Si Si8 0.671060 0.961925 0.085512
O O1 0.795826 0.826946 0.177217
O O2 0.784612 0.872573 0.442134
O O3 0.753385 0.925971 0.204721
O O4 0.117029 0.884494 0.207713
O O5 0.968656 0.267840 0.215708
O O6 0.977286 0.349749 0.047261
O O7 0.220938 0.274442 0.940750
O O8 0.028567 0.171956 0.275042
O O9 0.381322 0.141383 0.104620
O O10 0.225507 0.103704 0.398948
O O11 0.055674 0.077881 0.166011
O O12 0.162057 0.606969 0.241177
O O13 0.211883 0.518040 0.137011
O O14 0.310551 0.541574 0.411002
O O15 0.204368 0.699883 0.150469
O O16 0.425226 0.947232 0.085083
#
# Coordination Sequence:
#
# PCOD8056104 Si02
#       8
#     4   4   4   4   4   4   4   4
#     4  11  24  43  66  96 133 172 221 274 329 394
#     4  11  25  41  64  98 134 173 227 274 328 397
#     4  11  21  45  69  90 134 182 215 275 337 386
#     4  11  23  42  67  99 133 167 220 274 331 402
#     4  11  25  41  64  98 134 173 227 274 328 397
#     4  11  24  43  66  96 133 172 221 274 329 394
#     4  11  21  45  69  90 134 182 215 275 337 386
#     4  11  23  42  67  99 133 167 220 274 331 402
#
# _framework density 21.882425999999999
#
# number of rings (size 3 to 8) (size 9 to 14) (size 15 to 20)
#    0.000    1.000    5.000    2.250    3.500    6.000 
#    0.000    0.000    0.000    0.000    0.000    0.000 
#    0.000    0.000    0.000    0.000    0.000    0.000 
#
# Total GULP energy -198364.934068 kJ/mol
# GULP energy per Si atom -12397.808379 kJ/mol
# Density = 2.183262 g / cm^3
# Si number density = 21.882426 Si / 1000 Ang^3
#
#
#
# Elastic Constant Matrix: (Units=GPa)
#
#
# Indices 1 2 3 4 5 6 
#
# 1 131.8683 42.6357 27.0891 0.0000 -16.6801 0.0000
# 2 42.6357 84.7902 7.0332 0.0000 4.3106 0.0000
# 3 27.0891 7.0332 81.0336 0.0000 -12.6231 0.0000
# 4 0.0000 0.0000 0.0000 24.8229 0.0000 0.1832
# 5 -16.6801 4.3106 -12.6231 0.0000 39.9355 0.0000
# 6 0.0000 0.0000 0.0000 0.1832 0.0000 33.0105
#
#
#
# Elastic Compliance Matrix: (Units=1/GPa)
#
#
# Indices 1 2 3 4 5 6 
#
# 1 0.010255 -0.005171 -0.002340 0.000000 0.004102 0.000000
# 2 -0.005171 0.014596 -0.000126 0.000000 -0.003775 0.000000
# 3 -0.002340 -0.000126 0.013656 0.000000 0.003353 0.000000
# 4 0.000000 0.000000 0.000000 0.040287 0.000000 -0.000224
# 5 0.004102 -0.003775 0.003353 0.000000 0.028221 0.000000
# 6 0.000000 0.000000 0.000000 -0.000224 0.000000 0.030295
#
#
# Mechanical properties :
#
#
# Convention : Reuss Voigt Hill
#
# Bulk Modulus (GPa) = 43.04401 50.13422 46.58912
# Shear Modulus (GPa) = 31.18591 34.28273 32.73432
#
# Velocity S-wave (km/s) = 3.77922 3.96242 3.87191
# Velocity P-wave (km/s) = 6.22548 6.62532 6.42851
#
# Compressibility (1/GPa) = 0.02323203
#
# Stress axis : x y z
#
# Youngs Moduli (GPa) = 97.51585 68.51039 73.22697
#
# Poissons Ratio (x) = 0.35426 0.17138
# Poissons Ratio (y) = 0.50424 0.00925
# Poissons Ratio (z) = 0.22822 0.00866
#
# Static dielectric constant tensor:
#      x y z
#    x 4.306150 0.000000 -0.042570 
#    y 0.000000 3.934580 0.000000 
#    z -0.042570 0.000000 3.815090 
# 
# 
# High freq. dielectric constant tensor:
#      x y z
#    x 1.870760 0.000000 -0.001290 
#    y 0.000000 1.850100 0.000000 
#    z -0.001290 0.000000 1.860880 
# 
# From -- ./inp_files/4473.got.cif
#   From: 2010.06.25/outbox.cif.g09.slc.cpg/sg9_3_cif.got.tgz:4473.got - 2010.06.27 21:40:51.
