data_PCOD8056897
_publ_section_title
;
Structure prediction by ZEFSAII (Michael W. Deem and Ramdas Pophale) SiO2 
 PCOD8056897
Probable space group: P 2/M
;
_chemical_formula_sum "Si O2"
_cell_formula_units_Z 30
_cell_length_a 16.446853
_cell_length_b 9.719703
_cell_length_c 28.498862
_cell_angle_alpha 90.000000
_cell_angle_beta 158.096936
_cell_angle_gamma 90.000000
_cell_volume 1699.478595
_symmetry_space_group_name_H-M "P 2/M"
_symmetry_group_IT_number 10
_symmetry_cell_setting 'monoclinic'
loop_
_space_group_symop_operation_xyz
x,y,z
-x,y,-z
-x,-y,-z
x,-y,z
loop_
_atom_site_type_symbol
_atom_site_label
_atom_site_fract_x
_atom_site_fract_y
_atom_site_fract_z
Si Si1 0.204982 0.343237 0.444657
Si Si2 0.435241 0.159958 0.320977
Si Si3 0.000000 0.745682 0.500000
Si Si4 0.571397 0.163206 0.883548
Si Si5 0.250662 0.656746 0.363787
Si Si6 0.176294 0.654925 0.690613
Si Si7 0.459507 0.844916 0.723346
Si Si8 0.961487 0.157963 0.827646
O O1 0.271531 0.500000 0.492844
O O2 0.410233 0.244728 0.561881
O O3 0.137741 0.331933 0.354211
O O4 0.006108 0.294107 0.370525
O O5 0.456981 0.225273 0.280165
O O6 0.189534 0.178707 0.207540
O O7 0.507434 0.000000 0.360612
O O8 0.082015 0.653544 0.587228
O O9 0.197715 0.839635 0.587524
O O10 0.377188 0.241746 0.806105
O O11 0.573495 0.218625 0.830686
O O12 0.523937 0.000000 0.859709
O O13 0.796615 0.203268 0.028389
O O14 0.500000 0.708649 0.500000
O O15 0.246307 0.500000 0.342729
O O16 0.112659 0.750243 0.255211
O O17 0.251761 0.500000 0.742881
O O18 0.538772 0.000000 0.762355
O O19 0.956020 0.000000 0.808125
#
# Coordination Sequence:
#
# PCOD8056897 Si02
#       8
#     4   4   2   4   4   4   4   4
#     4  10  20  35  52  78 109 135 166 212 264 311
#     4  10  19  31  51  80 107 136 171 211 258 306
#     4  10  16  28  50  76 105 138 171 212 257 300
#     4   9  20  37  53  73 105 145 178 210 252 306
#     4  10  20  35  57  79 102 135 173 211 262 317
#     4  10  20  33  52  78 106 136 173 216 258 304
#     4   9  17  29  48  76 107 140 176 208 248 305
#     4  10  21  36  55  78 106 136 174 219 261 303
#
# _framework density 17.652473000000001
#
# number of rings (size 3 to 8) (size 9 to 14) (size 15 to 20)
#    0.000    2.267    2.667    0.400    0.000    2.933 
#    0.000    3.333    0.000    4.000    0.000    3.733 
#    0.000    0.000    0.000    0.000    0.000    0.000 
#
# Total GULP energy -371940.037173 kJ/mol
# GULP energy per Si atom -12398.001239 kJ/mol
# Density = 1.761230 g / cm^3
# Si number density = 17.652473 Si / 1000 Ang^3
#
#
#
# Elastic Constant Matrix: (Units=GPa)
#
#
# Indices 1 2 3 4 5 6 
#
# 1 100.2866 27.2658 47.3613 0.0000 5.3034 0.0000
# 2 27.2658 56.5146 49.4233 0.0000 0.8658 0.0000
# 3 47.3613 49.4233 128.2914 0.0000 1.8955 0.0000
# 4 0.0000 0.0000 0.0000 20.2695 0.0000 -0.0413
# 5 5.3034 0.8658 1.8955 0.0000 22.8235 0.0000
# 6 0.0000 0.0000 0.0000 -0.0413 0.0000 25.6565
#
#
#
# Elastic Compliance Matrix: (Units=1/GPa)
#
#
# Indices 1 2 3 4 5 6 
#
# 1 0.012545 -0.003010 -0.003434 0.000000 -0.002516 0.000000
# 2 -0.003010 0.027408 -0.009454 0.000000 0.000445 0.000000
# 3 -0.003434 -0.009454 0.012703 0.000000 0.000102 0.000000
# 4 0.000000 0.000000 0.000000 0.049335 0.000000 0.000079
# 5 -0.002516 0.000445 0.000102 0.000000 0.044374 0.000000
# 6 0.000000 0.000000 0.000000 0.000079 0.000000 0.038977
#
#
# Mechanical properties :
#
#
# Convention : Reuss Voigt Hill
#
# Bulk Modulus (GPa) = 47.94192 59.24371 53.59281
# Shear Modulus (GPa) = 22.31236 24.48605 23.39920
#
# Velocity S-wave (km/s) = 3.55911 3.72844 3.64476
# Velocity P-wave (km/s) = 6.64134 7.22281 6.93817
#
# Compressibility (1/GPa) = 0.02085857
#
# Stress axis : x y z
#
# Youngs Moduli (GPa) = 79.71442 36.48605 78.72102
#
# Poissons Ratio (x) = 0.10984 0.27035
# Poissons Ratio (y) = 0.23998 0.74422
# Poissons Ratio (z) = 0.27376 0.34493
#
# Static dielectric constant tensor:
#      x y z
#    x 3.473500 0.000000 0.002240 
#    y 0.000000 3.129390 0.000000 
#    z 0.002240 0.000000 3.102000 
# 
# 
# High freq. dielectric constant tensor:
#      x y z
#    x 1.693100 0.000000 0.001910 
#    y 0.000000 1.669670 0.000000 
#    z 0.001910 0.000000 1.664630 
# 
# From -- ./inp_files/95516.got.cif
#   From: 2010.06.25/outbox.cif.g09.slc.cpg/sg10_48_cif.got.tgz:95516.got - 2010.06.27 22:07:45.
