data_PCOD8056229
_publ_section_title
;
Structure prediction by ZEFSAII (Michael W. Deem and Ramdas Pophale) SiO2 
 PCOD8056229
Probable space group: C C
;
_chemical_formula_sum "Si O2"
_cell_formula_units_Z 28
_cell_length_a 7.926380
_cell_length_b 20.678305
_cell_length_c 7.801237
_cell_angle_alpha 90.000000
_cell_angle_beta 117.819752
_cell_angle_gamma 90.000000
_cell_volume 1130.868019
_symmetry_space_group_name_H-M "C C"
_symmetry_group_IT_number 9
_symmetry_cell_setting 'monoclinic'
loop_
_space_group_symop_operation_xyz
x,y,z
x,-y,1/2+z
1/2+x,1/2+y,z
1/2+x,1/2-y,1/2+z
loop_
_atom_site_type_symbol
_atom_site_label
_atom_site_fract_x
_atom_site_fract_y
_atom_site_fract_z
Si Si1 0.357430 0.400099 0.088880
Si Si2 0.482769 0.827812 0.436267
Si Si3 0.764113 0.441024 0.197793
Si Si4 0.929591 0.572548 0.402574
Si Si5 0.860852 0.826122 0.430279
Si Si6 0.234048 0.276462 0.843063
Si Si7 0.246209 0.198320 0.194849
O O1 0.533189 0.442659 0.100416
O O2 0.405727 0.375712 0.300590
O O3 0.342938 0.339665 0.954766
O O4 0.158391 0.439643 0.005078
O O5 0.348013 0.891271 0.380572
O O6 0.674644 0.851412 0.439120
O O7 0.372267 0.768301 0.286623
O O8 0.537828 0.796208 0.651549
O O9 0.830477 0.513340 0.261787
O O10 0.844398 0.418114 0.052381
O O11 0.893560 0.638479 0.280125
O O12 0.821524 0.753342 0.352744
O O13 0.035946 0.827911 0.648420
O O14 0.194986 0.224714 0.977707
#
# Coordination Sequence:
#
# PCOD8056229 Si02
#       7
#     4   4   4   4   4   4   4
#     4  11  26  51  76 110 152 198 255 317 397 443
#     4  12  24  44  72 119 150 190 259 308 387 459
#     4  12  31  50  78 108 153 210 261 316 376 465
#     4  12  30  53  74 110 153 207 264 318 373 465
#     4  11  23  41  75 112 153 194 240 324 387 452
#     4  11  24  42  79 112 153 196 241 329 383 458
#     4  11  24  45  72 109 152 197 248 310 393 450
#
# _framework density 24.759739
#
# number of rings (size 3 to 8) (size 9 to 14) (size 15 to 20)
#    0.000    0.571    1.429    6.857   12.000    2.286 
#    0.000    0.000    0.000    0.000    0.000    0.000 
#    0.000    0.000    0.000    0.000    0.000    0.000 
#
# Total GULP energy -173533.536159 kJ/mol
# GULP energy per Si atom -12395.252583 kJ/mol
# Density = 2.470339 g / cm^3
# Si number density = 24.759739 Si / 1000 Ang^3
#
#
#
# Elastic Constant Matrix: (Units=GPa)
#
#
# Indices 1 2 3 4 5 6 
#
# 1 159.6982 27.9808 41.6664 0.0000 34.0351 0.0000
# 2 27.9808 96.7840 29.6949 0.0000 3.0717 0.0000
# 3 41.6664 29.6949 97.0993 0.0000 20.3276 0.0000
# 4 0.0000 0.0000 0.0000 38.9958 0.0000 5.3071
# 5 34.0351 3.0717 20.3276 0.0000 50.1946 0.0000
# 6 0.0000 0.0000 0.0000 5.3071 0.0000 31.3205
#
#
#
# Elastic Compliance Matrix: (Units=1/GPa)
#
#
# Indices 1 2 3 4 5 6 
#
# 1 0.008027 -0.001557 -0.002020 0.000000 -0.004529 0.000000
# 2 -0.001557 0.011732 -0.003268 0.000000 0.001661 0.000000
# 3 -0.002020 -0.003268 0.012933 0.000000 -0.003668 0.000000
# 4 0.000000 0.000000 0.000000 0.026249 0.000000 -0.004448
# 5 -0.004529 0.001661 -0.003668 0.000000 0.024377 0.000000
# 6 0.000000 0.000000 0.000000 -0.004448 0.000000 0.032682
#
#
# Mechanical properties :
#
#
# Convention : Reuss Voigt Hill
#
# Bulk Modulus (GPa) = 52.62456 61.36287 56.99372
# Shear Modulus (GPa) = 36.75832 41.05147 38.90490
#
# Velocity S-wave (km/s) = 3.85723 4.07626 3.96826
# Velocity P-wave (km/s) = 6.41388 6.85505 6.63813
#
# Compressibility (1/GPa) = 0.01900253
#
# Stress axis : x y z
#
# Youngs Moduli (GPa) = 124.57948 85.23501 77.32352
#
# Poissons Ratio (x) = 0.13272 0.15620
# Poissons Ratio (y) = 0.19398 0.25266
# Poissons Ratio (z) = 0.25166 0.27851
#
# Static dielectric constant tensor:
#      x y z
#    x 5.035800 0.000000 0.301760 
#    y 0.000000 4.170130 0.000000 
#    z 0.301760 0.000000 4.653800 
# 
# 
# High freq. dielectric constant tensor:
#      x y z
#    x 2.014940 0.000000 0.022100 
#    y 0.000000 1.968370 0.000000 
#    z 0.022100 0.000000 1.986280 
# 
# From -- ./inp_files/5854.got.cif
#   From: 2010.06.25/outbox.cif.g09.slc.cpg/sg9_3_cif.got.tgz:5854.got - 2010.06.27 21:40:51.
