data_PCOD8056690
_publ_section_title
;
Structure prediction by ZEFSAII (Michael W. Deem and Ramdas Pophale) SiO2 
 PCOD8056690
Probable space group: C C
;
_chemical_formula_sum "Si O2"
_cell_formula_units_Z 24
_cell_length_a 11.351370
_cell_length_b 9.037032
_cell_length_c 8.669974
_cell_angle_alpha 90.000000
_cell_angle_beta 80.592054
_cell_angle_gamma 90.000000
_cell_volume 877.426560
_symmetry_space_group_name_H-M "C C"
_symmetry_group_IT_number 9
_symmetry_cell_setting 'monoclinic'
loop_
_space_group_symop_operation_xyz
x,y,z
x,-y,1/2+z
1/2+x,1/2+y,z
1/2+x,1/2-y,1/2+z
loop_
_atom_site_type_symbol
_atom_site_label
_atom_site_fract_x
_atom_site_fract_y
_atom_site_fract_z
Si Si1 0.991610 0.595175 0.782960
Si Si2 0.654010 0.288896 0.555849
Si Si3 0.339684 0.980469 0.051281
Si Si4 0.300801 0.675371 0.993624
Si Si5 0.575682 0.222970 0.232148
Si Si6 0.847418 0.101503 0.661198
O O1 0.865964 0.566412 0.720599
O O2 0.057292 0.743900 0.709606
O O3 0.075236 0.455250 0.731547
O O4 0.942792 0.598645 0.970127
O O5 0.705300 0.453989 0.574785
O O6 0.595272 0.282744 0.401049
O O7 0.768973 0.181028 0.546507
O O8 0.370548 0.830829 0.942351
O O9 0.188094 0.752503 0.098841
O O10 0.372775 0.564416 0.092762
O O11 0.270206 0.596019 0.837881
O O12 0.468176 0.314204 0.178203
#
# Coordination Sequence:
#
# PCOD8056690 Si02
#       6
#     4   4   4   4   4   4
#     4  12  24  48  78 114 158 209 271 331 406 478
#     4  12  26  47  85 116 157 219 270 340 411 481
#     4  12  26  51  80 115 160 212 269 336 407 486
#     4  12  27  49  79 119 164 211 277 333 408 489
#     4  12  26  48  79 119 159 214 280 331 409 488
#     4  12  27  49  79 121 160 219 273 339 405 486
#
# _framework density 27.352717999999999
#
# number of rings (size 3 to 8) (size 9 to 14) (size 15 to 20)
#    0.000    0.000    6.667    2.000    2.333    2.667 
#    0.000    1.667    0.000    0.000    0.000    0.000 
#    0.000    0.000    0.000    0.000    0.000    0.000 
#
# Total GULP energy -148706.814377 kJ/mol
# GULP energy per Si atom -12392.234531 kJ/mol
# Density = 2.729046 g / cm^3
# Si number density = 27.352718 Si / 1000 Ang^3
#
#
#
# Elastic Constant Matrix: (Units=GPa)
#
#
# Indices 1 2 3 4 5 6 
#
# 1 103.6577 39.8395 23.3202 0.0000 18.4829 0.0000
# 2 39.8395 160.6753 42.9091 0.0000 8.0682 0.0000
# 3 23.3202 42.9091 87.2424 0.0000 -0.0174 0.0000
# 4 0.0000 0.0000 0.0000 36.1632 0.0000 2.1448
# 5 18.4829 8.0682 -0.0174 0.0000 39.3171 0.0000
# 6 0.0000 0.0000 0.0000 2.1448 0.0000 45.0839
#
#
#
# Elastic Compliance Matrix: (Units=1/GPa)
#
#
# Indices 1 2 3 4 5 6 
#
# 1 0.011855 -0.002112 -0.002131 0.000000 -0.005140 0.000000
# 2 -0.002112 0.007627 -0.003187 0.000000 -0.000574 0.000000
# 3 -0.002131 -0.003187 0.013600 0.000000 0.001662 0.000000
# 4 0.000000 0.000000 0.000000 0.027731 0.000000 -0.001319
# 5 -0.005140 -0.000574 0.001662 0.000000 0.027969 0.000000
# 6 0.000000 0.000000 0.000000 -0.001319 0.000000 0.022244
#
#
# Mechanical properties :
#
#
# Convention : Reuss Voigt Hill
#
# Bulk Modulus (GPa) = 54.87965 62.63475 58.75720
# Shear Modulus (GPa) = 37.89035 40.47996 39.18515
#
# Velocity S-wave (km/s) = 3.72593 3.85115 3.78906
# Velocity P-wave (km/s) = 6.21429 6.53634 6.37735
#
# Compressibility (1/GPa) = 0.01822169
#
# Stress axis : x y z
#
# Youngs Moduli (GPa) = 84.35299 131.10724 73.53087
#
# Poissons Ratio (x) = 0.27693 0.15670
# Poissons Ratio (y) = 0.17817 0.23434
# Poissons Ratio (z) = 0.17976 0.41783
#
# Static dielectric constant tensor:
#      x y z
#    x 4.910180 0.000000 0.068880 
#    y 0.000000 5.130070 0.000000 
#    z 0.068880 0.000000 4.957620 
# 
# 
# High freq. dielectric constant tensor:
#      x y z
#    x 2.106090 0.000000 0.000610 
#    y 0.000000 2.105880 0.000000 
#    z 0.000610 0.000000 2.105650 
# 
# From -- ./inp_files/6732.got.cif
#   From: 2010.06.25/outbox.cif.g09.slc.cpg/sg9_4_cif.got.tgz:6732.got - 2010.06.27 21:40:51.
