data_PCOD8056382
_publ_section_title
;
Structure prediction by ZEFSAII (Michael W. Deem and Ramdas Pophale) SiO2 
 PCOD8056382
Probable space group: C C
;
_chemical_formula_sum "Si O2"
_cell_formula_units_Z 32
_cell_length_a 11.599844
_cell_length_b 16.600037
_cell_length_c 9.541086
_cell_angle_alpha 90.000000
_cell_angle_beta 125.978251
_cell_angle_gamma 90.000000
_cell_volume 1486.744655
_symmetry_space_group_name_H-M "C C"
_symmetry_group_IT_number 9
_symmetry_cell_setting 'monoclinic'
loop_
_space_group_symop_operation_xyz
x,y,z
x,-y,1/2+z
1/2+x,1/2+y,z
1/2+x,1/2-y,1/2+z
loop_
_atom_site_type_symbol
_atom_site_label
_atom_site_fract_x
_atom_site_fract_y
_atom_site_fract_z
Si Si1 0.061030 0.662700 0.387690
Si Si2 0.580615 0.164184 0.075140
Si Si3 0.008267 0.168569 0.991287
Si Si4 0.291665 0.920583 0.343102
Si Si5 0.355174 0.588299 0.635815
Si Si6 0.037645 0.840757 0.026379
Si Si7 0.776503 0.424265 0.657655
Si Si8 0.374662 0.599175 0.162200
O O1 0.092356 0.682681 0.248698
O O2 0.007973 0.740867 0.433948
O O3 0.197087 0.621075 0.556181
O O4 0.936720 0.598118 0.308999
O O5 0.533268 0.248245 0.971783
O O6 0.727868 0.130059 0.123582
O O7 0.457915 0.100301 0.947921
O O8 0.171711 0.145241 0.138962
O O9 0.911555 0.158192 0.059734
O O10 0.949700 0.104031 0.838799
O O11 0.192607 0.850960 0.207795
O O12 0.252445 0.937267 0.475522
O O13 0.242493 0.995810 0.217210
O O14 0.414281 0.639713 0.549193
O O15 0.356589 0.493309 0.600456
O O16 0.003713 0.895135 0.866117
#
# Coordination Sequence:
#
# PCOD8056382 Si02
#       8
#     4   4   4   4   4   4   4   4
#     4  11  24  45  73  98 135 184 226 277 346 413
#     4  11  24  46  70  99 136 183 228 274 343 414
#     4  12  26  43  70 104 138 175 232 288 340 398
#     4  11  24  43  70 100 135 180 226 280 340 409
#     4  12  23  45  73  99 137 183 231 276 338 417
#     4  12  24  43  72  98 134 182 229 276 337 412
#     4  11  24  44  68  99 138 178 226 279 342 407
#     4  12  27  45  68 107 139 177 232 290 338 400
#
# _framework density 21.523536
#
# number of rings (size 3 to 8) (size 9 to 14) (size 15 to 20)
#    0.000    0.500    3.750    4.500    3.500    2.000 
#    4.500    0.000    0.000    0.000    0.000    0.000 
#    0.000    0.000    0.000    0.000    0.000    0.000 
#
# Total GULP energy -198443.411274 kJ/mol
# GULP energy per Si atom -12402.713205 kJ/mol
# Density = 2.147455 g / cm^3
# Si number density = 21.523536 Si / 1000 Ang^3
#
#
#
# Elastic Constant Matrix: (Units=GPa)
#
#
# Indices 1 2 3 4 5 6 
#
# 1 103.5351 24.9697 36.9323 0.0000 3.9326 0.0000
# 2 24.9697 84.1632 31.9178 0.0000 -0.9331 0.0000
# 3 36.9323 31.9178 86.1491 0.0000 3.7315 0.0000
# 4 0.0000 0.0000 0.0000 31.0807 0.0000 0.3457
# 5 3.9326 -0.9331 3.7315 0.0000 31.4441 0.0000
# 6 0.0000 0.0000 0.0000 0.3457 0.0000 28.5838
#
#
#
# Elastic Compliance Matrix: (Units=1/GPa)
#
#
# Indices 1 2 3 4 5 6 
#
# 1 0.011667 -0.001853 -0.004272 0.000000 -0.001007 0.000000
# 2 -0.001853 0.014151 -0.004500 0.000000 0.001186 0.000000
# 3 -0.004272 -0.004500 0.015167 0.000000 -0.001399 0.000000
# 4 0.000000 0.000000 0.000000 0.032179 0.000000 -0.000389
# 5 -0.001007 0.001186 -0.001399 0.000000 0.032130 0.000000
# 6 0.000000 0.000000 0.000000 -0.000389 0.000000 0.034990
#
#
# Mechanical properties :
#
#
# Convention : Reuss Voigt Hill
#
# Bulk Modulus (GPa) = 50.66764 51.27633 50.97198
# Shear Modulus (GPa) = 29.74224 30.22356 29.98290
#
# Velocity S-wave (km/s) = 3.72135 3.75134 3.73638
# Velocity P-wave (km/s) = 6.48508 6.52982 6.50749
#
# Compressibility (1/GPa) = 0.01973646
#
# Stress axis : x y z
#
# Youngs Moduli (GPa) = 85.70860 70.66623 65.93281
#
# Poissons Ratio (x) = 0.13092 0.28165
# Poissons Ratio (y) = 0.15879 0.29670
# Poissons Ratio (z) = 0.36613 0.31800
#
# Static dielectric constant tensor:
#      x y z
#    x 3.918770 0.000000 0.052040 
#    y 0.000000 3.744660 0.000000 
#    z 0.052040 0.000000 3.996680 
# 
# 
# High freq. dielectric constant tensor:
#      x y z
#    x 1.852830 0.000000 0.012940 
#    y 0.000000 1.847470 0.000000 
#    z 0.012940 0.000000 1.849910 
# 
# From -- ./inp_files/7546.got.cif
#   From: 2010.06.25/outbox.cif.g09.slc.cpg/sg9_4_cif.got.tgz:7546.got - 2010.06.27 21:40:51.
