data_PCOD8056889
_publ_section_title
;
Structure prediction by ZEFSAII (Michael W. Deem and Ramdas Pophale) SiO2 
 PCOD8056889
Probable space group: P 2/M
;
_chemical_formula_sum "Si O2"
_cell_formula_units_Z 32
_cell_length_a 31.211292
_cell_length_b 9.346683
_cell_length_c 15.082353
_cell_angle_alpha 90.000000
_cell_angle_beta 28.384956
_cell_angle_gamma 90.000000
_cell_volume 2091.661247
_symmetry_space_group_name_H-M "P 2/M"
_symmetry_group_IT_number 10
_symmetry_cell_setting 'monoclinic'
loop_
_space_group_symop_operation_xyz
x,y,z
-x,y,-z
-x,-y,-z
x,-y,z
loop_
_atom_site_type_symbol
_atom_site_label
_atom_site_fract_x
_atom_site_fract_y
_atom_site_fract_z
Si Si1 0.375938 0.168505 0.668808
Si Si2 0.920685 0.168505 0.034569
Si Si3 0.117641 0.169518 0.698873
Si Si4 0.254400 0.830740 0.736801
Si Si5 0.708887 0.666924 0.658529
Si Si6 0.373481 0.666511 0.379558
Si Si7 0.565845 0.169518 0.250669
Si Si8 0.576303 0.333077 0.056281
O O1 0.286943 0.216655 0.776097
O O2 0.464310 0.223991 0.455829
O O3 0.372879 0.220319 0.776566
O O4 0.385827 0.000000 0.654050
O O5 0.884448 0.223991 0.195414
O O6 0.849983 0.216655 0.086977
O O7 0.925705 0.000000 0.034419
O O8 0.022324 0.220319 0.828232
O O9 0.197897 0.247771 0.501995
O O10 0.132315 0.000000 0.664451
O O11 0.316104 0.758353 0.551688
O O12 0.265155 0.000000 0.704535
O O13 0.731384 0.500000 0.619937
O O14 0.655790 0.708104 0.666102
O O15 0.647134 0.713506 0.852867
O O16 0.356740 0.500000 0.429780
O O17 0.477682 0.708105 0.200426
O O18 0.602212 0.247772 0.097680
O O19 0.570918 0.000000 0.225848
O O20 0.582706 0.500000 0.065973
#
# Coordination Sequence:
#
# PCOD8056889 Si02
#       8
#     4   4   4   4   4   4   4   4
#     4   8  15  26  44  66  89 112 138 176 219 257
#     4   8  15  26  44  66  89 112 138 176 219 257
#     4   9  16  29  45  64  87 112 143 180 217 254
#     4  10  16  27  47  67  87 117 146 170 208 261
#     4  10  20  32  44  60  86 120 152 180 213 251
#     4  10  19  30  42  60  88 119 149 179 208 244
#     4   9  16  29  45  64  87 112 143 180 217 254
#     4  10  20  32  44  60  86 120 152 180 213 251
#
# _framework density 15.298845
#
# number of rings (size 3 to 8) (size 9 to 14) (size 15 to 20)
#    0.000    2.750    2.500    1.875    0.000    2.000 
#    0.000    3.750    0.000    2.250    0.000    0.875 
#    0.000    7.000    0.000    0.000    0.000    0.000 
#
# Total GULP energy -396593.981271 kJ/mol
# GULP energy per Si atom -12393.561915 kJ/mol
# Density = 1.526402 g / cm^3
# Si number density = 15.298845 Si / 1000 Ang^3
#
#
#
# Elastic Constant Matrix: (Units=GPa)
#
#
# Indices 1 2 3 4 5 6 
#
# 1 141.1761 34.8928 71.7625 0.0000 -11.2600 0.0000
# 2 34.8928 28.4636 33.9100 0.0000 -0.4991 0.0000
# 3 71.7625 33.9100 99.6585 0.0000 -9.8241 0.0000
# 4 0.0000 0.0000 0.0000 22.3838 0.0000 1.7097
# 5 -11.2600 -0.4991 -9.8241 0.0000 24.3498 0.0000
# 6 0.0000 0.0000 0.0000 1.7097 0.0000 19.0175
#
#
#
# Elastic Compliance Matrix: (Units=1/GPa)
#
#
# Indices 1 2 3 4 5 6 
#
# 1 0.012274 -0.008131 -0.005757 0.000000 0.003186 0.000000
# 2 -0.008131 0.065702 -0.017432 0.000000 -0.009446 0.000000
# 3 -0.005757 -0.017432 0.020634 0.000000 0.005306 0.000000
# 4 0.000000 0.000000 0.000000 0.044984 0.000000 -0.004044
# 5 0.003186 -0.009446 0.005306 0.000000 0.044488 0.000000
# 6 0.000000 0.000000 0.000000 -0.004044 0.000000 0.052947
#
#
# Mechanical properties :
#
#
# Convention : Reuss Voigt Hill
#
# Bulk Modulus (GPa) = 27.80140 61.15875 44.48007
# Shear Modulus (GPa) = 15.83980 21.73244 18.78612
#
# Velocity S-wave (km/s) = 3.22119 3.77308 3.50800
# Velocity P-wave (km/s) = 5.66096 7.68403 6.74873
#
# Compressibility (1/GPa) = 0.03596941
#
# Stress axis : x y z
#
# Youngs Moduli (GPa) = 81.47510 15.22014 48.46263
#
# Poissons Ratio (x) = 0.12376 0.27901
# Poissons Ratio (y) = 0.66249 0.84480
# Poissons Ratio (z) = 0.46907 0.26532
#
# Static dielectric constant tensor:
#      x y z
#    x 3.383210 0.000000 -0.242690 
#    y 0.000000 2.692470 0.000000 
#    z -0.242690 0.000000 2.905330 
# 
# 
# High freq. dielectric constant tensor:
#      x y z
#    x 1.587760 0.000000 -0.012110 
#    y 0.000000 1.563720 0.000000 
#    z -0.012110 0.000000 1.563900 
# 
# From -- ./inp_files/66109.got.cif
#   From: 2010.06.25/outbox.cif.g09.slc.cpg/sg10_34_cif.got.tgz:66109.got - 2010.06.27 22:07:45.
