data_PCOD8056771
_publ_section_title
;
Structure prediction by ZEFSAII (Michael W. Deem and Ramdas Pophale) SiO2 
 PCOD8056771
Probable space group: C C
;
_chemical_formula_sum "Si O2"
_cell_formula_units_Z 16
_cell_length_a 5.039319
_cell_length_b 24.345442
_cell_length_c 6.992426
_cell_angle_alpha 90.000000
_cell_angle_beta 46.742641
_cell_angle_gamma 90.000000
_cell_volume 624.766223
_symmetry_space_group_name_H-M "C C"
_symmetry_group_IT_number 9
_symmetry_cell_setting 'monoclinic'
loop_
_space_group_symop_operation_xyz
x,y,z
x,-y,1/2+z
1/2+x,1/2+y,z
1/2+x,1/2-y,1/2+z
loop_
_atom_site_type_symbol
_atom_site_label
_atom_site_fract_x
_atom_site_fract_y
_atom_site_fract_z
Si Si1 0.905980 0.432463 0.764820
Si Si2 0.825989 0.641609 0.625924
Si Si3 0.316685 0.714014 0.649022
Si Si4 0.581292 0.944544 0.257227
O O1 0.081218 0.422501 0.473166
O O2 0.012702 0.490901 0.801835
O O3 0.045606 0.383235 0.833761
O O4 0.466000 0.429850 0.970680
O O5 0.454214 0.667716 0.728946
O O6 0.037603 0.688463 0.635453
O O7 0.766186 0.588194 0.794295
O O8 0.642454 0.737907 0.360797
#
# Coordination Sequence:
#
# PCOD8056771 Si02
#       4
#     4   4   4   4
#     4  12  27  46  76 116 161 202 247 303 379 473
#     4  12  28  52  83 112 155 206 248 320 392 442
#     4  12  30  54  79 110 149 200 270 326 374 440
#     4  12  27  46  76 116 161 202 247 303 379 473
#
# _framework density 25.609579
#
# number of rings (size 3 to 8) (size 9 to 14) (size 15 to 20)
#    0.000    0.000    5.000    3.000    3.500    4.000 
#    0.000    0.000    0.000    0.000    0.000    0.000 
#    0.000    0.000    0.000    0.000    0.000    0.000 
#
# Total GULP energy -99200.976980 kJ/mol
# GULP energy per Si atom -12400.122122 kJ/mol
# Density = 2.555129 g / cm^3
# Si number density = 25.609579 Si / 1000 Ang^3
#
#
#
# Elastic Constant Matrix: (Units=GPa)
#
#
# Indices 1 2 3 4 5 6 
#
# 1 96.9444 25.0419 17.7166 0.0000 20.6534 0.0000
# 2 25.0419 112.2971 17.0106 0.0000 10.5658 0.0000
# 3 17.7166 17.0106 82.6088 0.0000 15.5056 0.0000
# 4 0.0000 0.0000 0.0000 49.4730 0.0000 13.3112
# 5 20.6534 10.5658 15.5056 0.0000 37.4601 0.0000
# 6 0.0000 0.0000 0.0000 13.3112 0.0000 57.6717
#
#
#
# Elastic Compliance Matrix: (Units=1/GPa)
#
#
# Indices 1 2 3 4 5 6 
#
# 1 0.012265 -0.002024 -0.001140 0.000000 -0.005719 0.000000
# 2 -0.002024 0.009661 -0.001359 0.000000 -0.001046 0.000000
# 3 -0.001140 -0.001359 0.013488 0.000000 -0.004571 0.000000
# 4 0.000000 0.000000 0.000000 0.021551 0.000000 -0.004974
# 5 -0.005719 -0.001046 -0.004571 0.000000 0.032036 0.000000
# 6 0.000000 0.000000 0.000000 -0.004974 0.000000 0.018488
#
#
# Mechanical properties :
#
#
# Convention : Reuss Voigt Hill
#
# Bulk Modulus (GPa) = 37.92625 45.70983 41.81804
# Shear Modulus (GPa) = 39.89703 44.39305 42.14504
#
# Velocity S-wave (km/s) = 3.95130 4.16799 4.06109
# Velocity P-wave (km/s) = 5.97148 6.40706 6.19310
#
# Compressibility (1/GPa) = 0.02636697
#
# Stress axis : x y z
#
# Youngs Moduli (GPa) = 81.53363 103.51304 74.14263
#
# Poissons Ratio (x) = 0.20953 0.08453
# Poissons Ratio (y) = 0.16504 0.10074
# Poissons Ratio (z) = 0.09295 0.14065
#
# Static dielectric constant tensor:
#      x y z
#    x 4.657790 0.000000 0.341220 
#    y 0.000000 4.884820 0.000000 
#    z 0.341220 0.000000 4.508320 
# 
# 
# High freq. dielectric constant tensor:
#      x y z
#    x 2.032360 0.000000 0.022840 
#    y 0.000000 2.040780 0.000000 
#    z 0.022840 0.000000 2.020480 
# 
# From -- ./inp_files/132.got.cif
#   From: 2010.06.25/outbox.cif.g09.slc.cpg/sg9_1_cif.got.tgz:132.got - 2010.06.27 21:40:51.
