data_PCOD8056756
_publ_section_title
;
Structure prediction by ZEFSAII (Michael W. Deem and Ramdas Pophale) SiO2 
 PCOD8056756
Probable space group: C C
;
_chemical_formula_sum "Si O2"
_cell_formula_units_Z 28
_cell_length_a 14.319308
_cell_length_b 14.518692
_cell_length_c 7.933572
_cell_angle_alpha 90.000000
_cell_angle_beta 43.726893
_cell_angle_gamma 90.000000
_cell_volume 1140.080817
_symmetry_space_group_name_H-M "C C"
_symmetry_group_IT_number 9
_symmetry_cell_setting 'monoclinic'
loop_
_space_group_symop_operation_xyz
x,y,z
x,-y,1/2+z
1/2+x,1/2+y,z
1/2+x,1/2-y,1/2+z
loop_
_atom_site_type_symbol
_atom_site_label
_atom_site_fract_x
_atom_site_fract_y
_atom_site_fract_z
Si Si1 0.176940 0.567545 0.748790
Si Si2 0.909549 0.179132 0.589036
Si Si3 0.500121 0.390843 0.314050
Si Si4 0.100849 0.191547 0.011665
Si Si5 0.223097 0.392527 0.833216
Si Si6 0.232168 0.968307 0.508004
Si Si7 0.379679 0.882332 0.627860
O O1 0.278018 0.613365 0.752805
O O2 0.120466 0.467481 0.885069
O O3 0.262910 0.570185 0.464922
O O4 0.039859 0.622853 0.886533
O O5 0.842677 0.277738 0.723279
O O6 0.011413 0.147635 0.607302
O O7 0.991767 0.186374 0.305398
O O8 0.536216 0.316033 0.410715
O O9 0.345306 0.413031 0.547333
O O10 0.586824 0.483612 0.227951
O O11 0.174450 0.288962 0.909075
O O12 0.210267 0.108969 0.891280
O O13 0.287668 0.912544 0.592683
O O14 0.341096 0.047630 0.326814
#
# Coordination Sequence:
#
# PCOD8056756 Si02
#       7
#     4   4   4   4   4   4   4
#     4  12  26  49  76 117 163 211 268 336 411 484
#     4  12  28  51  84 117 162 216 272 337 415 488
#     4  12  29  49  82 120 159 213 274 333 405 498
#     4  12  27  53  81 116 165 206 274 334 411 488
#     4  12  27  49  80 118 162 210 266 343 407 484
#     4  12  27  51  79 116 159 215 271 335 410 489
#     4  12  28  48  80 114 162 215 267 342 407 487
#
# _framework density 24.559661999999999
#
# number of rings (size 3 to 8) (size 9 to 14) (size 15 to 20)
#    0.000    0.000    4.286    4.286    6.000    2.286 
#    0.000    0.000    0.000    0.000    0.000    0.000 
#    0.000    0.000    0.000    0.000    0.000    0.000 
#
# Total GULP energy -173515.790184 kJ/mol
# GULP energy per Si atom -12393.985013 kJ/mol
# Density = 2.450376 g / cm^3
# Si number density = 24.559662 Si / 1000 Ang^3
#
#
#
# Elastic Constant Matrix: (Units=GPa)
#
#
# Indices 1 2 3 4 5 6 
#
# 1 153.6408 55.0127 38.8199 0.0000 11.8808 0.0000
# 2 55.0127 175.8973 35.6529 0.0000 1.6190 0.0000
# 3 38.8199 35.6529 91.0788 0.0000 -5.7979 0.0000
# 4 0.0000 0.0000 0.0000 30.6966 0.0000 4.0451
# 5 11.8808 1.6190 -5.7979 0.0000 37.6240 0.0000
# 6 0.0000 0.0000 0.0000 4.0451 0.0000 38.0670
#
#
#
# Elastic Compliance Matrix: (Units=1/GPa)
#
#
# Indices 1 2 3 4 5 6 
#
# 1 0.008165 -0.001937 -0.002909 0.000000 -0.002943 0.000000
# 2 -0.001937 0.006650 -0.001774 0.000000 0.000052 0.000000
# 3 -0.002909 -0.001774 0.013106 0.000000 0.003015 0.000000
# 4 0.000000 0.000000 0.000000 0.033040 0.000000 -0.003511
# 5 -0.002943 0.000052 0.003015 0.000000 0.027971 0.000000
# 6 0.000000 0.000000 0.000000 -0.003511 0.000000 0.026643
#
#
# Mechanical properties :
#
#
# Convention : Reuss Voigt Hill
#
# Bulk Modulus (GPa) = 68.11959 75.50975 71.81467
# Shear Modulus (GPa) = 37.39501 40.68628 39.04064
#
# Velocity S-wave (km/s) = 3.90631 4.07459 3.99134
# Velocity P-wave (km/s) = 6.93846 7.27657 7.10953
#
# Compressibility (1/GPa) = 0.01468006
#
# Stress axis : x y z
#
# Youngs Moduli (GPa) = 122.47619 150.37481 76.30115
#
# Poissons Ratio (x) = 0.29125 0.22198
# Poissons Ratio (y) = 0.23721 0.13538
# Poissons Ratio (z) = 0.35631 0.26682
#
# Static dielectric constant tensor:
#      x y z
#    x 4.402400 0.000000 0.095450 
#    y 0.000000 4.685330 0.000000 
#    z 0.095450 0.000000 4.310710 
# 
# 
# High freq. dielectric constant tensor:
#      x y z
#    x 1.983310 0.000000 0.004770 
#    y 0.000000 1.995730 0.000000 
#    z 0.004770 0.000000 1.968910 
# 
# From -- ./inp_files/9639.got.cif
#   From: 2010.06.25/outbox.cif.g09.slc.cpg/sg9_5_cif.got.tgz:9639.got - 2010.06.27 21:40:51.
