data_PCOD8056752
_publ_section_title
;
Structure prediction by ZEFSAII (Michael W. Deem and Ramdas Pophale) SiO2 
 PCOD8056752
Probable space group: C C
;
_chemical_formula_sum "Si O2"
_cell_formula_units_Z 32
_cell_length_a 26.813254
_cell_length_b 8.390905
_cell_length_c 16.717448
_cell_angle_alpha 90.000000
_cell_angle_beta 20.502858
_cell_angle_gamma 90.000000
_cell_volume 1317.381436
_symmetry_space_group_name_H-M "C C"
_symmetry_group_IT_number 9
_symmetry_cell_setting 'monoclinic'
loop_
_space_group_symop_operation_xyz
x,y,z
x,-y,1/2+z
1/2+x,1/2+y,z
1/2+x,1/2-y,1/2+z
loop_
_atom_site_type_symbol
_atom_site_label
_atom_site_fract_x
_atom_site_fract_y
_atom_site_fract_z
Si Si1 0.805750 0.818160 0.904730
Si Si2 0.756608 0.377203 0.695294
Si Si3 0.032733 0.471228 0.361937
Si Si4 0.043096 0.808086 0.283263
Si Si5 0.755035 0.832624 0.809881
Si Si6 0.809666 0.477304 0.947437
Si Si7 0.584215 0.932178 0.461219
Si Si8 0.562990 0.468217 0.600923
O O1 0.820662 0.898895 0.794435
O O2 0.833247 0.630402 0.855629
O O3 0.906773 0.898977 0.819355
O O4 0.644312 0.832061 0.177548
O O5 0.820911 0.462643 0.521312
O O6 0.708745 0.194783 0.754978
O O7 0.878824 0.391701 0.578784
O O8 0.614852 0.463178 0.938550
O O9 0.072849 0.618509 0.242511
O O10 0.042418 0.519949 0.440887
O O11 0.882229 0.818628 0.555977
O O12 0.055002 0.889377 0.178290
O O13 0.157958 0.892464 0.167465
O O14 0.638271 0.942958 0.945229
O O15 0.676139 0.668678 0.954193
O O16 0.940417 0.362392 0.721512
#
# Coordination Sequence:
#
# PCOD8056752 Si02
#       8
#     4   4   4   4   4   4   4   4
#     4  12  26  48  76 110 152 199 256 328 382 469
#     4  12  29  47  73 115 154 202 262 323 389 473
#     4  12  28  49  76 115 156 198 266 319 394 470
#     4  12  28  48  79 111 154 209 259 327 393 468
#     4  12  26  49  78 109 151 212 256 318 394 464
#     4  12  26  49  76 111 156 201 260 320 393 463
#     4  12  28  49  81 110 157 207 257 324 396 464
#     4  12  27  49  73 111 158 200 268 319 391 469
#
# _framework density 24.290610999999998
#
# number of rings (size 3 to 8) (size 9 to 14) (size 15 to 20)
#    0.000    0.000    5.000    3.750    8.750    1.000 
#    0.000    0.000    0.000    0.000    0.000    0.000 
#    0.000    0.000    0.000    0.000    0.000    0.000 
#
# Total GULP energy -198335.154015 kJ/mol
# GULP energy per Si atom -12395.947126 kJ/mol
# Density = 2.423532 g / cm^3
# Si number density = 24.290611 Si / 1000 Ang^3
#
#
#
# Elastic Constant Matrix: (Units=GPa)
#
#
# Indices 1 2 3 4 5 6 
#
# 1 140.0524 47.2446 46.3530 0.0000 -0.5530 0.0000
# 2 47.2446 86.7625 31.3772 0.0000 -7.0761 0.0000
# 3 46.3530 31.3772 123.8110 0.0000 -3.1724 0.0000
# 4 0.0000 0.0000 0.0000 41.9041 0.0000 0.5755
# 5 -0.5530 -7.0761 -3.1724 0.0000 45.3927 0.0000
# 6 0.0000 0.0000 0.0000 0.5755 0.0000 28.7403
#
#
#
# Elastic Compliance Matrix: (Units=1/GPa)
#
#
# Indices 1 2 3 4 5 6 
#
# 1 0.009395 -0.004289 -0.002449 0.000000 -0.000725 0.000000
# 2 -0.004289 0.014788 -0.002088 0.000000 0.002107 0.000000
# 3 -0.002449 -0.002088 0.009531 0.000000 0.000311 0.000000
# 4 0.000000 0.000000 0.000000 0.023871 0.000000 -0.000478
# 5 -0.000725 0.002107 0.000311 0.000000 0.022371 0.000000
# 6 0.000000 0.000000 0.000000 -0.000478 0.000000 0.034804
#
#
# Mechanical properties :
#
#
# Convention : Reuss Voigt Hill
#
# Bulk Modulus (GPa) = 62.25982 66.73060 64.49521
# Shear Modulus (GPa) = 36.29357 38.25083 37.27220
#
# Velocity S-wave (km/s) = 3.86960 3.97257 3.92143
# Velocity P-wave (km/s) = 6.75663 6.96945 6.86386
#
# Compressibility (1/GPa) = 0.01606172
#
# Stress axis : x y z
#
# Youngs Moduli (GPa) = 106.44290 67.62116 104.92378
#
# Poissons Ratio (x) = 0.29004 0.25694
# Poissons Ratio (y) = 0.45656 0.21908
# Poissons Ratio (z) = 0.26066 0.14119
#
# Static dielectric constant tensor:
#      x y z
#    x 4.405950 0.000000 -0.070640 
#    y 0.000000 4.336550 0.000000 
#    z -0.070640 0.000000 4.400520 
# 
# 
# High freq. dielectric constant tensor:
#      x y z
#    x 1.977220 0.000000 -0.003360 
#    y 0.000000 1.948590 0.000000 
#    z -0.003360 0.000000 1.984220 
# 
# From -- ./inp_files/31857.got.cif
#   From: 2010.06.25/outbox.cif.g09.slc.cpg/sg9_16_cif.got.tgz:31857.got - 2010.06.27 21:40:51.
