data_PCOD8056001
_publ_section_title
;
Structure prediction by ZEFSAII (Michael W. Deem and Ramdas Pophale) SiO2 
 PCOD8056001
Probable space group: C C
;
_chemical_formula_sum "Si O2"
_cell_formula_units_Z 24
_cell_length_a 6.729681
_cell_length_b 18.424682
_cell_length_c 8.498808
_cell_angle_alpha 90.000000
_cell_angle_beta 73.407084
_cell_angle_gamma 90.000000
_cell_volume 1009.904296
_symmetry_space_group_name_H-M "C C"
_symmetry_group_IT_number 9
_symmetry_cell_setting 'monoclinic'
loop_
_space_group_symop_operation_xyz
x,y,z
x,-y,1/2+z
1/2+x,1/2+y,z
1/2+x,1/2-y,1/2+z
loop_
_atom_site_type_symbol
_atom_site_label
_atom_site_fract_x
_atom_site_fract_y
_atom_site_fract_z
Si Si1 0.806670 0.451577 0.477770
Si Si2 0.991549 0.745206 0.570508
Si Si3 0.836620 0.847133 0.855544
Si Si4 0.635484 0.345466 0.276763
Si Si5 0.432837 0.547010 0.591152
Si Si6 0.560187 0.052450 0.222059
O O1 0.797690 0.388061 0.351657
O O2 0.573332 0.475075 0.574686
O O3 0.903716 0.526369 0.392205
O O4 0.934449 0.422197 0.597168
O O5 0.199282 0.696104 0.516490
O O6 0.989090 0.793348 0.412811
O O7 0.998829 0.794950 0.727290
O O8 0.779414 0.698321 0.621034
O O9 0.685607 0.878627 0.755311
O O10 0.959884 0.910481 0.919214
O O11 0.481202 0.400099 0.224987
O O12 0.199363 0.518239 0.653203
#
# Coordination Sequence:
#
# PCOD8056001 Si02
#       6
#     4   4   4   4   4   4
#     4  12  25  44  71 106 138 174 224 289 352 404
#     4  10  25  48  64  96 141 186 236 268 330 414
#     4  11  24  46  69 101 137 182 230 279 339 409
#     4  11  24  46  69 101 137 182 230 279 339 409
#     4  12  25  44  74 104 137 174 230 290 348 402
#     4  12  25  44  71 106 138 174 224 289 352 404
#
# _framework density 23.764628999999999
#
# number of rings (size 3 to 8) (size 9 to 14) (size 15 to 20)
#    0.000    0.667    3.333    4.000    4.667    1.333 
#   12.000    0.000    0.000    0.000    0.000    0.000 
#    0.000    0.000    0.000    0.000    0.000    0.000 
#
# Total GULP energy -148859.092811 kJ/mol
# GULP energy per Si atom -12404.924401 kJ/mol
# Density = 2.371054 g / cm^3
# Si number density = 23.764629 Si / 1000 Ang^3
#
#
#
# Elastic Constant Matrix: (Units=GPa)
#
#
# Indices 1 2 3 4 5 6 
#
# 1 103.7832 32.2576 43.7207 0.0000 24.3497 0.0000
# 2 32.2576 93.4745 31.8910 0.0000 6.4833 0.0000
# 3 43.7207 31.8910 110.7221 0.0000 0.7912 0.0000
# 4 0.0000 0.0000 0.0000 50.3915 0.0000 6.4847
# 5 24.3497 6.4833 0.7912 0.0000 50.2194 0.0000
# 6 0.0000 0.0000 0.0000 6.4847 0.0000 12.8974
#
#
#
# Elastic Compliance Matrix: (Units=1/GPa)
#
#
# Indices 1 2 3 4 5 6 
#
# 1 0.013950 -0.002785 -0.004661 0.000000 -0.006331 0.000000
# 2 -0.002785 0.012531 -0.002508 0.000000 -0.000228 0.000000
# 3 -0.004661 -0.002508 0.011577 0.000000 0.002401 0.000000
# 4 0.000000 0.000000 0.000000 0.021217 0.000000 -0.010668
# 5 -0.006331 -0.000228 0.002401 0.000000 0.022974 0.000000
# 6 0.000000 0.000000 0.000000 -0.010668 0.000000 0.082899
#
#
# Mechanical properties :
#
#
# Convention : Reuss Voigt Hill
#
# Bulk Modulus (GPa) = 55.09524 58.19094 56.64309
# Shear Modulus (GPa) = 26.16358 36.04236 31.10297
#
# Velocity S-wave (km/s) = 3.32165 3.89863 3.62165
# Velocity P-wave (km/s) = 6.15997 6.69367 6.43236
#
# Compressibility (1/GPa) = 0.01815039
#
# Stress axis : x y z
#
# Youngs Moduli (GPa) = 71.68484 79.80501 86.37577
#
# Poissons Ratio (x) = 0.22223 0.40260
# Poissons Ratio (y) = 0.19962 0.21662
# Poissons Ratio (z) = 0.33413 0.20014
#
# Static dielectric constant tensor:
#      x y z
#    x 4.026100 0.000000 -0.100320 
#    y 0.000000 4.317650 0.000000 
#    z -0.100320 0.000000 4.324880 
# 
# 
# High freq. dielectric constant tensor:
#      x y z
#    x 1.924600 0.000000 -0.008890 
#    y 0.000000 1.949940 0.000000 
#    z -0.008890 0.000000 1.952560 
# 
# From -- ./inp_files/3756.got.cif
#   From: 2010.06.25/outbox.cif.g09.slc.cpg/sg9_2_cif.got.tgz:3756.got - 2010.06.27 21:40:51.
