data_PCOD8056153
_publ_section_title
;
Structure prediction by ZEFSAII (Michael W. Deem and Ramdas Pophale) SiO2 
 PCOD8056153
Probable space group: C C
;
_chemical_formula_sum "Si O2"
_cell_formula_units_Z 28
_cell_length_a 17.179611
_cell_length_b 9.309997
_cell_length_c 13.340705
_cell_angle_alpha 90.000000
_cell_angle_beta 35.924916
_cell_angle_gamma 90.000000
_cell_volume 1251.918094
_symmetry_space_group_name_H-M "C C"
_symmetry_group_IT_number 9
_symmetry_cell_setting 'monoclinic'
loop_
_space_group_symop_operation_xyz
x,y,z
x,-y,1/2+z
1/2+x,1/2+y,z
1/2+x,1/2-y,1/2+z
loop_
_atom_site_type_symbol
_atom_site_label
_atom_site_fract_x
_atom_site_fract_y
_atom_site_fract_z
Si Si1 0.672970 0.142693 0.252690
Si Si2 0.721040 0.712763 0.899584
Si Si3 0.051373 0.980608 0.137685
Si Si4 0.528828 0.154738 0.130196
Si Si5 0.782904 0.412497 0.032069
Si Si6 0.414069 0.031492 0.590309
Si Si7 0.750969 0.032127 0.501445
O O1 0.739537 0.171077 0.290626
O O2 0.710354 0.263308 0.133261
O O3 0.516064 0.143523 0.434208
O O4 0.715538 0.991790 0.156007
O O5 0.844724 0.604736 0.759187
O O6 0.725400 0.801862 0.998592
O O7 0.586176 0.615409 0.027514
O O8 0.066046 0.821848 0.076521
O O9 0.171227 0.006047 0.092683
O O10 0.905431 0.996216 0.331891
O O11 0.413244 0.124071 0.331241
O O12 0.486044 0.106962 0.062365
O O13 0.660693 0.069001 0.024650
O O14 0.815172 0.501694 0.100783
#
# Coordination Sequence:
#
# PCOD8056153 Si02
#       7
#     4   4   4   4   4   4   4
#     4  11  22  43  72 104 137 195 239 295 368 435
#     4  11  26  44  74 104 146 195 244 310 362 446
#     4  12  24  46  73 109 146 191 248 302 374 443
#     4  12  22  45  76 106 146 197 242 306 370 442
#     4  11  22  42  72 104 146 195 242 293 372 438
#     4  11  23  43  73 103 146 188 249 304 368 436
#     4  12  25  43  74 104 145 193 246 304 364 442
#
# _framework density 22.365682
#
# number of rings (size 3 to 8) (size 9 to 14) (size 15 to 20)
#    0.000    0.571    7.143    0.857    2.000    0.000 
#    0.000    4.286    0.000    0.000    0.000    0.000 
#    0.000    0.000    0.000    0.000    0.000    0.000 
#
# Total GULP energy -173477.785557 kJ/mol
# GULP energy per Si atom -12391.270397 kJ/mol
# Density = 2.231478 g / cm^3
# Si number density = 22.365682 Si / 1000 Ang^3
#
#
#
# Elastic Constant Matrix: (Units=GPa)
#
#
# Indices 1 2 3 4 5 6 
#
# 1 109.6335 58.4934 32.9099 0.0000 -3.1744 0.0000
# 2 58.4934 112.6142 43.2167 0.0000 3.9779 0.0000
# 3 32.9099 43.2167 129.5540 0.0000 -13.7313 0.0000
# 4 0.0000 0.0000 0.0000 33.1520 0.0000 1.1439
# 5 -3.1744 3.9779 -13.7313 0.0000 37.6825 0.0000
# 6 0.0000 0.0000 0.0000 1.1439 0.0000 36.4949
#
#
#
# Elastic Compliance Matrix: (Units=1/GPa)
#
#
# Indices 1 2 3 4 5 6 
#
# 1 0.012842 -0.006335 -0.001002 0.000000 0.001385 0.000000
# 2 -0.006335 0.013522 -0.003234 0.000000 -0.003140 0.000000
# 3 -0.001002 -0.003234 0.009444 0.000000 0.003698 0.000000
# 4 0.000000 0.000000 0.000000 0.030197 0.000000 -0.000946
# 5 0.001385 -0.003140 0.003698 0.000000 0.028333 0.000000
# 6 0.000000 0.000000 0.000000 -0.000946 0.000000 0.027431
#
#
# Mechanical properties :
#
#
# Convention : Reuss Voigt Hill
#
# Bulk Modulus (GPa) = 68.18458 69.00463 68.59461
# Shear Modulus (GPa) = 33.82932 35.94466 34.88699
#
# Velocity S-wave (km/s) = 3.89338 4.01326 3.95377
# Velocity P-wave (km/s) = 7.12486 7.23843 7.18187
#
# Compressibility (1/GPa) = 0.01466607
#
# Stress axis : x y z
#
# Youngs Moduli (GPa) = 77.86929 73.95187 105.88384
#
# Poissons Ratio (x) = 0.46846 0.10612
# Poissons Ratio (y) = 0.49327 0.34247
# Poissons Ratio (z) = 0.07804 0.23919
#
# Static dielectric constant tensor:
#      x y z
#    x 4.092300 0.000000 -0.014150 
#    y 0.000000 4.178510 0.000000 
#    z -0.014150 0.000000 4.193580 
# 
# 
# High freq. dielectric constant tensor:
#      x y z
#    x 1.876180 0.000000 -0.009280 
#    y 0.000000 1.867270 0.000000 
#    z -0.009280 0.000000 1.892080 
# 
# From -- ./inp_files/27288.got.cif
#   From: 2010.06.25/outbox.cif.g09.slc.cpg/sg9_14_cif.got.tgz:27288.got - 2010.06.27 21:40:51.
