data_PCOD8056471
_publ_section_title
;
Structure prediction by ZEFSAII (Michael W. Deem and Ramdas Pophale) SiO2 
 PCOD8056471
Probable space group: C C
;
_chemical_formula_sum "Si O2"
_cell_formula_units_Z 32
_cell_length_a 14.364444
_cell_length_b 9.115284
_cell_length_c 11.480024
_cell_angle_alpha 90.000000
_cell_angle_beta 57.981222
_cell_angle_gamma 90.000000
_cell_volume 1274.480900
_symmetry_space_group_name_H-M "C C"
_symmetry_group_IT_number 9
_symmetry_cell_setting 'monoclinic'
loop_
_space_group_symop_operation_xyz
x,y,z
x,-y,1/2+z
1/2+x,1/2+y,z
1/2+x,1/2-y,1/2+z
loop_
_atom_site_type_symbol
_atom_site_label
_atom_site_fract_x
_atom_site_fract_y
_atom_site_fract_z
Si Si1 0.813620 0.258593 0.573520
Si Si2 0.003999 0.065973 0.060614
Si Si3 0.267084 0.553876 0.189337
Si Si4 0.071339 0.446124 0.649923
Si Si5 0.834424 0.434028 0.778646
Si Si6 0.024803 0.758593 0.765740
Si Si7 0.217838 0.781750 0.402265
Si Si8 0.120584 0.781750 0.936995
O O1 0.834704 0.398793 0.640444
O O2 0.712648 0.273860 0.547539
O O3 0.919214 0.250000 0.419631
O O4 0.785393 0.120923 0.677651
O O5 0.889191 0.114640 0.075843
O O6 0.003717 0.101208 0.198817
O O7 0.021136 0.890111 0.039982
O O8 0.103476 0.150949 0.930626
O O9 0.169211 0.606024 0.169631
O O10 0.237214 0.619588 0.336515
O O11 0.053029 0.620922 0.661610
O O12 0.101209 0.380411 0.502744
O O13 0.949232 0.385359 0.763416
O O14 0.817288 0.609890 0.799279
O O15 0.734946 0.349052 0.908634
O O16 0.125776 0.773861 0.791721
#
# Coordination Sequence:
#
# PCOD8056471 Si02
#       8
#     4   4   4   4   4   4   4   4
#     4  12  24  48  73 102 142 187 231 295 355 414
#     4  11  24  47  73 100 141 189 240 282 356 424
#     4  12  26  45  70 109 140 187 237 291 353 418
#     4  12  26  45  70 109 140 187 237 291 353 418
#     4  11  24  47  73 100 141 189 240 282 356 424
#     4  12  24  48  73 102 142 187 231 295 355 414
#     4  11  26  48  74 103 141 191 233 295 350 419
#     4  11  26  48  74 103 141 191 233 295 350 419
#
# _framework density 25.108262
#
# number of rings (size 3 to 8) (size 9 to 14) (size 15 to 20)
#    0.000    0.500    5.000    2.250    0.000    9.000 
#    4.500    0.000    0.000    0.000    0.000    0.000 
#    0.000    0.000    0.000    0.000    0.000    0.000 
#
# Total GULP energy -198273.788992 kJ/mol
# GULP energy per Si atom -12392.111812 kJ/mol
# Density = 2.505111 g / cm^3
# Si number density = 25.108262 Si / 1000 Ang^3
#
#
#
# Elastic Constant Matrix: (Units=GPa)
#
#
# Indices 1 2 3 4 5 6 
#
# 1 209.5235 37.5993 40.1422 0.0000 -22.3294 0.0000
# 2 37.5993 141.0429 72.6874 0.0000 19.2782 0.0000
# 3 40.1422 72.6874 101.7375 0.0000 17.3208 0.0000
# 4 0.0000 0.0000 0.0000 59.0563 0.0000 7.1326
# 5 -22.3294 19.2782 17.3208 0.0000 46.3936 0.0000
# 6 0.0000 0.0000 0.0000 7.1326 0.0000 25.1263
#
#
#
# Elastic Compliance Matrix: (Units=1/GPa)
#
#
# Indices 1 2 3 4 5 6 
#
# 1 0.005813 -0.000895 -0.002343 0.000000 0.004045 0.000000
# 2 -0.000895 0.011500 -0.007449 0.000000 -0.002428 0.000000
# 3 -0.002343 -0.007449 0.016809 0.000000 -0.004308 0.000000
# 4 0.000000 0.000000 0.000000 0.017534 0.000000 -0.004977
# 5 0.004045 -0.002428 -0.004308 0.000000 0.026119 0.000000
# 6 0.000000 0.000000 0.000000 -0.004977 0.000000 0.041212
#
#
# Mechanical properties :
#
#
# Convention : Reuss Voigt Hill
#
# Bulk Modulus (GPa) = 78.44671 83.68462 81.06567
# Shear Modulus (GPa) = 34.57555 46.24024 40.40789
#
# Velocity S-wave (km/s) = 3.71490 4.29608 4.01602
# Velocity P-wave (km/s) = 7.05066 7.61645 7.33901
#
# Compressibility (1/GPa) = 0.01274751
#
# Stress axis : x y z
#
# Youngs Moduli (GPa) = 172.02068 86.95875 59.49077
#
# Poissons Ratio (x) = 0.07784 0.13937
# Poissons Ratio (y) = 0.15399 0.44318
# Poissons Ratio (z) = 0.40300 0.64780
#
# Static dielectric constant tensor:
#      x y z
#    x 5.303880 0.000000 -0.364290 
#    y 0.000000 4.320580 0.000000 
#    z -0.364290 0.000000 4.454160 
# 
# 
# High freq. dielectric constant tensor:
#      x y z
#    x 2.033560 0.000000 -0.040790 
#    y 0.000000 1.981950 0.000000 
#    z -0.040790 0.000000 1.999880 
# 
# From -- ./inp_files/17901.got.cif
#   From: 2010.06.25/outbox.cif.g09.slc.cpg/sg9_9_cif.got.tgz:17901.got - 2010.06.27 21:40:51.
