data_PCOD8056090
_publ_section_title
;
Structure prediction by ZEFSAII (Michael W. Deem and Ramdas Pophale) SiO2 
 PCOD8056090
Probable space group: C C
;
_chemical_formula_sum "Si O2"
_cell_formula_units_Z 32
_cell_length_a 8.336082
_cell_length_b 23.081353
_cell_length_c 11.663292
_cell_angle_alpha 90.000000
_cell_angle_beta 139.841207
_cell_angle_gamma 90.000000
_cell_volume 1447.245770
_symmetry_space_group_name_H-M "C C"
_symmetry_group_IT_number 9
_symmetry_cell_setting 'monoclinic'
loop_
_space_group_symop_operation_xyz
x,y,z
x,-y,1/2+z
1/2+x,1/2+y,z
1/2+x,1/2-y,1/2+z
loop_
_atom_site_type_symbol
_atom_site_label
_atom_site_fract_x
_atom_site_fract_y
_atom_site_fract_z
Si Si1 0.857830 0.161995 0.280080
Si Si2 0.765400 0.149946 0.974870
Si Si3 0.211933 0.181494 0.072548
Si Si4 0.712047 0.648545 0.663046
Si Si5 0.104895 0.764995 0.279124
Si Si6 0.722978 0.466224 0.314028
Si Si7 0.708761 0.014809 0.959771
Si Si8 0.485261 0.925949 0.666402
O O1 0.893073 0.170959 0.163539
O O2 0.771846 0.217296 0.305726
O O3 0.667110 0.108360 0.180529
O O4 0.117987 0.143097 0.480867
O O5 0.932713 0.178233 0.966527
O O6 0.488542 0.176496 0.815789
O O7 0.733879 0.081456 0.936432
O O8 0.367972 0.234788 0.212312
O O9 0.352352 0.120771 0.177827
O O10 0.236489 0.196340 0.949312
O O11 0.528831 0.689868 0.637534
O O12 0.701406 0.586661 0.715651
O O13 0.758088 0.451770 0.467266
O O14 0.977282 0.499422 0.417506
O O15 0.470035 0.502036 0.164505
O O16 0.651779 0.974283 0.819415
#
# Coordination Sequence:
#
# PCOD8056090 Si02
#       8
#     4   4   4   4   4   4   4   4
#     4  11  22  43  72  97 133 184 234 280 344 434
#     4  11  26  45  62 106 149 165 236 307 339 411
#     4  11  24  44  67 106 141 172 236 303 345 418
#     4  11  21  43  72  97 130 189 233 272 356 434
#     4  11  22  44  72  94 131 188 228 279 358 425
#     4  11  23  41  67  99 138 178 239 285 349 421
#     4  11  24  41  67 101 135 189 228 286 357 407
#     4  11  22  43  71  94 137 185 234 284 340 434
#
# _framework density 22.110966000000001
#
# number of rings (size 3 to 8) (size 9 to 14) (size 15 to 20)
#    0.000    1.000    6.250    1.500    0.000    5.000 
#    2.250    0.000    0.000    0.000    0.000    0.000 
#    0.000    0.000    0.000    0.000    0.000    0.000 
#
# Total GULP energy -198277.407632 kJ/mol
# GULP energy per Si atom -12392.337977 kJ/mol
# Density = 2.206064 g / cm^3
# Si number density = 22.110966 Si / 1000 Ang^3
#
#
#
# Elastic Constant Matrix: (Units=GPa)
#
#
# Indices 1 2 3 4 5 6 
#
# 1 89.8041 40.9927 26.0829 0.0000 13.3373 0.0000
# 2 40.9927 75.2679 34.7550 0.0000 5.3749 0.0000
# 3 26.0829 34.7550 138.9585 0.0000 1.9855 0.0000
# 4 0.0000 0.0000 0.0000 29.6357 0.0000 0.2797
# 5 13.3373 5.3749 1.9855 0.0000 38.1136 0.0000
# 6 0.0000 0.0000 0.0000 0.2797 0.0000 22.5264
#
#
#
# Elastic Compliance Matrix: (Units=1/GPa)
#
#
# Indices 1 2 3 4 5 6 
#
# 1 0.015583 -0.007752 -0.000924 0.000000 -0.004312 0.000000
# 2 -0.007752 0.019019 -0.003305 0.000000 0.000203 0.000000
# 3 -0.000924 -0.003305 0.008191 0.000000 0.000363 0.000000
# 4 0.000000 0.000000 0.000000 0.033747 0.000000 -0.000419
# 5 -0.004312 0.000203 0.000363 0.000000 0.027699 0.000000
# 6 0.000000 0.000000 0.000000 -0.000419 0.000000 0.044398
#
#
# Mechanical properties :
#
#
# Convention : Reuss Voigt Hill
#
# Bulk Modulus (GPa) = 53.10413 56.41018 54.75716
# Shear Modulus (GPa) = 27.95235 31.53513 29.74374
#
# Velocity S-wave (km/s) = 3.55939 3.78063 3.67168
# Velocity P-wave (km/s) = 6.40013 6.68021 6.54167
#
# Compressibility (1/GPa) = 0.01883093
#
# Stress axis : x y z
#
# Youngs Moduli (GPa) = 64.17380 52.57823 122.08083
#
# Poissons Ratio (x) = 0.40758 0.11286
# Poissons Ratio (y) = 0.49747 0.40345
# Poissons Ratio (z) = 0.05933 0.17376
#
# Static dielectric constant tensor:
#      x y z
#    x 3.825250 0.000000 0.244570 
#    y 0.000000 4.072540 0.000000 
#    z 0.244570 0.000000 4.152940 
# 
# 
# High freq. dielectric constant tensor:
#      x y z
#    x 1.844660 0.000000 0.007660 
#    y 0.000000 1.873550 0.000000 
#    z 0.007660 0.000000 1.880500 
# 
# From -- ./inp_files/15616.got.cif
#   From: 2010.06.25/outbox.cif.g09.slc.cpg/sg9_8_cif.got.tgz:15616.got - 2010.06.27 21:40:51.
