data_PCOD8056446
_publ_section_title
;
Structure prediction by ZEFSAII (Michael W. Deem and Ramdas Pophale) SiO2 
 PCOD8056446
Probable space group: C C
;
_chemical_formula_sum "Si O2"
_cell_formula_units_Z 32
_cell_length_a 8.753840
_cell_length_b 16.556733
_cell_length_c 11.435816
_cell_angle_alpha 90.000000
_cell_angle_beta 55.347236
_cell_angle_gamma 90.000000
_cell_volume 1363.439979
_symmetry_space_group_name_H-M "C C"
_symmetry_group_IT_number 9
_symmetry_cell_setting 'monoclinic'
loop_
_space_group_symop_operation_xyz
x,y,z
x,-y,1/2+z
1/2+x,1/2+y,z
1/2+x,1/2-y,1/2+z
loop_
_atom_site_type_symbol
_atom_site_label
_atom_site_fract_x
_atom_site_fract_y
_atom_site_fract_z
Si Si1 0.117240 0.181600 0.416480
Si Si2 0.024316 0.911011 0.383759
Si Si3 0.170835 0.368927 0.795858
Si Si4 0.480502 0.269607 0.229381
Si Si5 0.776170 0.452165 0.709215
Si Si6 0.207398 0.670742 0.532293
Si Si7 0.097227 0.152535 0.094759
Si Si8 0.156953 0.501388 0.131048
O O1 0.270088 0.241919 0.294063
O O2 0.205706 0.092329 0.359605
O O3 0.082015 0.200197 0.567896
O O4 0.928672 0.186935 0.422912
O O5 0.954800 0.841071 0.330728
O O6 0.849289 0.964034 0.498615
O O7 0.137065 0.870553 0.442489
O O8 0.165403 0.964490 0.247377
O O9 0.102119 0.352423 0.956862
O O10 0.390095 0.371663 0.713020
O O11 0.112121 0.458359 0.776923
O O12 0.101082 0.302590 0.733285
O O13 0.740667 0.396043 0.612730
O O14 0.993650 0.471935 0.614841
O O15 0.115512 0.752735 0.615798
O O16 0.172574 0.595941 0.636506
#
# Coordination Sequence:
#
# PCOD8056446 Si02
#       8
#     4   4   4   4   4   4   4   4
#     4  12  26  49  76 111 149 196 255 315 374 459
#     4  11  26  48  72 110 148 203 252 319 388 454
#     4  11  24  46  70 106 151 191 250 314 378 456
#     4  12  27  47  81 109 151 201 254 312 390 455
#     4  12  26  48  72 110 156 198 256 319 381 457
#     4  12  26  46  74 108 146 198 256 316 383 452
#     4  11  25  46  74 106 151 194 258 318 378 454
#     4  11  26  46  73 106 152 199 251 319 386 447
#
# _framework density 23.470046
#
# number of rings (size 3 to 8) (size 9 to 14) (size 15 to 20)
#    0.000    0.500    5.000    2.250    5.250    2.000 
#    0.000    1.250    0.000    0.000    0.000    0.000 
#    0.000    0.000    0.000    0.000    0.000    0.000 
#
# Total GULP energy -198376.127071 kJ/mol
# GULP energy per Si atom -12398.507942 kJ/mol
# Density = 2.341663 g / cm^3
# Si number density = 23.470046 Si / 1000 Ang^3
#
#
#
# Elastic Constant Matrix: (Units=GPa)
#
#
# Indices 1 2 3 4 5 6 
#
# 1 127.6496 47.3352 20.5645 0.0000 4.1955 0.0000
# 2 47.3352 148.0601 12.1956 0.0000 13.3700 0.0000
# 3 20.5645 12.1956 50.2846 0.0000 18.2785 0.0000
# 4 0.0000 0.0000 0.0000 35.1331 0.0000 2.4683
# 5 4.1955 13.3700 18.2785 0.0000 35.6856 0.0000
# 6 0.0000 0.0000 0.0000 2.4683 0.0000 38.5691
#
#
#
# Elastic Compliance Matrix: (Units=1/GPa)
#
#
# Indices 1 2 3 4 5 6 
#
# 1 0.009464 -0.002882 -0.003882 0.000000 0.001956 0.000000
# 2 -0.002882 0.007903 0.000264 0.000000 -0.002757 0.000000
# 3 -0.003882 0.000264 0.026149 0.000000 -0.013036 0.000000
# 4 0.000000 0.000000 0.000000 0.028592 0.000000 -0.001830
# 5 0.001956 -0.002757 -0.013036 0.000000 0.035503 0.000000
# 6 0.000000 0.000000 0.000000 -0.001830 0.000000 0.026045
#
#
# Mechanical properties :
#
#
# Convention : Reuss Voigt Hill
#
# Bulk Modulus (GPa) = 32.77039 54.02054 43.39547
# Shear Modulus (GPa) = 31.88215 38.27082 35.07649
#
# Velocity S-wave (km/s) = 3.68967 4.04248 3.87010
# Velocity P-wave (km/s) = 5.66961 6.69743 6.20484
#
# Compressibility (1/GPa) = 0.03051535
#
# Stress axis : x y z
#
# Youngs Moduli (GPa) = 105.66367 126.53786 38.24222
#
# Poissons Ratio (x) = 0.36475 0.14847
# Poissons Ratio (y) = 0.30458 -0.01011
# Poissons Ratio (z) = 0.41021 -0.03347
#
# Static dielectric constant tensor:
#      x y z
#    x 4.552700 0.000000 0.131300 
#    y 0.000000 4.450640 0.000000 
#    z 0.131300 0.000000 4.042870 
# 
# 
# High freq. dielectric constant tensor:
#      x y z
#    x 1.945040 0.000000 0.002270 
#    y 0.000000 1.939690 0.000000 
#    z 0.002270 0.000000 1.910360 
# 
# From -- ./inp_files/14706.got.cif
#   From: 2010.06.25/outbox.cif.g09.slc.cpg/sg9_8_cif.got.tgz:14706.got - 2010.06.27 21:40:51.
