data_PCOD8056770
_publ_section_title
;
Structure prediction by ZEFSAII (Michael W. Deem and Ramdas Pophale) SiO2 
 PCOD8056770
Probable space group: C C
;
_chemical_formula_sum "Si O2"
_cell_formula_units_Z 24
_cell_length_a 21.665363
_cell_length_b 7.425227
_cell_length_c 8.779495
_cell_angle_alpha 90.000000
_cell_angle_beta 127.952284
_cell_angle_gamma 90.000000
_cell_volume 1113.678201
_symmetry_space_group_name_H-M "C C"
_symmetry_group_IT_number 9
_symmetry_cell_setting 'monoclinic'
loop_
_space_group_symop_operation_xyz
x,y,z
x,-y,1/2+z
1/2+x,1/2+y,z
1/2+x,1/2-y,1/2+z
loop_
_atom_site_type_symbol
_atom_site_label
_atom_site_fract_x
_atom_site_fract_y
_atom_site_fract_z
Si Si1 0.509320 0.319630 0.395300
Si Si2 0.001658 0.193040 0.240224
Si Si3 0.891289 0.504531 0.671876
Si Si4 0.279184 0.022971 0.752163
Si Si5 0.660698 0.822937 0.621709
Si Si6 0.671698 0.795595 0.000153
O O1 0.476307 0.506470 0.279876
O O2 0.522889 0.334731 0.596247
O O3 0.592366 0.288365 0.443592
O O4 0.449360 0.163987 0.259444
O O5 0.072414 0.285753 0.437430
O O6 0.928664 0.325836 0.143680
O O7 0.863408 0.556566 0.798659
O O8 0.806202 0.464016 0.468139
O O9 0.215389 0.175960 0.623668
O O10 0.243983 0.829593 0.656130
O O11 0.689017 0.014738 0.605106
O O12 0.664731 0.817600 0.809242
#
# Coordination Sequence:
#
# PCOD8056770 Si02
#       6
#     4   4   4   4   4   4
#     4  12  27  46  76 108 144 194 246 293 363 435
#     4  12  27  46  76 107 146 193 244 297 357 440
#     4  12  28  50  72 107 151 188 239 304 365 422
#     4  12  28  50  72 107 151 188 239 304 365 422
#     4  12  27  46  76 107 146 193 244 297 357 440
#     4  12  27  46  76 108 144 194 246 293 363 435
#
# _framework density 21.550211000000001
#
# number of rings (size 3 to 8) (size 9 to 14) (size 15 to 20)
#    0.000    0.000    6.667    2.000    9.333    2.667 
#    0.000    0.000    0.000    0.000    0.000    0.000 
#    0.000    0.000    0.000    0.000    0.000    0.000 
#
# Total GULP energy -148860.531686 kJ/mol
# GULP energy per Si atom -12405.044307 kJ/mol
# Density = 2.150116 g / cm^3
# Si number density = 21.550211 Si / 1000 Ang^3
#
#
#
# Elastic Constant Matrix: (Units=GPa)
#
#
# Indices 1 2 3 4 5 6 
#
# 1 113.6444 42.5366 27.8526 0.0000 -8.3067 0.0000
# 2 42.5366 127.4576 38.4272 0.0000 -12.9593 0.0000
# 3 27.8526 38.4272 119.0005 0.0000 -14.2556 0.0000
# 4 0.0000 0.0000 0.0000 37.6813 0.0000 -7.0285
# 5 -8.3067 -12.9593 -14.2556 0.0000 35.5637 0.0000
# 6 0.0000 0.0000 0.0000 -7.0285 0.0000 36.9519
#
#
#
# Elastic Compliance Matrix: (Units=1/GPa)
#
#
# Indices 1 2 3 4 5 6 
#
# 1 0.010293 -0.002944 -0.001365 0.000000 0.000784 0.000000
# 2 -0.002944 0.009693 -0.002206 0.000000 0.001960 0.000000
# 3 -0.001365 -0.002206 0.009770 0.000000 0.002794 0.000000
# 4 0.000000 0.000000 0.000000 0.027515 0.000000 0.005233
# 5 0.000784 0.001960 0.002794 0.000000 0.030136 0.000000
# 6 0.000000 0.000000 0.000000 0.005233 0.000000 0.028058
#
#
# Mechanical properties :
#
#
# Convention : Reuss Voigt Hill
#
# Bulk Modulus (GPa) = 59.78594 64.19281 61.98937
# Shear Modulus (GPa) = 37.29451 38.79177 38.04314
#
# Velocity S-wave (km/s) = 4.16455 4.24732 4.20614
# Velocity P-wave (km/s) = 7.13635 7.34202 7.23991
#
# Compressibility (1/GPa) = 0.01672634
#
# Stress axis : x y z
#
# Youngs Moduli (GPa) = 97.15289 103.17112 102.35710
#
# Poissons Ratio (x) = 0.30373 0.13967
# Poissons Ratio (y) = 0.28602 0.22581
# Poissons Ratio (z) = 0.13257 0.22760
#
# Static dielectric constant tensor:
#      x y z
#    x 3.908610 0.000000 -0.122530 
#    y 0.000000 3.967020 0.000000 
#    z -0.122530 0.000000 3.893150 
# 
# 
# High freq. dielectric constant tensor:
#      x y z
#    x 1.860780 0.000000 -0.008990 
#    y 0.000000 1.857620 0.000000 
#    z -0.008990 0.000000 1.860110 
# 
# From -- ./inp_files/10290.got.cif
#   From: 2010.06.25/outbox.cif.g09.slc.cpg/sg9_6_cif.got.tgz:10290.got - 2010.06.27 21:40:51.
