data_PCOD8056280
_publ_section_title
;
Structure prediction by ZEFSAII (Michael W. Deem and Ramdas Pophale) SiO2 
 PCOD8056280
Probable space group: C C
;
_chemical_formula_sum "Si O2"
_cell_formula_units_Z 32
_cell_length_a 9.775189
_cell_length_b 9.868704
_cell_length_c 16.106868
_cell_angle_alpha 90.000000
_cell_angle_beta 67.965723
_cell_angle_gamma 90.000000
_cell_volume 1440.314005
_symmetry_space_group_name_H-M "C C"
_symmetry_group_IT_number 9
_symmetry_cell_setting 'monoclinic'
loop_
_space_group_symop_operation_xyz
x,y,z
x,-y,1/2+z
1/2+x,1/2+y,z
1/2+x,1/2-y,1/2+z
loop_
_atom_site_type_symbol
_atom_site_label
_atom_site_fract_x
_atom_site_fract_y
_atom_site_fract_z
Si Si1 0.525020 0.376148 0.355590
Si Si2 0.786836 0.309408 0.545277
Si Si3 0.444616 0.918015 0.659852
Si Si4 0.488197 0.363415 0.546698
Si Si5 0.983349 0.187833 0.358270
Si Si6 0.784223 0.827279 0.283310
Si Si7 0.741320 0.038972 0.634017
Si Si8 0.835652 0.294163 0.227404
O O1 0.511349 0.304702 0.448942
O O2 0.549079 0.537619 0.355479
O O3 0.367123 0.364478 0.348036
O O4 0.657407 0.297791 0.277809
O O5 0.896367 0.404838 0.573740
O O6 0.649112 0.399833 0.546588
O O7 0.862127 0.233553 0.451957
O O8 0.702996 0.193348 0.618319
O O9 0.385269 0.784589 0.716416
O O10 0.621306 0.931078 0.628328
O O11 0.381410 0.049151 0.720263
O O12 0.399137 0.503661 0.557268
O O13 0.384593 0.267437 0.627564
O O14 0.915068 0.210416 0.282468
O O15 0.121846 0.282512 0.343602
O O16 0.764006 0.960627 0.228966
#
# Coordination Sequence:
#
# PCOD8056280 Si02
#       8
#     4   4   4   4   4   4   4   4
#     4  12  27  46  71 105 140 185 240 289 350 421
#     4  11  25  43  69 101 140 185 228 289 352 411
#     4  11  23  45  70 100 137 182 234 284 353 421
#     4  12  25  47  70 103 144 184 233 293 349 417
#     4  12  24  48  70  98 146 184 231 296 353 411
#     4  11  25  43  70 101 134 183 232 287 351 417
#     4  11  23  45  67  99 138 179 234 286 350 416
#     4  12  24  47  73 101 143 186 230 292 354 416
#
# _framework density 22.217378
#
# number of rings (size 3 to 8) (size 9 to 14) (size 15 to 20)
#    0.000    0.500    6.250    2.250    3.500    0.000 
#    4.500    0.000    0.000    0.000    0.000    0.000 
#    0.000    0.000    0.000    0.000    0.000    0.000 
#
# Total GULP energy -198344.400228 kJ/mol
# GULP energy per Si atom -12396.525014 kJ/mol
# Density = 2.216681 g / cm^3
# Si number density = 22.217378 Si / 1000 Ang^3
#
#
#
# Elastic Constant Matrix: (Units=GPa)
#
#
# Indices 1 2 3 4 5 6 
#
# 1 166.8956 31.9796 50.6811 0.0000 7.0801 0.0000
# 2 31.9796 42.9139 23.3773 0.0000 -0.0452 0.0000
# 3 50.6811 23.3773 116.7825 0.0000 9.4334 0.0000
# 4 0.0000 0.0000 0.0000 35.8202 0.0000 -1.3905
# 5 7.0801 -0.0452 9.4334 0.0000 38.0929 0.0000
# 6 0.0000 0.0000 0.0000 -1.3905 0.0000 33.2697
#
#
#
# Elastic Compliance Matrix: (Units=1/GPa)
#
#
# Indices 1 2 3 4 5 6 
#
# 1 0.007577 -0.004369 -0.002346 0.000000 -0.000832 0.000000
# 2 -0.004369 0.028742 -0.004006 0.000000 0.001838 0.000000
# 3 -0.002346 -0.004006 0.010560 0.000000 -0.002184 0.000000
# 4 0.000000 0.000000 0.000000 0.027963 0.000000 0.001169
# 5 -0.000832 0.001838 -0.002184 0.000000 0.026949 0.000000
# 6 0.000000 0.000000 0.000000 0.001169 0.000000 0.030106
#
#
# Mechanical properties :
#
#
# Convention : Reuss Voigt Hill
#
# Bulk Modulus (GPa) = 39.31438 59.85201 49.58319
# Shear Modulus (GPa) = 30.89890 36.14017 33.51953
#
# Velocity S-wave (km/s) = 3.73333 4.03757 3.88842
# Velocity P-wave (km/s) = 6.02639 6.98095 6.52116
#
# Compressibility (1/GPa) = 0.02543599
#
# Stress axis : x y z
#
# Youngs Moduli (GPa) = 131.98282 34.79177 94.70136
#
# Poissons Ratio (x) = 0.15200 0.22220
# Poissons Ratio (y) = 0.57662 0.37938
# Poissons Ratio (z) = 0.30968 0.13938
#
# Static dielectric constant tensor:
#      x y z
#    x 4.242850 0.000000 0.091190 
#    y 0.000000 3.892180 0.000000 
#    z 0.091190 0.000000 4.034550 
# 
# 
# High freq. dielectric constant tensor:
#      x y z
#    x 1.893700 0.000000 -0.000610 
#    y 0.000000 1.861400 0.000000 
#    z -0.000610 0.000000 1.876680 
# 
# From -- ./inp_files/22870.got.cif
#   From: 2010.06.25/outbox.cif.g09.slc.cpg/sg9_12_cif.got.tgz:22870.got - 2010.06.27 21:40:51.
