data_PCOD8056054
_publ_section_title
;
Structure prediction by ZEFSAII (Michael W. Deem and Ramdas Pophale) SiO2 
 PCOD8056054
Probable space group: C C
;
_chemical_formula_sum "Si O2"
_cell_formula_units_Z 32
_cell_length_a 9.604705
_cell_length_b 10.411282
_cell_length_c 30.609311
_cell_angle_alpha 90.000000
_cell_angle_beta 151.851285
_cell_angle_gamma 90.000000
_cell_volume 1443.991044
_symmetry_space_group_name_H-M "C C"
_symmetry_group_IT_number 9
_symmetry_cell_setting 'monoclinic'
loop_
_space_group_symop_operation_xyz
x,y,z
x,-y,1/2+z
1/2+x,1/2+y,z
1/2+x,1/2-y,1/2+z
loop_
_atom_site_type_symbol
_atom_site_label
_atom_site_fract_x
_atom_site_fract_y
_atom_site_fract_z
Si Si1 0.911780 0.049299 0.172110
Si Si2 0.640294 0.486020 0.824393
Si Si3 0.350802 0.811347 0.480182
Si Si4 0.226446 0.038794 0.175895
Si Si5 0.448337 0.754979 0.408161
Si Si6 0.143302 0.730292 0.591137
Si Si7 0.691916 0.858238 0.012447
Si Si8 0.335460 0.500234 0.325112
O O1 0.664146 0.139721 0.083329
O O2 0.024574 0.095713 0.250977
O O3 0.198643 0.066229 0.220132
O O4 0.774067 0.907479 0.141042
O O5 0.802707 0.612897 0.850006
O O6 0.361907 0.505009 0.779664
O O7 0.860832 0.412779 0.918676
O O8 0.359317 0.752404 0.434407
O O9 0.262103 0.693851 0.484963
O O10 0.101474 0.919004 0.419027
O O11 0.289369 0.161473 0.161946
O O12 0.507066 0.944202 0.245198
O O13 0.910459 0.976997 0.078700
O O14 0.316822 0.639470 0.343343
O O15 0.797066 0.746035 0.501384
O O16 0.215377 0.743777 0.558946
#
# Coordination Sequence:
#
# PCOD8056054 Si02
#       8
#     4   4   4   4   4   4   4   4
#     4  11  24  43  65  97 132 171 221 273 323 391
#     4  11  24  43  65  97 132 171 221 273 323 391
#     4  11  25  42  65  97 135 171 217 271 325 395
#     4  11  24  44  68  97 130 171 224 268 328 394
#     4  11  20  44  72  89 125 177 221 265 330 387
#     4  11  20  44  72  89 125 177 221 265 330 387
#     4  11  25  42  65  97 135 171 217 271 325 395
#     4  11  24  44  68  97 130 171 224 268 328 394
#
# _framework density 22.160800999999999
#
# number of rings (size 3 to 8) (size 9 to 14) (size 15 to 20)
#    0.000    1.000    5.000    2.250    3.500    4.000 
#    4.500    0.000    0.000    0.000    0.000    0.000 
#    0.000    0.000    0.000    0.000    0.000    0.000 
#
# Total GULP energy -198268.599858 kJ/mol
# GULP energy per Si atom -12391.787491 kJ/mol
# Density = 2.211036 g / cm^3
# Si number density = 22.160801 Si / 1000 Ang^3
#
#
#
# Elastic Constant Matrix: (Units=GPa)
#
#
# Indices 1 2 3 4 5 6 
#
# 1 105.4063 27.3197 43.1338 0.0000 0.4315 0.0000
# 2 27.3197 58.7911 -2.7373 0.0001 -6.2644 0.0000
# 3 43.1338 -2.7373 96.4372 0.0006 1.5480 0.0002
# 4 0.0000 0.0001 0.0006 -7.6334 -0.0001 -5.0180
# 5 0.4315 -6.2644 1.5480 -0.0001 46.4494 0.0000
# 6 0.0000 0.0000 0.0002 -5.0180 0.0000 41.9521
#
#
#
# Elastic Compliance Matrix: (Units=1/GPa)
#
#
# Indices 1 2 3 4 5 6 
#
# 1 0.013875 -0.006834 -0.006387 -0.000001 -0.000838 0.000000
# 2 -0.006834 0.020643 0.003599 0.000001 0.002728 0.000000
# 3 -0.006387 0.003599 0.013327 0.000001 0.000101 0.000000
# 4 -0.000001 0.000001 0.000001 -0.121453 0.000000 -0.014527
# 5 -0.000838 0.002728 0.000101 0.000000 0.021901 0.000000
# 6 0.000000 0.000000 0.000000 -0.014527 0.000000 0.022099
#
#
# Mechanical properties :
#
#
# Convention : Reuss Voigt Hill
#
# Bulk Modulus (GPa) = 34.96335 44.00743 39.48539
# Shear Modulus (GPa) = -6027.85993 29.01483 -2999.42255
#
# Velocity S-wave (km/s) = -52.21073 3.62233 -36.82960
# Velocity P-wave (km/s) = 60.15648 6.11526 42.31670
#
# Compressibility (1/GPa) = 0.02860138
#
# Stress axis : x y z
#
# Youngs Moduli (GPa) = 72.06996 48.44146 75.03816
#
# Poissons Ratio (x) = 0.33107 0.47924
# Poissons Ratio (y) = 0.49255 -0.27006
# Poissons Ratio (z) = 0.46028 -0.17434
#
# Static dielectric constant tensor:
#      x y z
#    x 4.521000 0.000000 -0.097110 
#    y 0.000000 3.912940 0.000000 
#    z -0.097110 0.000000 4.448880 
# 
# 
# High freq. dielectric constant tensor:
#      x y z
#    x 1.888980 0.000000 0.002430 
#    y 0.000000 1.844950 0.000000 
#    z 0.002430 0.000000 1.890130 
# 
# From -- ./inp_files/29274.got.cif
#   From: 2010.06.25/outbox.cif.g09.slc.cpg/sg9_15_cif.got.tgz:29274.got - 2010.06.27 21:40:51.
