data_PCOD8056665
_publ_section_title
;
Structure prediction by ZEFSAII (Michael W. Deem and Ramdas Pophale) SiO2 
 PCOD8056665
Probable space group: C C
;
_chemical_formula_sum "Si O2"
_cell_formula_units_Z 20
_cell_length_a 7.206680
_cell_length_b 24.822848
_cell_length_c 7.350675
_cell_angle_alpha 90.000000
_cell_angle_beta 39.651055
_cell_angle_gamma 90.000000
_cell_volume 839.092499
_symmetry_space_group_name_H-M "C C"
_symmetry_group_IT_number 9
_symmetry_cell_setting 'monoclinic'
loop_
_space_group_symop_operation_xyz
x,y,z
x,-y,1/2+z
1/2+x,1/2+y,z
1/2+x,1/2-y,1/2+z
loop_
_atom_site_type_symbol
_atom_site_label
_atom_site_fract_x
_atom_site_fract_y
_atom_site_fract_z
Si Si1 0.133830 0.960826 0.169670
Si Si2 0.052089 0.527461 0.659759
Si Si3 0.098832 0.847689 0.039773
Si Si4 0.244769 0.785826 0.282834
Si Si5 0.994489 0.638355 0.890175
O O1 0.444551 0.951994 0.044905
O O2 0.018853 0.902084 0.208365
O O3 0.859184 0.996726 0.445286
O O4 0.263248 0.990863 0.899103
O O5 0.058521 0.575368 0.803182
O O6 0.199431 0.803703 0.108804
O O7 0.795441 0.828765 0.180385
O O8 0.328281 0.855862 0.705984
O O9 0.333277 0.836702 0.338584
O O10 0.969046 0.763019 0.598252
#
# Coordination Sequence:
#
# PCOD8056665 Si02
#       5
#     4   4   4   4   4
#     4  12  24  42  68 104 148 191 239 293 355 435
#     4  12  24  42  68 104 148 191 239 293 355 435
#     4  12  26  47  74 106 148 189 243 302 363 434
#     4  12  28  50  76 106 144 190 246 308 366 424
#     4  12  26  47  74 106 148 189 243 302 363 434
#
# _framework density 23.835277000000001
#
# number of rings (size 3 to 8) (size 9 to 14) (size 15 to 20)
#    0.000    0.000    2.000    9.600    0.000    4.800 
#    0.000    0.000    0.000    0.000    0.000    0.000 
#    0.000    0.000    0.000    0.000    0.000    0.000 
#
# Total GULP energy -123916.660385 kJ/mol
# GULP energy per Si atom -12391.666038 kJ/mol
# Density = 2.378103 g / cm^3
# Si number density = 23.835277 Si / 1000 Ang^3
#
#
#
# Elastic Constant Matrix: (Units=GPa)
#
#
# Indices 1 2 3 4 5 6 
#
# 1 104.6334 13.8318 23.4650 0.0000 -16.6579 0.0000
# 2 13.8318 71.0906 22.9471 0.0000 -1.0642 0.0000
# 3 23.4650 22.9471 115.2061 0.0000 -8.6366 0.0000
# 4 0.0000 0.0000 0.0000 43.3689 0.0000 -11.4922
# 5 -16.6579 -1.0642 -8.6366 0.0000 40.7600 0.0000
# 6 0.0000 0.0000 0.0000 -11.4922 0.0000 41.4742
#
#
#
# Elastic Compliance Matrix: (Units=1/GPa)
#
#
# Indices 1 2 3 4 5 6 
#
# 1 0.010754 -0.001520 -0.001586 0.000000 0.004019 0.000000
# 2 -0.001520 0.015250 -0.002789 0.000000 -0.000814 0.000000
# 3 -0.001586 -0.002789 0.009658 0.000000 0.001325 0.000000
# 4 0.000000 0.000000 0.000000 0.024885 0.000000 0.006896
# 5 0.004019 -0.000814 0.001325 0.000000 0.026436 0.000000
# 6 0.000000 0.000000 0.000000 0.006896 0.000000 0.026022
#
#
# Mechanical properties :
#
#
# Convention : Reuss Voigt Hill
#
# Bulk Modulus (GPa) = 41.89113 45.71311 43.80212
# Shear Modulus (GPa) = 37.66383 40.49969 39.08176
#
# Velocity S-wave (km/s) = 3.97945 4.12655 4.05367
# Velocity P-wave (km/s) = 6.22319 6.47494 6.35032
#
# Compressibility (1/GPa) = 0.02387140
#
# Stress axis : x y z
#
# Youngs Moduli (GPa) = 92.99128 65.57200 103.54042
#
# Poissons Ratio (x) = 0.09968 0.16424
# Poissons Ratio (y) = 0.14136 0.28878
# Poissons Ratio (z) = 0.14750 0.18288
#
# Static dielectric constant tensor:
#      x y z
#    x 4.492710 0.000000 -0.079770 
#    y 0.000000 4.064490 0.000000 
#    z -0.079770 0.000000 4.172050 
# 
# 
# High freq. dielectric constant tensor:
#      x y z
#    x 1.972640 0.000000 -0.004380 
#    y 0.000000 1.936510 0.000000 
#    z -0.004380 0.000000 1.952140 
# 
# From -- ./inp_files/6194.got.cif
#   From: 2010.06.25/outbox.cif.g09.slc.cpg/sg9_4_cif.got.tgz:6194.got - 2010.06.27 21:40:51.
