data_PCOD8056420
_publ_section_title
;
Structure prediction by ZEFSAII (Michael W. Deem and Ramdas Pophale) SiO2 
 PCOD8056420
Probable space group: C C
;
_chemical_formula_sum "Si O2"
_cell_formula_units_Z 32
_cell_length_a 11.746474
_cell_length_b 8.811062
_cell_length_c 13.976807
_cell_angle_alpha 90.000000
_cell_angle_beta 93.403629
_cell_angle_gamma 90.000000
_cell_volume 1444.032625
_symmetry_space_group_name_H-M "C C"
_symmetry_group_IT_number 9
_symmetry_cell_setting 'monoclinic'
loop_
_space_group_symop_operation_xyz
x,y,z
x,-y,1/2+z
1/2+x,1/2+y,z
1/2+x,1/2-y,1/2+z
loop_
_atom_site_type_symbol
_atom_site_label
_atom_site_fract_x
_atom_site_fract_y
_atom_site_fract_z
Si Si1 0.595150 0.774175 0.086720
Si Si2 0.746476 0.534546 0.036200
Si Si3 0.905563 0.945532 0.209732
Si Si4 0.158205 0.459498 0.473969
Si Si5 0.346303 0.287329 0.575656
Si Si6 0.069887 0.936213 0.874870
Si Si7 0.459740 0.246039 0.027249
Si Si8 0.171641 0.344413 0.281357
O O1 0.671730 0.624673 0.112057
O O2 0.470933 0.742400 0.038589
O O3 0.586555 0.864537 0.186876
O O4 0.664033 0.870072 0.011812
O O5 0.780982 0.373553 0.085125
O O6 0.658453 0.530856 0.943127
O O7 0.854871 0.631597 0.008671
O O8 0.801627 0.858391 0.253759
O O9 0.861268 0.113262 0.173538
O O10 0.952070 0.846239 0.123112
O O11 0.006515 0.962832 0.291917
O O12 0.282771 0.386182 0.492823
O O13 0.134104 0.467876 0.359266
O O14 0.071225 0.361626 0.534435
O O15 0.153602 0.817446 0.828848
O O16 0.972824 0.856797 0.936394
#
# Coordination Sequence:
#
# PCOD8056420 Si02
#       8
#     4   4   4   4   4   4   4   4
#     4  12  25  47  71 105 146 190 242 301 365 426
#     4  12  25  46  73 104 143 192 239 300 368 433
#     4  12  26  45  77 103 145 196 242 304 371 434
#     4  11  25  48  71 102 149 191 238 301 361 431
#     4  12  24  44  73 101 139 190 235 298 365 426
#     4  11  27  46  70 109 149 183 245 305 361 441
#     4  11  24  49  72 106 145 193 247 297 372 436
#     4  11  24  45  71 106 142 187 248 294 353 445
#
# _framework density 22.160163000000001
#
# number of rings (size 3 to 8) (size 9 to 14) (size 15 to 20)
#    0.000    0.500    7.500    0.750    5.250    0.000 
#    6.750    2.500    0.000    0.000    0.000    0.000 
#    0.000    0.000    0.000    0.000    0.000    0.000 
#
# Total GULP energy -198323.110563 kJ/mol
# GULP energy per Si atom -12395.194410 kJ/mol
# Density = 2.210973 g / cm^3
# Si number density = 22.160163 Si / 1000 Ang^3
#
#
#
# Elastic Constant Matrix: (Units=GPa)
#
#
# Indices 1 2 3 4 5 6 
#
# 1 126.0951 56.9441 57.2318 0.0000 10.4060 0.0000
# 2 56.9441 92.6975 43.6192 0.0000 -2.1813 0.0000
# 3 57.2318 43.6192 119.7403 0.0000 -4.9611 0.0000
# 4 0.0000 0.0000 0.0000 27.1144 0.0000 6.2832
# 5 10.4060 -2.1813 -4.9611 0.0000 37.6430 0.0000
# 6 0.0000 0.0000 0.0000 6.2832 0.0000 39.2616
#
#
#
# Elastic Compliance Matrix: (Units=1/GPa)
#
#
# Indices 1 2 3 4 5 6 
#
# 1 0.012937 -0.006102 -0.004146 0.000000 -0.004476 0.000000
# 2 -0.006102 0.015898 -0.002782 0.000000 0.002241 0.000000
# 3 -0.004146 -0.002782 0.011450 0.000000 0.002494 0.000000
# 4 0.000000 0.000000 0.000000 0.038301 0.000000 -0.006130
# 5 -0.004476 0.002241 0.002494 0.000000 0.028261 0.000000
# 6 0.000000 0.000000 0.000000 -0.006130 0.000000 0.026451
#
#
# Mechanical properties :
#
#
# Convention : Reuss Voigt Hill
#
# Bulk Modulus (GPa) = 70.29834 72.68034 71.48934
# Shear Modulus (GPa) = 30.46906 32.85298 31.66102
#
# Velocity S-wave (km/s) = 3.71205 3.85453 3.78396
# Velocity P-wave (km/s) = 7.08267 7.25802 7.17088
#
# Compressibility (1/GPa) = 0.01422509
#
# Stress axis : x y z
#
# Youngs Moduli (GPa) = 77.29541 62.90140 87.33606
#
# Poissons Ratio (x) = 0.38380 0.36213
# Poissons Ratio (y) = 0.47163 0.24297
# Poissons Ratio (z) = 0.32050 0.17500
#
# Static dielectric constant tensor:
#      x y z
#    x 4.141090 0.000000 0.041130 
#    y 0.000000 4.198530 0.000000 
#    z 0.041130 0.000000 4.123730 
# 
# 
# High freq. dielectric constant tensor:
#      x y z
#    x 1.885340 0.000000 0.001520 
#    y 0.000000 1.875920 0.000000 
#    z 0.001520 0.000000 1.864360 
# 
# From -- ./inp_files/24247.got.cif
#   From: 2010.06.25/outbox.cif.g09.slc.cpg/sg9_13_cif.got.tgz:24247.got - 2010.06.27 21:40:51.
