data_PCOD8056987
_publ_section_title
;
Structure prediction by ZEFSAII (Michael W. Deem and Ramdas Pophale) SiO2 
 PCOD8056987
Probable space group: P 2/M
;
_chemical_formula_sum "Si O2"
_cell_formula_units_Z 28
_cell_length_a 16.625518
_cell_length_b 8.553502
_cell_length_c 21.571531
_cell_angle_alpha 90.000000
_cell_angle_beta 148.616937
_cell_angle_gamma 90.000000
_cell_volume 1597.480177
_symmetry_space_group_name_H-M "P 2/M"
_symmetry_group_IT_number 10
_symmetry_cell_setting 'monoclinic'
loop_
_space_group_symop_operation_xyz
x,y,z
-x,y,-z
-x,-y,-z
x,-y,z
loop_
_atom_site_type_symbol
_atom_site_label
_atom_site_fract_x
_atom_site_fract_y
_atom_site_fract_z
Si Si1 0.372309 0.181660 0.838558
Si Si2 0.275059 0.818544 0.345089
Si Si3 0.823639 0.316445 0.399197
Si Si4 0.494800 0.319039 0.405579
Si Si5 0.754354 0.315229 0.490099
Si Si6 0.309436 0.316982 0.926611
Si Si7 0.972690 0.315096 0.742984
O O1 0.285485 0.223440 0.718799
O O2 0.299141 0.279459 0.846825
O O3 0.354471 0.000000 0.841868
O O4 0.553077 0.222772 0.950046
O O5 0.378545 0.712559 0.458164
O O6 0.336888 0.778434 0.315941
O O7 0.098067 0.767475 0.241720
O O8 0.299489 0.000000 0.374946
O O9 0.787998 0.500000 0.370289
O O10 0.786504 0.248195 0.443030
O O11 0.000000 0.278989 0.500000
O O12 0.450487 0.500000 0.375199
O O13 0.579546 0.269451 0.396955
O O14 0.773329 0.500000 0.500669
O O15 0.881842 0.250655 0.622475
O O16 0.340118 0.500000 0.954762
O O17 0.150751 0.265563 0.854968
O O18 0.954702 0.500000 0.737561
#
# Coordination Sequence:
#
# PCOD8056987 Si02
#       7
#     4   4   4   4   4   4   4
#     4  11  22  34  48  70 100 127 153 191 241 285
#     4  10  17  24  38  63  93 122 151 185 231 283
#     4  10  19  33  52  71  93 124 163 200 230 271
#     4   9  15  26  41  58  87 124 160 194 227 268
#     4   8  15  27  45  68  91 119 156 196 233 267
#     4  10  19  34  55  72  89 121 164 200 230 273
#     4   9  17  30  48  70  93 119 154 194 235 275
#
# _framework density 17.527605000000001
#
# number of rings (size 3 to 8) (size 9 to 14) (size 15 to 20)
#    0.000    2.429    0.000    6.857    0.000    3.714 
#    0.000    3.571    0.000    0.000    0.000    1.000 
#    0.000    8.000    0.000    0.000    0.000    0.000 
#
# Total GULP energy -347041.208937 kJ/mol
# GULP energy per Si atom -12394.328891 kJ/mol
# Density = 1.748771 g / cm^3
# Si number density = 17.527605 Si / 1000 Ang^3
#
#
#
# Elastic Constant Matrix: (Units=GPa)
#
#
# Indices 1 2 3 4 5 6 
#
# 1 134.5610 28.5700 49.1817 0.0000 30.7880 0.0000
# 2 28.5700 40.8448 22.9579 0.0000 9.7181 0.0000
# 3 49.1817 22.9579 68.6520 0.0000 13.3048 0.0000
# 4 0.0000 0.0000 0.0000 9.5830 0.0000 1.3181
# 5 30.7880 9.7181 13.3048 0.0000 29.2333 0.0000
# 6 0.0000 0.0000 0.0000 1.3181 0.0000 10.7198
#
#
#
# Elastic Compliance Matrix: (Units=1/GPa)
#
#
# Indices 1 2 3 4 5 6 
#
# 1 0.012434 -0.003066 -0.006078 0.000000 -0.009310 0.000000
# 2 -0.003066 0.031883 -0.007718 0.000000 -0.003857 0.000000
# 3 -0.006078 -0.007718 0.021676 0.000000 -0.000898 0.000000
# 4 0.000000 0.000000 0.000000 0.106147 0.000000 -0.013052
# 5 -0.009310 -0.003857 -0.000898 0.000000 0.045704 0.000000
# 6 0.000000 0.000000 0.000000 -0.013052 0.000000 0.094890
#
#
# Mechanical properties :
#
#
# Convention : Reuss Voigt Hill
#
# Bulk Modulus (GPa) = 30.98981 49.49747 40.24364
# Shear Modulus (GPa) = 13.99718 19.46376 16.73047
#
# Velocity S-wave (km/s) = 2.82898 3.33598 3.09288
# Velocity P-wave (km/s) = 5.32821 6.56806 5.98035
#
# Compressibility (1/GPa) = 0.03226867
#
# Stress axis : x y z
#
# Youngs Moduli (GPa) = 80.42299 31.36425 46.13467
#
# Poissons Ratio (x) = 0.09616 0.28042
# Poissons Ratio (y) = 0.24657 0.35608
# Poissons Ratio (z) = 0.48883 0.24207
#
# Static dielectric constant tensor:
#      x y z
#    x 3.885150 0.000000 0.338080 
#    y 0.000000 3.060570 0.000000 
#    z 0.338080 0.000000 2.991820 
# 
# 
# High freq. dielectric constant tensor:
#      x y z
#    x 1.686960 0.000000 0.031960 
#    y 0.000000 1.669090 0.000000 
#    z 0.031960 0.000000 1.630830 
# 
# From -- ./inp_files/89886.got.cif
#   From: 2010.06.25/outbox.cif.g09.slc.cpg/sg10_45_cif.got.tgz:89886.got - 2010.06.27 22:07:45.
