data_PCOD8056386
_publ_section_title
;
Structure prediction by ZEFSAII (Michael W. Deem and Ramdas Pophale) SiO2 
 PCOD8056386
Probable space group: C C
;
_chemical_formula_sum "Si O2"
_cell_formula_units_Z 32
_cell_length_a 5.061304
_cell_length_b 23.945017
_cell_length_c 11.818175
_cell_angle_alpha 90.000000
_cell_angle_beta 95.257389
_cell_angle_gamma 90.000000
_cell_volume 1426.254772
_symmetry_space_group_name_H-M "C C"
_symmetry_group_IT_number 9
_symmetry_cell_setting 'monoclinic'
loop_
_space_group_symop_operation_xyz
x,y,z
x,-y,1/2+z
1/2+x,1/2+y,z
1/2+x,1/2-y,1/2+z
loop_
_atom_site_type_symbol
_atom_site_label
_atom_site_fract_x
_atom_site_fract_y
_atom_site_fract_z
Si Si1 0.488000 0.059582 0.221090
Si Si2 0.742016 0.808061 0.546801
Si Si3 0.160162 0.986709 0.384020
Si Si4 0.248040 0.122755 0.011307
Si Si5 0.712663 0.309473 0.939237
Si Si6 0.246987 0.542117 0.698653
Si Si7 0.678030 0.169042 0.302818
Si Si8 0.224461 0.921127 0.077752
O O1 0.318078 0.015210 0.286939
O O2 0.666263 0.101022 0.305204
O O3 0.682259 0.021282 0.149739
O O4 0.298532 0.098668 0.139260
O O5 0.465019 0.830873 0.487574
O O6 0.782537 0.744227 0.515364
O O7 0.743928 0.808512 0.681904
O O8 0.964576 0.847539 0.500991
O O9 0.181796 0.026701 0.492568
O O10 0.276677 0.926426 0.421310
O O11 0.858045 0.972430 0.329950
O O12 0.404887 0.309877 0.895289
O O13 0.895306 0.307820 0.834578
O O14 0.774998 0.364498 0.013136
O O15 0.457045 0.579427 0.639990
O O16 0.968159 0.574512 0.675762
#
# Coordination Sequence:
#
# PCOD8056386 Si02
#       8
#     4   4   4   4   4   4   4   4
#     4  11  24  43  71 103 145 181 240 277 343 438
#     4  11  27  49  70 102 139 183 237 298 335 413
#     4  12  25  43  72 103 144 186 222 288 360 422
#     4  11  26  44  72 100 143 182 234 284 350 422
#     4  12  25  50  73 100 138 181 245 286 348 409
#     4  12  26  42  63 106 147 172 229 280 363 402
#     4  11  24  44  77 102 127 193 236 281 346 422
#     4  12  27  43  70 106 135 188 229 294 337 426
#
# _framework density 22.436384
#
# number of rings (size 3 to 8) (size 9 to 14) (size 15 to 20)
#    0.000    0.500    3.750    3.750   10.500    0.000 
#    6.750    0.000    0.000    0.000    0.000    0.000 
#    0.000    0.000    0.000    0.000    0.000    0.000 
#
# Total GULP energy -198300.751358 kJ/mol
# GULP energy per Si atom -12393.796960 kJ/mol
# Density = 2.238532 g / cm^3
# Si number density = 22.436384 Si / 1000 Ang^3
#
#
#
# Elastic Constant Matrix: (Units=GPa)
#
#
# Indices 1 2 3 4 5 6 
#
# 1 113.9609 33.4414 26.7892 0.0000 -0.0718 0.0000
# 2 33.4414 130.9559 37.4832 0.0000 -0.9489 0.0000
# 3 26.7892 37.4832 58.5208 0.0000 11.6720 0.0000
# 4 0.0000 0.0000 0.0000 35.8196 0.0000 2.1995
# 5 -0.0718 -0.9489 11.6720 0.0000 34.5357 0.0000
# 6 0.0000 0.0000 0.0000 2.1995 0.0000 32.0985
#
#
#
# Elastic Compliance Matrix: (Units=1/GPa)
#
#
# Indices 1 2 3 4 5 6 
#
# 1 0.010134 -0.001438 -0.003983 0.000000 0.001328 0.000000
# 2 -0.001438 0.009751 -0.006048 0.000000 0.002309 0.000000
# 3 -0.003983 -0.006048 0.024469 0.000000 -0.008444 0.000000
# 4 0.000000 0.000000 0.000000 0.028036 0.000000 -0.001921
# 5 0.001328 0.002309 -0.008444 0.000000 0.031876 0.000000
# 6 0.000000 0.000000 0.000000 -0.001921 0.000000 0.031286
#
#
# Mechanical properties :
#
#
# Convention : Reuss Voigt Hill
#
# Bulk Modulus (GPa) = 46.69252 55.42947 51.06099
# Shear Modulus (GPa) = 30.18814 34.20567 32.19690
#
# Velocity S-wave (km/s) = 3.67208 3.90880 3.79229
# Velocity P-wave (km/s) = 6.23179 6.71792 6.47941
#
# Compressibility (1/GPa) = 0.02141671
#
# Stress axis : x y z
#
# Youngs Moduli (GPa) = 98.67719 102.55084 40.86796
#
# Poissons Ratio (x) = 0.14750 0.16276
# Poissons Ratio (y) = 0.14193 0.24717
# Poissons Ratio (z) = 0.39299 0.62022
#
# Static dielectric constant tensor:
#      x y z
#    x 4.252190 0.000000 0.191210 
#    y 0.000000 4.106610 0.000000 
#    z 0.191210 0.000000 4.024790 
# 
# 
# High freq. dielectric constant tensor:
#      x y z
#    x 1.897810 0.000000 0.010680 
#    y 0.000000 1.884000 0.000000 
#    z 0.010680 0.000000 1.873710 
# 
# From -- ./inp_files/13673.got.cif
#   From: 2010.06.25/outbox.cif.g09.slc.cpg/sg9_7_cif.got.tgz:13673.got - 2010.06.27 21:40:51.
