data_PCOD8056398
_publ_section_title
;
Structure prediction by ZEFSAII (Michael W. Deem and Ramdas Pophale) SiO2 
 PCOD8056398
Probable space group: C C
;
_chemical_formula_sum "Si O2"
_cell_formula_units_Z 32
_cell_length_a 17.773549
_cell_length_b 6.410370
_cell_length_c 13.065086
_cell_angle_alpha 90.000000
_cell_angle_beta 65.748221
_cell_angle_gamma 90.000000
_cell_volume 1357.203466
_symmetry_space_group_name_H-M "C C"
_symmetry_group_IT_number 9
_symmetry_cell_setting 'monoclinic'
loop_
_space_group_symop_operation_xyz
x,y,z
x,-y,1/2+z
1/2+x,1/2+y,z
1/2+x,1/2-y,1/2+z
loop_
_atom_site_type_symbol
_atom_site_label
_atom_site_fract_x
_atom_site_fract_y
_atom_site_fract_z
Si Si1 0.011630 0.386405 0.719930
Si Si2 0.620350 0.635927 0.799367
Si Si3 0.534149 0.214446 0.872552
Si Si4 0.094255 0.580341 0.490977
Si Si5 0.801209 0.745936 0.658162
Si Si6 0.763298 0.035360 0.495491
Si Si7 0.359866 0.395679 0.255040
Si Si8 0.365404 0.832870 0.554162
O O1 0.095122 0.279662 0.716503
O O2 0.989147 0.568939 0.812779
O O3 0.019885 0.506677 0.606568
O O4 0.946521 0.196515 0.747614
O O5 0.580024 0.411579 0.798642
O O6 0.580753 0.709190 0.931359
O O7 0.720046 0.634984 0.753397
O O8 0.605375 0.096621 0.897377
O O9 0.457655 0.262283 0.991319
O O10 0.171660 0.605624 0.520930
O O11 0.859661 0.583269 0.564993
O O12 0.765114 0.908865 0.598577
O O13 0.857874 0.865372 0.711293
O O14 0.813273 0.249859 0.486361
O O15 0.798758 0.892798 0.385024
O O16 0.327529 0.246339 0.183133
#
# Coordination Sequence:
#
# PCOD8056398 Si02
#       8
#     4   4   4   4   4   4   4   4
#     4  11  24  47  73 103 140 190 236 299 364 441
#     4  11  25  44  74 105 141 189 240 302 363 430
#     4  11  26  46  70 103 145 187 246 294 365 436
#     4  11  24  45  67 106 141 184 240 297 360 428
#     4  11  25  43  73 106 142 187 243 297 365 433
#     4  11  24  44  69 100 148 180 238 298 357 430
#     4  11  24  46  72 102 143 190 239 296 364 431
#     4  11  26  45  66 105 140 191 236 299 358 433
#
# _framework density 23.577895999999999
#
# number of rings (size 3 to 8) (size 9 to 14) (size 15 to 20)
#    0.000    1.000    3.750    1.500    3.500    8.000 
#    2.250    0.000    0.000    0.000    0.000    0.000 
#    0.000    0.000    0.000    0.000    0.000    0.000 
#
# Total GULP energy -198254.430204 kJ/mol
# GULP energy per Si atom -12390.901888 kJ/mol
# Density = 2.352423 g / cm^3
# Si number density = 23.577896 Si / 1000 Ang^3
#
#
#
# Elastic Constant Matrix: (Units=GPa)
#
#
# Indices 1 2 3 4 5 6 
#
# 1 90.2326 47.4815 17.8830 0.0000 9.4331 0.0001
# 2 47.4815 115.1290 26.8890 0.0007 -0.6058 0.0017
# 3 17.8830 26.8890 87.1745 0.0001 8.6154 0.0001
# 4 0.0000 0.0007 0.0001 39.0028 0.0000 5.2860
# 5 9.4331 -0.6058 8.6154 0.0000 37.2866 0.0001
# 6 0.0001 0.0017 0.0001 5.2860 0.0001 40.4421
#
#
#
# Elastic Compliance Matrix: (Units=1/GPa)
#
#
# Indices 1 2 3 4 5 6 
#
# 1 0.014733 -0.005898 -0.000845 0.000000 -0.003628 0.000000
# 2 -0.005898 0.011747 -0.002640 0.000000 0.002293 0.000000
# 3 -0.000845 -0.002640 0.012733 0.000000 -0.002771 0.000000
# 4 0.000000 0.000000 0.000000 0.026102 0.000000 -0.003412
# 5 -0.003628 0.002293 -0.002771 0.000000 0.028415 0.000000
# 6 0.000000 0.000000 0.000000 -0.003412 0.000000 0.025173
#
#
# Mechanical properties :
#
#
# Convention : Reuss Voigt Hill
#
# Bulk Modulus (GPa) = 48.90602 53.00478 50.95540
# Shear Modulus (GPa) = 34.60641 36.69848 35.65245
#
# Velocity S-wave (km/s) = 3.83528 3.94950 3.89281
# Velocity P-wave (km/s) = 6.35608 6.58237 6.47022
#
# Compressibility (1/GPa) = 0.02044738
#
# Stress axis : x y z
#
# Youngs Moduli (GPa) = 67.87655 85.12828 78.53793
#
# Poissons Ratio (x) = 0.50208 0.06633
# Poissons Ratio (y) = 0.40033 0.20735
# Poissons Ratio (z) = 0.05732 0.22475
#
# Static dielectric constant tensor:
#      x y z
#    x 4.142590 0.000000 0.250290 
#    y 0.000000 4.173570 0.000000 
#    z 0.250290 0.000000 4.278380 
# 
# 
# High freq. dielectric constant tensor:
#      x y z
#    x 1.929960 0.000000 0.017130 
#    y 0.000000 1.924710 0.000000 
#    z 0.017130 0.000000 1.937360 
# 
# From -- ./inp_files/19796.got.cif
#   From: 2010.06.25/outbox.cif.g09.slc.cpg/sg9_10_cif.got.tgz:19796.got - 2010.06.27 21:40:51.
