data_PCOD8056089
_publ_section_title
;
Structure prediction by ZEFSAII (Michael W. Deem and Ramdas Pophale) SiO2 
 PCOD8056089
Probable space group: C C
;
_chemical_formula_sum "Si O2"
_cell_formula_units_Z 32
_cell_length_a 14.655542
_cell_length_b 8.746844
_cell_length_c 22.547266
_cell_angle_alpha 90.000000
_cell_angle_beta 148.947180
_cell_angle_gamma 90.000000
_cell_volume 1490.912377
_symmetry_space_group_name_H-M "C C"
_symmetry_group_IT_number 9
_symmetry_cell_setting 'monoclinic'
loop_
_space_group_symop_operation_xyz
x,y,z
x,-y,1/2+z
1/2+x,1/2+y,z
1/2+x,1/2-y,1/2+z
loop_
_atom_site_type_symbol
_atom_site_label
_atom_site_fract_x
_atom_site_fract_y
_atom_site_fract_z
Si Si1 0.639940 0.533050 0.133140
Si Si2 0.412580 0.140430 0.918850
Si Si3 0.197850 0.893866 0.531140
Si Si4 0.564245 0.676747 0.392324
Si Si5 0.687499 0.187159 0.173230
Si Si6 0.090317 0.343113 0.745030
Si Si7 0.359913 0.194846 0.348958
Si Si8 0.245693 0.616336 0.896324
O O1 0.691816 0.537631 0.093500
O O2 0.699652 0.370707 0.194205
O O3 0.734157 0.670119 0.221886
O O4 0.430804 0.551481 0.022175
O O5 0.500038 0.242034 0.916613
O O6 0.215358 0.196665 0.828061
O O7 0.419259 0.964721 0.908054
O O8 0.533497 0.156870 0.042905
O O9 0.382095 0.801588 0.627159
O O10 0.036481 0.781619 0.427056
O O11 0.186656 0.032868 0.477589
O O12 0.379620 0.628302 0.256972
O O13 0.669331 0.788578 0.408167
O O14 0.645278 0.096325 0.210411
O O15 0.119295 0.473923 0.810514
O O16 0.257876 0.283667 0.343763
#
# Coordination Sequence:
#
# PCOD8056089 Si02
#       8
#     4   4   4   4   4   4   4   4
#     4  11  21  45  69  93 139 179 224 286 339 400
#     4  11  23  44  69  99 132 179 229 275 347 402
#     4  11  26  44  67 101 136 181 226 282 341 406
#     4  11  24  44  68  97 130 185 225 274 341 406
#     4  11  21  43  70  95 135 178 225 280 337 409
#     4  11  24  43  70  98 135 179 225 275 342 406
#     4  11  25  43  65 103 135 176 226 282 344 402
#     4  11  26  42  68 102 136 179 226 284 339 409
#
# _framework density 21.463365
#
# number of rings (size 3 to 8) (size 9 to 14) (size 15 to 20)
#    0.000    1.000    5.000    3.000    3.500    5.000 
#    2.250    0.000    0.000    0.000    0.000    0.000 
#    0.000    0.000    0.000    0.000    0.000    0.000 
#
# Total GULP energy -198386.573797 kJ/mol
# GULP energy per Si atom -12399.160862 kJ/mol
# Density = 2.141451 g / cm^3
# Si number density = 21.463365 Si / 1000 Ang^3
#
#
#
# Elastic Constant Matrix: (Units=GPa)
#
#
# Indices 1 2 3 4 5 6 
#
# 1 71.5828 16.9615 36.6816 -0.0001 4.0282 0.0000
# 2 16.9615 80.0946 15.5016 0.0000 -10.6030 0.0000
# 3 36.6816 15.5016 124.7241 0.0008 -3.7348 -0.0001
# 4 -0.0001 0.0000 0.0008 37.3040 0.0001 -5.0927
# 5 4.0282 -10.6030 -3.7348 0.0001 31.4183 0.0000
# 6 0.0000 0.0000 -0.0001 -5.0927 0.0000 30.6987
#
#
#
# Elastic Compliance Matrix: (Units=1/GPa)
#
#
# Indices 1 2 3 4 5 6 
#
# 1 0.017448 -0.003277 -0.004842 0.000000 -0.003918 0.000000
# 2 -0.003277 0.013969 -0.000621 0.000000 0.005061 0.000000
# 3 -0.004842 -0.000621 0.009565 0.000000 0.001548 0.000000
# 4 0.000000 0.000000 0.000000 0.027428 0.000000 0.004550
# 5 -0.003918 0.005061 0.001548 0.000000 0.034223 0.000000
# 6 0.000000 0.000000 0.000000 0.004550 0.000000 0.033329
#
#
# Mechanical properties :
#
#
# Convention : Reuss Voigt Hill
#
# Bulk Modulus (GPa) = 42.54610 46.07676 44.31143
# Shear Modulus (GPa) = 31.00293 33.70131 32.35212
#
# Velocity S-wave (km/s) = 3.80473 3.96685 3.88663
# Velocity P-wave (km/s) = 6.25835 6.51885 6.38993
#
# Compressibility (1/GPa) = 0.02350392
#
# Stress axis : x y z
#
# Youngs Moduli (GPa) = 57.31423 71.58591 104.54630
#
# Poissons Ratio (x) = 0.23455 0.50616
# Poissons Ratio (y) = 0.18779 0.06492
# Poissons Ratio (z) = 0.27749 0.04446
#
# Static dielectric constant tensor:
#      x y z
#    x 3.812230 0.000000 0.005570 
#    y 0.000000 3.855300 0.000000 
#    z 0.005570 0.000000 4.298260 
# 
# 
# High freq. dielectric constant tensor:
#      x y z
#    x 1.834590 0.000000 -0.004410 
#    y 0.000000 1.833410 0.000000 
#    z -0.004410 0.000000 1.869910 
# 
# From -- ./inp_files/25719.got.cif
#   From: 2010.06.25/outbox.cif.g09.slc.cpg/sg9_13_cif.got.tgz:25719.got - 2010.06.27 21:40:51.
