data_PCOD8056376
_publ_section_title
;
Structure prediction by ZEFSAII (Michael W. Deem and Ramdas Pophale) SiO2 
 PCOD8056376
Probable space group: C C
;
_chemical_formula_sum "Si O2"
_cell_formula_units_Z 32
_cell_length_a 8.113861
_cell_length_b 22.468288
_cell_length_c 14.125765
_cell_angle_alpha 90.000000
_cell_angle_beta 147.861139
_cell_angle_gamma 90.000000
_cell_volume 1369.932374
_symmetry_space_group_name_H-M "C C"
_symmetry_group_IT_number 9
_symmetry_cell_setting 'monoclinic'
loop_
_space_group_symop_operation_xyz
x,y,z
x,-y,1/2+z
1/2+x,1/2+y,z
1/2+x,1/2-y,1/2+z
loop_
_atom_site_type_symbol
_atom_site_label
_atom_site_fract_x
_atom_site_fract_y
_atom_site_fract_z
Si Si1 0.442470 0.502009 0.501640
Si Si2 0.336382 0.190686 0.784739
Si Si3 0.928684 0.448662 0.876041
Si Si4 0.212895 0.686411 0.160318
Si Si5 0.662759 0.419541 0.929625
Si Si6 0.224018 0.801049 0.584845
Si Si7 0.664521 0.886649 0.300008
Si Si8 0.609902 0.818687 0.956860
O O1 0.722394 0.464460 0.684335
O O2 0.541597 0.548668 0.467788
O O3 0.217224 0.456698 0.339347
O O4 0.270410 0.530270 0.510366
O O5 0.414828 0.252653 0.767828
O O6 0.480475 0.135276 0.801356
O O7 0.972545 0.176492 0.610203
O O8 0.499188 0.189883 0.964878
O O9 0.772597 0.468446 0.901635
O O10 0.961549 0.379434 0.920901
O O11 0.408740 0.625386 0.261158
O O12 0.989225 0.689959 0.139057
O O13 0.958610 0.379986 0.105361
O O14 0.394028 0.803609 0.765064
O O15 0.061045 0.736306 0.504276
O O16 0.983856 0.852548 0.445340
#
# Coordination Sequence:
#
# PCOD8056376 Si02
#       8
#     4   4   4   4   4   4   4   4
#     4  12  27  54  71 109 151 197 258 322 362 449
#     4  11  24  45  75 106 157 192 244 307 383 451
#     4  12  28  49  79 107 150 201 258 309 380 443
#     4  11  24  46  72 112 148 199 242 308 381 454
#     4  12  29  49  78 109 149 202 257 312 382 445
#     4  11  24  42  73 107 154 189 243 306 377 445
#     4  12  26  46  74 106 144 200 243 316 372 448
#     4  11  24  45  72 112 151 196 241 310 375 453
#
# _framework density 23.358816999999998
#
# number of rings (size 3 to 8) (size 9 to 14) (size 15 to 20)
#    0.000    0.500    2.500    6.750    7.000    0.000 
#    2.250    0.000    0.000    0.000    0.000    0.000 
#    0.000    0.000    0.000    0.000    0.000    0.000 
#
# Total GULP energy -198228.725075 kJ/mol
# GULP energy per Si atom -12389.295317 kJ/mol
# Density = 2.330565 g / cm^3
# Si number density = 23.358817 Si / 1000 Ang^3
#
#
#
# Elastic Constant Matrix: (Units=GPa)
#
#
# Indices 1 2 3 4 5 6 
#
# 1 102.7823 31.4963 66.0205 0.0008 -18.7118 -0.0005
# 2 31.4963 107.5471 55.1098 -0.0002 -3.7384 0.0001
# 3 66.0205 55.1098 227.3072 0.0006 -45.5498 -0.0008
# 4 0.0008 -0.0002 0.0006 39.1260 0.0007 3.1646
# 5 -18.7118 -3.7384 -45.5498 0.0007 43.1999 -0.0006
# 6 -0.0005 0.0001 -0.0008 3.1646 -0.0006 24.4798
#
#
#
# Elastic Compliance Matrix: (Units=1/GPa)
#
#
# Indices 1 2 3 4 5 6 
#
# 1 0.012543 -0.002257 -0.002595 0.000000 0.002502 0.000000
# 2 -0.002257 0.011203 -0.002615 0.000000 -0.002765 0.000000
# 3 -0.002595 -0.002615 0.006994 0.000000 0.006024 0.000000
# 4 0.000000 0.000000 0.000000 0.025829 -0.000001 -0.003339
# 5 0.002502 -0.002765 0.006024 -0.000001 0.030345 0.000001
# 6 0.000000 0.000000 0.000000 -0.003339 0.000001 0.041282
#
#
# Mechanical properties :
#
#
# Convention : Reuss Voigt Hill
#
# Bulk Modulus (GPa) = 63.26001 82.54329 72.90165
# Shear Modulus (GPa) = 33.69360 40.36181 37.02770
#
# Velocity S-wave (km/s) = 3.80206 4.16132 3.98574
# Velocity P-wave (km/s) = 6.81285 7.64870 7.24284
#
# Compressibility (1/GPa) = 0.01580777
#
# Stress axis : x y z
#
# Youngs Moduli (GPa) = 79.72624 89.26249 142.97879
#
# Poissons Ratio (x) = 0.20145 0.37096
# Poissons Ratio (y) = 0.17993 0.37384
# Poissons Ratio (z) = 0.20685 0.23339
#
# Static dielectric constant tensor:
#      x y z
#    x 4.313330 0.000000 0.110630 
#    y 0.000000 4.582070 0.000000 
#    z 0.110630 0.000000 4.410170 
# 
# 
# High freq. dielectric constant tensor:
#      x y z
#    x 1.930990 0.000000 0.002070 
#    y 0.000000 1.924680 0.000000 
#    z 0.002070 0.000000 1.944940 
# 
# From -- ./inp_files/23845.got.cif
#   From: 2010.06.25/outbox.cif.g09.slc.cpg/sg9_12_cif.got.tgz:23845.got - 2010.06.27 21:40:51.
