data_PCOD8056632
_publ_section_title
;
Structure prediction by ZEFSAII (Michael W. Deem and Ramdas Pophale) SiO2 
 PCOD8056632
Probable space group: C C
;
_chemical_formula_sum "Si O2"
_cell_formula_units_Z 28
_cell_length_a 11.908137
_cell_length_b 19.578466
_cell_length_c 8.349402
_cell_angle_alpha 90.000000
_cell_angle_beta 142.237282
_cell_angle_gamma 90.000000
_cell_volume 1192.086895
_symmetry_space_group_name_H-M "C C"
_symmetry_group_IT_number 9
_symmetry_cell_setting 'monoclinic'
loop_
_space_group_symop_operation_xyz
x,y,z
x,-y,1/2+z
1/2+x,1/2+y,z
1/2+x,1/2-y,1/2+z
loop_
_atom_site_type_symbol
_atom_site_label
_atom_site_fract_x
_atom_site_fract_y
_atom_site_fract_z
Si Si1 0.030820 0.812660 0.301680
Si Si2 0.373839 0.815381 0.498668
Si Si3 0.343065 0.415243 0.298698
Si Si4 0.655505 0.786678 0.230093
Si Si5 0.721342 0.454641 0.823897
Si Si6 0.451414 0.062114 0.273947
Si Si7 0.847040 0.324862 0.108989
O O1 0.168153 0.836431 0.315584
O O2 0.123391 0.767779 0.550022
O O3 0.935891 0.883279 0.245403
O O4 0.883132 0.764143 0.051571
O O5 0.500567 0.863140 0.755429
O O6 0.433276 0.827855 0.382864
O O7 0.298393 0.346950 0.351565
O O8 0.499747 0.465211 0.553778
O O9 0.158779 0.461326 0.059637
O O10 0.725147 0.743011 0.460751
O O11 0.478996 0.824300 0.102448
O O12 0.808310 0.430505 0.755440
O O13 0.732339 0.394522 0.966263
O O14 0.848335 0.517306 0.023738
#
# Coordination Sequence:
#
# PCOD8056632 Si02
#       7
#     4   4   4   4   4   4   4
#     4  12  20  40  72 105 142 188 234 292 367 435
#     4  12  23  40  67 108 149 181 235 303 358 432
#     4  12  24  44  78 104 138 190 246 286 370 426
#     4  12  20  40  72 105 142 188 234 292 367 435
#     4  12  26  48  71 100 142 195 246 297 354 433
#     4  12  26  48  71 100 142 195 246 297 354 433
#     4  12  23  40  67 108 149 181 235 303 358 432
#
# _framework density 23.488222
#
# number of rings (size 3 to 8) (size 9 to 14) (size 15 to 20)
#    0.000    0.000    8.571    1.714    0.000    1.143 
#    0.000    0.000    0.000    0.000    0.000    0.000 
#    0.000    0.000    0.000    0.000    0.000    0.000 
#
# Total GULP energy -173438.860802 kJ/mol
# GULP energy per Si atom -12388.490057 kJ/mol
# Density = 2.343476 g / cm^3
# Si number density = 23.488222 Si / 1000 Ang^3
#
#
#
# Elastic Constant Matrix: (Units=GPa)
#
#
# Indices 1 2 3 4 5 6 
#
# 1 93.6877 -2.5970 26.7972 0.0000 0.9805 0.0000
# 2 -2.5970 58.9893 22.9202 0.0000 5.5242 0.0000
# 3 26.7972 22.9202 110.9670 0.0000 19.6882 0.0000
# 4 0.0000 0.0000 0.0000 43.2767 0.0000 4.5658
# 5 0.9805 5.5242 19.6882 0.0000 45.9196 0.0000
# 6 0.0000 0.0000 0.0000 4.5658 0.0000 20.9873
#
#
#
# Elastic Compliance Matrix: (Units=1/GPa)
#
#
# Indices 1 2 3 4 5 6 
#
# 1 0.011669 0.001723 -0.003347 0.000000 0.000979 0.000000
# 2 0.001723 0.018703 -0.004192 0.000000 -0.000489 0.000000
# 3 -0.003347 -0.004192 0.011455 0.000000 -0.004336 0.000000
# 4 0.000000 0.000000 0.000000 0.023650 0.000000 -0.005145
# 5 0.000979 -0.000489 -0.004336 0.000000 0.023674 0.000000
# 6 0.000000 0.000000 0.000000 -0.005145 0.000000 0.048767
#
#
# Mechanical properties :
#
#
# Convention : Reuss Voigt Hill
#
# Bulk Modulus (GPa) = 33.12044 39.76497 36.44271
# Shear Modulus (GPa) = 31.32516 36.47160 33.89838
#
# Velocity S-wave (km/s) = 3.65588 3.94478 3.80308
# Velocity P-wave (km/s) = 5.65262 6.14125 5.90199
#
# Compressibility (1/GPa) = 0.03019283
#
# Stress axis : x y z
#
# Youngs Moduli (GPa) = 85.69945 53.46797 87.29674
#
# Poissons Ratio (x) = -0.09211 0.29221
# Poissons Ratio (y) = -0.14763 0.36597
# Poissons Ratio (z) = 0.28686 0.22415
#
# Static dielectric constant tensor:
#      x y z
#    x 4.123580 0.000000 0.172460 
#    y 0.000000 4.124820 0.000000 
#    z 0.172460 0.000000 4.263910 
# 
# 
# High freq. dielectric constant tensor:
#      x y z
#    x 1.931200 0.000000 0.009900 
#    y 0.000000 1.914800 0.000000 
#    z 0.009900 0.000000 1.923320 
# 
# From -- ./inp_files/6123.got.cif
#   From: 2010.06.25/outbox.cif.g09.slc.cpg/sg9_4_cif.got.tgz:6123.got - 2010.06.27 21:40:51.
