data_PCOD8056377
_publ_section_title
;
Structure prediction by ZEFSAII (Michael W. Deem and Ramdas Pophale) SiO2 
 PCOD8056377
Probable space group: C C
;
_chemical_formula_sum "Si O2"
_cell_formula_units_Z 24
_cell_length_a 12.998341
_cell_length_b 9.061825
_cell_length_c 9.100526
_cell_angle_alpha 90.000000
_cell_angle_beta 83.524991
_cell_angle_gamma 90.000000
_cell_volume 1065.101297
_symmetry_space_group_name_H-M "C C"
_symmetry_group_IT_number 9
_symmetry_cell_setting 'monoclinic'
loop_
_space_group_symop_operation_xyz
x,y,z
x,-y,1/2+z
1/2+x,1/2+y,z
1/2+x,1/2-y,1/2+z
loop_
_atom_site_type_symbol
_atom_site_label
_atom_site_fract_x
_atom_site_fract_y
_atom_site_fract_z
Si Si1 0.065940 0.593062 0.527210
Si Si2 0.187410 0.387270 0.298936
Si Si3 0.528344 0.415145 0.447454
Si Si4 0.359563 0.110390 0.715484
Si Si5 0.397275 0.438979 0.738312
Si Si6 0.733347 0.585585 0.449970
O O1 0.100028 0.465107 0.411453
O O2 0.152623 0.625190 0.636042
O O3 0.046504 0.739791 0.433933
O O4 0.961415 0.540314 0.624931
O O5 0.292486 0.477976 0.290155
O O6 0.205555 0.225986 0.357858
O O7 0.427358 0.446911 0.562971
O O8 0.496639 0.485501 0.298239
O O9 0.632572 0.487108 0.491346
O O10 0.385566 0.267798 0.786071
O O11 0.271589 0.132380 0.605386
O O12 0.322512 0.003839 0.850812
#
# Coordination Sequence:
#
# PCOD8056377 Si02
#       6
#     4   4   4   4   4   4
#     4  11  24  43  64  94 130 171 217 268 323 386
#     4  12  24  41  66  97 130 170 216 270 325 384
#     4  11  24  44  66  93 129 173 218 266 324 388
#     4  11  24  43  64  94 130 171 217 268 323 386
#     4  11  24  44  66  93 129 173 218 266 324 388
#     4  12  24  41  66  97 130 170 216 270 325 384
#
# _framework density 22.533069999999999
#
# number of rings (size 3 to 8) (size 9 to 14) (size 15 to 20)
#    0.000    0.667    0.000   10.000    0.000    4.000 
#    0.000    0.000    0.000    0.000    0.000    0.000 
#    0.000    0.000    0.000    0.000    0.000    0.000 
#
# Total GULP energy -148875.804564 kJ/mol
# GULP energy per Si atom -12406.317047 kJ/mol
# Density = 2.248178 g / cm^3
# Si number density = 22.533070 Si / 1000 Ang^3
#
#
#
# Elastic Constant Matrix: (Units=GPa)
#
#
# Indices 1 2 3 4 5 6 
#
# 1 97.1338 27.9433 2.8742 0.0000 -12.7078 0.0000
# 2 27.9433 126.1242 40.0694 0.0000 -18.5003 0.0000
# 3 2.8742 40.0694 53.8969 0.0000 8.4377 0.0000
# 4 0.0000 0.0000 0.0000 30.5493 0.0000 3.7186
# 5 -12.7078 -18.5003 8.4377 0.0000 55.0640 0.0000
# 6 0.0000 0.0000 0.0000 3.7186 0.0000 38.3312
#
#
#
# Elastic Compliance Matrix: (Units=1/GPa)
#
#
# Indices 1 2 3 4 5 6 
#
# 1 0.011215 -0.002607 0.001099 0.000000 0.001544 0.000000
# 2 -0.002607 0.012383 -0.009860 0.000000 0.005070 0.000000
# 3 0.001099 -0.009860 0.026952 0.000000 -0.007189 0.000000
# 4 0.000000 0.000000 0.000000 0.033125 0.000000 -0.003214
# 5 0.001544 0.005070 -0.007189 0.000000 0.021322 0.000000
# 6 0.000000 0.000000 0.000000 -0.003214 0.000000 0.026400
#
#
# Mechanical properties :
#
#
# Convention : Reuss Voigt Hill
#
# Bulk Modulus (GPa) = 35.95743 46.54763 41.25253
# Shear Modulus (GPa) = 30.59898 38.54010 34.56954
#
# Velocity S-wave (km/s) = 3.68905 4.14016 3.92110
# Velocity P-wave (km/s) = 5.84275 6.59976 6.23276
#
# Compressibility (1/GPa) = 0.02781067
#
# Stress axis : x y z
#
# Youngs Moduli (GPa) = 89.16966 80.75866 37.10363
#
# Poissons Ratio (x) = 0.21055 -0.04076
# Poissons Ratio (y) = 0.23248 0.36586
# Poissons Ratio (z) = -0.09796 0.79631
#
# Static dielectric constant tensor:
#      x y z
#    x 4.208530 0.000000 -0.044490 
#    y 0.000000 4.102500 0.000000 
#    z -0.044490 0.000000 4.027900 
# 
# 
# High freq. dielectric constant tensor:
#      x y z
#    x 1.907520 0.000000 -0.002160 
#    y 0.000000 1.892700 0.000000 
#    z -0.002160 0.000000 1.889650 
# 
# From -- ./inp_files/6718.got.cif
#   From: 2010.06.25/outbox.cif.g09.slc.cpg/sg9_4_cif.got.tgz:6718.got - 2010.06.27 21:40:51.
