data_PCOD8056041
_publ_section_title
;
Structure prediction by ZEFSAII (Michael W. Deem and Ramdas Pophale) SiO2 
 PCOD8056041
Probable space group: C C
;
_chemical_formula_sum "Si O2"
_cell_formula_units_Z 32
_cell_length_a 11.629672
_cell_length_b 18.398000
_cell_length_c 15.170924
_cell_angle_alpha 90.000000
_cell_angle_beta 151.845003
_cell_angle_gamma 90.000000
_cell_volume 1531.657998
_symmetry_space_group_name_H-M "C C"
_symmetry_group_IT_number 9
_symmetry_cell_setting 'monoclinic'
loop_
_space_group_symop_operation_xyz
x,y,z
x,-y,1/2+z
1/2+x,1/2+y,z
1/2+x,1/2-y,1/2+z
loop_
_atom_site_type_symbol
_atom_site_label
_atom_site_fract_x
_atom_site_fract_y
_atom_site_fract_z
Si Si1 0.763520 0.641892 0.176810
Si Si2 0.330678 0.421785 0.480580
Si Si3 0.048924 0.182424 0.698289
Si Si4 0.576930 0.831196 0.613613
Si Si5 0.658157 0.200926 0.573922
Si Si6 0.495923 0.818302 0.152908
Si Si7 0.471004 0.668114 0.232746
Si Si8 0.186077 0.415357 0.848151
O O1 0.621047 0.712225 0.043948
O O2 0.933753 0.664953 0.372630
O O3 0.923964 0.605948 0.209533
O O4 0.566220 0.584344 0.077365
O O5 0.399915 0.403635 0.628745
O O6 0.232187 0.502340 0.404990
O O7 0.115163 0.366797 0.309002
O O8 0.056675 0.264248 0.667466
O O9 0.915041 0.180688 0.702522
O O10 0.907837 0.132831 0.533747
O O11 0.318531 0.151225 0.894088
O O12 0.764760 0.812225 0.663719
O O13 0.668088 0.901487 0.730696
O O14 0.652826 0.172153 0.669994
O O15 0.501088 0.734132 0.184449
O O16 0.221069 0.845892 0.953373
#
# Coordination Sequence:
#
# PCOD8056041 Si02
#       8
#     4   4   4   4   4   4   4   4
#     4  11  21  41  70  98 134 169 227 288 339 395
#     4  12  27  45  66 100 142 179 224 287 349 407
#     4  11  23  42  73  99 135 173 238 286 334 401
#     4  12  24  43  71  99 135 186 226 277 335 418
#     4  11  19  39  73 104 123 165 238 294 326 388
#     4  12  23  41  72 101 130 180 232 286 340 399
#     4  12  25  42  68 102 136 179 234 273 334 417
#     4  11  28  45  65 103 137 183 223 287 351 401
#
# _framework density 20.892392000000001
#
# number of rings (size 3 to 8) (size 9 to 14) (size 15 to 20)
#    0.000    0.500    6.250    2.250    1.750    3.000 
#    4.500    0.000    0.000    0.000    0.000    0.000 
#    0.000    0.000    0.000    0.000    0.000    0.000 
#
# Total GULP energy -198492.240767 kJ/mol
# GULP energy per Si atom -12405.765048 kJ/mol
# Density = 2.084484 g / cm^3
# Si number density = 20.892392 Si / 1000 Ang^3
#
#
#
# Elastic Constant Matrix: (Units=GPa)
#
#
# Indices 1 2 3 4 5 6 
#
# 1 102.8808 1.9535 36.0670 0.0226 12.3109 0.0016
# 2 1.9535 81.6226 11.0412 0.0524 -0.5247 0.0278
# 3 36.0670 11.0412 104.7597 0.0950 13.1189 0.0694
# 4 0.0226 0.0524 0.0950 25.7419 0.0408 -2.5718
# 5 12.3109 -0.5247 13.1189 0.0408 30.0089 0.0293
# 6 0.0016 0.0278 0.0694 -2.5718 0.0293 17.0165
#
#
#
# Elastic Compliance Matrix: (Units=1/GPa)
#
#
# Indices 1 2 3 4 5 6 
#
# 1 0.011325 0.000187 -0.003531 0.000010 -0.003099 0.000020
# 2 0.000187 0.012452 -0.001475 -0.000023 0.000786 -0.000019
# 3 -0.003531 -0.001475 0.011360 -0.000034 -0.003544 -0.000043
# 4 0.000010 -0.000023 -0.000034 0.039443 -0.000049 0.005962
# 5 -0.003099 0.000786 -0.003544 -0.000049 0.036158 -0.000056
# 6 0.000020 -0.000019 -0.000043 0.005962 -0.000056 0.059668
#
#
# Mechanical properties :
#
#
# Convention : Reuss Voigt Hill
#
# Bulk Modulus (GPa) = 39.21692 43.04296 41.12994
# Shear Modulus (GPa) = 26.51909 30.56691 28.54300
#
# Velocity S-wave (km/s) = 3.56661 3.82915 3.70021
# Velocity P-wave (km/s) = 5.98102 6.34010 6.16317
#
# Compressibility (1/GPa) = 0.02549920
#
# Stress axis : x y z
#
# Youngs Moduli (GPa) = 88.30000 80.31074 88.02458
#
# Poissons Ratio (x) = -0.01499 0.31078
# Poissons Ratio (y) = -0.01648 0.12984
# Poissons Ratio (z) = 0.31175 0.11846
#
# Static dielectric constant tensor:
#      x y z
#    x 3.909110 0.000000 0.010740 
#    y 0.000000 3.560580 0.000030 
#    z 0.010740 0.000030 4.028510 
# 
# 
# High freq. dielectric constant tensor:
#      x y z
#    x 1.828400 0.000000 0.003950 
#    y 0.000000 1.783830 -0.000010 
#    z 0.003950 -0.000010 1.840320 
# 
# From -- ./inp_files/17032.got.cif
#   From: 2010.06.25/outbox.cif.g09.slc.cpg/sg9_9_cif.got.tgz:17032.got - 2010.06.27 21:40:51.
