data_PCOD8056208
_publ_section_title
;
Structure prediction by ZEFSAII (Michael W. Deem and Ramdas Pophale) SiO2 
 PCOD8056208
Probable space group: C C
;
_chemical_formula_sum "Si O2"
_cell_formula_units_Z 32
_cell_length_a 21.794189
_cell_length_b 12.390185
_cell_length_c 15.787025
_cell_angle_alpha 90.000000
_cell_angle_beta 18.312633
_cell_angle_gamma 90.000000
_cell_volume 1339.452904
_symmetry_space_group_name_H-M "C C"
_symmetry_group_IT_number 9
_symmetry_cell_setting 'monoclinic'
loop_
_space_group_symop_operation_xyz
x,y,z
x,-y,1/2+z
1/2+x,1/2+y,z
1/2+x,1/2-y,1/2+z
loop_
_atom_site_type_symbol
_atom_site_label
_atom_site_fract_x
_atom_site_fract_y
_atom_site_fract_z
Si Si1 0.982850 0.180444 0.485960
Si Si2 0.882557 0.700402 0.385703
Si Si3 0.446458 0.288199 0.463945
Si Si4 0.914091 0.019161 0.441471
Si Si5 0.599515 0.818935 0.037352
Si Si6 0.159819 0.153388 0.429105
Si Si7 0.746535 0.167211 0.526630
Si Si8 0.332092 0.003630 0.334847
O O1 0.813702 0.252622 0.747625
O O2 0.870278 0.083437 0.586017
O O3 0.120910 0.135026 0.380361
O O4 0.107566 0.249187 0.256281
O O5 0.981056 0.692674 0.349175
O O6 0.922096 0.601538 0.271596
O O7 0.663850 0.698735 0.711563
O O8 0.960912 0.810771 0.237703
O O9 0.371275 0.393875 0.511030
O O10 0.294828 0.269297 0.738789
O O11 0.777454 0.061454 0.544187
O O12 0.143144 0.045696 0.127621
O O13 0.651559 0.867590 0.061613
O O14 0.457433 0.718404 0.234176
O O15 0.498401 0.911696 0.111695
O O16 0.256440 0.045110 0.342002
#
# Coordination Sequence:
#
# PCOD8056208 Si02
#       8
#     4   4   4   4   4   4   4   4
#     4  12  23  41  72 103 139 187 233 292 367 417
#     4  11  22  47  66  98 142 183 229 301 346 420
#     4  11  26  44  71  98 140 184 240 286 358 429
#     4  11  24  45  67 104 141 179 241 296 353 428
#     4  12  25  46  73 105 141 193 239 288 362 433
#     4  12  23  42  74  99 143 184 236 295 364 413
#     4  12  24  46  72 100 151 186 231 304 354 427
#     4  11  25  45  69 105 143 180 243 296 356 431
#
# _framework density 23.890349000000001
#
# number of rings (size 3 to 8) (size 9 to 14) (size 15 to 20)
#    0.000    0.500    7.500    0.750    3.500    2.000 
#    0.000    5.000    0.000    0.000    0.000    0.000 
#    0.000    0.000    0.000    0.000    0.000    0.000 
#
# Total GULP energy -198300.154366 kJ/mol
# GULP energy per Si atom -12393.759648 kJ/mol
# Density = 2.383597 g / cm^3
# Si number density = 23.890349 Si / 1000 Ang^3
#
#
#
# Elastic Constant Matrix: (Units=GPa)
#
#
# Indices 1 2 3 4 5 6 
#
# 1 145.4270 31.2823 2.2596 0.0003 4.7382 -0.0005
# 2 31.2823 47.9469 4.9966 0.0006 -4.5073 -0.0002
# 3 2.2596 4.9966 97.8804 -0.0024 13.0208 0.0005
# 4 0.0003 0.0006 -0.0024 21.2712 0.0017 -7.1671
# 5 4.7382 -4.5073 13.0208 0.0017 29.3642 0.0001
# 6 -0.0005 -0.0002 0.0005 -7.1671 0.0001 44.1654
#
#
#
# Elastic Compliance Matrix: (Units=1/GPa)
#
#
# Indices 1 2 3 4 5 6 
#
# 1 0.008147 -0.005579 0.000410 0.000000 -0.002353 0.000000
# 2 -0.005579 0.025223 -0.001906 -0.000001 0.005617 0.000000
# 3 0.000410 -0.001906 0.011001 0.000002 -0.005237 0.000000
# 4 0.000000 -0.000001 0.000002 0.049731 -0.000004 0.008070
# 5 -0.002353 0.005617 -0.005237 -0.000004 0.037619 -0.000001
# 6 0.000000 0.000000 0.000000 0.008070 -0.000001 0.023952
#
#
# Mechanical properties :
#
#
# Convention : Reuss Voigt Hill
#
# Bulk Modulus (GPa) = 33.09065 40.92570 37.00817
# Shear Modulus (GPa) = 27.79376 35.80791 31.80084
#
# Velocity S-wave (km/s) = 3.41455 3.87569 3.65240
# Velocity P-wave (km/s) = 5.42463 6.09884 5.77159
#
# Compressibility (1/GPa) = 0.03022001
#
# Stress axis : x y z
#
# Youngs Moduli (GPa) = 122.74963 39.64637 90.90061
#
# Poissons Ratio (x) = 0.22119 -0.03724
# Poissons Ratio (y) = 0.68482 0.17326
# Poissons Ratio (z) = -0.05029 0.07557
#
# Static dielectric constant tensor:
#      x y z
#    x 4.410430 0.000000 -0.008120 
#    y 0.000000 4.097890 0.000000 
#    z -0.008120 0.000000 4.339770 
# 
# 
# High freq. dielectric constant tensor:
#      x y z
#    x 1.956620 0.000000 -0.000980 
#    y 0.000000 1.922650 0.000000 
#    z -0.000980 0.000000 1.954770 
# 
# From -- ./inp_files/11705.got.cif
#   From: 2010.06.25/outbox.cif.g09.slc.cpg/sg9_6_cif.got.tgz:11705.got - 2010.06.27 21:40:51.
