data_PCOD8056492
_publ_section_title
;
Structure prediction by ZEFSAII (Michael W. Deem and Ramdas Pophale) SiO2 
 PCOD8056492
Probable space group: C C
;
_chemical_formula_sum "Si O2"
_cell_formula_units_Z 32
_cell_length_a 11.146353
_cell_length_b 13.644596
_cell_length_c 8.941798
_cell_angle_alpha 90.000000
_cell_angle_beta 76.659990
_cell_angle_gamma 90.000000
_cell_volume 1323.241762
_symmetry_space_group_name_H-M "C C"
_symmetry_group_IT_number 9
_symmetry_cell_setting 'monoclinic'
loop_
_space_group_symop_operation_xyz
x,y,z
x,-y,1/2+z
1/2+x,1/2+y,z
1/2+x,1/2-y,1/2+z
loop_
_atom_site_type_symbol
_atom_site_label
_atom_site_fract_x
_atom_site_fract_y
_atom_site_fract_z
Si Si1 0.515620 0.226070 0.969030
Si Si2 0.372968 0.108605 0.628191
Si Si3 0.497169 0.561477 0.991366
Si Si4 0.284127 0.479297 0.748787
Si Si5 0.292905 0.641612 0.534035
Si Si6 0.561395 0.257308 0.632773
Si Si7 0.589024 0.612232 0.652483
Si Si8 0.006393 0.513196 0.861638
O O1 0.373363 0.260553 0.998471
O O2 0.585971 0.268702 0.802790
O O3 0.524063 0.107857 0.967159
O O4 0.573361 0.274934 0.102104
O O5 0.421784 0.219316 0.640590
O O6 0.226406 0.100939 0.673677
O O7 0.430577 0.041348 0.738679
O O8 0.423008 0.070411 0.456759
O O9 0.361175 0.582022 0.102114
O O10 0.587965 0.641792 0.040436
O O11 0.552390 0.455091 0.020440
O O12 0.497441 0.578377 0.812770
O O13 0.311193 0.593637 0.694264
O O14 0.329471 0.443765 0.901092
O O15 0.137263 0.465833 0.777081
O O16 0.152621 0.672781 0.544557
#
# Coordination Sequence:
#
# PCOD8056492 Si02
#       8
#     4   4   4   4   4   4   4   4
#     4  11  25  48  69 107 139 190 244 296 368 432
#     4  11  25  47  68 104 143 192 237 292 369 431
#     4  12  26  45  73 104 145 190 242 302 362 433
#     4  12  22  46  74 104 140 187 247 296 360 427
#     4  12  24  45  77 101 145 191 242 308 363 430
#     4  11  25  47  70 102 144 192 239 298 368 429
#     4  12  27  47  69 108 145 189 242 299 369 437
#     4  11  24  49  74 102 145 191 241 299 363 437
#
# _framework density 24.183033999999999
#
# number of rings (size 3 to 8) (size 9 to 14) (size 15 to 20)
#    0.000    0.500    6.250    2.250    5.250    1.000 
#   11.250    0.000    0.000    0.000    0.000    0.000 
#    0.000    0.000    0.000    0.000    0.000    0.000 
#
# Total GULP energy -198322.189527 kJ/mol
# GULP energy per Si atom -12395.136845 kJ/mol
# Density = 2.412799 g / cm^3
# Si number density = 24.183034 Si / 1000 Ang^3
#
#
#
# Elastic Constant Matrix: (Units=GPa)
#
#
# Indices 1 2 3 4 5 6 
#
# 1 127.0212 20.7726 42.8786 0.0000 -7.6001 0.0000
# 2 20.7726 60.7749 23.2529 0.0000 -10.5843 0.0000
# 3 42.8786 23.2529 107.3261 0.0000 -13.1969 0.0000
# 4 0.0000 0.0000 0.0000 41.9165 0.0000 5.0420
# 5 -7.6001 -10.5843 -13.1969 0.0000 34.0154 0.0000
# 6 0.0000 0.0000 0.0000 5.0420 0.0000 37.9922
#
#
#
# Elastic Compliance Matrix: (Units=1/GPa)
#
#
# Indices 1 2 3 4 5 6 
#
# 1 0.009302 -0.001886 -0.003281 0.000000 0.000219 0.000000
# 2 -0.001886 0.018937 -0.002811 0.000000 0.004381 0.000000
# 3 -0.003281 -0.002811 0.011592 0.000000 0.002890 0.000000
# 4 0.000000 0.000000 0.000000 0.024244 0.000000 -0.003217
# 5 0.000219 0.004381 0.002890 0.000000 0.031932 0.000000
# 6 0.000000 0.000000 0.000000 -0.003217 0.000000 0.026748
#
#
# Mechanical properties :
#
#
# Convention : Reuss Voigt Hill
#
# Bulk Modulus (GPa) = 41.88239 52.10340 46.99289
# Shear Modulus (GPa) = 34.09050 36.66603 35.37827
#
# Velocity S-wave (km/s) = 3.75865 3.89805 3.82899
# Velocity P-wave (km/s) = 6.01607 6.46931 6.24680
#
# Compressibility (1/GPa) = 0.02387638
#
# Stress axis : x y z
#
# Youngs Moduli (GPa) = 107.50762 52.80644 86.26348
#
# Poissons Ratio (x) = 0.09959 0.28300
# Poissons Ratio (y) = 0.20276 0.24246
# Poissons Ratio (z) = 0.35270 0.14842
#
# Static dielectric constant tensor:
#      x y z
#    x 4.305870 0.000000 -0.207150 
#    y 0.000000 4.265510 0.000000 
#    z -0.207150 0.000000 4.445690 
# 
# 
# High freq. dielectric constant tensor:
#      x y z
#    x 1.960450 0.000000 -0.007390 
#    y 0.000000 1.951350 0.000000 
#    z -0.007390 0.000000 1.965080 
# 
# From -- ./inp_files/7427.got.cif
#   From: 2010.06.25/outbox.cif.g09.slc.cpg/sg9_4_cif.got.tgz:7427.got - 2010.06.27 21:40:51.
