data_PCOD8056779
_publ_section_title
;
Structure prediction by ZEFSAII (Michael W. Deem and Ramdas Pophale) SiO2 
 PCOD8056779
Probable space group: C C
;
_chemical_formula_sum "Si O2"
_cell_formula_units_Z 32
_cell_length_a 25.935646
_cell_length_b 8.341335
_cell_length_c 9.151615
_cell_angle_alpha 90.000000
_cell_angle_beta 38.183357
_cell_angle_gamma 90.000000
_cell_volume 1223.898474
_symmetry_space_group_name_H-M "C C"
_symmetry_group_IT_number 9
_symmetry_cell_setting 'monoclinic'
loop_
_space_group_symop_operation_xyz
x,y,z
x,-y,1/2+z
1/2+x,1/2+y,z
1/2+x,1/2-y,1/2+z
loop_
_atom_site_type_symbol
_atom_site_label
_atom_site_fract_x
_atom_site_fract_y
_atom_site_fract_z
Si Si1 0.233120 0.817373 0.615910
Si Si2 0.454630 0.464116 0.955422
Si Si3 0.569170 0.529927 0.939718
Si Si4 0.706809 0.991649 0.809946
Si Si5 0.605013 0.120063 0.296004
Si Si6 0.346789 0.261724 0.603306
Si Si7 0.935994 0.474287 0.675666
Si Si8 0.364044 0.165780 0.057031
O O1 0.216743 0.628181 0.663170
O O2 0.292540 0.839371 0.341770
O O3 0.273414 0.866041 0.685016
O O4 0.152458 0.925149 0.767916
O O5 0.494149 0.430518 0.027046
O O6 0.534573 0.433006 0.676161
O O7 0.418562 0.642538 0.029018
O O8 0.378458 0.341663 0.091935
O O9 0.582328 0.693674 0.816932
O O10 0.635746 0.880096 0.896086
O O11 0.789966 0.886793 0.639918
O O12 0.679392 0.073729 0.021097
O O13 0.534934 0.980500 0.426414
O O14 0.394985 0.150726 0.379838
O O15 0.886825 0.463416 0.632079
O O16 0.924551 0.646763 0.781117
#
# Coordination Sequence:
#
# PCOD8056779 Si02
#       8
#     4   4   4   4   4   4   4   4
#     4  12  29  53  77 125 160 220 268 343 410 498
#     4  12  27  52  80 117 157 213 269 336 401 485
#     4  12  30  50  83 115 162 209 279 333 413 481
#     4  12  28  49  81 115 173 212 268 336 422 487
#     4  12  29  52  77 122 163 218 271 344 411 490
#     4  12  29  51  83 119 163 216 270 339 409 495
#     4  12  29  49  84 117 158 217 274 337 403 493
#     4  12  27  50  81 116 166 207 275 332 413 481
#
# _framework density 26.145959000000001
#
# number of rings (size 3 to 8) (size 9 to 14) (size 15 to 20)
#    0.000    0.000    3.750    3.750   14.000    2.000 
#    0.000    0.000    0.000    0.000    0.000    0.000 
#    0.000    0.000    0.000    0.000    0.000    0.000 
#
# Total GULP energy -198264.972272 kJ/mol
# GULP energy per Si atom -12391.560767 kJ/mol
# Density = 2.608645 g / cm^3
# Si number density = 26.145959 Si / 1000 Ang^3
#
#
#
# Elastic Constant Matrix: (Units=GPa)
#
#
# Indices 1 2 3 4 5 6 
#
# 1 193.1149 55.5010 28.2161 0.0000 -12.8517 0.0000
# 2 55.5010 85.0092 36.1536 0.0000 -16.8652 0.0000
# 3 28.2161 36.1536 82.1637 0.0000 -11.2332 0.0000
# 4 0.0000 0.0000 0.0000 48.1276 0.0000 -4.6891
# 5 -12.8517 -16.8652 -11.2332 0.0000 43.3385 0.0000
# 6 0.0000 0.0000 0.0000 -4.6891 0.0000 49.7997
#
#
#
# Elastic Compliance Matrix: (Units=1/GPa)
#
#
# Indices 1 2 3 4 5 6 
#
# 1 0.006390 -0.003941 -0.000426 0.000000 0.000251 0.000000
# 2 -0.003941 0.017651 -0.005841 0.000000 0.004186 0.000000
# 3 -0.000426 -0.005841 0.015094 0.000000 0.001513 0.000000
# 4 0.000000 0.000000 0.000000 0.020970 0.000000 0.001975
# 5 0.000251 0.004186 0.001513 0.000000 0.025170 0.000000
# 6 0.000000 0.000000 0.000000 0.001975 0.000000 0.020266
#
#
# Mechanical properties :
#
#
# Convention : Reuss Voigt Hill
#
# Bulk Modulus (GPa) = 53.42144 66.66993 60.04569
# Shear Modulus (GPa) = 37.82225 44.28097 41.05161
#
# Velocity S-wave (km/s) = 3.80752 4.11981 3.96674
# Velocity P-wave (km/s) = 6.30920 6.94154 6.63291
#
# Compressibility (1/GPa) = 0.01871908
#
# Stress axis : x y z
#
# Youngs Moduli (GPa) = 156.49950 56.65386 66.25067
#
# Poissons Ratio (x) = 0.22326 0.02822
# Poissons Ratio (y) = 0.61674 0.38698
# Poissons Ratio (z) = 0.06667 0.33092
#
# Static dielectric constant tensor:
#      x y z
#    x 4.831290 0.000000 0.057010 
#    y 0.000000 4.829660 0.000000 
#    z 0.057010 0.000000 4.626110 
# 
# 
# High freq. dielectric constant tensor:
#      x y z
#    x 2.063540 0.000000 0.004020 
#    y 0.000000 2.056650 0.000000 
#    z 0.004020 0.000000 2.048580 
# 
# From -- ./inp_files/12424.got.cif
#   From: 2010.06.25/outbox.cif.g09.slc.cpg/sg9_7_cif.got.tgz:12424.got - 2010.06.27 21:40:51.
