data_PCOD8056482
_publ_section_title
;
Structure prediction by ZEFSAII (Michael W. Deem and Ramdas Pophale) SiO2 
 PCOD8056482
Probable space group: C C
;
_chemical_formula_sum "Si O2"
_cell_formula_units_Z 28
_cell_length_a 16.045155
_cell_length_b 12.217789
_cell_length_c 11.235454
_cell_angle_alpha 90.000000
_cell_angle_beta 147.855863
_cell_angle_gamma 90.000000
_cell_volume 1171.872652
_symmetry_space_group_name_H-M "C C"
_symmetry_group_IT_number 9
_symmetry_cell_setting 'monoclinic'
loop_
_space_group_symop_operation_xyz
x,y,z
x,-y,1/2+z
1/2+x,1/2+y,z
1/2+x,1/2-y,1/2+z
loop_
_atom_site_type_symbol
_atom_site_label
_atom_site_fract_x
_atom_site_fract_y
_atom_site_fract_z
Si Si1 0.196190 0.820807 0.658720
Si Si2 0.897924 0.514774 0.839255
Si Si3 0.296962 0.206830 0.851897
Si Si4 0.953210 0.159457 0.071522
Si Si5 0.623292 0.782410 0.840439
Si Si6 0.198031 0.480497 0.354945
Si Si7 0.083718 0.323748 0.409535
O O1 0.328706 0.746140 0.874438
O O2 0.092318 0.750245 0.439581
O O3 0.084838 0.864337 0.630163
O O4 0.281972 0.912704 0.680307
O O5 0.785592 0.585384 0.788616
O O6 0.943594 0.592446 0.781387
O O7 0.057673 0.471322 0.090903
O O8 0.251319 0.203680 0.935416
O O9 0.198482 0.296946 0.658877
O O10 0.480017 0.236819 0.076361
O O11 0.865430 0.043592 0.993020
O O12 0.021387 0.210690 0.276712
O O13 0.692113 0.905626 0.918127
O O14 0.184831 0.382545 0.432202
#
# Coordination Sequence:
#
# PCOD8056482 Si02
#       7
#     4   4   4   4   4   4   4
#     4  12  26  48  75 113 151 189 253 310 369 435
#     4  11  26  47  76 106 148 198 239 309 377 437
#     4  11  24  48  70 105 143 195 242 298 368 446
#     4  12  26  47  76 111 147 194 249 306 370 449
#     4  11  27  46  74 106 151 190 245 306 367 434
#     4  11  25  46  76 105 146 199 240 299 383 436
#     4  12  24  48  79 104 150 191 254 298 372 447
#
# _framework density 23.893381999999999
#
# number of rings (size 3 to 8) (size 9 to 14) (size 15 to 20)
#    0.000    0.571    5.714    1.714    8.000    1.143 
#    5.143    0.000    0.000    0.000    0.000    0.000 
#    0.000    0.000    0.000    0.000    0.000    0.000 
#
# Total GULP energy -173484.982981 kJ/mol
# GULP energy per Si atom -12391.784499 kJ/mol
# Density = 2.383900 g / cm^3
# Si number density = 23.893382 Si / 1000 Ang^3
#
#
#
# Elastic Constant Matrix: (Units=GPa)
#
#
# Indices 1 2 3 4 5 6 
#
# 1 110.1457 51.1256 34.3540 0.0000 6.5372 0.0000
# 2 51.1256 80.0010 45.9397 0.0000 2.9517 0.0000
# 3 34.3540 45.9397 84.4661 0.0000 -0.6581 0.0000
# 4 0.0000 0.0000 0.0000 32.1023 0.0000 9.4125
# 5 6.5372 2.9517 -0.6581 0.0000 29.2768 0.0000
# 6 0.0000 0.0000 0.0000 9.4125 0.0000 49.4336
#
#
#
# Elastic Compliance Matrix: (Units=1/GPa)
#
#
# Indices 1 2 3 4 5 6 
#
# 1 0.013118 -0.007603 -0.001217 0.000000 -0.002190 0.000000
# 2 -0.007603 0.022708 -0.009265 0.000000 -0.000800 0.000000
# 3 -0.001217 -0.009265 0.017385 0.000000 0.001597 0.000000
# 4 0.000000 0.000000 0.000000 0.032992 0.000000 -0.006282
# 5 -0.002190 -0.000800 0.001597 0.000000 0.034762 0.000000
# 6 0.000000 0.000000 0.000000 -0.006282 0.000000 0.021425
#
#
# Mechanical properties :
#
#
# Convention : Reuss Voigt Hill
#
# Bulk Modulus (GPa) = 58.67957 59.71681 59.19819
# Shear Modulus (GPa) = 27.13833 31.70877 29.42355
#
# Velocity S-wave (km/s) = 3.37383 3.64688 3.51301
# Velocity P-wave (km/s) = 6.30787 6.54066 6.42532
#
# Compressibility (1/GPa) = 0.01704171
#
# Stress axis : x y z
#
# Youngs Moduli (GPa) = 76.23352 44.03651 57.51997
#
# Poissons Ratio (x) = 0.33483 0.07000
# Poissons Ratio (y) = 0.57963 0.53290
# Poissons Ratio (z) = 0.09277 0.40798
#
# Static dielectric constant tensor:
#      x y z
#    x 4.620320 0.000000 0.061430 
#    y 0.000000 4.373030 0.000000 
#    z 0.061430 0.000000 4.214240 
# 
# 
# High freq. dielectric constant tensor:
#      x y z
#    x 1.963570 0.000000 0.002090 
#    y 0.000000 1.941170 0.000000 
#    z 0.002090 0.000000 1.939230 
# 
# From -- ./inp_files/19337.got.cif
#   From: 2010.06.25/outbox.cif.g09.slc.cpg/sg9_10_cif.got.tgz:19337.got - 2010.06.27 21:40:51.
