data_PCOD8056355
_publ_section_title
;
Structure prediction by ZEFSAII (Michael W. Deem and Ramdas Pophale) SiO2 
 PCOD8056355
Probable space group: C C
;
_chemical_formula_sum "Si O2"
_cell_formula_units_Z 28
_cell_length_a 8.149330
_cell_length_b 11.537970
_cell_length_c 13.817869
_cell_angle_alpha 90.000000
_cell_angle_beta 59.936068
_cell_angle_gamma 90.000000
_cell_volume 1124.457046
_symmetry_space_group_name_H-M "C C"
_symmetry_group_IT_number 9
_symmetry_cell_setting 'monoclinic'
loop_
_space_group_symop_operation_xyz
x,y,z
x,-y,1/2+z
1/2+x,1/2+y,z
1/2+x,1/2-y,1/2+z
loop_
_atom_site_type_symbol
_atom_site_label
_atom_site_fract_x
_atom_site_fract_y
_atom_site_fract_z
Si Si1 0.637220 0.986200 0.013380
Si Si2 0.355231 0.626204 0.792090
Si Si3 0.707687 0.490631 0.115019
Si Si4 0.136324 0.170100 0.284216
Si Si5 0.616154 0.036149 0.241235
Si Si6 0.235359 0.280677 0.862674
Si Si7 0.683519 0.525086 0.907657
O O1 0.645086 0.039896 0.117626
O O2 0.424800 0.956024 0.041041
O O3 0.750482 0.083308 0.919566
O O4 0.718098 0.858755 0.965071
O O5 0.581986 0.599690 0.717383
O O6 0.305167 0.761682 0.790227
O O7 0.264276 0.559966 0.729111
O O8 0.717389 0.616281 0.162022
O O9 0.616373 0.501256 0.036269
O O10 0.960577 0.248712 0.300879
O O11 0.067228 0.062977 0.373589
O O12 0.669418 0.154914 0.283402
O O13 0.404710 0.997898 0.327509
O O14 0.126462 0.158091 0.898614
#
# Coordination Sequence:
#
# PCOD8056355 Si02
#       7
#     4   4   4   4   4   4   4
#     4  11  24  50  76 111 156 195 256 313 371 454
#     4  11  26  49  77 111 150 199 255 307 380 449
#     4  12  25  48  75 114 151 199 252 308 386 445
#     4  12  26  48  77 110 152 198 248 310 379 451
#     4  11  23  49  75 110 154 192 249 313 368 447
#     4  11  25  50  77 108 156 195 249 314 372 449
#     4  12  27  48  75 116 149 194 255 307 378 451
#
# _framework density 24.900905000000002
#
# number of rings (size 3 to 8) (size 9 to 14) (size 15 to 20)
#    0.000    0.571    8.571    0.000    4.000    2.286 
#    2.571    1.429    0.000    0.000    0.000    0.000 
#    0.000    0.000    0.000    0.000    0.000    0.000 
#
# Total GULP energy -173468.009263 kJ/mol
# GULP energy per Si atom -12390.572090 kJ/mol
# Density = 2.484423 g / cm^3
# Si number density = 24.900905 Si / 1000 Ang^3
#
#
#
# Elastic Constant Matrix: (Units=GPa)
#
#
# Indices 1 2 3 4 5 6 
#
# 1 66.9060 23.4953 31.8768 0.0000 0.9951 0.0000
# 2 23.4953 115.4115 38.8516 0.0000 4.8712 0.0000
# 3 31.8768 38.8516 158.9125 0.0000 22.0915 0.0000
# 4 0.0000 0.0000 0.0000 16.3606 0.0000 2.0482
# 5 0.9951 4.8712 22.0915 0.0000 46.9096 0.0000
# 6 0.0000 0.0000 0.0000 2.0482 0.0000 32.5196
#
#
#
# Elastic Compliance Matrix: (Units=1/GPa)
#
#
# Indices 1 2 3 4 5 6 
#
# 1 0.017263 -0.002553 -0.003023 0.000000 0.001322 0.000000
# 2 -0.002553 0.009820 -0.001877 0.000000 -0.000081 0.000000
# 3 -0.003023 -0.001877 0.007835 0.000000 -0.003431 0.000000
# 4 0.000000 0.000000 0.000000 0.061608 0.000000 -0.003880
# 5 0.001322 -0.000081 -0.003431 0.000000 0.022914 0.000000
# 6 0.000000 0.000000 0.000000 -0.003880 0.000000 0.030995
#
#
# Mechanical properties :
#
#
# Convention : Reuss Voigt Hill
#
# Bulk Modulus (GPa) = 49.96871 58.85305 54.41088
# Shear Modulus (GPa) = 29.06787 35.62506 32.34646
#
# Velocity S-wave (km/s) = 3.42035 3.78653 3.60808
# Velocity P-wave (km/s) = 5.97570 6.54242 6.26547
#
# Compressibility (1/GPa) = 0.02001252
#
# Stress axis : x y z
#
# Youngs Moduli (GPa) = 57.92662 101.83550 127.63219
#
# Poissons Ratio (x) = 0.25996 0.38578
# Poissons Ratio (y) = 0.14787 0.23962
# Poissons Ratio (z) = 0.17509 0.19119
#
# Static dielectric constant tensor:
#      x y z
#    x 4.951520 0.000000 -0.005900 
#    y 0.000000 4.400310 0.000000 
#    z -0.005900 0.000000 4.510390 
# 
# 
# High freq. dielectric constant tensor:
#      x y z
#    x 2.011550 0.000000 0.000810 
#    y 0.000000 1.980270 0.000000 
#    z 0.000810 0.000000 1.993610 
# 
# From -- ./inp_files/14216.got.cif
#   From: 2010.06.25/outbox.cif.g09.slc.cpg/sg9_8_cif.got.tgz:14216.got - 2010.06.27 21:40:51.
