data_PCOD8056018
_publ_section_title
;
Structure prediction by ZEFSAII (Michael W. Deem and Ramdas Pophale) SiO2 
 PCOD8056018
Probable space group: C C
;
_chemical_formula_sum "Si O2"
_cell_formula_units_Z 28
_cell_length_a 7.065429
_cell_length_b 29.871747
_cell_length_c 5.140749
_cell_angle_alpha 90.000000
_cell_angle_beta 105.228502
_cell_angle_gamma 90.000000
_cell_volume 1046.891179
_symmetry_space_group_name_H-M "C C"
_symmetry_group_IT_number 9
_symmetry_cell_setting 'monoclinic'
loop_
_space_group_symop_operation_xyz
x,y,z
x,-y,1/2+z
1/2+x,1/2+y,z
1/2+x,1/2-y,1/2+z
loop_
_atom_site_type_symbol
_atom_site_label
_atom_site_fract_x
_atom_site_fract_y
_atom_site_fract_z
Si Si1 0.118110 0.741037 0.973200
Si Si2 0.763658 0.796709 0.012225
Si Si3 0.005012 0.624999 0.091856
Si Si4 0.428658 0.378104 0.882700
Si Si5 0.320604 0.166596 0.508672
Si Si6 0.923155 0.023084 0.404005
Si Si7 0.959801 0.475227 0.700480
O O1 0.108334 0.716844 0.683444
O O2 0.277805 0.780520 0.023715
O O3 0.180980 0.700585 0.184789
O O4 0.918414 0.756613 0.035480
O O5 0.871247 0.844321 0.101883
O O6 0.888831 0.646613 0.810075
O O7 0.909060 0.576716 0.124906
O O8 0.985061 0.656384 0.348079
O O9 0.238705 0.617787 0.121845
O O10 0.622731 0.356663 0.823779
O O11 0.483106 0.426806 0.008869
O O12 0.012671 0.990139 0.655652
O O13 0.691144 0.017523 0.306711
O O14 0.870509 0.492458 0.943009
#
# Coordination Sequence:
#
# PCOD8056018 Si02
#       7
#     4   4   4   4   4   4   4
#     4  11  25  43  66  98 136 177 225 291 341 403
#     4  11  25  43  69  98 135 181 225 286 346 410
#     4  11  24  42  72  96 130 191 221 278 352 409
#     4  10  26  46  70 102 139 180 233 282 345 414
#     4  11  26  45  66 100 141 172 233 290 335 410
#     4   9  19  37  64  94 130 175 220 277 340 402
#     4   9  17  34  59  92 131 166 221 278 333 402
#
# _framework density 26.745854999999999
#
# number of rings (size 3 to 8) (size 9 to 14) (size 15 to 20)
#    0.000    1.714    0.000    2.571    6.000   10.286 
#    0.000    4.286    0.000    0.000    0.000    0.000 
#    0.000    0.000    0.000    0.000    0.000    0.000 
#
# Total GULP energy -173509.231581 kJ/mol
# GULP energy per Si atom -12393.516541 kJ/mol
# Density = 2.668498 g / cm^3
# Si number density = 26.745855 Si / 1000 Ang^3
#
#
#
# Elastic Constant Matrix: (Units=GPa)
#
#
# Indices 1 2 3 4 5 6 
#
# 1 77.6493 7.0467 24.6653 0.0000 -6.7917 0.0000
# 2 7.0467 182.3826 71.9068 0.0000 -22.5410 0.0000
# 3 24.6653 71.9068 157.2338 0.0000 -31.7846 0.0000
# 4 0.0000 0.0000 0.0000 37.5592 0.0000 1.1592
# 5 -6.7917 -22.5410 -31.7846 0.0000 40.0700 0.0000
# 6 0.0000 0.0000 0.0000 1.1592 0.0000 32.6268
#
#
#
# Elastic Compliance Matrix: (Units=1/GPa)
#
#
# Indices 1 2 3 4 5 6 
#
# 1 0.013599 0.000430 -0.002162 0.000000 0.000832 0.000000
# 2 0.000430 0.006789 -0.002841 0.000000 0.001638 0.000000
# 3 -0.002162 -0.002841 0.009053 0.000000 0.005216 0.000000
# 4 0.000000 0.000000 0.000000 0.026654 0.000000 -0.000947
# 5 0.000832 0.001638 0.005216 0.000000 0.030157 0.000000
# 6 0.000000 0.000000 0.000000 -0.000947 0.000000 0.030683
#
#
# Mechanical properties :
#
#
# Convention : Reuss Voigt Hill
#
# Bulk Modulus (GPa) = 49.27369 69.38928 59.33148
# Shear Modulus (GPa) = 37.63782 42.96099 40.29941
#
# Velocity S-wave (km/s) = 3.75539 4.01217 3.88590
# Velocity P-wave (km/s) = 6.10466 6.88939 6.50886
#
# Compressibility (1/GPa) = 0.02029481
#
# Stress axis : x y z
#
# Youngs Moduli (GPa) = 73.53577 147.29813 110.46359
#
# Poissons Ratio (x) = -0.06328 0.23877
# Poissons Ratio (y) = -0.03159 0.31382
# Poissons Ratio (z) = 0.15895 0.41847
#
# Static dielectric constant tensor:
#      x y z
#    x 4.935090 0.000000 0.145660 
#    y 0.000000 5.139660 0.000000 
#    z 0.145660 0.000000 4.684250 
# 
# 
# High freq. dielectric constant tensor:
#      x y z
#    x 2.093160 0.000000 0.014760 
#    y 0.000000 2.101250 0.000000 
#    z 0.014760 0.000000 2.054050 
# 
# From -- ./inp_files/1303.got.cif
#   From: 2010.06.25/outbox.cif.g09.slc.cpg/sg9_1_cif.got.tgz:1303.got - 2010.06.27 21:40:51.
