data_PCOD8056073
_publ_section_title
;
Structure prediction by ZEFSAII (Michael W. Deem and Ramdas Pophale) SiO2 
 PCOD8056073
Probable space group: C C
;
_chemical_formula_sum "Si O2"
_cell_formula_units_Z 32
_cell_length_a 10.086761
_cell_length_b 11.399943
_cell_length_c 11.633638
_cell_angle_alpha 90.000000
_cell_angle_beta 89.908883
_cell_angle_gamma 90.000000
_cell_volume 1337.732897
_symmetry_space_group_name_H-M "C C"
_symmetry_group_IT_number 9
_symmetry_cell_setting 'monoclinic'
loop_
_space_group_symop_operation_xyz
x,y,z
x,-y,1/2+z
1/2+x,1/2+y,z
1/2+x,1/2-y,1/2+z
loop_
_atom_site_type_symbol
_atom_site_label
_atom_site_fract_x
_atom_site_fract_y
_atom_site_fract_z
Si Si1 0.923880 0.190016 0.531260
Si Si2 0.598067 0.107020 0.054735
Si Si3 0.050962 0.175238 0.939335
Si Si4 0.603588 0.507223 0.619020
Si Si5 0.232088 0.209471 0.718753
Si Si6 0.438401 0.375094 0.789102
Si Si7 0.144944 0.352958 0.108682
Si Si8 0.775541 0.901744 0.336252
O O1 0.994774 0.142142 0.416256
O O2 0.769496 0.162585 0.521917
O O3 0.954185 0.329074 0.545369
O O4 0.990824 0.110118 0.630239
O O5 0.688607 0.193900 0.126966
O O6 0.581094 0.981899 0.115757
O O7 0.663470 0.081257 0.931835
O O8 0.144026 0.212955 0.834533
O O9 0.902179 0.162242 0.892361
O O10 0.040730 0.265891 0.047415
O O11 0.109452 0.053432 0.993774
O O12 0.734834 0.578834 0.659813
O O13 0.564124 0.408799 0.711658
O O14 0.381456 0.247614 0.750666
O O15 0.321115 0.472655 0.784691
O O16 0.205909 0.323440 0.235063
#
# Coordination Sequence:
#
# PCOD8056073 Si02
#       8
#     4   4   4   4   4   4   4   4
#     4  11  21  40  66  94 135 175 235 295 348 422
#     4  11  24  41  69 103 131 186 241 292 359 429
#     4  12  24  42  71 103 144 189 239 302 361 432
#     4  11  22  39  65 102 130 182 243 284 352 429
#     4  11  21  40  69 101 136 180 241 291 357 429
#     4  12  20  39  71  96 138 185 230 294 358 416
#     4  12  24  44  67 103 142 189 234 297 363 425
#     4  12  22  43  68 102 140 182 245 289 350 438
#
# _framework density 23.921068999999999
#
# number of rings (size 3 to 8) (size 9 to 14) (size 15 to 20)
#    0.000    0.500    7.500    1.500    1.750    0.000 
#    0.000    5.000    0.000    0.000    0.000    0.000 
#    0.000    0.000    0.000    0.000    0.000    0.000 
#
# Total GULP energy -198261.291864 kJ/mol
# GULP energy per Si atom -12391.330742 kJ/mol
# Density = 2.386662 g / cm^3
# Si number density = 23.921069 Si / 1000 Ang^3
#
#
#
# Elastic Constant Matrix: (Units=GPa)
#
#
# Indices 1 2 3 4 5 6 
#
# 1 33.3956 34.4559 11.4880 0.0000 16.3578 0.0000
# 2 34.4559 126.4912 40.3014 0.0000 14.1940 0.0000
# 3 11.4880 40.3014 119.1182 0.0000 20.3968 0.0000
# 4 0.0000 0.0000 0.0000 43.8677 0.0000 11.7086
# 5 16.3578 14.1940 20.3968 0.0000 33.0853 0.0000
# 6 0.0000 0.0000 0.0000 11.7086 0.0000 43.1503
#
#
#
# Elastic Compliance Matrix: (Units=1/GPa)
#
#
# Indices 1 2 3 4 5 6 
#
# 1 0.053435 -0.013002 0.003146 0.000000 -0.022781 0.000000
# 2 -0.013002 0.012168 -0.003432 0.000000 0.003324 0.000000
# 3 0.003146 -0.003432 0.010361 0.000000 -0.006470 0.000000
# 4 0.000000 0.000000 0.000000 0.024576 0.000000 -0.006669
# 5 -0.022781 0.003324 -0.006470 0.000000 0.044051 0.000000
# 6 0.000000 0.000000 0.000000 -0.006669 0.000000 0.024984
#
#
# Mechanical properties :
#
#
# Convention : Reuss Voigt Hill
#
# Bulk Modulus (GPa) = 20.24766 50.16618 35.20692
# Shear Modulus (GPa) = 23.51707 36.87130 30.19419
#
# Velocity S-wave (km/s) = 3.13886 3.93029 3.55666
# Velocity P-wave (km/s) = 4.64966 6.45084 5.62284
#
# Compressibility (1/GPa) = 0.04938842
#
# Stress axis : x y z
#
# Youngs Moduli (GPa) = 18.71447 82.18417 96.51866
#
# Poissons Ratio (x) = 1.06853 -0.30368
# Poissons Ratio (y) = 0.24332 0.33125
# Poissons Ratio (z) = -0.05888 0.28206
#
# Static dielectric constant tensor:
#      x y z
#    x 3.940030 0.000000 0.205820 
#    y 0.000000 4.530170 0.000000 
#    z 0.205820 0.000000 4.473270 
# 
# 
# High freq. dielectric constant tensor:
#      x y z
#    x 1.908460 0.000000 0.012170 
#    y 0.000000 1.946290 0.000000 
#    z 0.012170 0.000000 1.971940 
# 
# From -- ./inp_files/16212.got.cif
#   From: 2010.06.25/outbox.cif.g09.slc.cpg/sg9_9_cif.got.tgz:16212.got - 2010.06.27 21:40:51.
