data_PCOD8056179
_publ_section_title
;
Structure prediction by ZEFSAII (Michael W. Deem and Ramdas Pophale) SiO2 
 PCOD8056179
Probable space group: C C
;
_chemical_formula_sum "Si O2"
_cell_formula_units_Z 28
_cell_length_a 16.108306
_cell_length_b 9.490609
_cell_length_c 22.204601
_cell_angle_alpha 90.000000
_cell_angle_beta 20.541185
_cell_angle_gamma 90.000000
_cell_volume 1191.094620
_symmetry_space_group_name_H-M "C C"
_symmetry_group_IT_number 9
_symmetry_cell_setting 'monoclinic'
loop_
_space_group_symop_operation_xyz
x,y,z
x,-y,1/2+z
1/2+x,1/2+y,z
1/2+x,1/2-y,1/2+z
loop_
_atom_site_type_symbol
_atom_site_label
_atom_site_fract_x
_atom_site_fract_y
_atom_site_fract_z
Si Si1 0.149210 0.280887 0.096670
Si Si2 0.602195 0.593322 0.234534
Si Si3 0.323000 0.162995 0.197867
Si Si4 0.922711 0.929919 0.059660
Si Si5 0.868983 0.154282 0.822367
Si Si6 0.525891 0.525436 0.115054
Si Si7 0.519657 0.040172 0.251998
O O1 0.241234 0.199766 0.094804
O O2 0.968837 0.177756 0.182965
O O3 0.012903 0.425894 0.202848
O O4 0.371210 0.314836 0.905142
O O5 0.750310 0.552051 0.194099
O O6 0.529766 0.447594 0.253148
O O7 0.156574 0.137536 0.369120
O O8 0.274483 0.309337 0.194984
O O9 0.598521 0.155297 0.029638
O O10 0.001107 0.034347 0.060045
O O11 0.766596 0.020432 0.119597
O O12 0.994597 0.305511 0.740284
O O13 0.869382 0.098550 0.752542
O O14 0.799191 0.488198 0.945989
#
# Coordination Sequence:
#
# PCOD8056179 Si02
#       7
#     4   4   4   4   4   4   4
#     4  11  22  44  74 101 145 194 248 303 373 446
#     4  11  23  45  73 108 142 199 251 308 369 460
#     4  12  23  44  77 113 148 208 254 304 387 461
#     4  12  26  43  78 109 153 200 255 311 378 460
#     4  11  29  45  77 112 153 198 255 323 382 445
#     4  11  26  47  71 110 148 198 257 312 376 457
#     4  12  25  46  74 109 151 197 248 317 381 443
#
# _framework density 23.507788999999999
#
# number of rings (size 3 to 8) (size 9 to 14) (size 15 to 20)
#    0.000    0.571    5.714    0.857    4.000    2.286 
#    2.571    1.429    0.000    0.000    0.000    0.000 
#    0.000    0.000    0.000    0.000    0.000    0.000 
#
# Total GULP energy -173538.408163 kJ/mol
# GULP energy per Si atom -12395.600583 kJ/mol
# Density = 2.345428 g / cm^3
# Si number density = 23.507789 Si / 1000 Ang^3
#
#
#
# Elastic Constant Matrix: (Units=GPa)
#
#
# Indices 1 2 3 4 5 6 
#
# 1 108.0482 63.9750 41.2305 -0.0352 16.6785 0.0077
# 2 63.9750 163.9353 50.0506 -0.0818 5.1143 -0.0641
# 3 41.2305 50.0506 109.6268 -0.1657 6.3474 -0.1041
# 4 -0.0352 -0.0818 -0.1657 32.6322 0.0565 4.7053
# 5 16.6785 5.1143 6.3474 0.0565 41.5153 0.0127
# 6 0.0077 -0.0641 -0.1041 4.7053 0.0127 20.1741
#
#
#
# Elastic Compliance Matrix: (Units=1/GPa)
#
#
# Indices 1 2 3 4 5 6 
#
# 1 0.013586 -0.004277 -0.002897 0.000001 -0.004488 -0.000031
# 2 -0.004277 0.008441 -0.002305 0.000001 0.001031 0.000016
# 3 -0.002897 -0.002305 0.011280 0.000043 -0.000277 0.000042
# 4 0.000001 0.000001 0.000043 0.031711 -0.000048 -0.007396
# 5 -0.004488 0.001031 -0.000277 -0.000048 0.025806 -0.000001
# 6 -0.000031 0.000016 0.000042 -0.007396 -0.000001 0.051294
#
#
# Mechanical properties :
#
#
# Convention : Reuss Voigt Hill
#
# Bulk Modulus (GPa) = 69.69373 76.90248 73.29811
# Shear Modulus (GPa) = 30.14624 33.95461 32.05043
#
# Velocity S-wave (km/s) = 3.58494 3.80465 3.69643
# Velocity P-wave (km/s) = 6.84450 7.21700 7.03322
#
# Compressibility (1/GPa) = 0.01434849
#
# Stress axis : x y z
#
# Youngs Moduli (GPa) = 73.60483 118.47418 88.65483
#
# Poissons Ratio (x) = 0.50676 0.25683
# Poissons Ratio (y) = 0.31484 0.20431
# Poissons Ratio (z) = 0.21323 0.27303
#
# Static dielectric constant tensor:
#      x y z
#    x 4.394350 -0.000020 0.164140 
#    y -0.000020 4.209500 0.000200 
#    z 0.164140 0.000200 4.246350 
# 
# 
# High freq. dielectric constant tensor:
#      x y z
#    x 1.934270 0.000000 0.020000 
#    y 0.000000 1.922440 0.000020 
#    z 0.020000 0.000020 1.931950 
# 
# From -- ./inp_files/35806.got.cif
#   From: 2010.06.25/outbox.cif.g09.slc.cpg/sg9_18_cif.got.tgz:35806.got - 2010.06.27 21:40:51.
