data_PCOD8056964
_publ_section_title
;
Structure prediction by ZEFSAII (Michael W. Deem and Ramdas Pophale) SiO2 
 PCOD8056964
Probable space group: P 2/M
;
_chemical_formula_sum "Si O2"
_cell_formula_units_Z 28
_cell_length_a 32.634580
_cell_length_b 9.116178
_cell_length_c 10.327112
_cell_angle_alpha 90.000000
_cell_angle_beta 147.435492
_cell_angle_gamma 90.000000
_cell_volume 1653.685049
_symmetry_space_group_name_H-M "P 2/M"
_symmetry_group_IT_number 10
_symmetry_cell_setting 'monoclinic'
loop_
_space_group_symop_operation_xyz
x,y,z
-x,y,-z
-x,-y,-z
x,-y,z
loop_
_atom_site_type_symbol
_atom_site_label
_atom_site_fract_x
_atom_site_fract_y
_atom_site_fract_z
Si Si1 0.810317 0.333171 0.509702
Si Si2 0.516173 0.662754 0.390066
Si Si3 0.353805 0.330779 0.969124
Si Si4 0.948378 0.172668 0.979662
Si Si5 0.189469 0.327422 0.791678
Si Si6 0.340243 0.172507 0.198279
Si Si7 0.041194 0.170575 0.475686
O O1 0.835949 0.500000 0.596674
O O2 0.722116 0.309170 0.319980
O O3 0.863501 0.235958 0.742426
O O4 0.818525 0.287163 0.381188
O O5 0.500000 0.672910 0.500000
O O6 0.543243 0.500000 0.423299
O O7 0.582771 0.773589 0.522480
O O8 0.433214 0.697991 0.102798
O O9 0.353363 0.500000 0.022256
O O10 0.349309 0.215886 0.073374
O O11 0.940986 0.000000 0.951056
O O12 0.000000 0.234419 0.000000
O O13 0.985036 0.223285 0.212082
O O14 0.195667 0.500000 0.830514
O O15 0.117675 0.264720 0.677285
O O16 0.264778 0.251427 0.052535
O O17 0.331726 0.000000 0.193027
O O18 0.000000 0.202639 0.500000
O O19 0.062309 0.000000 0.514864
#
# Coordination Sequence:
#
# PCOD8056964 Si02
#       7
#     4   4   4   4   4   4   4
#     4   9  17  28  44  66  89 117 154 192 228 266
#     4   8  13  23  36  50  78 117 151 182 222 270
#     4   8  15  26  37  54  83 118 151 185 227 272
#     4  10  19  31  48  69  92 118 153 190 228 276
#     4  10  19  31  46  64  88 118 155 192 230 274
#     4  10  17  23  36  58  84 114 151 189 226 270
#     4  10  21  36  51  68  93 122 151 190 238 278
#
# _framework density 16.931882000000002
#
# number of rings (size 3 to 8) (size 9 to 14) (size 15 to 20)
#    0.000    2.714    1.429    3.429    0.000    6.000 
#    0.000    0.000    0.000    0.000    0.000    0.000 
#    0.000    1.143    0.000   13.143    0.000    6.857 
#
# Total GULP energy -346986.997391 kJ/mol
# GULP energy per Si atom -12392.392764 kJ/mol
# Density = 1.689334 g / cm^3
# Si number density = 16.931882 Si / 1000 Ang^3
#
#
#
# Elastic Constant Matrix: (Units=GPa)
#
#
# Indices 1 2 3 4 5 6 
#
# 1 59.3394 40.4404 59.3072 0.0000 16.7198 0.0000
# 2 40.4404 84.3008 50.7645 0.0000 23.8956 0.0000
# 3 59.3072 50.7645 123.3403 0.0000 39.6109 0.0000
# 4 0.0000 0.0000 0.0000 26.2332 0.0000 9.7632
# 5 16.7198 23.8956 39.6109 0.0000 32.5042 0.0000
# 6 0.0000 0.0000 0.0000 9.7632 0.0000 15.7933
#
#
#
# Elastic Compliance Matrix: (Units=1/GPa)
#
#
# Indices 1 2 3 4 5 6 
#
# 1 0.038739 -0.010838 -0.016966 0.000000 0.008716 0.000000
# 2 -0.010838 0.019563 -0.000020 0.000000 -0.008783 0.000000
# 3 -0.016966 -0.000020 0.022126 0.000000 -0.018221 0.000000
# 4 0.000000 0.000000 0.000000 0.049511 0.000000 -0.030607
# 5 0.008716 -0.008783 -0.018221 0.000000 0.054944 0.000000
# 6 0.000000 0.000000 0.000000 -0.030607 0.000000 0.082239
#
#
# Mechanical properties :
#
#
# Convention : Reuss Voigt Hill
#
# Bulk Modulus (GPa) = 40.35428 63.11162 51.73295
# Shear Modulus (GPa) = 15.10450 22.67070 18.88760
#
# Velocity S-wave (km/s) = 2.99000 3.66312 3.34354
# Velocity P-wave (km/s) = 5.98374 7.43276 6.74727
#
# Compressibility (1/GPa) = 0.02478052
#
# Stress axis : x y z
#
# Youngs Moduli (GPa) = 25.81378 51.11750 45.19671
#
# Poissons Ratio (x) = 0.55400 0.76680
# Poissons Ratio (y) = 0.27976 0.00090
# Poissons Ratio (z) = 0.43795 0.00102
#
# Static dielectric constant tensor:
#      x y z
#    x 2.824000 0.000000 0.516230 
#    y 0.000000 3.064350 0.000000 
#    z 0.516230 0.000000 3.487210 
# 
# 
# High freq. dielectric constant tensor:
#      x y z
#    x 1.593920 0.000000 0.050400 
#    y 0.000000 1.650910 0.000000 
#    z 0.050400 0.000000 1.655030 
# 
# From -- ./inp_files/37330.got.cif
#   From: 2010.06.25/outbox.cif.g09.slc.cpg/sg10_19_cif.got.tgz:37330.got - 2010.06.27 22:07:45.
