data_PCOD8056727
_publ_section_title
;
Structure prediction by ZEFSAII (Michael W. Deem and Ramdas Pophale) SiO2 
 PCOD8056727
Probable space group: C C
;
_chemical_formula_sum "Si O2"
_cell_formula_units_Z 28
_cell_length_a 6.878029
_cell_length_b 16.851554
_cell_length_c 12.154674
_cell_angle_alpha 90.000000
_cell_angle_beta 62.079806
_cell_angle_gamma 90.000000
_cell_volume 1244.810669
_symmetry_space_group_name_H-M "C C"
_symmetry_group_IT_number 9
_symmetry_cell_setting 'monoclinic'
loop_
_space_group_symop_operation_xyz
x,y,z
x,-y,1/2+z
1/2+x,1/2+y,z
1/2+x,1/2-y,1/2+z
loop_
_atom_site_type_symbol
_atom_site_label
_atom_site_fract_x
_atom_site_fract_y
_atom_site_fract_z
Si Si1 0.772630 0.721002 0.473120
Si Si2 0.309344 0.227461 0.202325
Si Si3 0.828569 0.968448 0.324816
Si Si4 0.032025 0.628716 0.735901
Si Si5 0.037963 0.134760 0.951299
Si Si6 0.183021 0.067038 0.127184
Si Si7 0.982604 0.432574 0.006265
O O1 0.541190 0.743000 0.591010
O O2 0.785291 0.736269 0.339671
O O3 0.828367 0.629764 0.484207
O O4 0.963082 0.774011 0.477198
O O5 0.119602 0.281594 0.199474
O O6 0.271154 0.136218 0.182304
O O7 0.701927 0.920173 0.264948
O O8 0.867810 0.911931 0.419006
O O9 0.715212 0.053237 0.384207
O O10 0.068790 0.995197 0.222404
O O11 0.790292 0.630618 0.849668
O O12 0.025477 0.589371 0.619553
O O13 0.017331 0.100140 0.079153
O O14 0.388844 0.022237 0.017981
#
# Coordination Sequence:
#
# PCOD8056727 Si02
#       7
#     4   4   4   4   4   4   4
#     4  12  28  49  78 112 153 203 256 305 376 459
#     4  12  28  49  78 112 153 203 256 305 376 459
#     4  12  26  46  74 110 148 192 248 312 374 448
#     4  12  25  50  74 106 154 197 246 306 381 448
#     4  12  25  50  74 106 154 197 246 306 381 448
#     4  12  27  45  76 111 148 193 249 312 375 443
#     4  12  27  45  76 111 148 193 249 312 375 443
#
# _framework density 22.493379999999998
#
# number of rings (size 3 to 8) (size 9 to 14) (size 15 to 20)
#    0.000    0.000    4.286    5.143   10.000    0.000 
#    0.000    0.000    0.000    0.000    0.000    0.000 
#    0.000    0.000    0.000    0.000    0.000    0.000 
#
# Total GULP energy -173638.728173 kJ/mol
# GULP energy per Si atom -12402.766298 kJ/mol
# Density = 2.244218 g / cm^3
# Si number density = 22.493380 Si / 1000 Ang^3
#
#
#
# Elastic Constant Matrix: (Units=GPa)
#
#
# Indices 1 2 3 4 5 6 
#
# 1 95.1831 38.6392 28.7563 0.0000 4.4646 0.0000
# 2 38.6392 125.4274 21.9715 0.0000 3.9411 0.0000
# 3 28.7563 21.9715 102.0153 0.0000 2.9992 0.0000
# 4 0.0000 0.0000 0.0000 39.9897 0.0000 -3.3950
# 5 4.4646 3.9411 2.9992 0.0000 33.0614 0.0000
# 6 0.0000 0.0000 0.0000 -3.3950 0.0000 46.5521
#
#
#
# Elastic Compliance Matrix: (Units=1/GPa)
#
#
# Indices 1 2 3 4 5 6 
#
# 1 0.012800 -0.003412 -0.002842 0.000000 -0.001064 0.000000
# 2 -0.003412 0.009217 -0.001007 0.000000 -0.000547 0.000000
# 3 -0.002842 -0.001007 0.010835 0.000000 -0.000479 0.000000
# 4 0.000000 0.000000 0.000000 0.025162 0.000000 0.001835
# 5 -0.001064 -0.000547 -0.000479 0.000000 0.030499 0.000000
# 6 0.000000 0.000000 0.000000 0.001835 0.000000 0.021615
#
#
# Mechanical properties :
#
#
# Convention : Reuss Voigt Hill
#
# Bulk Modulus (GPa) = 54.55707 55.70662 55.13185
# Shear Modulus (GPa) = 38.23804 39.47124 38.85464
#
# Velocity S-wave (km/s) = 4.12754 4.19357 4.16069
# Velocity P-wave (km/s) = 6.85732 6.94749 6.90255
#
# Compressibility (1/GPa) = 0.01832943
#
# Stress axis : x y z
#
# Youngs Moduli (GPa) = 78.12777 108.49029 92.29713
#
# Poissons Ratio (x) = 0.37014 0.26230
# Poissons Ratio (y) = 0.26655 0.09298
# Poissons Ratio (z) = 0.22203 0.10929
#
# Static dielectric constant tensor:
#      x y z
#    x 4.029460 0.000000 -0.054640 
#    y 0.000000 4.182610 0.000000 
#    z -0.054640 0.000000 4.217290 
# 
# 
# High freq. dielectric constant tensor:
#      x y z
#    x 1.896030 0.000000 -0.003360 
#    y 0.000000 1.902600 0.000000 
#    z -0.003360 0.000000 1.899770 
# 
# From -- ./inp_files/13069.got.cif
#   From: 2010.06.25/outbox.cif.g09.slc.cpg/sg9_7_cif.got.tgz:13069.got - 2010.06.27 21:40:51.
