data_PCOD8056328
_publ_section_title
;
Structure prediction by ZEFSAII (Michael W. Deem and Ramdas Pophale) SiO2 
 PCOD8056328
Probable space group: C C
;
_chemical_formula_sum "Si O2"
_cell_formula_units_Z 32
_cell_length_a 13.884563
_cell_length_b 12.208386
_cell_length_c 8.676368
_cell_angle_alpha 90.000000
_cell_angle_beta 70.601126
_cell_angle_gamma 90.000000
_cell_volume 1387.221023
_symmetry_space_group_name_H-M "C C"
_symmetry_group_IT_number 9
_symmetry_cell_setting 'monoclinic'
loop_
_space_group_symop_operation_xyz
x,y,z
x,-y,1/2+z
1/2+x,1/2+y,z
1/2+x,1/2-y,1/2+z
loop_
_atom_site_type_symbol
_atom_site_label
_atom_site_fract_x
_atom_site_fract_y
_atom_site_fract_z
Si Si1 0.467370 0.173685 0.197520
Si Si2 0.458088 0.406713 0.258927
Si Si3 0.680271 0.415389 0.261654
Si Si4 0.174381 0.284279 0.000985
Si Si5 0.831409 0.947495 0.042597
Si Si6 0.135208 0.540750 0.282029
Si Si7 0.251934 0.879722 0.900923
Si Si8 0.599641 0.790679 0.358838
O O1 0.448687 0.279390 0.318191
O O2 0.558657 0.093762 0.198793
O O3 0.361099 0.109899 0.258458
O O4 0.496438 0.225893 0.013594
O O5 0.574955 0.434894 0.227343
O O6 0.428291 0.418998 0.096402
O O7 0.377440 0.487333 0.376761
O O8 0.689999 0.313561 0.373006
O O9 0.689742 0.523071 0.356763
O O10 0.762494 0.397490 0.080290
O O11 0.125109 0.387202 0.941061
O O12 0.279337 0.331249 0.020963
O O13 0.099433 0.245547 0.181747
O O14 0.750065 0.034255 0.156248
O O15 0.106844 0.420338 0.347090
O O16 0.194916 0.764602 0.898763
#
# Coordination Sequence:
#
# PCOD8056328 Si02
#       8
#     4   4   4   4   4   4   4   4
#     4  12  27  45  74 108 146 203 242 308 384 443
#     4  12  25  46  75 110 146 197 249 307 374 444
#     4  12  27  53  74 108 158 199 249 310 383 455
#     4  11  23  46  78 105 149 193 241 315 377 434
#     4  11  25  44  78 112 146 189 254 310 370 444
#     4  11  23  47  72 109 142 191 249 313 365 441
#     4  12  28  50  74 106 155 198 248 312 380 453
#     4  11  24  47  73 104 148 188 252 305 371 444
#
# _framework density 23.067702000000001
#
# number of rings (size 3 to 8) (size 9 to 14) (size 15 to 20)
#    0.000    0.500    3.750    4.500    7.000    0.000 
#    0.000    0.000    0.000    0.000    0.000    0.000 
#    0.000    0.000    0.000    0.000    0.000    0.000 
#
# Total GULP energy -198263.974913 kJ/mol
# GULP energy per Si atom -12391.498432 kJ/mol
# Density = 2.301520 g / cm^3
# Si number density = 23.067702 Si / 1000 Ang^3
#
#
#
# Elastic Constant Matrix: (Units=GPa)
#
#
# Indices 1 2 3 4 5 6 
#
# 1 106.6332 47.3694 61.8067 0.0000 -0.1994 0.0000
# 2 47.3694 112.2811 40.3448 0.0000 10.2445 0.0000
# 3 61.8067 40.3448 158.8409 0.0000 1.9471 0.0000
# 4 0.0000 0.0000 0.0000 34.6225 0.0000 8.9261
# 5 -0.1994 10.2445 1.9471 0.0000 36.1922 0.0000
# 6 0.0000 0.0000 0.0000 8.9261 0.0000 34.8571
#
#
#
# Elastic Compliance Matrix: (Units=1/GPa)
#
#
# Indices 1 2 3 4 5 6 
#
# 1 0.013831 -0.004442 -0.004273 0.000000 0.001564 0.000000
# 2 -0.004442 0.011487 -0.001150 0.000000 -0.003214 0.000000
# 3 -0.004273 -0.001150 0.008252 0.000000 -0.000142 0.000000
# 4 0.000000 0.000000 0.000000 0.030925 0.000000 -0.007919
# 5 0.001564 -0.003214 -0.000142 0.000000 0.028556 0.000000
# 6 0.000000 0.000000 0.000000 -0.007919 0.000000 0.030716
#
#
# Mechanical properties :
#
#
# Convention : Reuss Voigt Hill
#
# Bulk Modulus (GPa) = 72.25291 75.19969 73.72630
# Shear Modulus (GPa) = 33.75891 36.34997 35.05444
#
# Velocity S-wave (km/s) = 3.82968 3.97393 3.90248
# Velocity P-wave (km/s) = 7.13761 7.32984 7.23436
#
# Compressibility (1/GPa) = 0.01384027
#
# Stress axis : x y z
#
# Youngs Moduli (GPa) = 72.30270 87.05719 121.18545
#
# Poissons Ratio (x) = 0.38674 0.51777
# Poissons Ratio (y) = 0.32120 0.13931
# Poissons Ratio (z) = 0.30891 0.10008
#
# Static dielectric constant tensor:
#      x y z
#    x 4.061190 0.000000 -0.010020 
#    y 0.000000 4.293110 0.000000 
#    z -0.010020 0.000000 4.648430 
# 
# 
# High freq. dielectric constant tensor:
#      x y z
#    x 1.894080 0.000000 0.003310 
#    y 0.000000 1.925060 0.000000 
#    z 0.003310 0.000000 1.924620 
# 
# From -- ./inp_files/9110.got.cif
#   From: 2010.06.25/outbox.cif.g09.slc.cpg/sg9_5_cif.got.tgz:9110.got - 2010.06.27 21:40:51.
