data_PCOD8056631
_publ_section_title
;
Structure prediction by ZEFSAII (Michael W. Deem and Ramdas Pophale) SiO2 
 PCOD8056631
Probable space group: C C
;
_chemical_formula_sum "Si O2"
_cell_formula_units_Z 20
_cell_length_a 17.204360
_cell_length_b 5.027509
_cell_length_c 9.995378
_cell_angle_alpha 90.000000
_cell_angle_beta 125.557223
_cell_angle_gamma 90.000000
_cell_volume 703.342598
_symmetry_space_group_name_H-M "C C"
_symmetry_group_IT_number 9
_symmetry_cell_setting 'monoclinic'
loop_
_space_group_symop_operation_xyz
x,y,z
x,-y,1/2+z
1/2+x,1/2+y,z
1/2+x,1/2-y,1/2+z
loop_
_atom_site_type_symbol
_atom_site_label
_atom_site_fract_x
_atom_site_fract_y
_atom_site_fract_z
Si Si1 0.978550 0.310511 0.988790
Si Si2 0.175305 0.014345 0.424361
Si Si3 0.183597 0.530001 0.604210
Si Si4 0.826005 0.325184 0.395999
Si Si5 0.966320 0.034874 0.713865
O O1 0.900045 0.532925 0.867297
O O2 0.965989 0.050664 0.877220
O O3 0.086414 0.422595 0.091019
O O4 0.951608 0.241516 0.117352
O O5 0.219573 0.806406 0.575521
O O6 0.243942 0.031130 0.363949
O O7 0.074284 0.886173 0.277503
O O8 0.161786 0.307794 0.469872
O O9 0.273680 0.429547 0.780190
O O10 0.887996 0.239858 0.585834
#
# Coordination Sequence:
#
# PCOD8056631 Si02
#       5
#     4   4   4   4   4
#     4  11  29  52  86 121 167 223 276 348 418 500
#     4  11  29  50  78 117 165 219 271 339 412 493
#     4  11  29  51  79 116 167 216 275 337 416 488
#     4  12  28  47  84 123 160 217 281 349 409 499
#     4  11  29  50  83 117 169 217 273 343 415 498
#
# _framework density 28.435642000000001
#
# number of rings (size 3 to 8) (size 9 to 14) (size 15 to 20)
#    0.000    0.800    0.000    2.400   28.000    0.000 
#    0.000    0.000    0.000    0.000    0.000    0.000 
#    0.000    0.000    0.000    0.000    0.000    0.000 
#
# Total GULP energy -123902.156702 kJ/mol
# GULP energy per Si atom -12390.215670 kJ/mol
# Density = 2.837092 g / cm^3
# Si number density = 28.435642 Si / 1000 Ang^3
#
#
#
# Elastic Constant Matrix: (Units=GPa)
#
#
# Indices 1 2 3 4 5 6 
#
# 1 100.3363 13.4670 25.1618 0.0000 32.4855 0.0000
# 2 13.4670 88.5289 -0.1353 0.0000 -7.3586 0.0000
# 3 25.1618 -0.1353 128.9404 0.0000 13.0407 0.0000
# 4 0.0000 0.0000 0.0000 33.8783 0.0000 7.7966
# 5 32.4855 -7.3586 13.0407 0.0000 42.4755 0.0000
# 6 0.0000 0.0000 0.0000 7.7966 0.0000 33.1044
#
#
#
# Elastic Compliance Matrix: (Units=1/GPa)
#
#
# Indices 1 2 3 4 5 6 
#
# 1 0.014373 -0.003104 -0.001694 0.000000 -0.011010 0.000000
# 2 -0.003104 0.012136 0.000171 0.000000 0.004424 0.000000
# 3 -0.001694 0.000171 0.008207 0.000000 -0.001194 0.000000
# 4 0.000000 0.000000 0.000000 0.031209 0.000000 -0.007350
# 5 -0.011010 0.004424 -0.001194 0.000000 0.033096 0.000000
# 6 0.000000 0.000000 0.000000 -0.007350 0.000000 0.031938
#
#
# Mechanical properties :
#
#
# Convention : Reuss Voigt Hill
#
# Bulk Modulus (GPa) = 39.27627 43.86584 41.57106
# Shear Modulus (GPa) = 33.62441 40.51245 37.06843
#
# Velocity S-wave (km/s) = 3.44244 3.77862 3.61444
# Velocity P-wave (km/s) = 5.44453 5.87343 5.66304
#
# Compressibility (1/GPa) = 0.02546067
#
# Stress axis : x y z
#
# Youngs Moduli (GPa) = 69.57668 82.39994 121.84509
#
# Poissons Ratio (x) = 0.25578 0.20646
# Poissons Ratio (y) = 0.21597 -0.02084
# Poissons Ratio (z) = 0.11790 -0.01409
#
# Static dielectric constant tensor:
#      x y z
#    x 5.314340 0.000000 0.248210 
#    y 0.000000 5.144640 0.000000 
#    z 0.248210 0.000000 5.297860 
# 
# 
# High freq. dielectric constant tensor:
#      x y z
#    x 2.158350 0.000000 0.023320 
#    y 0.000000 2.141050 0.000000 
#    z 0.023320 0.000000 2.164080 
# 
# From -- ./inp_files/18768.got.cif
#   From: 2010.06.25/outbox.cif.g09.slc.cpg/sg9_10_cif.got.tgz:18768.got - 2010.06.27 21:40:51.
