data_PCOD8056936
_publ_section_title
;
Structure prediction by ZEFSAII (Michael W. Deem and Ramdas Pophale) SiO2 
 PCOD8056936
Probable space group: P 2/M
;
_chemical_formula_sum "Si O2"
_cell_formula_units_Z 26
_cell_length_a 12.534827
_cell_length_b 9.380322
_cell_length_c 20.662286
_cell_angle_alpha 90.000000
_cell_angle_beta 34.303742
_cell_angle_gamma 90.000000
_cell_volume 1369.209907
_symmetry_space_group_name_H-M "P 2/M"
_symmetry_group_IT_number 10
_symmetry_cell_setting 'monoclinic'
loop_
_space_group_symop_operation_xyz
x,y,z
-x,y,-z
-x,-y,-z
x,-y,z
loop_
_atom_site_type_symbol
_atom_site_label
_atom_site_fract_x
_atom_site_fract_y
_atom_site_fract_z
Si Si1 0.715591 0.341192 0.243804
Si Si2 0.967156 0.335726 0.668621
Si Si3 0.000000 0.751524 0.000000
Si Si4 0.015732 0.667863 0.190891
Si Si5 0.682950 0.830995 0.726500
Si Si6 0.734617 0.158380 0.023811
Si Si7 0.683532 0.666632 0.598055
O O1 0.660324 0.500000 0.291927
O O2 0.851382 0.345908 0.113127
O O3 0.515620 0.265917 0.327713
O O4 0.827736 0.271040 0.248346
O O5 0.900914 0.500000 0.694759
O O6 0.000287 0.293711 0.726329
O O7 0.807971 0.230357 0.722005
O O8 0.164305 0.309979 0.534011
O O9 0.115881 0.847960 0.992284
O O10 0.033867 0.500000 0.169045
O O11 0.201267 0.739112 0.066531
O O12 0.466721 0.788176 0.848851
O O13 0.750218 0.754803 0.627033
O O14 0.712516 0.000000 0.705408
O O15 0.715231 0.000000 0.004729
O O16 0.664927 0.500000 0.626763
#
# Coordination Sequence:
#
# PCOD8056936 Si02
#       7
#     4   4   2   4   4   4   4
#     4   9  17  30  54  86 113 139 175 223 273 322
#     4  10  22  39  57  78 110 149 188 225 265 319
#     4  10  16  32  54  80 111 144 173 220 271 330
#     4   9  20  37  56  82 112 145 182 222 270 325
#     4  11  23  38  56  82 111 143 184 229 275 321
#     4  10  21  35  55  82 110 142 180 225 276 326
#     4  10  20  36  58  84 111 143 182 225 273 323
#
# _framework density 18.989053999999999
#
# number of rings (size 3 to 8) (size 9 to 14) (size 15 to 20)
#    0.000    2.154    1.538    1.385    0.000    6.154 
#    0.000    6.154    0.000    0.000    0.000    4.308 
#    0.000    0.000    0.000    0.000    0.000    0.000 
#
# Total GULP energy -322362.282847 kJ/mol
# GULP energy per Si atom -12398.549340 kJ/mol
# Density = 1.894583 g / cm^3
# Si number density = 18.989054 Si / 1000 Ang^3
#
#
#
# Elastic Constant Matrix: (Units=GPa)
#
#
# Indices 1 2 3 4 5 6 
#
# 1 121.1894 43.0156 63.0149 0.0000 11.8174 0.0000
# 2 43.0156 63.9759 37.8884 0.0000 5.2814 0.0000
# 3 63.0149 37.8884 106.4726 0.0000 5.4206 0.0000
# 4 0.0000 0.0000 0.0000 20.3881 0.0000 -3.0154
# 5 11.8174 5.2814 5.4206 0.0000 34.8853 0.0000
# 6 0.0000 0.0000 0.0000 -3.0154 0.0000 18.3159
#
#
#
# Elastic Compliance Matrix: (Units=1/GPa)
#
#
# Indices 1 2 3 4 5 6 
#
# 1 0.013519 -0.005324 -0.005961 0.000000 -0.002847 0.000000
# 2 -0.005324 0.022030 -0.004647 0.000000 -0.000810 0.000000
# 3 -0.005961 -0.004647 0.014550 0.000000 0.000462 0.000000
# 4 0.000000 0.000000 0.000000 0.050272 0.000000 0.008276
# 5 -0.002847 -0.000810 0.000462 0.000000 0.029681 0.000000
# 6 0.000000 0.000000 0.000000 0.008276 0.000000 0.055960
#
#
# Mechanical properties :
#
#
# Convention : Reuss Voigt Hill
#
# Bulk Modulus (GPa) = 54.84349 64.38619 59.61484
# Shear Modulus (GPa) = 22.32596 24.56577 23.44586
#
# Velocity S-wave (km/s) = 3.43261 3.60068 3.51765
# Velocity P-wave (km/s) = 6.68242 7.16011 6.92538
#
# Compressibility (1/GPa) = 0.01823370
#
# Stress axis : x y z
#
# Youngs Moduli (GPa) = 73.97178 45.39358 68.72652
#
# Poissons Ratio (x) = 0.24168 0.40971
# Poissons Ratio (y) = 0.39383 0.31938
# Poissons Ratio (z) = 0.44098 0.21095
#
# Static dielectric constant tensor:
#      x y z
#    x 3.605360 0.000000 -0.119290 
#    y 0.000000 3.226100 0.000000 
#    z -0.119290 0.000000 3.457020 
# 
# 
# High freq. dielectric constant tensor:
#      x y z
#    x 1.743940 0.000000 -0.006090 
#    y 0.000000 1.715610 0.000000 
#    z -0.006090 0.000000 1.739710 
# 
# From -- ./inp_files/83481.got.cif
#   From: 2010.06.25/outbox.cif.g09.slc.cpg/sg10_42_cif.got.tgz:83481.got - 2010.06.27 22:07:45.
