data_PCOD8056490
_publ_section_title
;
Structure prediction by ZEFSAII (Michael W. Deem and Ramdas Pophale) SiO2 
 PCOD8056490
Probable space group: C C
;
_chemical_formula_sum "Si O2"
_cell_formula_units_Z 28
_cell_length_a 10.944282
_cell_length_b 10.754919
_cell_length_c 16.548139
_cell_angle_alpha 90.000000
_cell_angle_beta 144.125621
_cell_angle_gamma 90.000000
_cell_volume 1141.428360
_symmetry_space_group_name_H-M "C C"
_symmetry_group_IT_number 9
_symmetry_cell_setting 'monoclinic'
loop_
_space_group_symop_operation_xyz
x,y,z
x,-y,1/2+z
1/2+x,1/2+y,z
1/2+x,1/2-y,1/2+z
loop_
_atom_site_type_symbol
_atom_site_label
_atom_site_fract_x
_atom_site_fract_y
_atom_site_fract_z
Si Si1 0.179820 0.340009 0.013510
Si Si2 0.345711 0.125916 0.212558
Si Si3 0.134977 0.565103 0.788648
Si Si4 0.442158 0.973442 0.022423
Si Si5 0.615910 0.784756 0.560899
Si Si6 0.568702 0.696471 0.352127
Si Si7 0.997954 0.039365 0.575070
O O1 0.261569 0.215654 0.097981
O O2 0.022554 0.417181 0.982936
O O3 0.366359 0.433259 0.085997
O O4 0.031835 0.302872 0.858499
O O5 0.430844 0.002750 0.214338
O O6 0.158157 0.076723 0.170925
O O7 0.108075 0.572673 0.678264
O O8 0.161598 0.700629 0.841367
O O9 0.343451 0.488073 0.917655
O O10 0.442073 0.122388 0.006269
O O11 0.212790 0.926067 0.923873
O O12 0.571231 0.755218 0.443393
O O13 0.621769 0.662345 0.618151
O O14 0.842723 0.845352 0.698574
#
# Coordination Sequence:
#
# PCOD8056490 Si02
#       7
#     4   4   4   4   4   4   4
#     4  11  28  45  74 114 148 196 257 312 387 447
#     4  11  24  51  74 109 150 197 253 319 377 457
#     4  11  24  49  74 106 150 200 249 319 384 439
#     4  12  27  45  75 115 149 200 256 309 388 463
#     4  12  26  49  80 112 148 208 251 316 394 451
#     4  12  25  51  78 109 155 198 257 321 381 456
#     4  11  24  48  79 105 158 193 255 320 375 465
#
# _framework density 24.530669
#
# number of rings (size 3 to 8) (size 9 to 14) (size 15 to 20)
#    0.000    0.571    2.857    4.286    4.000    3.429 
#    7.714    0.000    0.000    0.000    0.000    0.000 
#    0.000    0.000    0.000    0.000    0.000    0.000 
#
# Total GULP energy -173619.655810 kJ/mol
# GULP energy per Si atom -12401.403986 kJ/mol
# Density = 2.447484 g / cm^3
# Si number density = 24.530669 Si / 1000 Ang^3
#
#
#
# Elastic Constant Matrix: (Units=GPa)
#
#
# Indices 1 2 3 4 5 6 
#
# 1 86.7915 30.2780 46.4964 0.0001 -3.1127 0.0000
# 2 30.2780 104.1488 59.0023 0.0004 2.8004 0.0001
# 3 46.4964 59.0023 110.8743 0.0014 7.4521 0.0005
# 4 0.0001 0.0004 0.0014 39.6157 0.0004 3.9324
# 5 -3.1127 2.8004 7.4521 0.0004 41.1133 0.0001
# 6 0.0000 0.0001 0.0005 3.9324 0.0001 45.4585
#
#
#
# Elastic Compliance Matrix: (Units=1/GPa)
#
#
# Indices 1 2 3 4 5 6 
#
# 1 0.015165 -0.001117 -0.005920 0.000000 0.002297 0.000000
# 2 -0.001117 0.013834 -0.006909 0.000000 0.000225 0.000000
# 3 -0.005920 -0.006909 0.015364 0.000000 -0.002762 0.000000
# 4 0.000000 0.000000 0.000000 0.025461 0.000000 -0.002203
# 5 0.002297 0.000225 -0.002762 0.000000 0.024982 0.000000
# 6 0.000000 0.000000 0.000000 -0.002203 0.000000 0.022189
#
#
# Mechanical properties :
#
#
# Convention : Reuss Voigt Hill
#
# Bulk Modulus (GPa) = 60.70679 63.70754 62.20717
# Shear Modulus (GPa) = 33.24976 36.30671 34.77824
#
# Velocity S-wave (km/s) = 3.68562 3.85132 3.76938
# Velocity P-wave (km/s) = 6.55078 6.76785 6.66020
#
# Compressibility (1/GPa) = 0.01647262
#
# Stress axis : x y z
#
# Youngs Moduli (GPa) = 65.94019 72.28459 65.08769
#
# Poissons Ratio (x) = 0.08074 0.38530
# Poissons Ratio (y) = 0.07365 0.44967
# Poissons Ratio (z) = 0.39035 0.49939
#
# Static dielectric constant tensor:
#      x y z
#    x 4.490950 0.000000 0.022940 
#    y 0.000000 4.412540 0.000000 
#    z 0.022940 0.000000 4.427460 
# 
# 
# High freq. dielectric constant tensor:
#      x y z
#    x 1.976350 0.000000 0.000270 
#    y 0.000000 1.972580 0.000000 
#    z 0.000270 0.000000 1.985950 
# 
# From -- ./inp_files/30049.got.cif
#   From: 2010.06.25/outbox.cif.g09.slc.cpg/sg9_16_cif.got.tgz:30049.got - 2010.06.27 21:40:51.
