data_PCOD8056034
_publ_section_title
;
Structure prediction by ZEFSAII (Michael W. Deem and Ramdas Pophale) SiO2 
 PCOD8056034
Probable space group: C C
;
_chemical_formula_sum "Si O2"
_cell_formula_units_Z 28
_cell_length_a 13.631336
_cell_length_b 4.818837
_cell_length_c 17.061170
_cell_angle_alpha 90.000000
_cell_angle_beta 103.870095
_cell_angle_gamma 90.000000
_cell_volume 1088.022576
_symmetry_space_group_name_H-M "C C"
_symmetry_group_IT_number 9
_symmetry_cell_setting 'monoclinic'
loop_
_space_group_symop_operation_xyz
x,y,z
x,-y,1/2+z
1/2+x,1/2+y,z
1/2+x,1/2-y,1/2+z
loop_
_atom_site_type_symbol
_atom_site_label
_atom_site_fract_x
_atom_site_fract_y
_atom_site_fract_z
Si Si1 0.617280 0.708719 0.432200
Si Si2 0.560710 0.031966 0.145121
Si Si3 0.420405 0.014194 0.909645
Si Si4 0.868528 0.149626 0.629703
Si Si5 0.669004 0.537553 0.098999
Si Si6 0.817009 0.012432 0.957667
Si Si7 0.484563 0.265890 0.773012
O O1 0.533378 0.900417 0.461508
O O2 0.664303 0.496612 0.503889
O O3 0.704380 0.902164 0.412840
O O4 0.560784 0.564479 0.346545
O O5 0.451575 0.158018 0.102173
O O6 0.650161 0.253549 0.144359
O O7 0.579289 0.750307 0.101225
O O8 0.553439 0.942676 0.234805
O O9 0.333931 0.194192 0.936518
O O10 0.413290 0.070328 0.814152
O O11 0.399675 0.693929 0.925905
O O12 0.826851 0.945354 0.553998
O O13 0.917264 0.974680 0.709381
O O14 0.777952 0.341968 0.645302
#
# Coordination Sequence:
#
# PCOD8056034 Si02
#       7
#     4   4   4   4   4   4   4
#     4  10  27  52  73 120 152 205 264 328 377 496
#     4  12  28  53  77 117 157 213 260 341 394 476
#     4  10  28  49  77 110 155 208 255 326 390 470
#     4  12  29  51  81 123 155 209 267 342 382 498
#     4  12  28  49  87 110 158 212 275 314 410 472
#     4  12  26  49  82 108 150 209 267 309 400 468
#     4  10  28  53  77 114 175 196 270 334 409 460
#
# _framework density 25.734757999999999
#
# number of rings (size 3 to 8) (size 9 to 14) (size 15 to 20)
#    0.857    0.000    1.429    2.571   10.000    4.571 
#   10.286    0.000    0.000    0.000    0.000    0.000 
#    0.000    0.000    0.000    0.000    0.000    0.000 
#
# Total GULP energy -173570.060189 kJ/mol
# GULP energy per Si atom -12397.861442 kJ/mol
# Density = 2.567618 g / cm^3
# Si number density = 25.734758 Si / 1000 Ang^3
#
#
#
# Elastic Constant Matrix: (Units=GPa)
#
#
# Indices 1 2 3 4 5 6 
#
# 1 106.3178 14.3144 47.9099 0.0000 -5.5384 0.0000
# 2 14.3144 96.7844 48.7269 0.0000 -6.4690 0.0000
# 3 47.9099 48.7269 154.0578 0.0000 2.5354 0.0000
# 4 0.0000 0.0000 0.0000 37.0836 0.0000 -8.0909
# 5 -5.5384 -6.4690 2.5354 0.0000 39.6803 0.0000
# 6 0.0000 0.0000 0.0000 -8.0909 0.0000 37.1826
#
#
#
# Elastic Compliance Matrix: (Units=1/GPa)
#
#
# Indices 1 2 3 4 5 6 
#
# 1 0.011067 0.000276 -0.003559 0.000000 0.001817 0.000000
# 2 0.000276 0.012501 -0.004078 0.000000 0.002337 0.000000
# 3 -0.003559 -0.004078 0.008916 0.000000 -0.001731 0.000000
# 4 0.000000 0.000000 0.000000 0.028310 0.000000 0.006160
# 5 0.001817 0.002337 -0.001731 0.000000 0.025947 0.000000
# 6 0.000000 0.000000 0.000000 0.006160 0.000000 0.028235
#
#
# Mechanical properties :
#
#
# Convention : Reuss Voigt Hill
#
# Bulk Modulus (GPa) = 56.29884 64.34029 60.31956
# Shear Modulus (GPa) = 36.86815 39.20321 38.03568
#
# Velocity S-wave (km/s) = 3.78910 3.90725 3.84863
# Velocity P-wave (km/s) = 6.40837 6.73878 6.57565
#
# Compressibility (1/GPa) = 0.01776236
#
# Stress axis : x y z
#
# Youngs Moduli (GPa) = 90.35865 79.99466 112.15392
#
# Poissons Ratio (x) = -0.02212 0.39916
# Poissons Ratio (y) = -0.02498 0.45740
# Poissons Ratio (z) = 0.32159 0.32625
#
# Static dielectric constant tensor:
#      x y z
#    x 4.660220 0.000000 -0.235400 
#    y 0.000000 4.463030 0.000000 
#    z -0.235400 0.000000 4.478290 
# 
# 
# High freq. dielectric constant tensor:
#      x y z
#    x 2.037410 0.000000 -0.017530 
#    y 0.000000 2.022350 0.000000 
#    z -0.017530 0.000000 2.022270 
# 
# From -- ./inp_files/30307.got.cif
#   From: 2010.06.25/outbox.cif.g09.slc.cpg/sg9_16_cif.got.tgz:30307.got - 2010.06.27 21:40:51.
