data_PCOD8056101
_publ_section_title
;
Structure prediction by ZEFSAII (Michael W. Deem and Ramdas Pophale) SiO2 
 PCOD8056101
Probable space group: C C
;
_chemical_formula_sum "Si O2"
_cell_formula_units_Z 32
_cell_length_a 19.207800
_cell_length_b 12.013938
_cell_length_c 14.388214
_cell_angle_alpha 90.000000
_cell_angle_beta 153.573098
_cell_angle_gamma 90.000000
_cell_volume 1477.693150
_symmetry_space_group_name_H-M "C C"
_symmetry_group_IT_number 9
_symmetry_cell_setting 'monoclinic'
loop_
_space_group_symop_operation_xyz
x,y,z
x,-y,1/2+z
1/2+x,1/2+y,z
1/2+x,1/2-y,1/2+z
loop_
_atom_site_type_symbol
_atom_site_label
_atom_site_fract_x
_atom_site_fract_y
_atom_site_fract_z
Si Si1 0.791030 0.387112 0.922210
Si Si2 0.152625 0.334013 0.317655
Si Si3 0.645766 0.023810 0.635650
Si Si4 0.821903 0.366319 0.488971
Si Si5 0.623747 0.838125 0.749816
Si Si6 0.585907 0.371912 0.503040
Si Si7 0.388159 0.167042 0.266866
Si Si8 0.287234 0.483397 0.101503
O O1 0.704695 0.294740 0.882004
O O2 0.696046 0.416096 0.716002
O O3 0.785628 0.504791 0.968833
O O4 0.966484 0.348192 0.107598
O O5 0.210222 0.386948 0.288647
O O6 0.240248 0.394954 0.508097
O O7 0.464189 0.053889 0.398286
O O8 0.738191 0.032580 0.650020
O O9 0.664013 0.902166 0.702385
O O10 0.667895 0.291215 0.288173
O O11 0.915270 0.321592 0.689563
O O12 0.937809 0.350949 0.540561
O O13 0.712371 0.890400 0.944784
O O14 0.479163 0.273110 0.418320
O O15 0.702806 0.327154 0.563320
O O16 0.475585 0.468009 0.327588
#
# Coordination Sequence:
#
# PCOD8056101 Si02
#       8
#     4   4   4   4   4   4   4   4
#     4  12  24  45  68 104 140 180 232 287 350 418
#     4  11  25  45  71 103 141 183 232 291 352 416
#     4  11  21  44  72  94 141 187 224 292 347 406
#     4  12  24  44  68 103 140 182 229 288 350 421
#     4  11  24  43  68 102 138 179 229 285 350 411
#     4  12  23  38  65 105 133 178 242 286 341 414
#     4  12  21  38  65  99 136 179 234 288 340 408
#     4  11  24  45  69 102 141 184 234 287 354 410
#
# _framework density 21.655374999999999
#
# number of rings (size 3 to 8) (size 9 to 14) (size 15 to 20)
#    0.000    0.500    7.500    1.500    1.750    2.000 
#    0.000    6.250    0.000    0.000    0.000    0.000 
#    0.000    0.000    0.000    0.000    0.000    0.000 
#
# Total GULP energy -198356.820618 kJ/mol
# GULP energy per Si atom -12397.301289 kJ/mol
# Density = 2.160609 g / cm^3
# Si number density = 21.655375 Si / 1000 Ang^3
#
#
#
# Elastic Constant Matrix: (Units=GPa)
#
#
# Indices 1 2 3 4 5 6 
#
# 1 86.6221 28.1486 32.3897 0.0000 3.9475 0.0000
# 2 28.1486 146.6617 43.9925 0.0000 13.4893 0.0000
# 3 32.3897 43.9925 118.6980 0.0000 14.6397 0.0000
# 4 0.0000 0.0000 0.0000 40.8994 0.0000 2.4915
# 5 3.9475 13.4893 14.6397 0.0000 28.5467 0.0000
# 6 0.0000 0.0000 0.0000 2.4915 0.0000 24.9139
#
#
#
# Elastic Compliance Matrix: (Units=1/GPa)
#
#
# Indices 1 2 3 4 5 6 
#
# 1 0.013203 -0.001668 -0.003049 0.000000 0.000526 0.000000
# 2 -0.001668 0.008028 -0.002221 0.000000 -0.002424 0.000000
# 3 -0.003049 -0.002221 0.010567 0.000000 -0.003948 0.000000
# 4 0.000000 0.000000 0.000000 0.024600 0.000000 -0.002460
# 5 0.000526 -0.002424 -0.003948 0.000000 0.038127 0.000000
# 6 0.000000 0.000000 0.000000 -0.002460 0.000000 0.040384
#
#
# Mechanical properties :
#
#
# Convention : Reuss Voigt Hill
#
# Bulk Modulus (GPa) = 55.80203 62.33815 59.07009
# Shear Modulus (GPa) = 32.30823 35.36874 33.83848
#
# Velocity S-wave (km/s) = 3.86674 4.04574 3.95725
# Velocity P-wave (km/s) = 6.76459 7.11849 6.94380
#
# Compressibility (1/GPa) = 0.01792050
#
# Stress axis : x y z
#
# Youngs Moduli (GPa) = 75.74265 124.56885 94.63378
#
# Poissons Ratio (x) = 0.20773 0.28859
# Poissons Ratio (y) = 0.12631 0.21021
# Poissons Ratio (z) = 0.23098 0.27670
#
# Static dielectric constant tensor:
#      x y z
#    x 3.823630 0.000000 0.002940 
#    y 0.000000 3.862820 0.000000 
#    z 0.002940 0.000000 3.973130 
# 
# 
# High freq. dielectric constant tensor:
#      x y z
#    x 1.844690 0.000000 0.002030 
#    y 0.000000 1.839970 0.000000 
#    z 0.002030 0.000000 1.850000 
# 
# From -- ./inp_files/26832.got.cif
#   From: 2010.06.25/outbox.cif.g09.slc.cpg/sg9_14_cif.got.tgz:26832.got - 2010.06.27 21:40:51.
