data_PCOD8056271
_publ_section_title
;
Structure prediction by ZEFSAII (Michael W. Deem and Ramdas Pophale) SiO2 
 PCOD8056271
Probable space group: C C
;
_chemical_formula_sum "Si O2"
_cell_formula_units_Z 32
_cell_length_a 14.015293
_cell_length_b 11.077240
_cell_length_c 11.608166
_cell_angle_alpha 90.000000
_cell_angle_beta 50.067046
_cell_angle_gamma 90.000000
_cell_volume 1381.902006
_symmetry_space_group_name_H-M "C C"
_symmetry_group_IT_number 9
_symmetry_cell_setting 'monoclinic'
loop_
_space_group_symop_operation_xyz
x,y,z
x,-y,1/2+z
1/2+x,1/2+y,z
1/2+x,1/2-y,1/2+z
loop_
_atom_site_type_symbol
_atom_site_label
_atom_site_fract_x
_atom_site_fract_y
_atom_site_fract_z
Si Si1 0.346880 0.352218 0.269160
Si Si2 0.444733 0.429970 0.803183
Si Si3 0.552290 0.334828 0.943236
Si Si4 0.689738 0.512579 0.980183
Si Si5 0.655488 0.889872 0.233011
Si Si6 0.302243 0.198833 0.501483
Si Si7 0.225702 0.720802 0.432579
Si Si8 0.592357 0.839828 0.811979
O O1 0.364866 0.447715 0.358326
O O2 0.279330 0.410728 0.211752
O O3 0.274796 0.246032 0.391562
O O4 0.479848 0.306851 0.118386
O O5 0.467956 0.407592 0.918656
O O6 0.564918 0.437899 0.632963
O O7 0.364129 0.326650 0.804248
O O8 0.579450 0.205207 0.868166
O O9 0.664979 0.426349 0.888559
O O10 0.769382 0.443257 0.017038
O O11 0.754031 0.636850 0.893757
O O12 0.589927 0.020657 0.269767
O O13 0.680723 0.824332 0.092927
O O14 0.451146 0.214745 0.411025
O O15 0.202269 0.263336 0.663014
O O16 0.125904 0.667522 0.420406
#
# Coordination Sequence:
#
# PCOD8056271 Si02
#       8
#     4   4   4   4   4   4   4   4
#     4  11  24  45  76 104 148 206 248 314 384 458
#     4  11  23  44  71 106 152 194 255 305 385 445
#     4  11  24  44  74 109 153 196 255 317 384 455
#     4  11  27  45  74 110 152 202 250 318 378 461
#     4  12  25  48  74 110 148 200 260 315 374 458
#     4  12  29  53  75 117 156 203 258 315 395 457
#     4  12  27  45  75 115 151 209 258 314 384 456
#     4  12  31  50  81 111 162 202 258 324 382 458
#
# _framework density 23.156489000000001
#
# number of rings (size 3 to 8) (size 9 to 14) (size 15 to 20)
#    0.000    0.500    5.000    2.250    7.000    0.000 
#    2.250    0.000    0.000    0.000    0.000    0.000 
#    0.000    0.000    0.000    0.000    0.000    0.000 
#
# Total GULP energy -198235.893428 kJ/mol
# GULP energy per Si atom -12389.743339 kJ/mol
# Density = 2.310378 g / cm^3
# Si number density = 23.156489 Si / 1000 Ang^3
#
#
#
# Elastic Constant Matrix: (Units=GPa)
#
#
# Indices 1 2 3 4 5 6 
#
# 1 119.5443 47.6435 45.2717 0.0000 -5.1359 0.0000
# 2 47.6435 156.3267 49.8136 0.0000 -4.2680 0.0000
# 3 45.2717 49.8136 90.5829 0.0000 -9.1725 0.0000
# 4 0.0000 0.0000 0.0000 38.9677 0.0000 0.0105
# 5 -5.1359 -4.2680 -9.1725 0.0000 35.0608 0.0000
# 6 0.0000 0.0000 0.0000 0.0105 0.0000 42.7559
#
#
#
# Elastic Compliance Matrix: (Units=1/GPa)
#
#
# Indices 1 2 3 4 5 6 
#
# 1 0.010765 -0.001901 -0.004313 0.000000 0.000217 0.000000
# 2 -0.001901 0.008093 -0.003522 0.000000 -0.000215 0.000000
# 3 -0.004313 -0.003522 0.015434 0.000000 0.002977 0.000000
# 4 0.000000 0.000000 0.000000 0.025662 0.000000 -0.000006
# 5 0.000217 -0.000215 0.002977 0.000000 0.029306 0.000000
# 6 0.000000 0.000000 0.000000 -0.000006 0.000000 0.023389
#
#
# Mechanical properties :
#
#
# Convention : Reuss Voigt Hill
#
# Bulk Modulus (GPa) = 67.47764 72.43461 69.95612
# Shear Modulus (GPa) = 36.48024 38.27186 37.37605
#
# Velocity S-wave (km/s) = 3.97341 4.06981 4.02190
# Velocity P-wave (km/s) = 7.08899 7.30978 7.20023
#
# Compressibility (1/GPa) = 0.01481973
#
# Stress axis : x y z
#
# Youngs Moduli (GPa) = 92.89102 123.56992 64.79367
#
# Poissons Ratio (x) = 0.23486 0.27946
# Poissons Ratio (y) = 0.17655 0.22821
# Poissons Ratio (z) = 0.40065 0.43523
#
# Static dielectric constant tensor:
#      x y z
#    x 4.415250 0.000000 -0.001730 
#    y 0.000000 4.535970 0.000000 
#    z -0.001730 0.000000 4.002640 
# 
# 
# High freq. dielectric constant tensor:
#      x y z
#    x 1.925170 0.000000 0.003500 
#    y 0.000000 1.926430 0.000000 
#    z 0.003500 0.000000 1.908900 
# 
# From -- ./inp_files/18274.got.cif
#   From: 2010.06.25/outbox.cif.g09.slc.cpg/sg9_10_cif.got.tgz:18274.got - 2010.06.27 21:40:51.
