data_PCOD8056731
_publ_section_title
;
Structure prediction by ZEFSAII (Michael W. Deem and Ramdas Pophale) SiO2 
 PCOD8056731
Probable space group: C C
;
_chemical_formula_sum "Si O2"
_cell_formula_units_Z 28
_cell_length_a 14.447819
_cell_length_b 11.747994
_cell_length_c 13.454772
_cell_angle_alpha 90.000000
_cell_angle_beta 31.688506
_cell_angle_gamma 90.000000
_cell_volume 1199.638917
_symmetry_space_group_name_H-M "C C"
_symmetry_group_IT_number 9
_symmetry_cell_setting 'monoclinic'
loop_
_space_group_symop_operation_xyz
x,y,z
x,-y,1/2+z
1/2+x,1/2+y,z
1/2+x,1/2-y,1/2+z
loop_
_atom_site_type_symbol
_atom_site_label
_atom_site_fract_x
_atom_site_fract_y
_atom_site_fract_z
Si Si1 0.244560 0.187547 0.259420
Si Si2 0.394229 0.710504 0.825231
Si Si3 0.616074 0.111076 0.218889
Si Si4 0.015547 0.360820 0.355082
Si Si5 0.074819 0.972315 0.049641
Si Si6 0.742281 0.134209 0.323487
Si Si7 0.392970 0.140846 0.763131
O O1 0.338532 0.235119 0.271301
O O2 0.177315 0.290279 0.251869
O O3 0.091508 0.098400 0.430211
O O4 0.380868 0.117443 0.067632
O O5 0.449063 0.805740 0.855757
O O6 0.553036 0.621417 0.657319
O O7 0.238147 0.636870 0.013274
O O8 0.709001 0.130577 0.237762
O O9 0.567616 0.979613 0.257550
O O10 0.935030 0.299046 0.331308
O O11 0.258656 0.036078 0.901109
O O12 0.904467 0.052232 0.202136
O O13 0.568673 0.099261 0.544619
O O14 0.791142 0.264657 0.294493
#
# Coordination Sequence:
#
# PCOD8056731 Si02
#       7
#     4   4   4   4   4   4   4
#     4  12  25  50  78 115 154 204 268 321 396 474
#     4  12  25  50  78 115 154 204 268 321 396 474
#     4  12  27  47  79 112 152 200 259 327 391 466
#     4  12  27  47  79 112 152 200 259 327 391 466
#     4  12  26  48  82 106 164 210 254 332 392 468
#     4  12  26  50  74 113 160 202 261 325 396 464
#     4  12  26  50  74 113 160 202 261 325 396 464
#
# _framework density 23.340357000000001
#
# number of rings (size 3 to 8) (size 9 to 14) (size 15 to 20)
#    0.000    0.000    4.286    5.143    0.000    1.143 
#    0.000    0.000    0.000    0.000    0.000    0.000 
#    0.000    0.000    0.000    0.000    0.000    0.000 
#
# Total GULP energy -173606.623036 kJ/mol
# GULP energy per Si atom -12400.473074 kJ/mol
# Density = 2.328723 g / cm^3
# Si number density = 23.340357 Si / 1000 Ang^3
#
#
#
# Elastic Constant Matrix: (Units=GPa)
#
#
# Indices 1 2 3 4 5 6 
#
# 1 95.3033 15.4927 18.6118 -0.0001 1.2745 0.0001
# 2 15.4927 109.4710 34.2243 0.0000 -9.9794 0.0001
# 3 18.6118 34.2243 133.5652 -0.0003 1.0252 0.0005
# 4 -0.0001 0.0000 -0.0003 48.8742 0.0001 5.7270
# 5 1.2745 -9.9794 1.0252 0.0001 40.6660 -0.0002
# 6 0.0001 0.0001 0.0005 5.7270 -0.0002 32.9408
#
#
#
# Elastic Compliance Matrix: (Units=1/GPa)
#
#
# Indices 1 2 3 4 5 6 
#
# 1 0.010936 -0.001227 -0.001205 0.000000 -0.000613 0.000000
# 2 -0.001227 0.010329 -0.002496 0.000000 0.002636 0.000000
# 3 -0.001205 -0.002496 0.008300 0.000000 -0.000784 0.000000
# 4 0.000000 0.000000 0.000000 0.020886 0.000000 -0.003631
# 5 -0.000613 0.002636 -0.000784 0.000000 0.025276 0.000000
# 6 0.000000 0.000000 0.000000 -0.003631 0.000000 0.030989
#
#
# Mechanical properties :
#
#
# Convention : Reuss Voigt Hill
#
# Bulk Modulus (GPa) = 50.73573 52.77745 51.75659
# Shear Modulus (GPa) = 40.60352 42.49692 41.55022
#
# Velocity S-wave (km/s) = 4.17541 4.27165 4.22380
# Velocity P-wave (km/s) = 6.71043 6.85496 6.78308
#
# Compressibility (1/GPa) = 0.01970998
#
# Stress axis : x y z
#
# Youngs Moduli (GPa) = 91.44318 96.81373 120.47571
#
# Poissons Ratio (x) = 0.11878 0.14514
# Poissons Ratio (y) = 0.11220 0.30070
# Poissons Ratio (z) = 0.11017 0.24164
#
# Static dielectric constant tensor:
#      x y z
#    x 4.147560 0.000000 0.059260 
#    y 0.000000 4.430490 0.000000 
#    z 0.059260 0.000000 4.528800 
# 
# 
# High freq. dielectric constant tensor:
#      x y z
#    x 1.926960 0.000000 0.004740 
#    y 0.000000 1.932880 0.000000 
#    z 0.004740 0.000000 1.941610 
# 
# From -- ./inp_files/25893.got.cif
#   From: 2010.06.25/outbox.cif.g09.slc.cpg/sg9_13_cif.got.tgz:25893.got - 2010.06.27 21:40:51.
