data_PCOD8056023
_publ_section_title
;
Structure prediction by ZEFSAII (Michael W. Deem and Ramdas Pophale) SiO2 
 PCOD8056023
Probable space group: C C
;
_chemical_formula_sum "Si O2"
_cell_formula_units_Z 20
_cell_length_a 15.435195
_cell_length_b 4.822591
_cell_length_c 9.914986
_cell_angle_alpha 90.000000
_cell_angle_beta 89.908090
_cell_angle_gamma 90.000000
_cell_volume 738.047134
_symmetry_space_group_name_H-M "C C"
_symmetry_group_IT_number 9
_symmetry_cell_setting 'monoclinic'
loop_
_space_group_symop_operation_xyz
x,y,z
x,-y,1/2+z
1/2+x,1/2+y,z
1/2+x,1/2-y,1/2+z
loop_
_atom_site_type_symbol
_atom_site_label
_atom_site_fract_x
_atom_site_fract_y
_atom_site_fract_z
Si Si1 0.721320 0.705387 0.542890
Si Si2 0.996235 0.873692 0.204240
Si Si3 0.381898 0.496322 0.453505
Si Si4 0.724420 0.722658 0.840412
Si Si5 0.616698 0.117654 0.688802
O O1 0.727374 0.568396 0.693479
O O2 0.673963 0.483157 0.444485
O O3 0.672799 0.009550 0.556819
O O4 0.818259 0.741597 0.486069
O O5 0.958022 0.914418 0.352455
O O6 0.083083 0.065097 0.184417
O O7 0.028368 0.559739 0.193110
O O8 0.923209 0.910301 0.093428
O O9 0.322900 0.737539 0.389327
O O10 0.675060 0.024083 0.820330
#
# Coordination Sequence:
#
# PCOD8056023 Si02
#       5
#     4   4   4   4   4
#     4  10  26  48  80 111 159 217 270 320 389 490
#     4  12  29  49  76 118 164 208 257 341 399 456
#     4  12  28  46  76 116 164 206 262 326 396 476
#     4  10  26  48  80 111 159 217 270 320 389 490
#     4  10  29  51  78 112 164 206 271 319 397 470
#
# _framework density 27.098541999999998
#
# number of rings (size 3 to 8) (size 9 to 14) (size 15 to 20)
#    1.200    0.000    2.000    0.000   16.800    0.000 
#    0.000    0.000    0.000    0.000    0.000    0.000 
#    0.000    0.000    0.000    0.000    0.000    0.000 
#
# Total GULP energy -123929.781678 kJ/mol
# GULP energy per Si atom -12392.978168 kJ/mol
# Density = 2.703686 g / cm^3
# Si number density = 27.098542 Si / 1000 Ang^3
#
#
#
# Elastic Constant Matrix: (Units=GPa)
#
#
# Indices 1 2 3 4 5 6 
#
# 1 122.0613 5.8784 19.2609 0.0000 -3.7520 0.0000
# 2 5.8784 59.9681 27.0806 0.0000 -0.7147 0.0000
# 3 19.2609 27.0806 136.3774 0.0000 3.8422 0.0000
# 4 0.0000 0.0000 0.0000 36.8079 0.0000 -0.5445
# 5 -3.7520 -0.7147 3.8422 0.0000 32.4792 0.0000
# 6 0.0000 0.0000 0.0000 -0.5445 0.0000 49.1718
#
#
#
# Elastic Compliance Matrix: (Units=1/GPa)
#
#
# Indices 1 2 3 4 5 6 
#
# 1 0.008424 -0.000287 -0.001164 0.000000 0.001105 0.000000
# 2 -0.000287 0.018351 -0.003626 0.000000 0.000800 0.000000
# 3 -0.001164 -0.003626 0.008250 0.000000 -0.001190 0.000000
# 4 0.000000 0.000000 0.000000 0.027173 0.000000 0.000301
# 5 0.001105 0.000800 -0.001190 0.000000 0.031075 0.000000
# 6 0.000000 0.000000 0.000000 0.000301 0.000000 0.020340
#
#
# Mechanical properties :
#
#
# Convention : Reuss Voigt Hill
#
# Bulk Modulus (GPa) = 40.20654 46.98294 43.59474
# Shear Modulus (GPa) = 37.86249 41.43758 39.65003
#
# Velocity S-wave (km/s) = 3.74199 3.91467 3.82930
# Velocity P-wave (km/s) = 5.79132 6.14885 5.97276
#
# Compressibility (1/GPa) = 0.02487158
#
# Stress axis : x y z
#
# Youngs Moduli (GPa) = 118.70803 54.49418 121.20488
#
# Poissons Ratio (x) = 0.01564 0.14107
# Poissons Ratio (y) = 0.03407 0.43947
# Poissons Ratio (z) = 0.13816 0.19759
#
# Static dielectric constant tensor:
#      x y z
#    x 4.717280 0.000000 0.084110 
#    y 0.000000 4.568560 0.000000 
#    z 0.084110 0.000000 5.327620 
# 
# 
# High freq. dielectric constant tensor:
#      x y z
#    x 2.088660 0.000000 0.003540 
#    y 0.000000 2.087820 0.000000 
#    z 0.003540 0.000000 2.122670 
# 
# From -- ./inp_files/17370.got.cif
#   From: 2010.06.25/outbox.cif.g09.slc.cpg/sg9_9_cif.got.tgz:17370.got - 2010.06.27 21:40:51.
