data_PCOD8056320
_publ_section_title
;
Structure prediction by ZEFSAII (Michael W. Deem and Ramdas Pophale) SiO2 
 PCOD8056320
Probable space group: C C
;
_chemical_formula_sum "Si O2"
_cell_formula_units_Z 32
_cell_length_a 10.579021
_cell_length_b 9.285480
_cell_length_c 14.258312
_cell_angle_alpha 90.000000
_cell_angle_beta 101.611466
_cell_angle_gamma 90.000000
_cell_volume 1371.948806
_symmetry_space_group_name_H-M "C C"
_symmetry_group_IT_number 9
_symmetry_cell_setting 'monoclinic'
loop_
_space_group_symop_operation_xyz
x,y,z
x,-y,1/2+z
1/2+x,1/2+y,z
1/2+x,1/2-y,1/2+z
loop_
_atom_site_type_symbol
_atom_site_label
_atom_site_fract_x
_atom_site_fract_y
_atom_site_fract_z
Si Si1 0.501410 0.515543 0.665940
Si Si2 0.704132 0.001852 0.123402
Si Si3 0.095819 0.804422 0.336565
Si Si4 0.381793 0.836823 0.370445
Si Si5 0.986409 0.467190 0.727953
Si Si6 0.086503 0.214717 0.524873
Si Si7 0.342308 0.053261 0.531019
Si Si8 0.566485 0.732677 0.044183
O O1 0.354141 0.469845 0.660509
O O2 0.563908 0.547839 0.776402
O O3 0.512398 0.662713 0.607327
O O4 0.580589 0.389475 0.625702
O O5 0.629634 0.995118 0.211449
O O6 0.645054 0.127289 0.049938
O O7 0.681132 0.849596 0.067885
O O8 0.243505 0.759840 0.333519
O O9 0.996522 0.678799 0.290040
O O10 0.076627 0.838436 0.443243
O O11 0.484332 0.721253 0.424646
O O12 0.436722 0.899588 0.282141
O O13 0.360824 0.965783 0.439525
O O14 0.886496 0.453695 0.625726
O O15 0.194529 0.098095 0.516556
O O16 0.427936 0.196075 0.539358
#
# Coordination Sequence:
#
# PCOD8056320 Si02
#       8
#     4   4   4   4   4   4   4   4
#     4  12  26  45  71 104 144 185 241 297 348 434
#     4  11  24  47  72  97 142 191 231 295 366 415
#     4  12  25  46  73 109 144 191 244 289 364 427
#     4  12  25  45  72 103 147 191 236 301 355 428
#     4  11  24  46  74 102 144 191 235 299 361 424
#     4  12  23  46  74 103 139 192 239 292 360 426
#     4  11  23  46  75 102 144 189 240 295 363 421
#     4  11  24  49  71 104 148 186 234 298 363 423
#
# _framework density 23.324486
#
# number of rings (size 3 to 8) (size 9 to 14) (size 15 to 20)
#    0.000    0.500    6.250    2.250    0.000    3.000 
#   15.750    0.000    0.000    0.000    0.000    0.000 
#    0.000    0.000    0.000    0.000    0.000    0.000 
#
# Total GULP energy -198451.846296 kJ/mol
# GULP energy per Si atom -12403.240394 kJ/mol
# Density = 2.327140 g / cm^3
# Si number density = 23.324486 Si / 1000 Ang^3
#
#
#
# Elastic Constant Matrix: (Units=GPa)
#
#
# Indices 1 2 3 4 5 6 
#
# 1 117.6845 18.4026 18.5475 0.0000 11.8500 0.0000
# 2 18.4026 89.5488 29.7607 0.0000 3.5363 0.0000
# 3 18.5475 29.7607 86.9726 0.0000 -10.6677 0.0000
# 4 0.0000 0.0000 0.0000 41.2815 0.0000 -0.7949
# 5 11.8500 3.5363 -10.6677 0.0000 40.2336 0.0000
# 6 0.0000 0.0000 0.0000 -0.7949 0.0000 38.9240
#
#
#
# Elastic Compliance Matrix: (Units=1/GPa)
#
#
# Indices 1 2 3 4 5 6 
#
# 1 0.009306 -0.001127 -0.001988 0.000000 -0.003169 0.000000
# 2 -0.001127 0.012951 -0.004434 0.000000 -0.001982 0.000000
# 3 -0.001988 -0.004434 0.014015 0.000000 0.004691 0.000000
# 4 0.000000 0.000000 0.000000 0.024233 0.000000 0.000495
# 5 -0.003169 -0.001982 0.004691 0.000000 0.027206 0.000000
# 6 0.000000 0.000000 0.000000 0.000495 0.000000 0.025701
#
#
# Mechanical properties :
#
#
# Convention : Reuss Voigt Hill
#
# Bulk Modulus (GPa) = 47.22871 47.51415 47.37143
# Shear Modulus (GPa) = 36.88214 39.25417 38.06815
#
# Velocity S-wave (km/s) = 3.98082 4.10684 4.04432
# Velocity P-wave (km/s) = 6.43598 6.55006 6.49327
#
# Compressibility (1/GPa) = 0.02117356
#
# Stress axis : x y z
#
# Youngs Moduli (GPa) = 107.45970 77.21638 71.35462
#
# Poissons Ratio (x) = 0.08700 0.14183
# Poissons Ratio (y) = 0.12107 0.31641
# Poissons Ratio (z) = 0.21359 0.34241
#
# Static dielectric constant tensor:
#      x y z
#    x 4.408720 0.000000 0.046470 
#    y 0.000000 4.078080 0.000000 
#    z 0.046470 0.000000 4.193160 
# 
# 
# High freq. dielectric constant tensor:
#      x y z
#    x 1.930460 0.000000 -0.004590 
#    y 0.000000 1.921550 0.000000 
#    z -0.004590 0.000000 1.920700 
# 
# From -- ./inp_files/24394.got.cif
#   From: 2010.06.25/outbox.cif.g09.slc.cpg/sg9_13_cif.got.tgz:24394.got - 2010.06.27 21:40:51.
