data_PCOD8056522
_publ_section_title
;
Structure prediction by ZEFSAII (Michael W. Deem and Ramdas Pophale) SiO2 
 PCOD8056522
Probable space group: C C
;
_chemical_formula_sum "Si O2"
_cell_formula_units_Z 32
_cell_length_a 11.247543
_cell_length_b 8.818920
_cell_length_c 28.421098
_cell_angle_alpha 90.000000
_cell_angle_beta 31.655188
_cell_angle_gamma 90.000000
_cell_volume 1479.492458
_symmetry_space_group_name_H-M "C C"
_symmetry_group_IT_number 9
_symmetry_cell_setting 'monoclinic'
loop_
_space_group_symop_operation_xyz
x,y,z
x,-y,1/2+z
1/2+x,1/2+y,z
1/2+x,1/2-y,1/2+z
loop_
_atom_site_type_symbol
_atom_site_label
_atom_site_fract_x
_atom_site_fract_y
_atom_site_fract_z
Si Si1 0.196920 0.682801 0.941250
Si Si2 0.460942 0.876365 0.002043
Si Si3 0.729501 0.375920 0.355391
Si Si4 0.994350 0.182582 0.415840
Si Si5 0.978665 0.225218 0.086925
Si Si6 0.712583 0.774847 0.770157
Si Si7 0.043576 0.887198 0.078369
Si Si8 0.147331 0.386994 0.278856
O O1 0.095090 0.750305 0.928807
O O2 0.463687 0.704916 0.851141
O O3 0.092269 0.762343 0.022647
O O4 0.133204 0.505993 0.961708
O O5 0.351429 0.801099 0.085548
O O6 0.260850 0.935561 0.036347
O O7 0.594765 0.750213 0.928777
O O8 0.557763 0.505734 0.395460
O O9 0.839348 0.300769 0.271792
O O10 0.929168 0.434833 0.321382
O O11 0.100085 0.262233 0.334203
O O12 0.727660 0.204968 0.505659
O O13 0.846093 0.268857 0.178443
O O14 0.972358 0.045503 0.078669
O O15 0.718499 0.954577 0.778480
O O16 0.845201 0.822494 0.178615
#
# Coordination Sequence:
#
# PCOD8056522 Si02
#       8
#     4   4   4   4   4   4   4   4
#     4  12  24  45  70  98 136 179 221 278 339 395
#     4  12  25  45  69  96 136 181 226 277 334 400
#     4  12  25  45  69  96 136 181 226 277 334 400
#     4  12  24  45  70  98 136 179 221 278 339 395
#     4  11  25  46  68 102 136 173 226 280 337 402
#     4  11  25  46  68 102 136 173 226 280 337 402
#     4  11  26  45  68 102 136 177 225 278 337 401
#     4  11  26  45  68 102 136 177 225 278 337 401
#
# _framework density 21.629038000000001
#
# number of rings (size 3 to 8) (size 9 to 14) (size 15 to 20)
#    0.000    0.500    5.000    3.000    3.500    1.000 
#    0.000    0.000    0.000    0.000    0.000    0.000 
#    0.000    0.000    0.000    0.000    0.000    0.000 
#
# Total GULP energy -198434.369783 kJ/mol
# GULP energy per Si atom -12402.148111 kJ/mol
# Density = 2.157981 g / cm^3
# Si number density = 21.629038 Si / 1000 Ang^3
#
#
#
# Elastic Constant Matrix: (Units=GPa)
#
#
# Indices 1 2 3 4 5 6 
#
# 1 90.7955 41.6233 35.5931 -0.0035 27.2772 -0.0069
# 2 41.6233 136.8649 61.7972 0.0054 29.7020 -0.0036
# 3 35.5931 61.7972 148.6954 0.0495 24.3347 -0.0421
# 4 -0.0035 0.0054 0.0495 18.8564 0.0066 13.1553
# 5 27.2772 29.7020 24.3347 0.0066 39.0299 -0.0020
# 6 -0.0069 -0.0036 -0.0421 13.1553 -0.0020 38.9394
#
#
#
# Elastic Compliance Matrix: (Units=1/GPa)
#
#
# Indices 1 2 3 4 5 6 
#
# 1 0.014937 -0.002212 -0.001362 0.000012 -0.007907 -0.000004
# 2 -0.002212 0.010304 -0.003032 0.000011 -0.004405 -0.000007
# 3 -0.001362 -0.003032 0.008662 -0.000036 -0.002141 0.000021
# 4 0.000012 0.000011 -0.000036 0.069386 -0.000007 -0.023442
# 5 -0.007907 -0.004405 -0.002141 -0.000007 0.035835 0.000000
# 6 -0.000004 -0.000007 0.000021 -0.023442 0.000000 0.033600
#
#
# Mechanical properties :
#
#
# Convention : Reuss Voigt Hill
#
# Bulk Modulus (GPa) = 48.33026 72.70923 60.51974
# Shear Modulus (GPa) = 25.92910 35.18796 30.55853
#
# Velocity S-wave (km/s) = 3.46614 4.03784 3.76286
# Velocity P-wave (km/s) = 6.19778 7.44502 6.84985
#
# Compressibility (1/GPa) = 0.02069097
#
# Stress axis : x y z
#
# Youngs Moduli (GPa) = 66.94755 97.04850 115.45007
#
# Poissons Ratio (x) = 0.21464 0.15728
# Poissons Ratio (y) = 0.14806 0.35004
# Poissons Ratio (z) = 0.09121 0.29425
#
# Static dielectric constant tensor:
#      x y z
#    x 8.186600 -0.000540 0.270110 
#    y -0.000540 4.066980 -0.000100 
#    z 0.270110 -0.000100 4.066320 
# 
# 
# High freq. dielectric constant tensor:
#      x y z
#    x 1.867430 0.000000 0.011700 
#    y 0.000000 1.858670 0.000000 
#    z 0.011700 0.000000 1.850960 
# 
# From -- ./inp_files/24234.got.cif
#   From: 2010.06.25/outbox.cif.g09.slc.cpg/sg9_13_cif.got.tgz:24234.got - 2010.06.27 21:40:51.
