data_PCOD8056118
_publ_section_title
;
Structure prediction by ZEFSAII (Michael W. Deem and Ramdas Pophale) SiO2 
 PCOD8056118
Probable space group: C C
;
_chemical_formula_sum "Si O2"
_cell_formula_units_Z 32
_cell_length_a 22.116677
_cell_length_b 6.517013
_cell_length_c 10.509135
_cell_angle_alpha 90.000000
_cell_angle_beta 100.247393
_cell_angle_gamma 90.000000
_cell_volume 1490.568938
_symmetry_space_group_name_H-M "C C"
_symmetry_group_IT_number 9
_symmetry_cell_setting 'monoclinic'
loop_
_space_group_symop_operation_xyz
x,y,z
x,-y,1/2+z
1/2+x,1/2+y,z
1/2+x,1/2-y,1/2+z
loop_
_atom_site_type_symbol
_atom_site_label
_atom_site_fract_x
_atom_site_fract_y
_atom_site_fract_z
Si Si1 0.877020 0.001114 0.113500
Si Si2 0.651504 0.633121 0.608709
Si Si3 0.489921 0.376329 0.300232
Si Si4 0.295563 0.160910 0.666243
Si Si5 0.069939 0.461807 0.702595
Si Si6 0.602147 0.365175 0.816415
Si Si7 0.851066 0.609458 0.958064
Si Si8 0.959075 0.328937 0.029897
O O1 0.817506 0.100853 0.158670
O O2 0.922418 0.860387 0.213111
O O3 0.915208 0.211037 0.109836
O O4 0.855706 0.854934 0.989245
O O5 0.722976 0.675073 0.633184
O O6 0.616298 0.842698 0.628412
O O7 0.636982 0.464361 0.710014
O O8 0.630615 0.557534 0.460498
O O9 0.531354 0.184760 0.277702
O O10 0.529000 0.580467 0.285069
O O11 0.476326 0.356211 0.442620
O O12 0.315012 0.076430 0.812403
O O13 0.317400 0.006466 0.562202
O O14 0.108136 0.619594 0.805452
O O15 0.023619 0.591610 0.601233
O O16 0.919616 0.519695 0.959591
#
# Coordination Sequence:
#
# PCOD8056118 Si02
#       8
#     4   4   4   4   4   4   4   4
#     4  11  23  39  64  98 130 169 210 268 330 389
#     4  11  26  45  67  96 131 179 228 268 323 389
#     4  11  22  37  63  96 131 166 209 262 334 392
#     4  11  26  45  67  96 131 179 228 268 323 389
#     4  11  23  39  64  98 130 169 210 268 330 389
#     4  11  24  43  68  97 134 173 218 278 327 386
#     4  11  24  43  68  97 134 173 218 278 327 386
#     4  11  22  37  63  96 131 166 209 262 334 392
#
# _framework density 21.468312999999998
#
# number of rings (size 3 to 8) (size 9 to 14) (size 15 to 20)
#    0.000    1.000    2.500    3.750    3.500    6.000 
#    0.000    0.000    0.000    0.000    0.000    0.000 
#    0.000    0.000    0.000    0.000    0.000    0.000 
#
# Total GULP energy -198315.473688 kJ/mol
# GULP energy per Si atom -12394.717105 kJ/mol
# Density = 2.141945 g / cm^3
# Si number density = 21.468313 Si / 1000 Ang^3
#
#
#
# Elastic Constant Matrix: (Units=GPa)
#
#
# Indices 1 2 3 4 5 6 
#
# 1 117.9148 38.5506 32.8375 0.0000 5.6398 0.0000
# 2 38.5506 108.2096 31.2033 0.0000 -3.4263 0.0000
# 3 32.8375 31.2033 126.6203 0.0000 -3.5379 0.0000
# 4 0.0000 0.0000 0.0000 81.6448 0.0000 18.4066
# 5 5.6398 -3.4263 -3.5379 0.0000 25.5825 0.0000
# 6 0.0000 0.0000 0.0000 18.4066 0.0000 27.3038
#
#
#
# Elastic Compliance Matrix: (Units=1/GPa)
#
#
# Indices 1 2 3 4 5 6 
#
# 1 0.010198 -0.003165 -0.001947 0.000000 -0.002941 0.000000
# 2 -0.003165 0.010956 -0.001826 0.000000 0.001913 0.000000
# 3 -0.001947 -0.001826 0.008892 0.000000 0.001414 0.000000
# 4 0.000000 0.000000 0.000000 0.014443 0.000000 -0.009737
# 5 -0.002941 0.001913 0.001414 0.000000 0.040189 0.000000
# 6 0.000000 0.000000 0.000000 -0.009737 0.000000 0.043189
#
#
# Mechanical properties :
#
#
# Convention : Reuss Voigt Hill
#
# Bulk Modulus (GPa) = 61.83943 61.99194 61.91568
# Shear Modulus (GPa) = 33.98276 43.58311 38.78293
#
# Velocity S-wave (km/s) = 3.98292 4.51057 4.25493
# Velocity P-wave (km/s) = 7.07241 7.48770 7.28302
#
# Compressibility (1/GPa) = 0.01617091
#
# Stress axis : x y z
#
# Youngs Moduli (GPa) = 98.05511 91.27530 112.46073
#
# Poissons Ratio (x) = 0.28888 0.21897
# Poissons Ratio (y) = 0.31034 0.20531
# Poissons Ratio (z) = 0.19092 0.16664
#
# Static dielectric constant tensor:
#      x y z
#    x 3.982860 0.000000 0.008090 
#    y 0.000000 0.181600 0.000000 
#    z 0.008090 0.000000 3.869330 
# 
# 
# High freq. dielectric constant tensor:
#      x y z
#    x 1.843630 0.000000 -0.002180 
#    y 0.000000 1.847200 0.000000 
#    z -0.002180 0.000000 1.843580 
# 
# From -- ./inp_files/19703.got.cif
#   From: 2010.06.25/outbox.cif.g09.slc.cpg/sg9_10_cif.got.tgz:19703.got - 2010.06.27 21:40:51.
