data_PCOD8056037
_publ_section_title
;
Structure prediction by ZEFSAII (Michael W. Deem and Ramdas Pophale) SiO2 
 PCOD8056037
Probable space group: C C
;
_chemical_formula_sum "Si O2"
_cell_formula_units_Z 32
_cell_length_a 11.674586
_cell_length_b 16.505497
_cell_length_c 14.493953
_cell_angle_alpha 90.000000
_cell_angle_beta 150.526077
_cell_angle_gamma 90.000000
_cell_volume 1374.188210
_symmetry_space_group_name_H-M "C C"
_symmetry_group_IT_number 9
_symmetry_cell_setting 'monoclinic'
loop_
_space_group_symop_operation_xyz
x,y,z
x,-y,1/2+z
1/2+x,1/2+y,z
1/2+x,1/2-y,1/2+z
loop_
_atom_site_type_symbol
_atom_site_label
_atom_site_fract_x
_atom_site_fract_y
_atom_site_fract_z
Si Si1 0.815240 0.062552 0.636030
Si Si2 0.617289 0.309624 0.640585
Si Si3 0.786588 0.360118 0.463910
Si Si4 0.862616 0.636804 0.647604
Si Si5 0.992208 0.813948 0.750047
Si Si6 0.545459 0.100154 0.957553
Si Si7 0.568620 0.817678 0.834827
Si Si8 0.684672 0.865897 0.228538
O O1 0.761819 0.123037 0.513269
O O2 0.679709 0.083108 0.633507
O O3 0.091277 0.071484 0.845956
O O4 0.726860 0.971861 0.560498
O O5 0.597164 0.352181 0.727784
O O6 0.542372 0.216456 0.603384
O O7 0.447519 0.350952 0.447615
O O8 0.874745 0.308477 0.778201
O O9 0.674921 0.269682 0.381097
O O10 0.916561 0.391184 0.463724
O O11 0.970890 0.361207 0.675747
O O12 0.611671 0.647186 0.424831
O O13 0.023008 0.717528 0.771356
O O14 0.030474 0.585402 0.696286
O O15 0.845022 0.597269 0.737029
O O16 0.714697 0.823409 0.566342
#
# Coordination Sequence:
#
# PCOD8056037 Si02
#       8
#     4   4   4   4   4   4   4   4
#     4  12  27  47  71 107 150 191 250 316 378 433
#     4  11  18  37  72 111 129 173 242 314 349 424
#     4  12  27  47  77 109 145 203 258 307 372 462
#     4  11  22  43  72 103 142 194 241 302 365 447
#     4  11  22  41  74 105 143 186 247 303 368 448
#     4  12  30  47  68 111 156 196 244 313 385 447
#     4  12  23  45  79 109 141 196 256 310 366 450
#     4  11  19  37  69 105 140 173 238 301 365 421
#
# _framework density 23.286476
#
# number of rings (size 3 to 8) (size 9 to 14) (size 15 to 20)
#    0.000    0.500    6.250    3.750    1.750    5.000 
#    0.000    0.000    0.000    0.000    0.000    0.000 
#    0.000    0.000    0.000    0.000    0.000    0.000 
#
# Total GULP energy -198282.418398 kJ/mol
# GULP energy per Si atom -12392.651150 kJ/mol
# Density = 2.323348 g / cm^3
# Si number density = 23.286476 Si / 1000 Ang^3
#
#
#
# Elastic Constant Matrix: (Units=GPa)
#
#
# Indices 1 2 3 4 5 6 
#
# 1 140.6842 19.2580 27.7675 -0.0343 -16.3692 0.0566
# 2 19.2580 40.8795 7.9648 -0.1162 -5.3598 -0.1032
# 3 27.7675 7.9648 102.6894 -0.3500 -28.0623 -0.2394
# 4 -0.0343 -0.1162 -0.3500 20.2330 -0.0379 0.1851
# 5 -16.3692 -5.3598 -28.0623 -0.0379 45.7783 -0.0344
# 6 0.0566 -0.1032 -0.2394 0.1851 -0.0344 17.5651
#
#
#
# Elastic Compliance Matrix: (Units=1/GPa)
#
#
# Indices 1 2 3 4 5 6 
#
# 1 0.008035 -0.003289 -0.001487 -0.000027 0.001576 -0.000062
# 2 -0.003289 0.026350 -0.000759 0.000134 0.001444 0.000156
# 3 -0.001487 -0.000759 0.012049 0.000213 0.006766 0.000176
# 4 -0.000027 0.000134 0.000213 0.049434 0.000177 -0.000517
# 5 0.001576 0.001444 0.006766 0.000177 0.026725 0.000146
# 6 -0.000062 0.000156 0.000176 -0.000517 0.000146 0.056940
#
#
# Mechanical properties :
#
#
# Convention : Reuss Voigt Hill
#
# Bulk Modulus (GPa) = 28.27757 43.80374 36.04066
# Shear Modulus (GPa) = 24.70463 31.99947 28.35205
#
# Velocity S-wave (km/s) = 3.26068 3.71100 3.49310
# Velocity P-wave (km/s) = 5.13281 6.10030 5.63735
#
# Compressibility (1/GPa) = 0.03536371
#
# Stress axis : x y z
#
# Youngs Moduli (GPa) = 124.45039 37.95124 82.99345
#
# Poissons Ratio (x) = 0.12483 0.12342
# Poissons Ratio (y) = 0.40934 0.06299
# Poissons Ratio (z) = 0.18507 0.02880
#
# Static dielectric constant tensor:
#      x y z
#    x 4.261210 0.000060 -0.242150 
#    y 0.000060 3.832120 0.000030 
#    z -0.242150 0.000030 4.229080 
# 
# 
# High freq. dielectric constant tensor:
#      x y z
#    x 1.927910 0.000000 -0.014640 
#    y 0.000000 1.879440 -0.000010 
#    z -0.014640 -0.000010 1.937030 
# 
# From -- ./inp_files/25024.got.cif
#   From: 2010.06.25/outbox.cif.g09.slc.cpg/sg9_13_cif.got.tgz:25024.got - 2010.06.27 21:40:51.
