data_PCOD8056539
_publ_section_title
;
Structure prediction by ZEFSAII (Michael W. Deem and Ramdas Pophale) SiO2 
 PCOD8056539
Probable space group: C C
;
_chemical_formula_sum "Si O2"
_cell_formula_units_Z 24
_cell_length_a 17.508503
_cell_length_b 6.018373
_cell_length_c 13.639743
_cell_angle_alpha 90.000000
_cell_angle_beta 139.217677
_cell_angle_gamma 90.000000
_cell_volume 938.797341
_symmetry_space_group_name_H-M "C C"
_symmetry_group_IT_number 9
_symmetry_cell_setting 'monoclinic'
loop_
_space_group_symop_operation_xyz
x,y,z
x,-y,1/2+z
1/2+x,1/2+y,z
1/2+x,1/2-y,1/2+z
loop_
_atom_site_type_symbol
_atom_site_label
_atom_site_fract_x
_atom_site_fract_y
_atom_site_fract_z
Si Si1 0.620820 0.077883 0.403100
Si Si2 0.453473 0.446188 0.174635
Si Si3 0.260441 0.196777 0.191118
Si Si4 0.079999 0.077877 0.610027
Si Si5 0.440378 0.196774 0.822011
Si Si6 0.247343 0.446184 0.838491
O O1 0.513812 0.255380 0.297478
O O2 0.740633 0.168993 0.570505
O O3 0.648012 0.980468 0.321589
O O4 0.570989 0.883309 0.422383
O O5 0.552800 0.519545 0.191529
O O6 0.403184 0.644396 0.194954
O O7 0.350406 0.349265 0.006563
O O8 0.297631 0.355605 0.318171
O O9 0.129829 0.116693 0.090740
O O10 0.350411 0.000005 0.256566
O O11 0.187009 0.255367 0.715654
O O12 0.960187 0.168997 0.442624
#
# Coordination Sequence:
#
# PCOD8056539 Si02
#       6
#     4   4   4   4   4   4
#     4  11  25  47  72 107 151 192 245 310 366 436
#     4  11  26  45  73 107 150 191 249 304 366 439
#     4  12  26  44  77 108 147 198 245 300 374 439
#     4  11  25  47  72 107 151 192 245 310 366 436
#     4  12  26  44  77 108 147 198 245 300 374 439
#     4  11  26  45  73 107 150 191 249 304 366 439
#
# _framework density 25.564620000000001
#
# number of rings (size 3 to 8) (size 9 to 14) (size 15 to 20)
#    0.000    0.667    3.333    3.000    4.667    9.333 
#    0.000    0.000    0.000    0.000    0.000    0.000 
#    0.000    0.000    0.000    0.000    0.000    0.000 
#
# Total GULP energy -148711.469674 kJ/mol
# GULP energy per Si atom -12392.622473 kJ/mol
# Density = 2.550643 g / cm^3
# Si number density = 25.564620 Si / 1000 Ang^3
#
#
#
# Elastic Constant Matrix: (Units=GPa)
#
#
# Indices 1 2 3 4 5 6 
#
# 1 112.4939 45.0241 17.0140 0.0000 -30.2529 0.0000
# 2 45.0241 71.4475 35.5724 0.0000 -15.1847 0.0000
# 3 17.0140 35.5724 144.3968 0.0000 -13.9965 0.0000
# 4 0.0000 0.0000 0.0000 40.4311 0.0000 4.0976
# 5 -30.2529 -15.1847 -13.9965 0.0000 40.2541 0.0000
# 6 0.0000 0.0000 0.0000 4.0976 0.0000 68.7618
#
#
#
# Elastic Compliance Matrix: (Units=1/GPa)
#
#
# Indices 1 2 3 4 5 6 
#
# 1 0.013904 -0.007570 0.000996 0.000000 0.007940 0.000000
# 2 -0.007570 0.021030 -0.004213 0.000000 0.000778 0.000000
# 3 0.000996 -0.004213 0.008035 0.000000 0.001953 0.000000
# 4 0.000000 0.000000 0.000000 0.024884 0.000000 -0.001483
# 5 0.007940 0.000778 0.001953 0.000000 0.031783 0.000000
# 6 0.000000 0.000000 0.000000 -0.001483 0.000000 0.014631
#
#
# Mechanical properties :
#
#
# Convention : Reuss Voigt Hill
#
# Bulk Modulus (GPa) = 46.74081 58.17326 52.45704
# Shear Modulus (GPa) = 34.97155 45.27123 40.12139
#
# Velocity S-wave (km/s) = 3.70262 4.21272 3.96588
# Velocity P-wave (km/s) = 6.04998 6.81670 6.44475
#
# Compressibility (1/GPa) = 0.02139458
#
# Stress axis : x y z
#
# Youngs Moduli (GPa) = 71.92175 47.55077 124.45142
#
# Poissons Ratio (x) = 0.35998 -0.12400
# Poissons Ratio (y) = 0.54448 0.52436
# Poissons Ratio (z) = -0.07166 0.20035
#
# Static dielectric constant tensor:
#      x y z
#    x 4.966980 0.000000 -0.155580 
#    y 0.000000 4.352860 0.000000 
#    z -0.155580 0.000000 4.337780 
# 
# 
# High freq. dielectric constant tensor:
#      x y z
#    x 2.062980 0.000000 -0.007580 
#    y 0.000000 1.992950 0.000000 
#    z -0.007580 0.000000 2.022110 
# 
# From -- ./inp_files/18783.got.cif
#   From: 2010.06.25/outbox.cif.g09.slc.cpg/sg9_10_cif.got.tgz:18783.got - 2010.06.27 21:40:51.
