data_PCOD8056588
_publ_section_title
;
Structure prediction by ZEFSAII (Michael W. Deem and Ramdas Pophale) SiO2 
 PCOD8056588
Probable space group: C C
;
_chemical_formula_sum "Si O2"
_cell_formula_units_Z 28
_cell_length_a 7.685081
_cell_length_b 16.957040
_cell_length_c 8.859504
_cell_angle_alpha 90.000000
_cell_angle_beta 111.872755
_cell_angle_gamma 90.000000
_cell_volume 1071.426050
_symmetry_space_group_name_H-M "C C"
_symmetry_group_IT_number 9
_symmetry_cell_setting 'monoclinic'
loop_
_space_group_symop_operation_xyz
x,y,z
x,-y,1/2+z
1/2+x,1/2+y,z
1/2+x,1/2-y,1/2+z
loop_
_atom_site_type_symbol
_atom_site_label
_atom_site_fract_x
_atom_site_fract_y
_atom_site_fract_z
Si Si1 0.672950 0.930292 0.279220
Si Si2 0.277084 0.560905 0.132123
Si Si3 0.272676 0.705902 0.336433
Si Si4 0.305480 0.971573 0.991519
Si Si5 0.690504 0.310843 0.054706
Si Si6 0.174939 0.902448 0.647379
Si Si7 0.106996 0.275353 0.104338
O O1 0.632090 0.948640 0.442727
O O2 0.689896 0.836825 0.254755
O O3 0.835516 0.984643 0.254127
O O4 0.514713 0.968609 0.120451
O O5 0.208331 0.630642 0.218432
O O6 0.455677 0.586790 0.094556
O O7 0.499365 0.716721 0.410202
O O8 0.188532 0.783451 0.228134
O O9 0.175712 0.694069 0.464863
O O10 0.294325 0.948793 0.812271
O O11 0.187613 0.905560 0.046954
O O12 0.228753 0.059353 0.003388
O O13 0.878990 0.274778 0.036257
O O14 0.207810 0.808523 0.665699
#
# Coordination Sequence:
#
# PCOD8056588 Si02
#       7
#     4   4   4   4   4   4   4
#     4  11  27  46  79 109 157 200 264 323 387 463
#     4  12  25  48  76 112 153 200 257 321 389 469
#     4  12  28  47  83 111 159 204 267 314 412 450
#     4  11  26  45  73 106 157 198 252 316 393 452
#     4  11  26  50  74 117 156 200 263 334 369 482
#     4  12  26  48  75 108 160 200 256 320 390 459
#     4  11  28  52  82 113 158 212 265 324 392 463
#
# _framework density 26.133395
#
# number of rings (size 3 to 8) (size 9 to 14) (size 15 to 20)
#    0.000    0.571    2.857    2.571   10.000    6.857 
#    0.000    0.000    0.000    0.000    0.000    0.000 
#    0.000    0.000    0.000    0.000    0.000    0.000 
#
# Total GULP energy -173532.571612 kJ/mol
# GULP energy per Si atom -12395.183687 kJ/mol
# Density = 2.607391 g / cm^3
# Si number density = 26.133395 Si / 1000 Ang^3
#
#
#
# Elastic Constant Matrix: (Units=GPa)
#
#
# Indices 1 2 3 4 5 6 
#
# 1 43.5645 17.3076 28.1543 0.0000 -11.1485 0.0000
# 2 17.3076 153.1025 53.5436 0.0000 -12.9692 0.0000
# 3 28.1543 53.5436 160.9621 0.0000 -10.4096 0.0000
# 4 0.0000 0.0000 0.0000 58.1084 0.0000 -12.6491
# 5 -11.1485 -12.9692 -10.4096 0.0000 34.9830 0.0000
# 6 0.0000 0.0000 0.0000 -12.6491 0.0000 28.0971
#
#
#
# Elastic Compliance Matrix: (Units=1/GPa)
#
#
# Indices 1 2 3 4 5 6 
#
# 1 0.027865 -0.001125 -0.004030 0.000000 0.007264 0.000000
# 2 -0.001125 0.007584 -0.002210 0.000000 0.001795 0.000000
# 3 -0.004030 -0.002210 0.007664 0.000000 0.000177 0.000000
# 4 0.000000 0.000000 0.000000 0.019079 0.000000 0.008589
# 5 0.007264 0.001795 0.000177 0.000000 0.031618 0.000000
# 6 0.000000 0.000000 0.000000 0.008589 0.000000 0.039458
#
#
# Mechanical properties :
#
#
# Convention : Reuss Voigt Hill
#
# Bulk Modulus (GPa) = 35.23283 61.73778 48.48531
# Shear Modulus (GPa) = 31.75449 41.47928 36.61689
#
# Velocity S-wave (km/s) = 3.48960 3.98831 3.74726
# Velocity P-wave (km/s) = 5.45414 6.69957 6.10867
#
# Compressibility (1/GPa) = 0.02838262
#
# Stress axis : x y z
#
# Youngs Moduli (GPa) = 35.88769 131.86228 130.47980
#
# Poissons Ratio (x) = 0.14839 0.52581
# Poissons Ratio (y) = 0.04039 0.28833
# Poissons Ratio (z) = 0.14462 0.29138
#
# Static dielectric constant tensor:
#      x y z
#    x 4.666390 0.000000 0.107870 
#    y 0.000000 5.032370 0.000000 
#    z 0.107870 0.000000 4.794510 
# 
# 
# High freq. dielectric constant tensor:
#      x y z
#    x 2.036800 0.000000 0.003220 
#    y 0.000000 2.054190 0.000000 
#    z 0.003220 0.000000 2.058880 
# 
# From -- ./inp_files/5399.got.cif
#   From: 2010.06.25/outbox.cif.g09.slc.cpg/sg9_3_cif.got.tgz:5399.got - 2010.06.27 21:40:51.
