data_PCOD8056764
_publ_section_title
;
Structure prediction by ZEFSAII (Michael W. Deem and Ramdas Pophale) SiO2 
 PCOD8056764
Probable space group: C C
;
_chemical_formula_sum "Si O2"
_cell_formula_units_Z 24
_cell_length_a 20.456571
_cell_length_b 9.563862
_cell_length_c 12.641257
_cell_angle_alpha 90.000000
_cell_angle_beta 156.569616
_cell_angle_gamma 90.000000
_cell_volume 983.423269
_symmetry_space_group_name_H-M "C C"
_symmetry_group_IT_number 9
_symmetry_cell_setting 'monoclinic'
loop_
_space_group_symop_operation_xyz
x,y,z
x,-y,1/2+z
1/2+x,1/2+y,z
1/2+x,1/2-y,1/2+z
loop_
_atom_site_type_symbol
_atom_site_label
_atom_site_fract_x
_atom_site_fract_y
_atom_site_fract_z
Si Si1 0.834250 0.408975 0.584560
Si Si2 0.652185 0.471775 0.622628
Si Si3 0.089483 0.408517 0.600295
Si Si4 0.271523 0.528519 0.062066
Si Si5 0.791462 0.266447 0.237020
Si Si6 0.132852 0.733284 0.448900
O O1 0.740094 0.512453 0.365555
O O2 0.696059 0.325744 0.444473
O O3 0.934604 0.293408 0.662523
O O4 0.961958 0.500510 0.842287
O O5 0.462022 0.501225 0.341600
O O6 0.716989 0.578743 0.629496
O O7 0.688284 0.313810 0.637871
O O8 0.228594 0.325714 0.742203
O O9 0.989787 0.292103 0.522851
O O10 0.182004 0.512421 0.817317
O O11 0.234406 0.686058 0.045912
O O12 0.209352 0.420808 0.059430
#
# Coordination Sequence:
#
# PCOD8056764 Si02
#       6
#     4   4   4   4   4   4
#     4  12  28  51  80 116 159 203 262 323 389 464
#     4  12  28  49  80 115 157 206 259 320 392 463
#     4  12  28  51  80 116 159 203 262 323 389 464
#     4  12  28  49  80 115 157 206 259 320 392 463
#     4  12  26  51  80 114 157 206 255 323 389 460
#     4  12  26  51  80 114 157 206 255 323 389 460
#
# _framework density 24.404548999999999
#
# number of rings (size 3 to 8) (size 9 to 14) (size 15 to 20)
#    0.000    0.000    6.667    2.000    4.667    1.333 
#    6.000    0.000    0.000    0.000    0.000    0.000 
#    0.000    0.000    0.000    0.000    0.000    0.000 
#
# Total GULP energy -148721.025505 kJ/mol
# GULP energy per Si atom -12393.418792 kJ/mol
# Density = 2.434900 g / cm^3
# Si number density = 24.404549 Si / 1000 Ang^3
#
#
#
# Elastic Constant Matrix: (Units=GPa)
#
#
# Indices 1 2 3 4 5 6 
#
# 1 127.7305 13.1197 66.6869 0.0000 16.3941 0.0000
# 2 13.1197 68.1064 40.3663 0.0000 -10.3030 0.0000
# 3 66.6869 40.3663 160.5688 0.0000 -20.5549 0.0000
# 4 0.0000 0.0000 0.0000 44.5656 0.0000 -6.6369
# 5 16.3941 -10.3030 -20.5549 0.0000 23.8923 0.0000
# 6 0.0000 0.0000 0.0000 -6.6369 0.0000 49.2220
#
#
#
# Elastic Compliance Matrix: (Units=1/GPa)
#
#
# Indices 1 2 3 4 5 6 
#
# 1 0.014144 -0.000593 -0.007867 0.000000 -0.016729 0.000000
# 2 -0.000593 0.017656 -0.003558 0.000000 0.004960 0.000000
# 3 -0.007867 -0.003558 0.012231 0.000000 0.014386 0.000000
# 4 0.000000 0.000000 0.000000 0.022899 0.000000 0.003088
# 5 -0.016729 0.004960 0.014386 0.000000 0.067849 0.000000
# 6 0.000000 0.000000 0.000000 0.003088 0.000000 0.020732
#
#
# Mechanical properties :
#
#
# Convention : Reuss Voigt Hill
#
# Bulk Modulus (GPa) = 50.00744 66.30572 58.15658
# Shear Modulus (GPa) = 26.85126 39.28485 33.06805
#
# Velocity S-wave (km/s) = 3.32061 4.01650 3.68502
# Velocity P-wave (km/s) = 5.93611 6.98127 6.47980
#
# Compressibility (1/GPa) = 0.01999703
#
# Stress axis : x y z
#
# Youngs Moduli (GPa) = 70.70046 56.63816 81.75905
#
# Poissons Ratio (x) = 0.03357 0.64318
# Poissons Ratio (y) = 0.04191 0.29086
# Poissons Ratio (z) = 0.55619 0.20149
#
# Static dielectric constant tensor:
#      x y z
#    x 11.741110 0.000000 3.769500 
#    y 0.000000 4.713490 0.000000 
#    z 3.769500 0.000000 6.149080 
# 
# 
# High freq. dielectric constant tensor:
#      x y z
#    x 1.992430 0.000000 0.021170 
#    y 0.000000 1.975650 0.000000 
#    z 0.021170 0.000000 1.969860 
# 
# From -- ./inp_files/27725.got.cif
#   From: 2010.06.25/outbox.cif.g09.slc.cpg/sg9_14_cif.got.tgz:27725.got - 2010.06.27 21:40:51.
