data_PCOD8056295
_publ_section_title
;
Structure prediction by ZEFSAII (Michael W. Deem and Ramdas Pophale) SiO2 
 PCOD8056295
Probable space group: C C
;
_chemical_formula_sum "Si O2"
_cell_formula_units_Z 28
_cell_length_a 12.909868
_cell_length_b 18.928589
_cell_length_c 5.494921
_cell_angle_alpha 90.000000
_cell_angle_beta 120.265660
_cell_angle_gamma 90.000000
_cell_volume 1159.747114
_symmetry_space_group_name_H-M "C C"
_symmetry_group_IT_number 9
_symmetry_cell_setting 'monoclinic'
loop_
_space_group_symop_operation_xyz
x,y,z
x,-y,1/2+z
1/2+x,1/2+y,z
1/2+x,1/2-y,1/2+z
loop_
_atom_site_type_symbol
_atom_site_label
_atom_site_fract_x
_atom_site_fract_y
_atom_site_fract_z
Si Si1 0.810280 0.300643 0.791110
Si Si2 0.118169 0.894824 0.798588
Si Si3 0.429665 0.705461 0.325078
Si Si4 0.761754 0.158799 0.507281
Si Si5 0.492914 0.841611 0.640664
Si Si6 0.839141 0.458583 0.261171
Si Si7 0.889046 0.961211 0.388498
O O1 0.707198 0.358042 0.713592
O O2 0.757967 0.243146 0.541404
O O3 0.922115 0.344843 0.813820
O O4 0.846162 0.255811 0.066676
O O5 0.032863 0.836521 0.812602
O O6 0.033129 0.950568 0.557196
O O7 0.199557 0.934527 0.096657
O O8 0.345938 0.648664 0.368301
O O9 0.499962 0.758896 0.584673
O O10 0.627821 0.128715 0.318852
O O11 0.823078 0.115408 0.802367
O O12 0.423305 0.889024 0.358140
O O13 0.867327 0.500721 0.542552
O O14 0.849345 0.998112 0.594664
#
# Coordination Sequence:
#
# PCOD8056295 Si02
#       7
#     4   4   4   4   4   4   4
#     4  11  23  45  72 112 145 185 241 315 382 432
#     4  12  24  48  80 108 146 186 252 318 370 434
#     4  11  23  45  72 112 145 185 241 315 382 432
#     4  11  26  45  72 107 150 194 245 303 377 447
#     4  11  26  45  72 107 150 194 245 303 377 447
#     4  12  28  50  74 108 151 205 252 301 364 448
#     4  12  28  50  74 108 151 205 252 301 364 448
#
# _framework density 24.143196
#
# number of rings (size 3 to 8) (size 9 to 14) (size 15 to 20)
#    0.000    0.571    2.857    4.286    4.000    3.429 
#    0.000    0.000    0.000    0.000    0.000    0.000 
#    0.000    0.000    0.000    0.000    0.000    0.000 
#
# Total GULP energy -173572.676111 kJ/mol
# GULP energy per Si atom -12398.048294 kJ/mol
# Density = 2.408825 g / cm^3
# Si number density = 24.143196 Si / 1000 Ang^3
#
#
#
# Elastic Constant Matrix: (Units=GPa)
#
#
# Indices 1 2 3 4 5 6 
#
# 1 124.6167 29.1460 43.5238 0.0000 9.1772 0.0000
# 2 29.1460 70.8614 21.5355 0.0000 -10.7354 0.0000
# 3 43.5238 21.5355 107.2126 0.0000 -0.0372 0.0000
# 4 0.0000 0.0000 0.0000 52.6709 0.0000 3.3252
# 5 9.1772 -10.7354 -0.0372 0.0000 49.1966 0.0000
# 6 0.0000 0.0000 0.0000 3.3252 0.0000 43.6247
#
#
#
# Elastic Compliance Matrix: (Units=1/GPa)
#
#
# Indices 1 2 3 4 5 6 
#
# 1 0.010266 -0.003583 -0.003449 0.000000 -0.002700 0.000000
# 2 -0.003583 0.016828 -0.001924 0.000000 0.004339 0.000000
# 3 -0.003449 -0.001924 0.011114 0.000000 0.000232 0.000000
# 4 0.000000 0.000000 0.000000 0.019078 0.000000 -0.001454
# 5 -0.002700 0.004339 0.000232 0.000000 0.021777 0.000000
# 6 0.000000 0.000000 0.000000 -0.001454 0.000000 0.023034
#
#
# Mechanical properties :
#
#
# Convention : Reuss Voigt Hill
#
# Bulk Modulus (GPa) = 49.27157 54.56680 51.91919
# Shear Modulus (GPa) = 39.44034 42.99747 41.21890
#
# Velocity S-wave (km/s) = 4.04617 4.22469 4.13639
# Velocity P-wave (km/s) = 6.50238 6.81526 6.66066
#
# Compressibility (1/GPa) = 0.02029568
#
# Stress axis : x y z
#
# Youngs Moduli (GPa) = 97.40878 59.42472 89.97784
#
# Poissons Ratio (x) = 0.21294 0.31031
# Poissons Ratio (y) = 0.34905 0.17312
# Poissons Ratio (z) = 0.33594 0.11433
#
# Static dielectric constant tensor:
#      x y z
#    x 4.195940 0.000000 0.040680 
#    y 0.000000 4.691500 0.000000 
#    z 0.040680 0.000000 4.394500 
# 
# 
# High freq. dielectric constant tensor:
#      x y z
#    x 1.949840 0.000000 -0.000320 
#    y 0.000000 1.972170 0.000000 
#    z -0.000320 0.000000 1.960140 
# 
# From -- ./inp_files/1658.got.cif
#   From: 2010.06.25/outbox.cif.g09.slc.cpg/sg9_1_cif.got.tgz:1658.got - 2010.06.27 21:40:51.
