data_PCOD8056381
_publ_section_title
;
Structure prediction by ZEFSAII (Michael W. Deem and Ramdas Pophale) SiO2 
 PCOD8056381
Probable space group: C C
;
_chemical_formula_sum "Si O2"
_cell_formula_units_Z 28
_cell_length_a 5.146936
_cell_length_b 23.463263
_cell_length_c 8.924187
_cell_angle_alpha 90.000000
_cell_angle_beta 89.307540
_cell_angle_gamma 90.000000
_cell_volume 1077.641035
_symmetry_space_group_name_H-M "C C"
_symmetry_group_IT_number 9
_symmetry_cell_setting 'monoclinic'
loop_
_space_group_symop_operation_xyz
x,y,z
x,-y,1/2+z
1/2+x,1/2+y,z
1/2+x,1/2-y,1/2+z
loop_
_atom_site_type_symbol
_atom_site_label
_atom_site_fract_x
_atom_site_fract_y
_atom_site_fract_z
Si Si1 0.288980 0.390435 0.441280
Si Si2 0.288060 0.787978 0.751783
Si Si3 0.295906 0.759995 0.093362
Si Si4 0.041182 0.094066 0.231928
Si Si5 0.727108 0.015942 0.435083
Si Si6 0.369278 0.992755 0.194780
Si Si7 0.771664 0.629872 0.772624
O O1 0.314095 0.383083 0.621555
O O2 0.350253 0.455190 0.390395
O O3 0.512569 0.352165 0.363866
O O4 0.008588 0.368924 0.389682
O O5 0.567030 0.775547 0.675368
O O6 0.070842 0.765360 0.640212
O O7 0.241613 0.855965 0.774081
O O8 0.265317 0.757109 0.913834
O O9 0.304257 0.825952 0.138904
O O10 0.911674 0.068218 0.384523
O O11 0.180580 0.042724 0.134041
O O12 0.443819 0.017998 0.357190
O O13 0.648396 0.015337 0.609882
O O14 0.232801 0.931657 0.196882
#
# Coordination Sequence:
#
# PCOD8056381 Si02
#       7
#     4   4   4   4   4   4   4
#     4  11  24  45  74 116 149 211 246 338 383 492
#     4  12  32  53  88 114 163 212 281 340 410 481
#     4  12  30  57  80 121 154 218 275 347 400 485
#     4  12  27  46  78 114 162 207 269 325 413 478
#     4  11  24  43  69 112 160 199 257 306 405 478
#     4  11  25  44  72 113 156 202 256 323 394 491
#     4  11  26  48  81 104 160 201 266 317 415 463
#
# _framework density 25.982679000000001
#
# number of rings (size 3 to 8) (size 9 to 14) (size 15 to 20)
#    0.000    0.571    2.857    3.429   10.000    3.429 
#    0.000    0.000    0.000    0.000    0.000    0.000 
#    0.000    0.000    0.000    0.000    0.000    0.000 
#
# Total GULP energy -173558.233469 kJ/mol
# GULP energy per Si atom -12397.016676 kJ/mol
# Density = 2.592354 g / cm^3
# Si number density = 25.982679 Si / 1000 Ang^3
#
#
#
# Elastic Constant Matrix: (Units=GPa)
#
#
# Indices 1 2 3 4 5 6 
#
# 1 107.1942 13.0285 19.2405 0.0000 3.8635 0.0000
# 2 13.0285 117.7080 19.7476 0.0000 1.5121 0.0000
# 3 19.2405 19.7476 97.3437 0.0000 0.4881 0.0000
# 4 0.0000 0.0000 0.0000 32.7626 0.0000 -2.1993
# 5 3.8635 1.5121 0.4881 0.0000 41.6005 0.0000
# 6 0.0000 0.0000 0.0000 -2.1993 0.0000 33.4618
#
#
#
# Elastic Compliance Matrix: (Units=1/GPa)
#
#
# Indices 1 2 3 4 5 6 
#
# 1 0.009772 -0.000774 -0.001770 0.000000 -0.000859 0.000000
# 2 -0.000774 0.008860 -0.001643 0.000000 -0.000231 0.000000
# 3 -0.001770 -0.001643 0.010956 0.000000 0.000096 0.000000
# 4 0.000000 0.000000 0.000000 0.030658 0.000000 0.002015
# 5 -0.000859 -0.000231 0.000096 0.000000 0.024125 0.000000
# 6 0.000000 0.000000 0.000000 0.002015 0.000000 0.030017
#
#
# Mechanical properties :
#
#
# Convention : Reuss Voigt Hill
#
# Bulk Modulus (GPa) = 47.14082 47.36434 47.25258
# Shear Modulus (GPa) = 38.51116 39.58027 39.04572
#
# Velocity S-wave (km/s) = 3.85409 3.90722 3.88075
# Velocity P-wave (km/s) = 6.16344 6.21482 6.18918
#
# Compressibility (1/GPa) = 0.02121304
#
# Stress axis : x y z
#
# Youngs Moduli (GPa) = 102.33783 112.86831 91.27707
#
# Poissons Ratio (x) = 0.08731 0.16158
# Poissons Ratio (y) = 0.07916 0.15000
# Poissons Ratio (z) = 0.18115 0.18548
#
# Static dielectric constant tensor:
#      x y z
#    x 4.591830 0.000000 0.144560 
#    y 0.000000 4.836960 0.000000 
#    z 0.144560 0.000000 4.519700 
# 
# 
# High freq. dielectric constant tensor:
#      x y z
#    x 2.047610 0.000000 0.005660 
#    y 0.000000 2.045740 0.000000 
#    z 0.005660 0.000000 2.037260 
# 
# From -- ./inp_files/3999.got.cif
#   From: 2010.06.25/outbox.cif.g09.slc.cpg/sg9_2_cif.got.tgz:3999.got - 2010.06.27 21:40:51.
