data_PCOD8056670
_publ_section_title
;
Structure prediction by ZEFSAII (Michael W. Deem and Ramdas Pophale) SiO2 
 PCOD8056670
Probable space group: C C
;
_chemical_formula_sum "Si O2"
_cell_formula_units_Z 32
_cell_length_a 23.701364
_cell_length_b 13.715123
_cell_length_c 8.482617
_cell_angle_alpha 90.000000
_cell_angle_beta 33.406817
_cell_angle_gamma 90.000000
_cell_volume 1518.180429
_symmetry_space_group_name_H-M "C C"
_symmetry_group_IT_number 9
_symmetry_cell_setting 'monoclinic'
loop_
_space_group_symop_operation_xyz
x,y,z
x,-y,1/2+z
1/2+x,1/2+y,z
1/2+x,1/2-y,1/2+z
loop_
_atom_site_type_symbol
_atom_site_label
_atom_site_fract_x
_atom_site_fract_y
_atom_site_fract_z
Si Si1 0.718250 0.437726 0.942030
Si Si2 0.009066 0.037465 0.331939
Si Si3 0.066641 0.395535 0.862908
Si Si4 0.680433 0.940778 0.281801
Si Si5 0.243532 0.718767 0.390650
Si Si6 0.331527 0.894680 0.363889
Si Si7 0.117357 0.802048 0.412630
Si Si8 0.870355 0.065588 0.931233
O O1 0.785850 0.393769 0.644964
O O2 0.777364 0.526085 0.882633
O O3 0.610311 0.475064 0.127701
O O4 0.703958 0.351187 0.101357
O O5 0.963965 0.086728 0.594129
O O6 0.028171 0.118829 0.152866
O O7 0.919698 0.966922 0.480268
O O8 0.137055 0.395128 0.543629
O O9 0.105193 0.474465 0.898431
O O10 0.069743 0.290293 0.937097
O O11 0.950926 0.419924 0.087080
O O12 0.685153 0.858257 0.137275
O O13 0.792901 0.983338 0.049438
O O14 0.314230 0.788383 0.330387
O O15 0.160398 0.779455 0.486241
O O16 0.311684 0.666092 0.098834
#
# Coordination Sequence:
#
# PCOD8056670 Si02
#       8
#     4   4   4   4   4   4   4   4
#     4  12  24  49  70 100 149 182 226 294 346 411
#     4  12  24  43  74  99 140 183 230 283 353 401
#     4  12  26  45  73 104 139 187 234 281 352 418
#     4  12  24  49  70 100 149 182 226 294 346 411
#     4  12  26  45  70 105 140 183 236 287 344 411
#     4  12  26  45  73 104 139 187 234 281 352 418
#     4  12  26  45  70 105 140 183 236 287 344 411
#     4  12  24  43  74  99 140 183 230 283 353 401
#
# _framework density 21.077863000000001
#
# number of rings (size 3 to 8) (size 9 to 14) (size 15 to 20)
#    0.000    0.000    7.500    1.500    3.500    2.000 
#    0.000    1.250    0.000    0.000    0.000    0.000 
#    0.000    0.000    0.000    0.000    0.000    0.000 
#
# Total GULP energy -198515.067207 kJ/mol
# GULP energy per Si atom -12407.191700 kJ/mol
# Density = 2.102989 g / cm^3
# Si number density = 21.077863 Si / 1000 Ang^3
#
#
#
# Elastic Constant Matrix: (Units=GPa)
#
#
# Indices 1 2 3 4 5 6 
#
# 1 90.7161 36.0615 26.7014 0.0000 -4.2470 0.0000
# 2 36.0615 81.1831 15.2830 0.0000 -2.2039 0.0000
# 3 26.7014 15.2830 96.9900 0.0000 9.5881 0.0000
# 4 0.0000 0.0000 0.0000 26.1118 0.0000 13.1546
# 5 -4.2470 -2.2039 9.5881 0.0000 49.2371 0.0000
# 6 0.0000 0.0000 0.0000 13.1546 0.0000 47.5846
#
#
#
# Elastic Compliance Matrix: (Units=1/GPa)
#
#
# Indices 1 2 3 4 5 6 
#
# 1 0.014310 -0.005711 -0.003198 0.000000 0.001601 0.000000
# 2 -0.005711 0.015020 -0.000828 0.000000 0.000341 0.000000
# 3 -0.003198 -0.000828 0.011575 0.000000 -0.002567 0.000000
# 4 0.000000 0.000000 0.000000 0.044493 0.000000 -0.012300
# 5 0.001601 0.000341 -0.002567 0.000000 0.020963 0.000000
# 6 0.000000 0.000000 0.000000 -0.012300 0.000000 0.024416
#
#
# Mechanical properties :
#
#
# Convention : Reuss Voigt Hill
#
# Bulk Modulus (GPa) = 46.66243 47.22011 46.94127
# Shear Modulus (GPa) = 31.76733 37.30959 34.53846
#
# Velocity S-wave (km/s) = 3.88640 4.21180 4.05237
# Velocity P-wave (km/s) = 6.50577 6.78997 6.64939
#
# Compressibility (1/GPa) = 0.02143052
#
# Stress axis : x y z
#
# Youngs Moduli (GPa) = 69.88185 66.57875 86.39318
#
# Poissons Ratio (x) = 0.38023 0.27628
# Poissons Ratio (y) = 0.39909 0.07155
# Poissons Ratio (z) = 0.22348 0.05514
#
# Static dielectric constant tensor:
#      x y z
#    x 3.916330 0.000000 0.121850 
#    y 0.000000 3.848380 0.000000 
#    z 0.121850 0.000000 3.868260 
# 
# 
# High freq. dielectric constant tensor:
#      x y z
#    x 1.842320 0.000000 0.008840 
#    y 0.000000 1.830000 0.000000 
#    z 0.008840 0.000000 1.834550 
# 
# From -- ./inp_files/7577.got.cif
#   From: 2010.06.25/outbox.cif.g09.slc.cpg/sg9_4_cif.got.tgz:7577.got - 2010.06.27 21:40:51.
