data_PCOD8056891
_publ_section_title
;
Structure prediction by ZEFSAII (Michael W. Deem and Ramdas Pophale) SiO2 
 PCOD8056891
Probable space group: P 2/M
;
_chemical_formula_sum "Si O2"
_cell_formula_units_Z 32
_cell_length_a 15.128492
_cell_length_b 8.476633
_cell_length_c 15.168992
_cell_angle_alpha 90.000000
_cell_angle_beta 79.810750
_cell_angle_gamma 90.000000
_cell_volume 1914.572509
_symmetry_space_group_name_H-M "P 2/M"
_symmetry_group_IT_number 10
_symmetry_cell_setting 'monoclinic'
loop_
_space_group_symop_operation_xyz
x,y,z
-x,y,-z
-x,-y,-z
x,-y,z
loop_
_atom_site_type_symbol
_atom_site_label
_atom_site_fract_x
_atom_site_fract_y
_atom_site_fract_z
Si Si1 0.796847 0.816331 0.581298
Si Si2 0.387258 0.686783 0.429878
Si Si3 0.244978 0.685939 0.748710
Si Si4 0.128836 0.687869 0.922792
Si Si5 0.122677 0.815819 0.619323
Si Si6 0.584478 0.312960 0.376774
Si Si7 0.939079 0.687025 0.886096
Si Si8 0.932988 0.684829 0.690992
O O1 0.691344 0.777451 0.607175
O O2 0.834698 0.760088 0.480442
O O3 0.845798 0.718734 0.648680
O O4 0.814258 0.000000 0.593856
O O5 0.371595 0.500000 0.425806
O O6 0.388491 0.745955 0.530728
O O7 0.482953 0.737796 0.369487
O O8 0.254639 0.500000 0.752714
O O9 0.212821 0.753182 0.849926
O O10 0.170093 0.722105 0.689171
O O11 0.342477 0.758125 0.705032
O O12 0.129305 0.500000 0.919569
O O13 0.038076 0.750474 0.892418
O O14 0.130523 0.746349 0.024832
O O15 0.017367 0.776878 0.635533
O O16 0.138118 0.000000 0.631449
O O17 0.588234 0.500000 0.378025
O O18 0.939554 0.500000 0.887414
O O19 0.912040 0.747741 0.793941
O O20 0.955235 0.500000 0.687528
#
# Coordination Sequence:
#
# PCOD8056891 Si02
#       8
#     4   4   4   4   4   4   4   4
#     4  11  23  35  45  63  92 125 156 190 229 265
#     4   9  16  30  48  67  91 119 150 190 227 264
#     4  10  16  27  49  72  92 122 156 181 216 272
#     4   8  13  23  43  69  95 115 140 185 228 265
#     4  11  22  33  43  62  96 127 152 187 224 260
#     4   8  15  26  46  72  94 114 147 191 228 260
#     4   8  14  25  42  68  93 113 144 187 230 263
#     4  11  21  33  50  67  85 120 163 193 220 266
#
# _framework density 16.713913999999999
#
# number of rings (size 3 to 8) (size 9 to 14) (size 15 to 20)
#    0.000    2.500    2.500    3.000    0.000    3.000 
#    0.000    1.875    0.000    2.250    0.000    0.875 
#    0.000    7.000    0.000    0.000    0.000    0.000 
#
# Total GULP energy -396568.997385 kJ/mol
# GULP energy per Si atom -12392.781168 kJ/mol
# Density = 1.667587 g / cm^3
# Si number density = 16.713914 Si / 1000 Ang^3
#
#
#
# Elastic Constant Matrix: (Units=GPa)
#
#
# Indices 1 2 3 4 5 6 
#
# 1 115.8647 3.9213 58.5572 0.0000 -18.1060 0.0000
# 2 3.9213 14.1137 13.9179 0.0000 -4.4987 0.0000
# 3 58.5572 13.9179 106.1241 0.0000 -18.2510 0.0000
# 4 0.0000 0.0000 0.0000 7.4358 0.0000 -1.4021
# 5 -18.1060 -4.4987 -18.2510 0.0000 26.1729 0.0000
# 6 0.0000 0.0000 0.0000 -1.4021 0.0000 13.2121
#
#
#
# Elastic Compliance Matrix: (Units=1/GPa)
#
#
# Indices 1 2 3 4 5 6 
#
# 1 0.012645 0.004697 -0.006761 0.000000 0.004840 0.000000
# 2 0.004697 0.084416 -0.012054 0.000000 0.009353 0.000000
# 3 -0.006761 -0.012054 0.015423 0.000000 0.004006 0.000000
# 4 0.000000 0.000000 0.000000 0.137230 0.000000 0.014563
# 5 0.004840 0.009353 0.004006 0.000000 0.045957 0.000000
# 6 0.000000 0.000000 0.000000 0.014563 0.000000 0.077234
#
#
# Mechanical properties :
#
#
# Convention : Reuss Voigt Hill
#
# Bulk Modulus (GPa) = 11.86966 43.21061 27.54013
# Shear Modulus (GPa) = 11.64891 20.01123 15.83007
#
# Velocity S-wave (km/s) = 2.64286 3.46393 3.08087
# Velocity P-wave (km/s) = 4.05340 6.47361 5.40082
#
# Compressibility (1/GPa) = 0.08424844
#
# Stress axis : x y z
#
# Youngs Moduli (GPa) = 79.08210 11.84604 64.83730
#
# Poissons Ratio (x) = -0.05564 0.43835
# Poissons Ratio (y) = -0.37142 0.78155
# Poissons Ratio (z) = 0.53466 0.14279
#
# Static dielectric constant tensor:
#      x y z
#    x 3.265620 0.000000 -0.385570 
#    y 0.000000 2.775980 0.000000 
#    z -0.385570 0.000000 3.494260 
# 
# 
# High freq. dielectric constant tensor:
#      x y z
#    x 1.629900 0.000000 -0.018430 
#    y 0.000000 1.614080 0.000000 
#    z -0.018430 0.000000 1.632490 
# 
# From -- ./inp_files/66120.got.cif
#   From: 2010.06.25/outbox.cif.g09.slc.cpg/sg10_34_cif.got.tgz:66120.got - 2010.06.27 22:07:45.
