data_PCOD8056360
_publ_section_title
;
Structure prediction by ZEFSAII (Michael W. Deem and Ramdas Pophale) SiO2 
 PCOD8056360
Probable space group: C C
;
_chemical_formula_sum "Si O2"
_cell_formula_units_Z 32
_cell_length_a 9.520417
_cell_length_b 10.811543
_cell_length_c 14.305037
_cell_angle_alpha 90.000000
_cell_angle_beta 67.715005
_cell_angle_gamma 90.000000
_cell_volume 1362.446481
_symmetry_space_group_name_H-M "C C"
_symmetry_group_IT_number 9
_symmetry_cell_setting 'monoclinic'
loop_
_space_group_symop_operation_xyz
x,y,z
x,-y,1/2+z
1/2+x,1/2+y,z
1/2+x,1/2-y,1/2+z
loop_
_atom_site_type_symbol
_atom_site_label
_atom_site_fract_x
_atom_site_fract_y
_atom_site_fract_z
Si Si1 0.367070 0.890515 0.751490
Si Si2 0.779284 0.743894 0.556615
Si Si3 0.051549 0.582767 0.024611
Si Si4 0.087548 0.198845 0.781027
Si Si5 0.532263 0.584297 0.290312
Si Si6 0.551256 0.367257 0.571852
Si Si7 0.716007 0.835632 0.931673
Si Si8 0.327947 0.001312 0.447553
O O1 0.458998 0.949261 0.642300
O O2 0.442849 0.767956 0.773817
O O3 0.194779 0.853151 0.770488
O O4 0.367422 0.000387 0.828310
O O5 0.651225 0.795584 0.518622
O O6 0.716957 0.691533 0.669547
O O7 0.869750 0.634414 0.482083
O O8 0.900093 0.852055 0.547590
O O9 0.156853 0.473217 0.961849
O O10 0.926834 0.604913 0.974339
O O11 0.151899 0.270503 0.854330
O O12 0.036428 0.060089 0.818270
O O13 0.499431 0.603019 0.189162
O O14 0.398937 0.654420 0.379983
O O15 0.661509 0.246920 0.533695
O O16 0.647775 0.482604 0.507572
#
# Coordination Sequence:
#
# PCOD8056360 Si02
#       8
#     4   4   4   4   4   4   4   4
#     4  11  25  46  74 106 145 200 247 305 371 443
#     4  11  24  46  75 104 148 194 249 307 366 444
#     4  11  25  46  73 109 145 191 253 304 369 444
#     4  11  23  50  75 100 144 200 245 305 376 435
#     4  12  27  49  72 109 147 195 252 308 370 452
#     4  12  25  46  72 108 148 195 241 313 374 435
#     4  12  27  46  75 110 149 192 251 310 376 444
#     4  12  24  47  74 102 152 199 242 306 378 439
#
# _framework density 23.487159999999999
#
# number of rings (size 3 to 8) (size 9 to 14) (size 15 to 20)
#    0.000    0.500    6.250    0.750    5.250    2.000 
#    2.250    0.000    0.000    0.000    0.000    0.000 
#    0.000    0.000    0.000    0.000    0.000    0.000 
#
# Total GULP energy -198384.636282 kJ/mol
# GULP energy per Si atom -12399.039768 kJ/mol
# Density = 2.343370 g / cm^3
# Si number density = 23.487160 Si / 1000 Ang^3
#
#
#
# Elastic Constant Matrix: (Units=GPa)
#
#
# Indices 1 2 3 4 5 6 
#
# 1 138.6367 25.2680 16.1595 0.0000 -6.6340 0.0000
# 2 25.2680 69.8735 6.2435 0.0000 0.8626 0.0000
# 3 16.1595 6.2435 74.5803 0.0000 -15.3708 0.0000
# 4 0.0000 0.0000 0.0000 38.0984 0.0000 -5.0011
# 5 -6.6340 0.8626 -15.3708 0.0000 35.0237 0.0000
# 6 0.0000 0.0000 0.0000 -5.0011 0.0000 39.8096
#
#
#
# Elastic Compliance Matrix: (Units=1/GPa)
#
#
# Indices 1 2 3 4 5 6 
#
# 1 0.007913 -0.002760 -0.001276 0.000000 0.001007 0.000000
# 2 -0.002760 0.015412 -0.000966 0.000000 -0.001326 0.000000
# 3 -0.001276 -0.000966 0.015085 0.000000 0.006403 0.000000
# 4 0.000000 0.000000 0.000000 0.026688 0.000000 0.003353
# 5 0.001007 -0.001326 0.006403 0.000000 0.031585 0.000000
# 6 0.000000 0.000000 0.000000 0.003353 0.000000 0.025541
#
#
# Mechanical properties :
#
#
# Convention : Reuss Voigt Hill
#
# Bulk Modulus (GPa) = 35.20190 42.04808 38.62499
# Shear Modulus (GPa) = 35.28663 38.28097 36.78380
#
# Velocity S-wave (km/s) = 3.88026 4.04154 3.96172
# Velocity P-wave (km/s) = 5.92414 6.30240 6.11619
#
# Compressibility (1/GPa) = 0.02840756
#
# Stress axis : x y z
#
# Youngs Moduli (GPa) = 126.37375 64.88325 66.29007
#
# Poissons Ratio (x) = 0.17908 0.08459
# Poissons Ratio (y) = 0.34879 0.06401
# Poissons Ratio (z) = 0.16125 0.06265
#
# Static dielectric constant tensor:
#      x y z
#    x 4.528900 0.000000 -0.087800 
#    y 0.000000 4.003890 0.000000 
#    z -0.087800 0.000000 4.498830 
# 
# 
# High freq. dielectric constant tensor:
#      x y z
#    x 1.942000 0.000000 -0.009530 
#    y 0.000000 1.911670 0.000000 
#    z -0.009530 0.000000 1.945110 
# 
# From -- ./inp_files/22814.got.cif
#   From: 2010.06.25/outbox.cif.g09.slc.cpg/sg9_12_cif.got.tgz:22814.got - 2010.06.27 21:40:51.
