data_PCOD8056007
_publ_section_title
;
Structure prediction by ZEFSAII (Michael W. Deem and Ramdas Pophale) SiO2 
 PCOD8056007
Probable space group: C C
;
_chemical_formula_sum "Si O2"
_cell_formula_units_Z 32
_cell_length_a 9.195921
_cell_length_b 18.358253
_cell_length_c 12.325348
_cell_angle_alpha 90.000000
_cell_angle_beta 140.534717
_cell_angle_gamma 90.000000
_cell_volume 1322.564538
_symmetry_space_group_name_H-M "C C"
_symmetry_group_IT_number 9
_symmetry_cell_setting 'monoclinic'
loop_
_space_group_symop_operation_xyz
x,y,z
x,-y,1/2+z
1/2+x,1/2+y,z
1/2+x,1/2-y,1/2+z
loop_
_atom_site_type_symbol
_atom_site_label
_atom_site_fract_x
_atom_site_fract_y
_atom_site_fract_z
Si Si1 0.470530 0.573823 0.987460
Si Si2 0.341388 0.839804 0.019224
Si Si3 0.970531 0.371913 0.487461
Si Si4 0.223924 0.065705 0.642615
Si Si5 0.217136 0.434295 0.832308
Si Si6 0.913399 0.814882 0.644820
Si Si7 0.099676 0.339803 0.955701
Si Si8 0.527663 0.685117 0.830102
O O1 0.244337 0.521788 0.865437
O O2 0.457759 0.623115 0.874550
O O3 0.696723 0.521789 0.109486
O O4 0.483301 0.623117 0.100368
O O5 0.375273 0.898409 0.134528
O O6 0.461857 0.764547 0.123925
O O7 0.470536 0.869640 0.987466
O O8 0.074229 0.826400 0.841362
O O9 0.103487 0.422241 0.649785
O O10 0.150107 0.320144 0.529544
O O11 0.837573 0.422241 0.325137
O O12 0.790955 0.320143 0.445379
O O13 0.970530 0.101712 0.487461
O O14 0.065787 0.398408 0.840394
O O15 0.366836 0.326397 0.133560
O O16 0.979204 0.264546 0.851001
#
# Coordination Sequence:
#
# PCOD8056007 Si02
#       8
#     4   4   4   4   4   4   4   4
#     4  10  26  51  70 111 158 188 254 306 378 445
#     4  12  26  47  78 109 152 199 250 309 372 447
#     4  12  26  45  80 109 148 202 246 310 372 445
#     4  10  25  51  71 109 151 195 249 303 370 447
#     4  10  25  51  71 109 151 195 249 303 370 447
#     4  12  26  47  74 115 150 197 251 309 376 445
#     4  12  26  47  78 109 152 199 250 309 372 447
#     4  12  26  47  74 115 150 197 251 309 376 445
#
# _framework density 24.195415000000001
#
# number of rings (size 3 to 8) (size 9 to 14) (size 15 to 20)
#    0.750    0.000    3.750    2.250    5.250    7.000 
#    4.500    0.000    0.000    0.000    0.000    0.000 
#    0.000    0.000    0.000    0.000    0.000    0.000 
#
# Total GULP energy -198427.018704 kJ/mol
# GULP energy per Si atom -12401.688669 kJ/mol
# Density = 2.414034 g / cm^3
# Si number density = 24.195415 Si / 1000 Ang^3
#
#
#
# Elastic Constant Matrix: (Units=GPa)
#
#
# Indices 1 2 3 4 5 6 
#
# 1 109.5607 69.7648 27.9121 0.0005 -23.4667 -0.0006
# 2 69.7648 134.3556 33.8588 0.0000 -21.4717 -0.0001
# 3 27.9121 33.8588 154.5379 0.0009 -14.6050 -0.0012
# 4 0.0005 0.0000 0.0009 49.6543 0.0006 -21.4309
# 5 -23.4667 -21.4717 -14.6050 0.0006 43.0710 -0.0008
# 6 -0.0006 -0.0001 -0.0012 -21.4309 -0.0008 44.5894
#
#
#
# Elastic Compliance Matrix: (Units=1/GPa)
#
#
# Indices 1 2 3 4 5 6 
#
# 1 0.014468 -0.006632 -0.000752 0.000000 0.004321 0.000000
# 2 -0.006632 0.011449 -0.001149 0.000000 0.001704 0.000000
# 3 -0.000752 -0.001149 0.006990 0.000000 0.001388 0.000000
# 4 0.000000 0.000000 0.000000 0.025410 0.000000 0.012213
# 5 0.004321 0.001704 0.001388 0.000000 0.026892 0.000000
# 6 0.000000 0.000000 0.000000 0.012213 0.000000 0.028297
#
#
# Mechanical properties :
#
#
# Convention : Reuss Voigt Hill
#
# Bulk Modulus (GPa) = 63.13387 73.50283 68.31835
# Shear Modulus (GPa) = 36.80476 45.25751 41.03113
#
# Velocity S-wave (km/s) = 3.90442 4.32962 4.12250
# Velocity P-wave (km/s) = 6.81733 7.44573 7.13845
#
# Compressibility (1/GPa) = 0.01583936
#
# Stress axis : x y z
#
# Youngs Moduli (GPa) = 69.11928 87.34497 143.06913
#
# Poissons Ratio (x) = 0.57931 0.10753
# Poissons Ratio (y) = 0.45843 0.16445
# Poissons Ratio (z) = 0.05195 0.10040
#
# Static dielectric constant tensor:
#      x y z
#    x 4.303360 0.000000 0.053360 
#    y 0.000000 4.053960 0.000000 
#    z 0.053360 0.000000 4.427270 
# 
# 
# High freq. dielectric constant tensor:
#      x y z
#    x 1.963640 0.000000 0.005250 
#    y 0.000000 1.950020 0.000000 
#    z 0.005250 0.000000 1.978710 
# 
# From -- ./inp_files/15437.got.cif
#   From: 2010.06.25/outbox.cif.g09.slc.cpg/sg9_8_cif.got.tgz:15437.got - 2010.06.27 21:40:51.
