data_PCOD8056251
_publ_section_title
;
Structure prediction by ZEFSAII (Michael W. Deem and Ramdas Pophale) SiO2 
 PCOD8056251
Probable space group: C C
;
_chemical_formula_sum "Si O2"
_cell_formula_units_Z 20
_cell_length_a 6.702112
_cell_length_b 23.863608
_cell_length_c 5.601570
_cell_angle_alpha 90.000000
_cell_angle_beta 107.842162
_cell_angle_gamma 90.000000
_cell_volume 852.807068
_symmetry_space_group_name_H-M "C C"
_symmetry_group_IT_number 9
_symmetry_cell_setting 'monoclinic'
loop_
_space_group_symop_operation_xyz
x,y,z
x,-y,1/2+z
1/2+x,1/2+y,z
1/2+x,1/2-y,1/2+z
loop_
_atom_site_type_symbol
_atom_site_label
_atom_site_fract_x
_atom_site_fract_y
_atom_site_fract_z
Si Si1 0.061110 0.325017 0.402940
Si Si2 0.052892 0.533726 0.367212
Si Si3 0.978194 0.196772 0.325058
Si Si4 0.227162 0.881675 0.601292
Si Si5 0.848882 0.119037 0.658151
O O1 0.254958 0.323115 0.650503
O O2 0.136043 0.355193 0.189754
O O3 0.978326 0.263278 0.316000
O O4 0.880741 0.362630 0.447788
O O5 0.055938 0.499190 0.616747
O O6 0.265401 0.571455 0.446386
O O7 0.838891 0.569932 0.295548
O O8 0.984711 0.169453 0.589793
O O9 0.172595 0.172112 0.246000
O O10 0.010169 0.906524 0.412062
#
# Coordination Sequence:
#
# PCOD8056251 Si02
#       5
#     4   4   4   4   4
#     4  11  23  43  69 112 152 192 236 291 371 450
#     4  12  29  51  77 106 146 196 257 321 376 430
#     4  11  24  40  73 109 149 193 241 291 366 456
#     4  11  26  46  74 105 149 193 244 304 370 442
#     4  11  26  46  73 106 150 190 248 303 365 450
#
# _framework density 23.451964
#
# number of rings (size 3 to 8) (size 9 to 14) (size 15 to 20)
#    0.000    0.800    2.000    3.600   11.200    4.800 
#    0.000    0.000    0.000    0.000    0.000    0.000 
#    0.000    0.000    0.000    0.000    0.000    0.000 
#
# Total GULP energy -123984.520596 kJ/mol
# GULP energy per Si atom -12398.452060 kJ/mol
# Density = 2.339859 g / cm^3
# Si number density = 23.451964 Si / 1000 Ang^3
#
#
#
# Elastic Constant Matrix: (Units=GPa)
#
#
# Indices 1 2 3 4 5 6 
#
# 1 117.4367 46.3171 44.6820 0.0000 -8.5852 0.0000
# 2 46.3171 124.6857 64.3361 0.0000 7.8752 0.0000
# 3 44.6820 64.3361 118.4712 0.0000 -11.0749 0.0000
# 4 0.0000 0.0000 0.0000 46.7343 0.0000 2.1490
# 5 -8.5852 7.8752 -11.0749 0.0000 44.9682 0.0000
# 6 0.0000 0.0000 0.0000 2.1490 0.0000 28.6436
#
#
#
# Elastic Compliance Matrix: (Units=1/GPa)
#
#
# Indices 1 2 3 4 5 6 
#
# 1 0.010672 -0.002931 -0.002246 0.000000 0.001998 0.000000
# 2 -0.002931 0.012521 -0.006091 0.000000 -0.004253 0.000000
# 3 -0.002246 -0.006091 0.012954 0.000000 0.003828 0.000000
# 4 0.000000 0.000000 0.000000 0.021472 0.000000 -0.001611
# 5 0.001998 -0.004253 0.003828 0.000000 0.024307 0.000000
# 6 0.000000 0.000000 0.000000 -0.001611 0.000000 0.035033
#
#
# Mechanical properties :
#
#
# Convention : Reuss Voigt Hill
#
# Bulk Modulus (GPa) = 73.48396 74.58489 74.03443
# Shear Modulus (GPa) = 34.71439 37.75313 36.23376
#
# Velocity S-wave (km/s) = 3.85155 4.01659 3.93494
# Velocity P-wave (km/s) = 7.15410 7.30637 7.23063
#
# Compressibility (1/GPa) = 0.01360841
#
# Stress axis : x y z
#
# Youngs Moduli (GPa) = 93.70206 79.86722 77.19679
#
# Poissons Ratio (x) = 0.23413 0.17341
# Poissons Ratio (y) = 0.27468 0.47023
# Poissons Ratio (z) = 0.21049 0.48650
#
# Static dielectric constant tensor:
#      x y z
#    x 4.257040 0.000000 0.123380 
#    y 0.000000 4.407930 0.000000 
#    z 0.123380 0.000000 4.401070 
# 
# 
# High freq. dielectric constant tensor:
#      x y z
#    x 1.938810 0.000000 0.012330 
#    y 0.000000 1.920170 0.000000 
#    z 0.012330 0.000000 1.943280 
# 
# From -- ./inp_files/158.got.cif
#   From: 2010.06.25/outbox.cif.g09.slc.cpg/sg9_1_cif.got.tgz:158.got - 2010.06.27 21:40:51.
