data_PCOD8056315
_publ_section_title
;
Structure prediction by ZEFSAII (Michael W. Deem and Ramdas Pophale) SiO2 
 PCOD8056315
Probable space group: C C
;
_chemical_formula_sum "Si O2"
_cell_formula_units_Z 32
_cell_length_a 8.516480
_cell_length_b 11.245599
_cell_length_c 27.835441
_cell_angle_alpha 90.000000
_cell_angle_beta 32.207726
_cell_angle_gamma 90.000000
_cell_volume 1420.889147
_symmetry_space_group_name_H-M "C C"
_symmetry_group_IT_number 9
_symmetry_cell_setting 'monoclinic'
loop_
_space_group_symop_operation_xyz
x,y,z
x,-y,1/2+z
1/2+x,1/2+y,z
1/2+x,1/2-y,1/2+z
loop_
_atom_site_type_symbol
_atom_site_label
_atom_site_fract_x
_atom_site_fract_y
_atom_site_fract_z
Si Si1 0.517570 0.476433 0.453400
Si Si2 0.673362 0.713475 0.843891
Si Si3 0.846087 0.383046 0.996922
Si Si4 0.282668 0.789405 0.861554
Si Si5 0.703530 0.364471 0.496813
Si Si6 0.613269 0.230410 0.181099
Si Si7 0.877189 0.469797 0.097180
Si Si8 0.820059 0.716584 0.156973
O O1 0.571430 0.415705 0.388203
O O2 0.733561 0.587736 0.402581
O O3 0.580158 0.367703 0.474224
O O4 0.189238 0.528838 0.543528
O O5 0.502180 0.717734 0.838098
O O6 0.018940 0.712866 0.743009
O O7 0.604783 0.816219 0.900960
O O8 0.778878 0.500447 0.985598
O O9 0.935948 0.425491 0.027233
O O10 0.554546 0.301180 0.069915
O O11 0.429042 0.818828 0.772893
O O12 0.980927 0.720229 0.930272
O O13 0.445587 0.319453 0.598415
O O14 0.641435 0.374592 0.178671
O O15 0.452784 0.183301 0.174672
O O16 0.752066 0.602846 0.139579
#
# Coordination Sequence:
#
# PCOD8056315 Si02
#       8
#     4   4   4   4   4   4   4   4
#     4  12  24  48  74  99 143 189 234 291 354 422
#     4  12  27  46  70 106 143 187 239 293 355 421
#     4  11  26  45  71 105 142 186 237 295 353 423
#     4  12  29  45  71 110 142 188 240 291 355 423
#     4  12  25  47  72 101 147 184 238 294 352 425
#     4  11  26  44  70 106 139 186 237 292 354 424
#     4  11  23  46  73 100 141 187 235 293 358 418
#     4  11  26  45  71 105 141 185 240 289 357 426
#
# _framework density 22.52111
#
# number of rings (size 3 to 8) (size 9 to 14) (size 15 to 20)
#    0.000    0.500    5.000    2.250    7.000    3.000 
#    0.000    0.000    0.000    0.000    0.000    0.000 
#    0.000    0.000    0.000    0.000    0.000    0.000 
#
# Total GULP energy -198363.555036 kJ/mol
# GULP energy per Si atom -12397.722190 kJ/mol
# Density = 2.246985 g / cm^3
# Si number density = 22.521110 Si / 1000 Ang^3
#
#
#
# Elastic Constant Matrix: (Units=GPa)
#
#
# Indices 1 2 3 4 5 6 
#
# 1 84.8825 8.7365 18.8724 -0.0065 -8.5403 -0.0162
# 2 8.7365 93.6825 14.7620 0.0042 0.5819 -0.0172
# 3 18.8724 14.7620 108.5028 -0.0451 -12.3708 -0.0467
# 4 -0.0065 0.0042 -0.0451 25.6483 -0.0134 4.3125
# 5 -8.5403 0.5819 -12.3708 -0.0134 33.2690 0.0079
# 6 -0.0162 -0.0172 -0.0467 4.3125 0.0079 43.8899
#
#
#
# Elastic Compliance Matrix: (Units=1/GPa)
#
#
# Indices 1 2 3 4 5 6 
#
# 1 0.012525 -0.000906 -0.001762 0.000001 0.002576 0.000002
# 2 -0.000906 0.010993 -0.001448 -0.000006 -0.000963 0.000003
# 3 -0.001762 -0.001448 0.010099 0.000018 0.003328 0.000007
# 4 0.000001 -0.000006 0.000018 0.039644 0.000024 -0.003895
# 5 0.002576 -0.000963 0.003328 0.000024 0.031974 -0.000004
# 6 0.000002 0.000003 0.000007 -0.003895 -0.000004 0.023167
#
#
# Mechanical properties :
#
#
# Convention : Reuss Voigt Hill
#
# Bulk Modulus (GPa) = 39.39211 41.31217 40.35214
# Shear Modulus (GPa) = 34.46005 36.87457 35.66731
#
# Velocity S-wave (km/s) = 3.91592 4.05079 3.98393
# Velocity P-wave (km/s) = 6.16239 6.34524 6.25449
#
# Compressibility (1/GPa) = 0.02538579
#
# Stress axis : x y z
#
# Youngs Moduli (GPa) = 79.83955 90.96694 99.01758
#
# Poissons Ratio (x) = 0.08246 0.17442
# Poissons Ratio (y) = 0.07237 0.14336
# Poissons Ratio (z) = 0.14064 0.13170
#
# Static dielectric constant tensor:
#      x y z
#    x 4.134030 0.000030 0.053540 
#    y 0.000030 4.190950 -0.000050 
#    z 0.053540 -0.000050 4.086290 
# 
# 
# High freq. dielectric constant tensor:
#      x y z
#    x 1.890740 0.000000 0.000670 
#    y 0.000000 1.897340 0.000000 
#    z 0.000670 0.000000 1.889690 
# 
# From -- ./inp_files/22709.got.cif
#   From: 2010.06.25/outbox.cif.g09.slc.cpg/sg9_12_cif.got.tgz:22709.got - 2010.06.27 21:40:51.
