data_PCOD8056358
_publ_section_title
;
Structure prediction by ZEFSAII (Michael W. Deem and Ramdas Pophale) SiO2 
 PCOD8056358
Probable space group: C C
;
_chemical_formula_sum "Si O2"
_cell_formula_units_Z 28
_cell_length_a 14.451702
_cell_length_b 6.485468
_cell_length_c 16.441113
_cell_angle_alpha 90.000000
_cell_angle_beta 54.330094
_cell_angle_gamma 90.000000
_cell_volume 1251.860843
_symmetry_space_group_name_H-M "C C"
_symmetry_group_IT_number 9
_symmetry_cell_setting 'monoclinic'
loop_
_space_group_symop_operation_xyz
x,y,z
x,-y,1/2+z
1/2+x,1/2+y,z
1/2+x,1/2-y,1/2+z
loop_
_atom_site_type_symbol
_atom_site_label
_atom_site_fract_x
_atom_site_fract_y
_atom_site_fract_z
Si Si1 0.676540 0.016677 0.449980
Si Si2 0.580297 0.384180 0.257036
Si Si3 0.401280 0.665410 0.267414
Si Si4 0.572653 0.320806 0.904936
Si Si5 0.447057 0.990616 0.363410
Si Si6 0.970636 0.170700 0.052514
Si Si7 0.769474 0.263338 0.035526
O O1 0.670191 0.826551 0.390156
O O2 0.709995 0.931345 0.522381
O O3 0.773264 0.165479 0.366326
O O4 0.558584 0.140541 0.515259
O O5 0.469460 0.470910 0.268310
O O6 0.622236 0.531400 0.308795
O O7 0.682422 0.372837 0.140761
O O8 0.545862 0.164318 0.312950
O O9 0.454436 0.880387 0.271651
O O10 0.400038 0.655579 0.171365
O O11 0.471673 0.178709 0.920650
O O12 0.531577 0.453798 0.003494
O O13 0.318755 0.075537 0.443812
O O14 0.883651 0.197371 0.023486
#
# Coordination Sequence:
#
# PCOD8056358 Si02
#       7
#     4   4   4   4   4   4   4
#     4  12  26  48  72 105 148 194 234 305 363 438
#     4  11  24  47  70 107 139 188 242 295 361 436
#     4  11  27  44  75 103 143 189 241 297 365 426
#     4  11  24  46  72 101 151 182 238 294 357 433
#     4  11  23  50  70 104 145 187 236 300 358 433
#     4  12  27  47  69 112 142 191 248 297 363 440
#     4  12  25  46  76 100 146 189 241 302 363 432
#
# _framework density 22.366706000000001
#
# number of rings (size 3 to 8) (size 9 to 14) (size 15 to 20)
#    0.000    0.571    4.286    2.571    8.000    1.143 
#    5.143    0.000    0.000    0.000    0.000    0.000 
#    0.000    0.000    0.000    0.000    0.000    0.000 
#
# Total GULP energy -173647.643128 kJ/mol
# GULP energy per Si atom -12403.403081 kJ/mol
# Density = 2.231580 g / cm^3
# Si number density = 22.366706 Si / 1000 Ang^3
#
#
#
# Elastic Constant Matrix: (Units=GPa)
#
#
# Indices 1 2 3 4 5 6 
#
# 1 104.7765 37.6596 21.3712 0.0001 8.8809 0.0017
# 2 37.6596 114.0270 30.0276 0.0002 5.9038 0.0036
# 3 21.3712 30.0276 109.9677 -0.0001 1.8821 0.0003
# 4 0.0001 0.0002 -0.0001 27.9719 -0.0001 0.3487
# 5 8.8809 5.9038 1.8821 -0.0001 36.5614 0.0001
# 6 0.0017 0.0036 0.0003 0.3487 0.0001 30.8670
#
#
#
# Elastic Compliance Matrix: (Units=1/GPa)
#
#
# Indices 1 2 3 4 5 6 
#
# 1 0.011143 -0.003243 -0.001244 0.000000 -0.002119 0.000000
# 2 -0.003243 0.010465 -0.002214 0.000000 -0.000788 -0.000001
# 3 -0.001244 -0.002214 0.009937 0.000000 0.000148 0.000000
# 4 0.000000 0.000000 0.000000 0.035755 0.000000 -0.000404
# 5 -0.002119 -0.000788 0.000148 0.000000 0.027986 0.000000
# 6 0.000000 -0.000001 0.000000 -0.000404 0.000000 0.032402
#
#
# Mechanical properties :
#
#
# Convention : Reuss Voigt Hill
#
# Bulk Modulus (GPa) = 55.11456 56.32087 55.71772
# Shear Modulus (GPa) = 33.98209 35.06091 34.52150
#
# Velocity S-wave (km/s) = 3.90207 3.96352 3.93292
# Velocity P-wave (km/s) = 6.70793 6.79569 6.75195
#
# Compressibility (1/GPa) = 0.01814403
#
# Stress axis : x y z
#
# Youngs Moduli (GPa) = 89.74221 95.55961 100.63156
#
# Poissons Ratio (x) = 0.30990 0.12516
# Poissons Ratio (y) = 0.29103 0.22277
# Poissons Ratio (z) = 0.11162 0.21154
#
# Static dielectric constant tensor:
#      x y z
#    x 4.044050 0.000000 0.141590 
#    y 0.000000 4.232760 0.000000 
#    z 0.141590 0.000000 3.995400 
# 
# 
# High freq. dielectric constant tensor:
#      x y z
#    x 1.884430 0.000000 0.011690 
#    y 0.000000 1.890390 0.000000 
#    z 0.011690 0.000000 1.879080 
# 
# From -- ./inp_files/25210.got.cif
#   From: 2010.06.25/outbox.cif.g09.slc.cpg/sg9_13_cif.got.tgz:25210.got - 2010.06.27 21:40:51.
