data_PCOD8056301
_publ_section_title
;
Structure prediction by ZEFSAII (Michael W. Deem and Ramdas Pophale) SiO2 
 PCOD8056301
Probable space group: C C
;
_chemical_formula_sum "Si O2"
_cell_formula_units_Z 32
_cell_length_a 11.278418
_cell_length_b 14.006964
_cell_length_c 8.740984
_cell_angle_alpha 90.000000
_cell_angle_beta 105.161482
_cell_angle_gamma 90.000000
_cell_volume 1332.804589
_symmetry_space_group_name_H-M "C C"
_symmetry_group_IT_number 9
_symmetry_cell_setting 'monoclinic'
loop_
_space_group_symop_operation_xyz
x,y,z
x,-y,1/2+z
1/2+x,1/2+y,z
1/2+x,1/2-y,1/2+z
loop_
_atom_site_type_symbol
_atom_site_label
_atom_site_fract_x
_atom_site_fract_y
_atom_site_fract_z
Si Si1 0.660770 0.357098 0.526790
Si Si2 0.777951 0.383001 0.998645
Si Si3 0.528958 0.548434 0.500655
Si Si4 0.041208 0.775600 0.210169
Si Si5 0.805401 0.237637 0.781367
Si Si6 0.361080 0.940691 0.370536
Si Si7 0.269706 0.528416 0.847814
Si Si8 0.128620 0.596422 0.082109
O O1 0.575288 0.442858 0.558451
O O2 0.590504 0.282520 0.397508
O O3 0.686497 0.294484 0.684596
O O4 0.778573 0.392467 0.472358
O O5 0.631271 0.401450 0.927545
O O6 0.822339 0.406846 0.186779
O O7 0.843683 0.446247 0.888257
O O8 0.817751 0.275043 0.962459
O O9 0.527108 0.615638 0.648535
O O10 0.391203 0.539150 0.385265
O O11 0.127284 0.708461 0.132499
O O12 0.908600 0.728781 0.193592
O O13 0.793380 0.124141 0.759398
O O14 0.502602 0.919038 0.449906
O O15 0.239166 0.566679 0.007236
O O16 0.153609 0.469225 0.740263
#
# Coordination Sequence:
#
# PCOD8056301 Si02
#       8
#     4   4   4   4   4   4   4   4
#     4  11  25  46  81 109 150 202 256 324 375 469
#     4  11  24  45  81 109 147 194 270 319 371 466
#     4  11  25  50  76 112 151 199 259 313 392 449
#     4  12  26  49  75 114 151 202 255 322 385 461
#     4  12  27  48  73 118 149 200 260 309 394 462
#     4  11  23  45  75 110 147 201 254 322 382 446
#     4  12  29  49  76 113 159 207 249 322 393 464
#     4  12  29  48  75 111 160 203 251 319 396 453
#
# _framework density 24.009519000000001
#
# number of rings (size 3 to 8) (size 9 to 14) (size 15 to 20)
#    0.000    0.500    3.750    3.750    7.000    1.000 
#    0.000    0.000    0.000    0.000    0.000    0.000 
#    0.000    0.000    0.000    0.000    0.000    0.000 
#
# Total GULP energy -198242.388379 kJ/mol
# GULP energy per Si atom -12390.149274 kJ/mol
# Density = 2.395487 g / cm^3
# Si number density = 24.009519 Si / 1000 Ang^3
#
#
#
# Elastic Constant Matrix: (Units=GPa)
#
#
# Indices 1 2 3 4 5 6 
#
# 1 93.1287 52.8810 45.8812 0.0000 6.1742 0.0000
# 2 52.8810 107.5018 50.8560 0.0000 11.1608 0.0000
# 3 45.8812 50.8560 114.4040 0.0000 7.0337 0.0000
# 4 0.0000 0.0000 0.0000 32.6588 0.0000 -8.0487
# 5 6.1742 11.1608 7.0337 0.0000 32.9245 0.0000
# 6 0.0000 0.0000 0.0000 -8.0487 0.0000 35.1551
#
#
#
# Elastic Compliance Matrix: (Units=1/GPa)
#
#
# Indices 1 2 3 4 5 6 
#
# 1 0.016053 -0.006129 -0.003705 0.000000 -0.000141 0.000000
# 2 -0.006129 0.014402 -0.003764 0.000000 -0.002928 0.000000
# 3 -0.003705 -0.003764 0.011935 0.000000 -0.000579 0.000000
# 4 0.000000 0.000000 0.000000 0.032451 0.000000 0.007429
# 5 -0.000141 -0.002928 -0.000579 0.000000 0.031515 0.000000
# 6 0.000000 0.000000 0.000000 0.007429 0.000000 0.030146
#
#
# Mechanical properties :
#
#
# Convention : Reuss Voigt Hill
#
# Bulk Modulus (GPa) = 65.81314 68.25232 67.03273
# Shear Modulus (GPa) = 29.62746 31.17543 30.40145
#
# Velocity S-wave (km/s) = 3.51663 3.60733 3.56227
# Velocity P-wave (km/s) = 6.63021 6.77047 6.70071
#
# Compressibility (1/GPa) = 0.01519453
#
# Stress axis : x y z
#
# Youngs Moduli (GPa) = 62.29506 69.43559 83.78439
#
# Poissons Ratio (x) = 0.42559 0.31038
# Poissons Ratio (y) = 0.38182 0.31535
# Poissons Ratio (z) = 0.23077 0.26135
#
# Static dielectric constant tensor:
#      x y z
#    x 4.446260 0.000000 0.034720 
#    y 0.000000 4.448220 0.000000 
#    z 0.034720 0.000000 4.135520 
# 
# 
# High freq. dielectric constant tensor:
#      x y z
#    x 1.955760 0.000000 -0.005020 
#    y 0.000000 1.956340 0.000000 
#    z -0.005020 0.000000 1.949040 
# 
# From -- ./inp_files/7627.got.cif
#   From: 2010.06.25/outbox.cif.g09.slc.cpg/sg9_4_cif.got.tgz:7627.got - 2010.06.27 21:40:51.
