data_PCOD8056651
_publ_section_title
;
Structure prediction by ZEFSAII (Michael W. Deem and Ramdas Pophale) SiO2 
 PCOD8056651
Probable space group: C C
;
_chemical_formula_sum "Si O2"
_cell_formula_units_Z 32
_cell_length_a 14.196750
_cell_length_b 20.575666
_cell_length_c 8.833025
_cell_angle_alpha 90.000000
_cell_angle_beta 148.500211
_cell_angle_gamma 90.000000
_cell_volume 1348.139357
_symmetry_space_group_name_H-M "C C"
_symmetry_group_IT_number 9
_symmetry_cell_setting 'monoclinic'
loop_
_space_group_symop_operation_xyz
x,y,z
x,-y,1/2+z
1/2+x,1/2+y,z
1/2+x,1/2-y,1/2+z
loop_
_atom_site_type_symbol
_atom_site_label
_atom_site_fract_x
_atom_site_fract_y
_atom_site_fract_z
Si Si1 0.392750 0.059297 0.669780
Si Si2 0.502032 0.621039 0.691645
Si Si3 0.653751 0.506492 0.075596
Si Si4 0.737431 0.287875 0.348656
Si Si5 0.957081 0.773760 0.388384
Si Si6 0.783566 0.069048 0.148473
Si Si7 0.278427 0.692839 0.935561
Si Si8 0.451130 0.801191 0.362041
O O1 0.305955 0.040959 0.713302
O O2 0.433635 0.136661 0.729707
O O3 0.243566 0.041676 0.341657
O O4 0.592684 0.029101 0.904210
O O5 0.596452 0.653827 0.674629
O O6 0.493096 0.669568 0.818298
O O7 0.311619 0.599425 0.356165
O O8 0.618647 0.559255 0.898032
O O9 0.459631 0.475045 0.852674
O O10 0.791255 0.267121 0.592352
O O11 0.898605 0.314291 0.465348
O O12 0.653977 0.226054 0.144821
O O13 0.929628 0.809234 0.511411
O O14 0.102624 0.717056 0.606289
O O15 0.758422 0.121663 0.980035
O O16 0.321850 0.745943 0.120107
#
# Coordination Sequence:
#
# PCOD8056651 Si02
#       8
#     4   4   4   4   4   4   4   4
#     4  12  29  51  79 113 147 206 264 317 383 466
#     4  12  25  49  76 107 158 202 249 323 382 458
#     4  12  30  53  78 111 155 208 262 321 381 456
#     4  12  23  46  72 111 157 193 240 311 391 457
#     4  12  24  42  71 114 155 189 243 311 388 456
#     4  12  28  53  78 110 156 205 263 313 385 464
#     4  12  25  42  73 114 149 193 244 317 382 458
#     4  12  24  44  75 108 147 198 249 309 390 459
#
# _framework density 23.736419000000001
#
# number of rings (size 3 to 8) (size 9 to 14) (size 15 to 20)
#    0.000    0.000    5.000    4.500    7.000    0.000 
#    0.000    0.000    0.000    0.000    0.000    0.000 
#    0.000    0.000    0.000    0.000    0.000    0.000 
#
# Total GULP energy -198282.278065 kJ/mol
# GULP energy per Si atom -12392.642379 kJ/mol
# Density = 2.368239 g / cm^3
# Si number density = 23.736419 Si / 1000 Ang^3
#
#
#
# Elastic Constant Matrix: (Units=GPa)
#
#
# Indices 1 2 3 4 5 6 
#
# 1 135.9327 23.7295 26.2463 0.0000 7.8330 0.0000
# 2 23.7295 81.8347 34.5826 0.0000 -2.1693 0.0000
# 3 26.2463 34.5826 117.3400 0.0000 -3.7399 0.0000
# 4 0.0000 0.0000 0.0000 49.2539 0.0000 -16.6743
# 5 7.8330 -2.1693 -3.7399 0.0000 42.9282 0.0000
# 6 0.0000 0.0000 0.0000 -16.6743 0.0000 54.7372
#
#
#
# Elastic Compliance Matrix: (Units=1/GPa)
#
#
# Indices 1 2 3 4 5 6 
#
# 1 0.008023 -0.001816 -0.001313 0.000000 -0.001670 0.000000
# 2 -0.001816 0.014374 -0.003807 0.000000 0.000726 0.000000
# 3 -0.001313 -0.003807 0.009967 0.000000 0.000915 0.000000
# 4 0.000000 0.000000 0.000000 0.022637 0.000000 0.006896
# 5 -0.001670 0.000726 0.000915 0.000000 0.023716 0.000000
# 6 0.000000 0.000000 0.000000 0.006896 0.000000 0.020370
#
#
# Mechanical properties :
#
#
# Convention : Reuss Voigt Hill
#
# Bulk Modulus (GPa) = 54.07391 56.02491 55.04941
# Shear Modulus (GPa) = 41.97307 46.08712 44.03010
#
# Velocity S-wave (km/s) = 4.20968 4.41116 4.31160
# Velocity P-wave (km/s) = 6.81608 7.04263 6.93028
#
# Compressibility (1/GPa) = 0.01849321
#
# Stress axis : x y z
#
# Youngs Moduli (GPa) = 124.63707 69.56784 100.33044
#
# Poissons Ratio (x) = 0.12634 0.13170
# Poissons Ratio (y) = 0.22635 0.38197
# Poissons Ratio (z) = 0.16360 0.26485
#
# Static dielectric constant tensor:
#      x y z
#    x 4.314410 0.000000 0.036940 
#    y 0.000000 4.182880 0.000000 
#    z 0.036940 0.000000 4.507620 
# 
# 
# High freq. dielectric constant tensor:
#      x y z
#    x 1.954090 0.000000 -0.003590 
#    y 0.000000 1.926160 0.000000 
#    z -0.003590 0.000000 1.954720 
# 
# From -- ./inp_files/10102.got.cif
#   From: 2010.06.25/outbox.cif.g09.slc.cpg/sg9_6_cif.got.tgz:10102.got - 2010.06.27 21:40:51.
