data_PCOD8056607
_publ_section_title
;
Structure prediction by ZEFSAII (Michael W. Deem and Ramdas Pophale) SiO2 
 PCOD8056607
Probable space group: C C
;
_chemical_formula_sum "Si O2"
_cell_formula_units_Z 32
_cell_length_a 15.374862
_cell_length_b 7.490785
_cell_length_c 11.731567
_cell_angle_alpha 90.000000
_cell_angle_beta 94.590911
_cell_angle_gamma 90.000000
_cell_volume 1346.787101
_symmetry_space_group_name_H-M "C C"
_symmetry_group_IT_number 9
_symmetry_cell_setting 'monoclinic'
loop_
_space_group_symop_operation_xyz
x,y,z
x,-y,1/2+z
1/2+x,1/2+y,z
1/2+x,1/2-y,1/2+z
loop_
_atom_site_type_symbol
_atom_site_label
_atom_site_fract_x
_atom_site_fract_y
_atom_site_fract_z
Si Si1 0.253360 0.660617 0.369200
Si Si2 0.852503 0.218443 0.717158
Si Si3 0.115996 0.810199 0.999675
Si Si4 0.615347 0.292163 0.538658
Si Si5 0.781414 0.161038 0.126970
Si Si6 0.182572 0.281053 0.278732
Si Si7 0.418869 0.190272 0.996015
Si Si8 0.919264 0.292716 0.957372
O O1 0.182013 0.748845 0.443812
O O2 0.267339 0.758712 0.248136
O O3 0.219529 0.461311 0.341449
O O4 0.348867 0.666298 0.439989
O O5 0.767533 0.331964 0.747617
O O6 0.905404 0.331854 0.630736
O O7 0.906562 0.182693 0.838508
O O8 0.815267 0.038216 0.654743
O O9 0.130223 0.833320 0.865259
O O10 0.185954 0.667018 0.056106
O O11 0.017486 0.749550 0.997101
O O12 0.127290 0.997681 0.064843
O O13 0.628118 0.182760 0.657739
O O14 0.517410 0.248977 0.497897
O O15 0.852923 0.249121 0.052565
O O16 0.406679 0.002690 0.931131
#
# Coordination Sequence:
#
# PCOD8056607 Si02
#       8
#     4   4   4   4   4   4   4   4
#     4  11  27  48  78 106 155 196 251 307 383 443
#     4  11  26  48  79 103 155 199 250 308 383 438
#     4  12  28  47  78 114 151 197 256 313 382 446
#     4  12  29  47  77 115 153 198 259 307 378 456
#     4  11  27  48  78 106 155 196 251 307 383 443
#     4  11  26  48  79 103 155 199 250 308 383 438
#     4  12  28  47  78 114 151 197 256 313 382 446
#     4  12  29  47  77 115 153 198 259 307 378 456
#
# _framework density 23.760251
#
# number of rings (size 3 to 8) (size 9 to 14) (size 15 to 20)
#    0.000    0.500    2.500    3.000   17.500    0.000 
#    0.000    0.000    0.000    0.000    0.000    0.000 
#    0.000    0.000    0.000    0.000    0.000    0.000 
#
# Total GULP energy -198218.121400 kJ/mol
# GULP energy per Si atom -12388.632588 kJ/mol
# Density = 2.370617 g / cm^3
# Si number density = 23.760251 Si / 1000 Ang^3
#
#
#
# Elastic Constant Matrix: (Units=GPa)
#
#
# Indices 1 2 3 4 5 6 
#
# 1 196.6529 27.7074 85.1370 0.0000 9.6000 0.0000
# 2 27.7074 97.3065 32.2751 0.0000 3.9515 0.0000
# 3 85.1370 32.2751 177.7749 0.0000 -0.0434 0.0000
# 4 0.0000 0.0000 0.0000 37.2010 0.0000 -0.5692
# 5 9.6000 3.9515 -0.0434 0.0000 52.0031 0.0000
# 6 0.0000 0.0000 0.0000 -0.5692 0.0000 28.0498
#
#
#
# Elastic Compliance Matrix: (Units=1/GPa)
#
#
# Indices 1 2 3 4 5 6 
#
# 1 0.006551 -0.000828 -0.002987 0.000000 -0.001149 0.000000
# 2 -0.000828 0.011076 -0.001615 0.000000 -0.000690 0.000000
# 3 -0.002987 -0.001615 0.007349 0.000000 0.000680 0.000000
# 4 0.000000 0.000000 0.000000 0.026889 0.000000 0.000546
# 5 -0.001149 -0.000690 0.000680 0.000000 0.019495 0.000000
# 6 0.000000 0.000000 0.000000 0.000546 0.000000 0.035662
#
#
# Mechanical properties :
#
#
# Convention : Reuss Voigt Hill
#
# Bulk Modulus (GPa) = 70.83809 84.66369 77.75089
# Shear Modulus (GPa) = 40.78720 45.22509 43.00615
#
# Velocity S-wave (km/s) = 4.14770 4.36752 4.25903
# Velocity P-wave (km/s) = 7.26748 7.81943 7.54850
#
# Compressibility (1/GPa) = 0.01411670
#
# Stress axis : x y z
#
# Youngs Moduli (GPa) = 152.64499 90.28453 136.07237
#
# Poissons Ratio (x) = 0.07474 0.40650
# Poissons Ratio (y) = 0.12637 0.21970
# Poissons Ratio (z) = 0.45600 0.14577
#
# Static dielectric constant tensor:
#      x y z
#    x 5.844630 0.000000 -2.404270 
#    y 0.000000 4.344220 0.000000 
#    z -2.404270 0.000000 8.416370 
# 
# 
# High freq. dielectric constant tensor:
#      x y z
#    x 1.959430 0.000000 -0.010540 
#    y 0.000000 1.924640 0.000000 
#    z -0.010540 0.000000 1.965770 
# 
# From -- ./inp_files/17842.got.cif
#   From: 2010.06.25/outbox.cif.g09.slc.cpg/sg9_9_cif.got.tgz:17842.got - 2010.06.27 21:40:51.
