data_PCOD8056051
_publ_section_title
;
Structure prediction by ZEFSAII (Michael W. Deem and Ramdas Pophale) SiO2 
 PCOD8056051
Probable space group: C C
;
_chemical_formula_sum "Si O2"
_cell_formula_units_Z 28
_cell_length_a 14.738265
_cell_length_b 12.923885
_cell_length_c 12.168786
_cell_angle_alpha 90.000000
_cell_angle_beta 30.820633
_cell_angle_gamma 90.000000
_cell_volume 1187.559195
_symmetry_space_group_name_H-M "C C"
_symmetry_group_IT_number 9
_symmetry_cell_setting 'monoclinic'
loop_
_space_group_symop_operation_xyz
x,y,z
x,-y,1/2+z
1/2+x,1/2+y,z
1/2+x,1/2-y,1/2+z
loop_
_atom_site_type_symbol
_atom_site_label
_atom_site_fract_x
_atom_site_fract_y
_atom_site_fract_z
Si Si1 0.720190 0.445660 0.777710
Si Si2 0.352786 0.868622 0.874210
Si Si3 0.852738 0.988479 0.610652
Si Si4 0.495244 0.307606 0.336384
Si Si5 0.854198 0.334669 0.173987
Si Si6 0.036415 0.553759 0.807440
Si Si7 0.687764 0.855263 0.950631
O O1 0.765947 0.398118 0.848599
O O2 0.735793 0.570423 0.755056
O O3 0.854592 0.397850 0.546543
O O4 0.513705 0.428226 0.957134
O O5 0.451417 0.755721 0.768670
O O6 0.486577 0.954196 0.784256
O O7 0.196736 0.846355 0.124961
O O8 0.839374 0.929435 0.742114
O O9 0.877983 0.908910 0.481854
O O10 0.660291 0.035129 0.785030
O O11 0.467720 0.224933 0.463197
O O12 0.729385 0.263128 0.378607
O O13 0.998268 0.388731 0.100645
O O14 0.160137 0.632257 0.609692
#
# Coordination Sequence:
#
# PCOD8056051 Si02
#       7
#     4   4   4   4   4   4   4
#     4  12  25  44  71 104 142 178 233 298 355 413
#     4  12  23  42  72 104 142 180 239 298 356 417
#     4  11  23  41  71 104 136 181 240 285 349 425
#     4  11  21  40  72 101 131 185 230 286 342 425
#     4  11  20  42  67 103 129 175 230 290 339 414
#     4  12  23  44  65 101 139 184 221 300 347 426
#     4  11  23  39  70 101 137 173 239 289 348 412
#
# _framework density 23.577772
#
# number of rings (size 3 to 8) (size 9 to 14) (size 15 to 20)
#    0.000    0.571    5.714    4.286    2.000    0.000 
#    5.143    1.429    0.000    0.000    0.000    0.000 
#    0.000    0.000    0.000    0.000    0.000    0.000 
#
# Total GULP energy -173453.920089 kJ/mol
# GULP energy per Si atom -12389.565721 kJ/mol
# Density = 2.352411 g / cm^3
# Si number density = 23.577772 Si / 1000 Ang^3
#
#
#
# Elastic Constant Matrix: (Units=GPa)
#
#
# Indices 1 2 3 4 5 6 
#
# 1 107.9777 23.0671 30.0061 -0.0010 -7.5623 0.0010
# 2 23.0671 47.5058 28.6165 -0.0006 11.1796 0.0007
# 3 30.0061 28.6165 115.6489 -0.0002 -1.9014 0.0007
# 4 -0.0010 -0.0006 -0.0002 26.8399 0.0007 2.3306
# 5 -7.5623 11.1796 -1.9014 0.0007 41.7428 -0.0011
# 6 0.0010 0.0007 0.0007 2.3306 -0.0011 26.2792
#
#
#
# Elastic Compliance Matrix: (Units=1/GPa)
#
#
# Indices 1 2 3 4 5 6 
#
# 1 0.011032 -0.005228 -0.001514 0.000000 0.003330 0.000000
# 2 -0.005228 0.029381 -0.006063 0.000001 -0.009092 -0.000001
# 3 -0.001514 -0.006063 0.010570 0.000000 0.001831 0.000000
# 4 0.000000 0.000001 0.000000 0.037547 -0.000001 -0.003330
# 5 0.003330 -0.009092 0.001831 -0.000001 0.027078 0.000001
# 6 0.000000 -0.000001 0.000000 -0.003330 0.000001 0.038348
#
#
# Mechanical properties :
#
#
# Convention : Reuss Voigt Hill
#
# Bulk Modulus (GPa) = 39.41334 48.27909 43.84622
# Shear Modulus (GPa) = 26.59235 31.60189 29.09712
#
# Velocity S-wave (km/s) = 3.36200 3.66502 3.51677
# Velocity P-wave (km/s) = 5.64122 6.19926 5.92681
#
# Compressibility (1/GPa) = 0.02537212
#
# Stress axis : x y z
#
# Youngs Moduli (GPa) = 90.64524 34.03598 94.60747
#
# Poissons Ratio (x) = 0.17796 0.14322
# Poissons Ratio (y) = 0.47394 0.57360
# Poissons Ratio (z) = 0.13722 0.20636
#
# Static dielectric constant tensor:
#      x y z
#    x 4.165050 0.000000 -0.112990 
#    y 0.000000 4.034080 0.000000 
#    z -0.112990 0.000000 4.417240 
# 
# 
# High freq. dielectric constant tensor:
#      x y z
#    x 1.926580 0.000000 -0.014070 
#    y 0.000000 1.891750 0.000000 
#    z -0.014070 0.000000 1.946110 
# 
# From -- ./inp_files/18423.got.cif
#   From: 2010.06.25/outbox.cif.g09.slc.cpg/sg9_10_cif.got.tgz:18423.got - 2010.06.27 21:40:51.
