data_PCOD8056994
_publ_section_title
;
Structure prediction by ZEFSAII (Michael W. Deem and Ramdas Pophale) SiO2 
 PCOD8056994
Probable space group: P 2/M
;
_chemical_formula_sum "Si O2"
_cell_formula_units_Z 28
_cell_length_a 21.484067
_cell_length_b 8.708850
_cell_length_c 11.505634
_cell_angle_alpha 90.000000
_cell_angle_beta 130.900746
_cell_angle_gamma 90.000000
_cell_volume 1627.123718
_symmetry_space_group_name_H-M "P 2/M"
_symmetry_group_IT_number 10
_symmetry_cell_setting 'monoclinic'
loop_
_space_group_symop_operation_xyz
x,y,z
-x,y,-z
-x,-y,-z
x,-y,z
loop_
_atom_site_type_symbol
_atom_site_label
_atom_site_fract_x
_atom_site_fract_y
_atom_site_fract_z
Si Si1 0.454279 0.182066 0.107449
Si Si2 0.909035 0.677246 0.986588
Si Si3 0.426325 0.819276 0.332299
Si Si4 0.771325 0.678907 0.533920
Si Si5 0.728394 0.676087 0.741014
Si Si6 0.613803 0.680297 0.197204
Si Si7 0.064731 0.178986 0.229352
O O1 0.432883 0.244432 0.209404
O O2 0.547693 0.228248 0.193054
O O3 0.444407 0.000000 0.083651
O O4 0.391280 0.264763 0.942205
O O5 0.925069 0.500000 0.974687
O O6 0.978511 0.737628 0.162672
O O7 0.815222 0.697607 0.916449
O O8 0.918312 0.779399 0.883177
O O9 0.500000 0.747167 0.500000
O O10 0.338398 0.779774 0.278055
O O11 0.436683 0.000000 0.341427
O O12 0.791647 0.500000 0.564016
O O13 0.738158 0.731645 0.619663
O O14 0.704107 0.720530 0.354887
O O15 0.856005 0.763840 0.600825
O O16 0.699019 0.500000 0.709122
O O17 0.594810 0.500000 0.183478
O O18 0.053334 0.000000 0.234384
#
# Coordination Sequence:
#
# PCOD8056994 Si02
#       7
#     4   4   4   4   4   4   4
#     4  10  20  33  48  67  93 122 151 188 234 273
#     4   9  16  28  42  59  90 125 153 185 228 272
#     4  10  21  34  47  66  93 124 154 185 225 271
#     4   9  18  31  45  66  95 123 151 187 233 274
#     4   9  18  30  46  67  90 121 156 188 224 266
#     4  10  19  32  51  70  89 118 156 193 227 270
#     4  10  17  24  40  66  91 119 154 187 223 270
#
# _framework density 17.208279000000001
#
# number of rings (size 3 to 8) (size 9 to 14) (size 15 to 20)
#    0.000    2.429    0.000    6.000    0.000    5.429 
#    0.000    0.000    0.000    0.000    0.000    1.000 
#    0.000    8.000    0.000    0.000    0.000    0.000 
#
# Total GULP energy -347068.923416 kJ/mol
# GULP energy per Si atom -12395.318693 kJ/mol
# Density = 1.716911 g / cm^3
# Si number density = 17.208279 Si / 1000 Ang^3
#
#
#
# Elastic Constant Matrix: (Units=GPa)
#
#
# Indices 1 2 3 4 5 6 
#
# 1 73.8688 17.1782 59.0853 0.0000 10.1034 0.0000
# 2 17.1782 43.3406 33.7075 0.0000 5.7721 0.0000
# 3 59.0853 33.7075 133.5451 0.0000 20.1180 0.0000
# 4 0.0000 0.0000 0.0000 14.5969 0.0000 7.5628
# 5 10.1034 5.7721 20.1180 0.0000 29.1778 0.0000
# 6 0.0000 0.0000 0.0000 7.5628 0.0000 23.9753
#
#
#
# Elastic Compliance Matrix: (Units=1/GPa)
#
#
# Indices 1 2 3 4 5 6 
#
# 1 0.021040 -0.001349 -0.008828 0.000000 -0.000932 0.000000
# 2 -0.001349 0.028810 -0.006569 0.000000 -0.000703 0.000000
# 3 -0.008828 -0.006569 0.013832 0.000000 -0.005181 0.000000
# 4 0.000000 0.000000 0.000000 0.081891 0.000000 -0.025832
# 5 -0.000932 -0.000703 -0.005181 0.000000 0.038307 0.000000
# 6 0.000000 0.000000 0.000000 -0.025832 0.000000 0.049858
#
#
# Mechanical properties :
#
#
# Convention : Reuss Voigt Hill
#
# Bulk Modulus (GPa) = 33.12328 52.29959 42.71143
# Shear Modulus (GPa) = 18.03136 22.93557 20.48347
#
# Velocity S-wave (km/s) = 3.24053 3.65474 3.45385
# Velocity P-wave (km/s) = 5.76989 6.94749 6.38589
#
# Compressibility (1/GPa) = 0.03019025
#
# Stress axis : x y z
#
# Youngs Moduli (GPa) = 47.52882 34.70961 72.29388
#
# Poissons Ratio (x) = 0.04684 0.63820
# Poissons Ratio (y) = 0.06414 0.47490
# Poissons Ratio (z) = 0.41958 0.22801
#
# Static dielectric constant tensor:
#      x y z
#    x 3.059640 0.000000 0.352890 
#    y 0.000000 3.153070 0.000000 
#    z 0.352890 0.000000 3.581730 
# 
# 
# High freq. dielectric constant tensor:
#      x y z
#    x 1.627930 0.000000 0.034720 
#    y 0.000000 1.668190 0.000000 
#    z 0.034720 0.000000 1.662960 
# 
# From -- ./inp_files/54959.got.cif
#   From: 2010.06.25/outbox.cif.g09.slc.cpg/sg10_28_cif.got.tgz:54959.got - 2010.06.27 22:07:45.
