data_PCOD8056967
_publ_section_title
;
Structure prediction by ZEFSAII (Michael W. Deem and Ramdas Pophale) SiO2 
 PCOD8056967
Probable space group: P 2/M
;
_chemical_formula_sum "Si O2"
_cell_formula_units_Z 32
_cell_length_a 20.274160
_cell_length_b 9.170542
_cell_length_c 14.110215
_cell_angle_alpha 90.000000
_cell_angle_beta 125.151842
_cell_angle_gamma 90.000000
_cell_volume 2145.002735
_symmetry_space_group_name_H-M "P 2/M"
_symmetry_group_IT_number 10
_symmetry_cell_setting 'monoclinic'
loop_
_space_group_symop_operation_xyz
x,y,z
-x,y,-z
-x,-y,-z
x,-y,z
loop_
_atom_site_type_symbol
_atom_site_label
_atom_site_fract_x
_atom_site_fract_y
_atom_site_fract_z
Si Si1 0.110686 0.336627 0.660758
Si Si2 0.733918 0.327686 0.295420
Si Si3 0.551090 0.330535 0.133776
Si Si4 0.950650 0.334424 0.603795
Si Si5 0.337290 0.166262 0.448143
Si Si6 0.802126 0.168594 0.530715
Si Si7 0.516335 0.828778 0.295846
Si Si8 0.576851 0.335294 0.631149
O O1 0.113786 0.500000 0.701918
O O2 0.202181 0.271578 0.733713
O O3 0.083957 0.333631 0.530019
O O4 0.041929 0.263343 0.671757
O O5 0.747398 0.500000 0.323781
O O6 0.644002 0.292559 0.186800
O O7 0.750216 0.246869 0.407097
O O8 0.541350 0.500000 0.152538
O O9 0.518474 0.235320 0.192753
O O10 0.500000 0.287597 0.000000
O O11 0.952240 0.500000 0.644763
O O12 0.891475 0.236902 0.619539
O O13 0.246685 0.188175 0.411696
O O14 0.399992 0.210197 0.582762
O O15 0.348280 0.265274 0.364062
O O16 0.353575 0.000000 0.431366
O O17 0.811151 0.000000 0.510421
O O18 0.441384 0.755871 0.289213
O O19 0.500962 0.000000 0.277381
O O20 0.500000 0.328786 0.500000
O O21 0.599270 0.500000 0.677964
#
# Coordination Sequence:
#
# PCOD8056967 Si02
#       8
#     4   4   4   4   4   4   4   4
#     4   7  11  21  36  50  65  91 128 160 185 225
#     4   9  16  27  41  52  68  99 132 162 199 236
#     4  10  20  31  43  60  79  99 131 175 212 237
#     4   8  13  22  34  49  69  95 127 157 186 222
#     4   9  17  27  38  55  79 105 130 158 191 231
#     4  10  17  24  35  54  79 102 128 159 191 225
#     4  10  18  30  44  56  75 103 131 161 199 240
#     4   9  17  27  41  60  77  96 127 163 195 230
#
# _framework density 14.918395
#
# number of rings (size 3 to 8) (size 9 to 14) (size 15 to 20)
#    0.000    3.000    1.250    2.625    0.000    3.250 
#    0.000    5.000    0.000    0.000    0.000    0.000 
#    0.000    0.000    0.000    1.125    0.000   24.250 
#
# Total GULP energy -396446.443234 kJ/mol
# GULP energy per Si atom -12388.951351 kJ/mol
# Density = 1.488444 g / cm^3
# Si number density = 14.918395 Si / 1000 Ang^3
#
#
#
# Elastic Constant Matrix: (Units=GPa)
#
#
# Indices 1 2 3 4 5 6 
#
# 1 141.8101 56.5015 41.0011 0.0000 -5.2389 0.0000
# 2 56.5015 73.6968 26.5925 0.0000 -8.3034 0.0000
# 3 41.0011 26.5925 37.2120 0.0000 -3.7815 0.0000
# 4 0.0000 0.0000 0.0000 12.5833 0.0000 -6.1290
# 5 -5.2389 -8.3034 -3.7815 0.0000 13.0628 0.0000
# 6 0.0000 0.0000 0.0000 -6.1290 0.0000 23.0616
#
#
#
# Elastic Compliance Matrix: (Units=1/GPa)
#
#
# Indices 1 2 3 4 5 6 
#
# 1 0.012068 -0.006177 -0.009056 0.000000 -0.001708 0.000000
# 2 -0.006177 0.022312 -0.008190 0.000000 0.009334 0.000000
# 3 -0.009056 -0.008190 0.043073 0.000000 0.003631 0.000000
# 4 0.000000 0.000000 0.000000 0.091287 0.000000 0.024261
# 5 -0.001708 0.009334 0.003631 0.000000 0.082853 0.000000
# 6 0.000000 0.000000 0.000000 0.024261 0.000000 0.049810
#
#
# Mechanical properties :
#
#
# Convention : Reuss Voigt Hill
#
# Bulk Modulus (GPa) = 32.67267 55.65657 44.16462
# Shear Modulus (GPa) = 13.94888 18.31647 16.13267
#
# Velocity S-wave (km/s) = 3.06111 3.50777 3.29202
# Velocity P-wave (km/s) = 5.86876 7.33446 6.64216
#
# Compressibility (1/GPa) = 0.03060662
#
# Stress axis : x y z
#
# Youngs Moduli (GPa) = 82.86312 44.81952 23.21622
#
# Poissons Ratio (x) = 0.27685 0.21026
# Poissons Ratio (y) = 0.51184 0.19014
# Poissons Ratio (z) = 0.75044 0.36707
#
# Static dielectric constant tensor:
#      x y z
#    x 3.425840 0.000000 0.087800 
#    y 0.000000 2.862450 0.000000 
#    z 0.087800 0.000000 2.327350 
# 
# 
# High freq. dielectric constant tensor:
#      x y z
#    x 1.592450 0.000000 -0.004450 
#    y 0.000000 1.566530 0.000000 
#    z -0.004450 0.000000 1.489530 
# 
# From -- ./inp_files/54907.got.cif
#   From: 2010.06.25/outbox.cif.g09.slc.cpg/sg10_28_cif.got.tgz:54907.got - 2010.06.27 22:07:45.
