data_PCOD8056464
_publ_section_title
;
Structure prediction by ZEFSAII (Michael W. Deem and Ramdas Pophale) SiO2 
 PCOD8056464
Probable space group: C C
;
_chemical_formula_sum "Si O2"
_cell_formula_units_Z 32
_cell_length_a 16.820937
_cell_length_b 8.858395
_cell_length_c 10.882988
_cell_angle_alpha 90.000000
_cell_angle_beta 124.834440
_cell_angle_gamma 90.000000
_cell_volume 1331.048572
_symmetry_space_group_name_H-M "C C"
_symmetry_group_IT_number 9
_symmetry_cell_setting 'monoclinic'
loop_
_space_group_symop_operation_xyz
x,y,z
x,-y,1/2+z
1/2+x,1/2+y,z
1/2+x,1/2-y,1/2+z
loop_
_atom_site_type_symbol
_atom_site_label
_atom_site_fract_x
_atom_site_fract_y
_atom_site_fract_z
Si Si1 0.197080 0.067552 0.808810
Si Si2 0.301886 0.689761 0.541951
Si Si3 0.492549 0.647564 0.560724
Si Si4 0.254324 0.736300 0.135768
Si Si5 0.860564 0.951917 0.329560
Si Si6 0.511966 0.002674 0.048885
Si Si7 0.329306 0.815651 0.962440
Si Si8 0.121640 0.478554 0.400992
O O1 0.220954 0.134214 0.696933
O O2 0.081759 0.094191 0.725352
O O3 0.225190 0.891428 0.835870
O O4 0.264096 0.142991 0.974259
O O5 0.388471 0.632787 0.533358
O O6 0.349004 0.680001 0.718040
O O7 0.210019 0.584676 0.443679
O O8 0.470565 0.523453 0.432926
O O9 0.503007 0.817427 0.523411
O O10 0.285739 0.588372 0.239262
O O11 0.337137 0.804238 0.118698
O O12 0.161221 0.687358 0.971919
O O13 0.832633 0.859270 0.427002
O O14 0.561703 0.964365 0.222559
O O15 0.564488 0.948909 0.968974
O O16 0.409691 0.919264 0.968421
#
# Coordination Sequence:
#
# PCOD8056464 Si02
#       8
#     4   4   4   4   4   4   4   4
#     4  12  26  48  78 116 158 205 274 337 404 478
#     4  11  24  46  79 103 160 201 256 321 413 463
#     4  12  25  50  75 115 157 209 258 335 403 482
#     4  11  25  48  77 103 162 208 254 329 404 476
#     4  11  26  47  75 103 154 210 260 319 402 477
#     4  12  27  46  83 119 154 205 273 329 406 484
#     4  12  30  45  79 114 156 203 269 330 401 483
#     4  11  25  48  80 111 153 213 264 320 411 485
#
# _framework density 24.041195999999999
#
# number of rings (size 3 to 8) (size 9 to 14) (size 15 to 20)
#    0.000    0.500    5.000    1.500   12.250    2.000 
#    0.000    0.000    0.000    0.000    0.000    0.000 
#    0.000    0.000    0.000    0.000    0.000    0.000 
#
# Total GULP energy -198245.006245 kJ/mol
# GULP energy per Si atom -12390.312890 kJ/mol
# Density = 2.398648 g / cm^3
# Si number density = 24.041196 Si / 1000 Ang^3
#
#
#
# Elastic Constant Matrix: (Units=GPa)
#
#
# Indices 1 2 3 4 5 6 
#
# 1 116.9628 23.1527 37.2039 0.0000 12.1690 0.0000
# 2 23.1527 117.3849 43.2579 0.0000 15.2851 0.0000
# 3 37.2039 43.2579 130.2020 0.0000 5.1396 0.0000
# 4 0.0000 0.0000 0.0000 40.0263 0.0000 7.6798
# 5 12.1690 15.2851 5.1396 0.0000 39.4708 0.0000
# 6 0.0000 0.0000 0.0000 7.6798 0.0000 34.3731
#
#
#
# Elastic Compliance Matrix: (Units=1/GPa)
#
#
# Indices 1 2 3 4 5 6 
#
# 1 0.009718 -0.000701 -0.002449 0.000000 -0.002406 0.000000
# 2 -0.000701 0.010222 -0.003064 0.000000 -0.003343 0.000000
# 3 -0.002449 -0.003064 0.009370 0.000000 0.000721 0.000000
# 4 0.000000 0.000000 0.000000 0.026103 0.000000 -0.005832
# 5 -0.002406 -0.003343 0.000721 0.000000 0.027278 0.000000
# 6 0.000000 0.000000 0.000000 -0.005832 0.000000 0.030396
#
#
# Mechanical properties :
#
#
# Convention : Reuss Voigt Hill
#
# Bulk Modulus (GPa) = 59.23591 63.53095 61.38343
# Shear Modulus (GPa) = 38.12749 40.16971 39.14860
#
# Velocity S-wave (km/s) = 3.98669 4.09206 4.03972
# Velocity P-wave (km/s) = 6.77380 6.98641 6.88092
#
# Compressibility (1/GPa) = 0.01688165
#
# Stress axis : x y z
#
# Youngs Moduli (GPa) = 102.90472 97.83194 106.72904
#
# Poissons Ratio (x) = 0.06858 0.26137
# Poissons Ratio (y) = 0.07214 0.32699
# Poissons Ratio (z) = 0.25200 0.29973
#
# Static dielectric constant tensor:
#      x y z
#    x 4.513970 0.000000 -0.024230 
#    y 0.000000 4.345620 0.000000 
#    z -0.024230 0.000000 4.852300 
# 
# 
# High freq. dielectric constant tensor:
#      x y z
#    x 1.953070 0.000000 -0.004360 
#    y 0.000000 1.952120 0.000000 
#    z -0.004360 0.000000 1.959490 
# 
# From -- ./inp_files/17984.got.cif
#   From: 2010.06.25/outbox.cif.g09.slc.cpg/sg9_9_cif.got.tgz:17984.got - 2010.06.27 21:40:51.
