data_PCOD8056872
_publ_section_title
;
Structure prediction by ZEFSAII (Michael W. Deem and Ramdas Pophale) SiO2 
 PCOD8056872
Probable space group: P 2/M
;
_chemical_formula_sum "Si O2"
_cell_formula_units_Z 26
_cell_length_a 12.529891
_cell_length_b 24.116087
_cell_length_c 5.045270
_cell_angle_alpha 90.000000
_cell_angle_beta 108.904429
_cell_angle_gamma 90.000000
_cell_volume 1442.305879
_symmetry_space_group_name_H-M "P 2/M"
_symmetry_group_IT_number 10
_symmetry_cell_setting 'monoclinic'
loop_
_space_group_symop_operation_xyz
x,y,z
-x,y,-z
-x,-y,-z
x,-y,z
loop_
_atom_site_type_symbol
_atom_site_label
_atom_site_fract_x
_atom_site_fract_y
_atom_site_fract_z
Si Si1 0.259420 0.707149 0.762156
Si Si2 0.417730 0.000000 0.195138
Si Si3 0.128506 0.326383 0.163123
Si Si4 0.367837 0.113717 0.351304
Si Si5 0.634591 0.175214 0.142264
Si Si6 0.244166 0.561579 0.217658
Si Si7 0.373823 0.405027 0.818733
O O1 0.157844 0.697617 0.474635
O O2 0.318156 0.765122 0.745370
O O3 0.356550 0.661191 0.804635
O O4 0.209020 0.703775 0.016000
O O5 0.500000 0.000000 0.500000
O O6 0.340514 0.945542 0.185005
O O7 0.500000 0.000000 0.000000
O O8 0.146303 0.392957 0.180734
O O9 0.000000 0.312382 0.000000
O O10 0.500000 0.120235 0.500000
O O11 0.320331 0.129460 0.604412
O O12 0.316522 0.157953 0.103988
O O13 0.500000 0.176361 0.000000
O O14 0.193120 0.500000 0.217017
O O15 0.346852 0.571767 0.505230
O O16 0.290121 0.565892 0.957305
O O17 0.500000 0.420197 0.000000
#
# Coordination Sequence:
#
# PCOD8056872 Si02
#       7
#     4   2   4   4   4   4   4
#     4  10  20  34  51  71  94 122 156 196 236 285
#     4  10  16  26  40  58  92 136 179 208 223 254
#     4  10  21  37  54  70  90 119 153 193 247 295
#     4   9  17  26  40  63  92 132 171 198 224 259
#     4  10  18  29  45  68  97 128 162 195 230 271
#     4  10  21  34  50  73  95 119 156 193 229 281
#     4  10  20  33  49  70  98 129 156 184 228 279
#
# _framework density 18.026689000000001
#
# number of rings (size 3 to 8) (size 9 to 14) (size 15 to 20)
#    0.000    2.154    0.000    5.077    0.000    2.154 
#    0.000    4.615    0.000    5.538    0.000    0.000 
#    0.000    0.000    0.000   48.462    0.000    5.385 
#
# Total GULP energy -322148.690183 kJ/mol
# GULP energy per Si atom -12390.334238 kJ/mol
# Density = 1.798566 g / cm^3
# Si number density = 18.026689 Si / 1000 Ang^3
#
#
#
# Elastic Constant Matrix: (Units=GPa)
#
#
# Indices 1 2 3 4 5 6 
#
# 1 22.7976 14.2832 14.6610 0.0000 -0.1455 0.0000
# 2 14.2832 118.2398 29.5330 0.0000 -9.7683 0.0000
# 3 14.6610 29.5330 87.6679 0.0000 -12.5571 0.0000
# 4 0.0000 0.0000 0.0000 17.8817 0.0000 -4.7722
# 5 -0.1455 -9.7683 -12.5571 0.0000 22.1123 0.0000
# 6 0.0000 0.0000 0.0000 -4.7722 0.0000 13.5820
#
#
#
# Elastic Compliance Matrix: (Units=1/GPa)
#
#
# Indices 1 2 3 4 5 6 
#
# 1 0.051964 -0.004807 -0.007975 0.000000 -0.006310 0.000000
# 2 -0.004807 0.009810 -0.002051 0.000000 0.003137 0.000000
# 3 -0.007975 -0.002051 0.014471 0.000000 0.007259 0.000000
# 4 0.000000 0.000000 0.000000 0.061710 0.000000 0.021682
# 5 -0.006310 0.003137 0.007259 0.000000 0.050690 0.000000
# 6 0.000000 0.000000 0.000000 0.021682 0.000000 0.081245
#
#
# Mechanical properties :
#
#
# Convention : Reuss Voigt Hill
#
# Bulk Modulus (GPa) = 21.46885 38.40663 29.93774
# Shear Modulus (GPa) = 15.86891 22.06374 18.96633
#
# Velocity S-wave (km/s) = 2.97021 3.50229 3.24717
# Velocity P-wave (km/s) = 4.86808 6.14056 5.54096
#
# Compressibility (1/GPa) = 0.04657912
#
# Stress axis : x y z
#
# Youngs Moduli (GPa) = 19.24415 101.94134 69.10298
#
# Poissons Ratio (x) = 0.48999 0.55107
# Poissons Ratio (y) = 0.09250 0.14176
# Poissons Ratio (z) = 0.15347 0.20913
#
# Static dielectric constant tensor:
#      x y z
#    x 2.790960 0.000000 -0.273750 
#    y 0.000000 13.856200 0.000000 
#    z -0.273750 0.000000 3.645660 
# 
# 
# High freq. dielectric constant tensor:
#      x y z
#    x 1.634960 0.000000 -0.026020 
#    y 0.000000 1.701820 0.000000 
#    z -0.026020 0.000000 1.720960 
# 
# From -- ./inp_files/7594.got.cif
#   From: 2010.06.25/outbox.cif.g09.slc.cpg/sg10_4_cif.got.tgz:7594.got - 2010.06.27 22:07:45.
