data_PCOD8056826
_publ_section_title
;
Structure prediction by ZEFSAII (Michael W. Deem and Ramdas Pophale) SiO2 
 PCOD8056826
Probable space group: P 2/M
;
_chemical_formula_sum "Si O2"
_cell_formula_units_Z 32
_cell_length_a 20.649891
_cell_length_b 8.866987
_cell_length_c 10.116265
_cell_angle_alpha 90.000000
_cell_angle_beta 99.536943
_cell_angle_gamma 90.000000
_cell_volume 1826.710702
_symmetry_space_group_name_H-M "P 2/M"
_symmetry_group_IT_number 10
_symmetry_cell_setting 'monoclinic'
loop_
_space_group_symop_operation_xyz
x,y,z
-x,y,-z
-x,-y,-z
x,-y,z
loop_
_atom_site_type_symbol
_atom_site_label
_atom_site_fract_x
_atom_site_fract_y
_atom_site_fract_z
Si Si1 0.941769 0.821211 0.124780
Si Si2 0.069642 0.320915 0.165739
Si Si3 0.199001 0.832245 0.890553
Si Si4 0.799400 0.171524 0.793903
Si Si5 0.459810 0.326328 0.852504
Si Si6 0.332346 0.678764 0.230646
Si Si7 0.327185 0.323021 0.929907
Si Si8 0.536580 0.175416 0.646944
O O1 0.874620 0.790029 0.185991
O O2 0.006631 0.755020 0.220354
O O3 0.948582 0.000000 0.098581
O O4 0.935464 0.729835 0.987063
O O5 0.067481 0.500000 0.179242
O O6 0.138040 0.258017 0.248644
O O7 0.256033 0.726945 0.849803
O O8 0.217652 0.000000 0.852373
O O9 0.196328 0.818701 0.047184
O O10 0.732503 0.251555 0.723160
O O11 0.799922 0.000000 0.743714
O O12 0.461650 0.500000 0.805556
O O13 0.385482 0.267940 0.853719
O O14 0.489945 0.221434 0.751398
O O15 0.500000 0.308209 0.000000
O O16 0.326956 0.500000 0.234296
O O17 0.395890 0.732063 0.331696
O O18 0.338527 0.739852 0.081993
O O19 0.329284 0.500000 0.938292
O O20 0.500000 0.215626 0.500000
O O21 0.553349 0.000000 0.664431
#
# Coordination Sequence:
#
# PCOD8056826 Si02
#       8
#     4   4   4   4   4   4   4   4
#     4   9  15  23  32  44  69 107 145 184 228 273
#     4  10  16  21  31  49  71 102 145 188 226 271
#     4   8  15  24  35  53  78 109 145 182 224 277
#     4   9  16  26  38  55  80 110 145 186 230 277
#     4  10  19  35  54  74  97 123 159 202 246 291
#     4  10  18  31  49  68  90 118 153 195 240 284
#     4   9  17  28  45  67  90 114 146 194 238 280
#     4  11  24  38  51  72 100 129 162 199 242 294
#
# _framework density 17.517827
#
# number of rings (size 3 to 8) (size 9 to 14) (size 15 to 20)
#    0.000    2.500    1.250    4.125    0.000    5.750 
#    0.000    0.000    0.000    0.000    0.000    0.000 
#    0.000    0.000    0.000    1.125    0.000   21.500 
#
# Total GULP energy -396570.720643 kJ/mol
# GULP energy per Si atom -12392.835020 kJ/mol
# Density = 1.747796 g / cm^3
# Si number density = 17.517827 Si / 1000 Ang^3
#
#
#
# Elastic Constant Matrix: (Units=GPa)
#
#
# Indices 1 2 3 4 5 6 
#
# 1 176.8322 51.5898 22.1580 0.0000 22.0629 0.0000
# 2 51.5898 75.7222 14.6833 0.0000 10.8102 0.0000
# 3 22.1580 14.6833 26.6368 0.0000 5.3921 0.0000
# 4 0.0000 0.0000 0.0000 18.0008 0.0000 -3.7502
# 5 22.0629 10.8102 5.3921 0.0000 9.0444 0.0000
# 6 0.0000 0.0000 0.0000 -3.7502 0.0000 49.2040
#
#
#
# Elastic Compliance Matrix: (Units=1/GPa)
#
#
# Indices 1 2 3 4 5 6 
#
# 1 0.008974 -0.003304 -0.002288 0.000000 -0.016579 0.000000
# 2 -0.003304 0.017910 -0.005029 0.000000 -0.010349 0.000000
# 3 -0.002288 -0.005029 0.045343 0.000000 -0.015440 0.000000
# 4 0.000000 0.000000 0.000000 0.056449 0.000000 0.004302
# 5 -0.016579 -0.010349 -0.015440 0.000000 0.172583 0.000000
# 6 0.000000 0.000000 0.000000 0.004302 0.000000 0.020651
#
#
# Mechanical properties :
#
#
# Convention : Reuss Voigt Hill
#
# Bulk Modulus (GPa) = 19.61362 50.67259 35.14310
# Shear Modulus (GPa) = 13.88318 27.96716 20.92517
#
# Velocity S-wave (km/s) = 2.81822 3.99995 3.45991
# Velocity P-wave (km/s) = 4.67017 7.09380 6.00552
#
# Compressibility (1/GPa) = 0.05098499
#
# Stress axis : x y z
#
# Youngs Moduli (GPa) = 111.43235 55.83584 22.05395
#
# Poissons Ratio (x) = 0.18446 0.05046
# Poissons Ratio (y) = 0.36813 0.11092
# Poissons Ratio (z) = 0.25496 0.28082
#
# Static dielectric constant tensor:
#      x y z
#    x 3.858620 0.000000 0.392800 
#    y 0.000000 3.258670 0.000000 
#    z 0.392800 0.000000 2.345390 
# 
# 
# High freq. dielectric constant tensor:
#      x y z
#    x 1.709810 0.000000 0.015750 
#    y 0.000000 1.683810 0.000000 
#    z 0.015750 0.000000 1.581550 
# 
# From -- ./inp_files/54507.got.cif
#   From: 2010.06.25/outbox.cif.g09.slc.cpg/sg10_28_cif.got.tgz:54507.got - 2010.06.27 22:07:45.
