data_PCOD8056348
_publ_section_title
;
Structure prediction by ZEFSAII (Michael W. Deem and Ramdas Pophale) SiO2 
 PCOD8056348
Probable space group: C C
;
_chemical_formula_sum "Si O2"
_cell_formula_units_Z 32
_cell_length_a 8.568927
_cell_length_b 12.025644
_cell_length_c 16.315523
_cell_angle_alpha 90.000000
_cell_angle_beta 63.288071
_cell_angle_gamma 90.000000
_cell_volume 1501.835400
_symmetry_space_group_name_H-M "C C"
_symmetry_group_IT_number 9
_symmetry_cell_setting 'monoclinic'
loop_
_space_group_symop_operation_xyz
x,y,z
x,-y,1/2+z
1/2+x,1/2+y,z
1/2+x,1/2-y,1/2+z
loop_
_atom_site_type_symbol
_atom_site_label
_atom_site_fract_x
_atom_site_fract_y
_atom_site_fract_z
Si Si1 0.139200 0.932883 0.921220
Si Si2 0.142893 0.679463 0.474730
Si Si3 0.497072 0.005799 0.899919
Si Si4 0.072169 0.306336 0.498863
Si Si5 0.495903 0.638261 0.295813
Si Si6 0.301017 0.486013 0.711693
Si Si7 0.388377 0.616609 0.029434
Si Si8 0.236401 0.708370 0.637374
O O1 0.299249 0.005574 0.915768
O O2 0.141581 0.911159 0.823039
O O3 0.142839 0.816167 0.966329
O O4 0.962193 0.997487 0.984378
O O5 0.330491 0.686381 0.385540
O O6 0.168075 0.664192 0.565963
O O7 0.028394 0.576754 0.468844
O O8 0.033792 0.790150 0.480215
O O9 0.609441 0.970045 0.794837
O O10 0.544731 0.129631 0.919197
O O11 0.214201 0.368807 0.518777
O O12 0.886356 0.301406 0.589512
O O13 0.441781 0.534977 0.250448
O O14 0.575653 0.738871 0.224602
O O15 0.332089 0.389538 0.637561
O O16 0.321404 0.608255 0.669238
#
# Coordination Sequence:
#
# PCOD8056348 Si02
#       8
#     4   4   4   4   4   4   4   4
#     4  12  25  46  70 102 138 188 231 285 358 414
#     4  11  23  48  74 104 142 189 232 292 358 415
#     4  11  26  46  73 101 143 188 234 288 357 418
#     4  12  25  46  73 101 140 185 236 286 353 422
#     4  11  25  44  67 104 142 183 238 289 347 425
#     4  11  24  44  68 104 143 178 236 295 344 416
#     4  12  24  46  73 103 143 185 235 296 350 419
#     4  12  24  44  74 101 141 184 234 291 355 415
#
# _framework density 21.307261
#
# number of rings (size 3 to 8) (size 9 to 14) (size 15 to 20)
#    0.000    0.500    5.000    3.750    3.500    0.000 
#    0.000    0.000    2.750    0.000    0.000    0.000 
#    0.000    0.000    0.000    0.000    0.000    0.000 
#
# Total GULP energy -198466.226159 kJ/mol
# GULP energy per Si atom -12404.139135 kJ/mol
# Density = 2.125877 g / cm^3
# Si number density = 21.307261 Si / 1000 Ang^3
#
#
#
# Elastic Constant Matrix: (Units=GPa)
#
#
# Indices 1 2 3 4 5 6 
#
# 1 123.8300 29.5878 46.7965 0.0000 14.3450 0.0000
# 2 29.5878 84.8178 33.6631 0.0000 3.6301 0.0000
# 3 46.7965 33.6631 125.1392 0.0000 12.0133 0.0000
# 4 0.0000 0.0000 0.0000 33.3723 0.0000 1.6815
# 5 14.3450 3.6301 12.0133 0.0000 26.6851 0.0000
# 6 0.0000 0.0000 0.0000 1.6815 0.0000 39.3117
#
#
#
# Elastic Compliance Matrix: (Units=1/GPa)
#
#
# Indices 1 2 3 4 5 6 
#
# 1 0.010123 -0.002251 -0.002808 0.000000 -0.003871 0.000000
# 2 -0.002251 0.013701 -0.002907 0.000000 0.000655 0.000000
# 3 -0.002808 -0.002907 0.010076 0.000000 -0.002631 0.000000
# 4 0.000000 0.000000 0.000000 0.030030 0.000000 -0.001284
# 5 -0.003871 0.000655 -0.002631 0.000000 0.040650 0.000000
# 6 0.000000 0.000000 0.000000 -0.001284 0.000000 0.025493
#
#
# Mechanical properties :
#
#
# Convention : Reuss Voigt Hill
#
# Bulk Modulus (GPa) = 55.65592 61.54242 58.59917
# Shear Modulus (GPa) = 32.89597 34.78979 33.84288
#
# Velocity S-wave (km/s) = 3.93349 4.04513 3.98970
# Velocity P-wave (km/s) = 6.84158 7.12485 6.98465
#
# Compressibility (1/GPa) = 0.01796754
#
# Stress axis : x y z
#
# Youngs Moduli (GPa) = 98.78228 72.98829 99.24761
#
# Poissons Ratio (x) = 0.16430 0.27873
# Poissons Ratio (y) = 0.22236 0.28848
# Poissons Ratio (z) = 0.27743 0.21215
#
# Static dielectric constant tensor:
#      x y z
#    x 3.897970 0.000000 0.083290 
#    y 0.000000 3.794680 0.000000 
#    z 0.083290 0.000000 4.026030 
# 
# 
# High freq. dielectric constant tensor:
#      x y z
#    x 1.842760 0.000000 0.007270 
#    y 0.000000 1.839180 0.000000 
#    z 0.007270 0.000000 1.841460 
# 
# From -- ./inp_files/22703.got.cif
#   From: 2010.06.25/outbox.cif.g09.slc.cpg/sg9_12_cif.got.tgz:22703.got - 2010.06.27 21:40:51.
