data_PCOD8056416
_publ_section_title
;
Structure prediction by ZEFSAII (Michael W. Deem and Ramdas Pophale) SiO2 
 PCOD8056416
Probable space group: C C
;
_chemical_formula_sum "Si O2"
_cell_formula_units_Z 16
_cell_length_a 6.441774
_cell_length_b 15.263588
_cell_length_c 9.497592
_cell_angle_alpha 90.000000
_cell_angle_beta 44.155458
_cell_angle_gamma 90.000000
_cell_volume 650.524733
_symmetry_space_group_name_H-M "C C"
_symmetry_group_IT_number 9
_symmetry_cell_setting 'monoclinic'
loop_
_space_group_symop_operation_xyz
x,y,z
x,-y,1/2+z
1/2+x,1/2+y,z
1/2+x,1/2-y,1/2+z
loop_
_atom_site_type_symbol
_atom_site_label
_atom_site_fract_x
_atom_site_fract_y
_atom_site_fract_z
Si Si1 0.407980 0.621789 0.899620
Si Si2 0.346692 0.337041 0.123786
Si Si3 0.223438 0.166099 0.003357
Si Si4 0.741293 0.552273 0.242368
O O1 0.424076 0.681975 0.751639
O O2 0.671167 0.549965 0.767783
O O3 0.476324 0.684067 0.002378
O O4 0.093075 0.572485 0.071645
O O5 0.345462 0.251492 0.025845
O O6 0.012694 0.376431 0.285715
O O7 0.584504 0.407781 0.956369
O O8 0.088811 0.097913 0.180230
#
# Coordination Sequence:
#
# PCOD8056416 Si02
#       4
#     4   4   4   4
#     4  11  26  44  75 104 143 190 231 297 353 418
#     4  11  24  46  68 106 145 182 238 286 354 427
#     4  11  24  45  69 105 144 186 232 292 351 423
#     4  11  24  47  70 107 142 184 241 287 358 424
#
# _framework density 24.595528999999999
#
# number of rings (size 3 to 8) (size 9 to 14) (size 15 to 20)
#    0.000    1.000    2.500    3.000    0.000   12.000 
#    0.000    0.000    0.000    0.000    0.000    0.000 
#    0.000    0.000    0.000    0.000    0.000    0.000 
#
# Total GULP energy -99135.653126 kJ/mol
# GULP energy per Si atom -12391.956641 kJ/mol
# Density = 2.453955 g / cm^3
# Si number density = 24.595529 Si / 1000 Ang^3
#
#
#
# Elastic Constant Matrix: (Units=GPa)
#
#
# Indices 1 2 3 4 5 6 
#
# 1 190.7354 42.3065 54.4525 0.0000 35.9779 0.0000
# 2 42.3065 79.6757 11.7300 0.0000 12.4095 0.0000
# 3 54.4525 11.7300 115.3332 0.0000 4.3688 0.0000
# 4 0.0000 0.0000 0.0000 36.5425 0.0000 5.2475
# 5 35.9779 12.4095 4.3688 0.0000 40.5480 0.0000
# 6 0.0000 0.0000 0.0000 5.2475 0.0000 34.3685
#
#
#
# Elastic Compliance Matrix: (Units=1/GPa)
#
#
# Indices 1 2 3 4 5 6 
#
# 1 0.007873 -0.002807 -0.003213 0.000000 -0.005780 0.000000
# 2 -0.002807 0.014345 -0.000062 0.000000 -0.001893 0.000000
# 3 -0.003213 -0.000062 0.010126 0.000000 0.001778 0.000000
# 4 0.000000 0.000000 0.000000 0.027979 0.000000 -0.004272
# 5 -0.005780 -0.001893 0.001778 0.000000 0.030179 0.000000
# 6 0.000000 0.000000 0.000000 -0.004272 0.000000 0.029749
#
#
# Mechanical properties :
#
#
# Convention : Reuss Voigt Hill
#
# Bulk Modulus (GPa) = 49.55126 66.96916 58.26021
# Shear Modulus (GPa) = 35.93466 40.77549 38.35507
#
# Velocity S-wave (km/s) = 3.82648 4.07608 3.95325
# Velocity P-wave (km/s) = 6.30181 7.03135 6.67655
#
# Compressibility (1/GPa) = 0.02018112
#
# Stress axis : x y z
#
# Youngs Moduli (GPa) = 127.01585 69.70890 98.75316
#
# Poissons Ratio (x) = 0.19569 0.31726
# Poissons Ratio (y) = 0.35656 0.00612
# Poissons Ratio (z) = 0.40806 0.00432
#
# Static dielectric constant tensor:
#      x y z
#    x 4.784780 0.000000 0.194390 
#    y 0.000000 4.011060 0.000000 
#    z 0.194390 0.000000 4.761640 
# 
# 
# High freq. dielectric constant tensor:
#      x y z
#    x 1.988350 0.000000 0.008050 
#    y 0.000000 1.950840 0.000000 
#    z 0.008050 0.000000 1.996240 
# 
# From -- ./inp_files/109.got.cif
#   From: 2010.06.25/outbox.cif.g09.slc.cpg/sg9_1_cif.got.tgz:109.got - 2010.06.27 21:40:51.
