data_PCOD8056345
_publ_section_title
;
Structure prediction by ZEFSAII (Michael W. Deem and Ramdas Pophale) SiO2 
 PCOD8056345
Probable space group: C C
;
_chemical_formula_sum "Si O2"
_cell_formula_units_Z 24
_cell_length_a 9.393687
_cell_length_b 10.584578
_cell_length_c 12.301837
_cell_angle_alpha 90.000000
_cell_angle_beta 135.263342
_cell_angle_gamma 90.000000
_cell_volume 860.913074
_symmetry_space_group_name_H-M "C C"
_symmetry_group_IT_number 9
_symmetry_cell_setting 'monoclinic'
loop_
_space_group_symop_operation_xyz
x,y,z
x,-y,1/2+z
1/2+x,1/2+y,z
1/2+x,1/2-y,1/2+z
loop_
_atom_site_type_symbol
_atom_site_label
_atom_site_fract_x
_atom_site_fract_y
_atom_site_fract_z
Si Si1 0.596270 0.573586 0.794320
Si Si2 0.525910 0.754896 0.032916
Si Si3 0.797554 0.469322 0.707603
Si Si4 0.986784 0.881859 0.898556
Si Si5 0.259932 0.309758 0.972321
Si Si6 0.597146 0.848719 0.303021
O O1 0.733818 0.477484 0.799726
O O2 0.446820 0.491389 0.788750
O O3 0.460955 0.664663 0.648365
O O4 0.747023 0.658734 0.946886
O O5 0.733706 0.672487 0.140601
O O6 0.502021 0.830496 0.131344
O O7 0.557119 0.842798 0.939207
O O8 0.339622 0.657448 0.922602
O O9 0.681517 0.579953 0.576426
O O10 0.032648 0.510673 0.811550
O O11 0.021608 0.751485 0.852137
O O12 0.787574 0.873432 0.867924
#
# Coordination Sequence:
#
# PCOD8056345 Si02
#       6
#     4   4   4   4   4   4
#     4  11  23  47  77 114 155 208 272 331 394 481
#     4  12  26  48  75 116 160 205 273 327 406 478
#     4  11  24  47  78 114 155 206 269 329 401 479
#     4  11  23  47  78 112 158 206 264 329 398 471
#     4  11  25  47  76 111 160 206 262 330 391 479
#     4  12  25  48  78 115 160 209 264 344 388 474
#
# _framework density 27.877379999999999
#
# number of rings (size 3 to 8) (size 9 to 14) (size 15 to 20)
#    0.000    0.667    6.667    1.000    0.000    0.000 
#   12.000    1.667    0.000    0.000    0.000    0.000 
#    0.000    0.000    0.000    0.000    0.000    0.000 
#
# Total GULP energy -148724.702370 kJ/mol
# GULP energy per Si atom -12393.725198 kJ/mol
# Density = 2.781393 g / cm^3
# Si number density = 27.877380 Si / 1000 Ang^3
#
#
#
# Elastic Constant Matrix: (Units=GPa)
#
#
# Indices 1 2 3 4 5 6 
#
# 1 242.5947 68.6656 55.8557 0.0000 -26.1917 0.0000
# 2 68.6656 93.5238 4.4647 0.0000 -12.9656 0.0000
# 3 55.8557 4.4647 48.8703 0.0000 -17.4986 0.0000
# 4 0.0000 0.0000 0.0000 23.7348 0.0000 -3.8476
# 5 -26.1917 -12.9656 -17.4986 0.0000 56.2782 0.0000
# 6 0.0000 0.0000 0.0000 -3.8476 0.0000 71.8201
#
#
#
# Elastic Compliance Matrix: (Units=1/GPa)
#
#
# Indices 1 2 3 4 5 6 
#
# 1 0.007390 -0.005074 -0.008068 0.000000 -0.000238 0.000000
# 2 -0.005074 0.014529 0.005429 0.000000 0.002674 0.000000
# 3 -0.008068 0.005429 0.031835 0.000000 0.007394 0.000000
# 4 0.000000 0.000000 0.000000 0.042501 0.000000 0.002277
# 5 -0.000238 0.002674 0.007394 0.000000 0.020573 0.000000
# 6 0.000000 0.000000 0.000000 0.002277 0.000000 0.014046
#
#
# Mechanical properties :
#
#
# Convention : Reuss Voigt Hill
#
# Bulk Modulus (GPa) = 26.08990 71.44010 48.76500
# Shear Modulus (GPa) = 31.43131 47.43347 39.43239
#
# Velocity S-wave (km/s) = 3.36145 4.12940 3.76506
# Velocity P-wave (km/s) = 4.94418 6.95832 6.03585
#
# Compressibility (1/GPa) = 0.03832901
#
# Stress axis : x y z
#
# Youngs Moduli (GPa) = 135.31550 68.82708 31.41149
#
# Poissons Ratio (x) = 0.34921 0.25344
# Poissons Ratio (y) = 0.68655 -0.17054
# Poissons Ratio (z) = 1.09176 -0.37367
#
# Static dielectric constant tensor:
#      x y z
#    x 5.668760 0.000000 -0.491700 
#    y 0.000000 4.782170 0.000000 
#    z -0.491700 0.000000 5.017940 
# 
# 
# High freq. dielectric constant tensor:
#      x y z
#    x 2.161240 0.000000 -0.026450 
#    y 0.000000 2.129290 0.000000 
#    z -0.026450 0.000000 2.120520 
# 
# From -- ./inp_files/14275.got.cif
#   From: 2010.06.25/outbox.cif.g09.slc.cpg/sg9_8_cif.got.tgz:14275.got - 2010.06.27 21:40:51.
