data_PCOD8056300
_publ_section_title
;
Structure prediction by ZEFSAII (Michael W. Deem and Ramdas Pophale) SiO2 
 PCOD8056300
Probable space group: C C
;
_chemical_formula_sum "Si O2"
_cell_formula_units_Z 32
_cell_length_a 10.338542
_cell_length_b 14.600181
_cell_length_c 9.161932
_cell_angle_alpha 90.000000
_cell_angle_beta 97.705098
_cell_angle_gamma 90.000000
_cell_volume 1370.457796
_symmetry_space_group_name_H-M "C C"
_symmetry_group_IT_number 9
_symmetry_cell_setting 'monoclinic'
loop_
_space_group_symop_operation_xyz
x,y,z
x,-y,1/2+z
1/2+x,1/2+y,z
1/2+x,1/2-y,1/2+z
loop_
_atom_site_type_symbol
_atom_site_label
_atom_site_fract_x
_atom_site_fract_y
_atom_site_fract_z
Si Si1 0.213800 0.387970 0.457410
Si Si2 0.399390 0.651587 0.209583
Si Si3 0.166862 0.107982 0.133131
Si Si4 0.293227 0.410415 0.970743
Si Si5 0.504113 0.144629 0.443829
Si Si6 0.336929 0.279810 0.223732
Si Si7 0.293683 0.009680 0.877548
Si Si8 0.458760 0.155808 0.775408
O O1 0.269744 0.323431 0.594609
O O2 0.266942 0.486481 0.520937
O O3 0.264065 0.353333 0.310995
O O4 0.058197 0.384612 0.413033
O O5 0.510635 0.621834 0.108678
O O6 0.370415 0.576913 0.329963
O O7 0.431457 0.739884 0.313923
O O8 0.236067 0.206020 0.144367
O O9 0.187560 0.054780 0.287275
O O10 0.225822 0.047659 0.012270
O O11 0.151936 0.366549 0.914072
O O12 0.378281 0.346419 0.095029
O O13 0.449365 0.227326 0.332604
O O14 0.506120 0.165197 0.616037
O O15 0.423458 0.050848 0.418228
O O16 0.330542 0.093386 0.774851
#
# Coordination Sequence:
#
# PCOD8056300 Si02
#       8
#     4   4   4   4   4   4   4   4
#     4  12  25  45  73 102 150 196 237 311 375 434
#     4  12  28  44  67 109 152 190 236 310 383 435
#     4  11  25  47  71 108 148 189 248 309 371 443
#     4  12  26  46  73 112 144 197 248 303 377 442
#     4  11  23  45  75 109 144 191 250 311 361 439
#     4  11  24  48  72 101 151 195 242 311 370 439
#     4  11  24  44  80 106 136 196 256 303 367 447
#     4  12  23  47  75 105 145 194 253 302 368 445
#
# _framework density 23.349862000000002
#
# number of rings (size 3 to 8) (size 9 to 14) (size 15 to 20)
#    0.000    0.500    6.250    1.500    1.750    3.000 
#    0.000    0.000    0.000    0.000    0.000    0.000 
#    0.000    0.000    0.000    0.000    0.000    0.000 
#
# Total GULP energy -198250.949303 kJ/mol
# GULP energy per Si atom -12390.684331 kJ/mol
# Density = 2.329672 g / cm^3
# Si number density = 23.349862 Si / 1000 Ang^3
#
#
#
# Elastic Constant Matrix: (Units=GPa)
#
#
# Indices 1 2 3 4 5 6 
#
# 1 42.9010 24.8602 13.9905 0.0000 5.8125 0.0000
# 2 24.8602 118.1621 35.7432 0.0000 7.8491 0.0000
# 3 13.9905 35.7432 103.9092 0.0000 6.4118 0.0000
# 4 0.0000 0.0000 0.0000 45.9971 0.0000 -1.9459
# 5 5.8125 7.8491 6.4118 0.0000 33.9956 0.0000
# 6 0.0000 0.0000 0.0000 -1.9459 0.0000 23.4901
#
#
#
# Elastic Compliance Matrix: (Units=1/GPa)
#
#
# Indices 1 2 3 4 5 6 
#
# 1 0.027197 -0.004981 -0.001753 0.000000 -0.003169 0.000000
# 2 -0.004981 0.010443 -0.002859 0.000000 -0.001020 0.000000
# 3 -0.001753 -0.002859 0.010911 0.000000 -0.001098 0.000000
# 4 0.000000 0.000000 0.000000 0.021817 0.000000 0.001807
# 5 -0.003169 -0.001020 -0.001098 0.000000 0.030400 0.000000
# 6 0.000000 0.000000 0.000000 0.001807 0.000000 0.042721
#
#
# Mechanical properties :
#
#
# Convention : Reuss Voigt Hill
#
# Bulk Modulus (GPa) = 34.05322 46.01778 40.03550
# Shear Modulus (GPa) = 28.99163 33.38846 31.19004
#
# Velocity S-wave (km/s) = 3.52748 3.78553 3.65878
# Velocity P-wave (km/s) = 5.58627 6.23360 5.91879
#
# Compressibility (1/GPa) = 0.02936580
#
# Stress axis : x y z
#
# Youngs Moduli (GPa) = 36.76874 95.75335 91.65134
#
# Poissons Ratio (x) = 0.47697 0.16065
# Poissons Ratio (y) = 0.18315 0.26201
# Poissons Ratio (z) = 0.06445 0.27374
#
# Static dielectric constant tensor:
#      x y z
#    x 4.100420 0.000000 0.162910 
#    y 0.000000 4.364960 0.000000 
#    z 0.162910 0.000000 4.101540 
# 
# 
# High freq. dielectric constant tensor:
#      x y z
#    x 1.908790 0.000000 0.007090 
#    y 0.000000 1.938660 0.000000 
#    z 0.007090 0.000000 1.925870 
# 
# From -- ./inp_files/7450.got.cif
#   From: 2010.06.25/outbox.cif.g09.slc.cpg/sg9_4_cif.got.tgz:7450.got - 2010.06.27 21:40:51.
