data_PCOD8056753
_publ_section_title
;
Structure prediction by ZEFSAII (Michael W. Deem and Ramdas Pophale) SiO2 
 PCOD8056753
Probable space group: C C
;
_chemical_formula_sum "Si O2"
_cell_formula_units_Z 24
_cell_length_a 8.325147
_cell_length_b 4.875658
_cell_length_c 27.281545
_cell_angle_alpha 90.000000
_cell_angle_beta 129.502877
_cell_angle_gamma 90.000000
_cell_volume 854.441207
_symmetry_space_group_name_H-M "C C"
_symmetry_group_IT_number 9
_symmetry_cell_setting 'monoclinic'
loop_
_space_group_symop_operation_xyz
x,y,z
x,-y,1/2+z
1/2+x,1/2+y,z
1/2+x,1/2-y,1/2+z
loop_
_atom_site_type_symbol
_atom_site_label
_atom_site_fract_x
_atom_site_fract_y
_atom_site_fract_z
Si Si1 0.495100 0.025885 0.739460
Si Si2 0.493225 0.253573 0.403085
Si Si3 0.208511 0.272074 0.486122
Si Si4 0.079914 0.033548 0.819654
Si Si5 0.106058 0.300779 0.659274
Si Si6 0.663269 0.083860 0.572619
O O1 0.494462 0.338078 0.760538
O O2 0.239125 0.010274 0.687747
O O3 0.612171 0.825581 0.799766
O O4 0.610652 0.983843 0.710060
O O5 0.438184 0.385317 0.339094
O O6 0.590036 0.483270 0.456597
O O7 0.652372 0.996285 0.433030
O O8 0.284247 0.107138 0.383036
O O9 0.366806 0.758326 0.597599
O O10 0.457009 0.264988 0.534409
O O11 0.126851 0.359574 0.523631
O O12 0.215703 0.461029 0.636011
#
# Coordination Sequence:
#
# PCOD8056753 Si02
#       6
#     4   4   4   4   4   4
#     4  12  26  48  78 114 154 202 254 316 382 456
#     4  12  27  48  77 112 153 202 255 316 382 456
#     4  12  28  51  79 114 155 203 256 318 384 458
#     4  12  26  48  76 112 152 200 254 314 380 454
#     4  12  27  49  78 112 154 201 255 316 382 456
#     4  12  28  50  78 114 154 202 256 316 382 456
#
# _framework density 28.088531
#
# number of rings (size 3 to 8) (size 9 to 14) (size 15 to 20)
#    0.000    0.000    0.000    9.000    0.000   12.000 
#    0.000    0.000    0.000    0.000    0.000    0.000 
#    0.000    0.000    0.000    0.000    0.000    0.000 
#
# Total GULP energy -148743.854019 kJ/mol
# GULP energy per Si atom -12395.321168 kJ/mol
# Density = 2.802460 g / cm^3
# Si number density = 28.088531 Si / 1000 Ang^3
#
#
#
# Elastic Constant Matrix: (Units=GPa)
#
#
# Indices 1 2 3 4 5 6 
#
# 1 98.0436 24.2855 0.0237 0.0000 -30.6263 0.0000
# 2 24.2855 119.8724 17.7044 0.0000 -7.2444 0.0000
# 3 0.0237 17.7044 73.9669 0.0000 -13.4659 0.0000
# 4 0.0000 0.0000 0.0000 8.2627 0.0000 16.6734
# 5 -30.6263 -7.2444 -13.4659 0.0000 22.0849 0.0000
# 6 0.0000 0.0000 0.0000 16.6734 0.0000 42.0795
#
#
#
# Elastic Compliance Matrix: (Units=1/GPa)
#
#
# Indices 1 2 3 4 5 6 
#
# 1 0.021071 -0.003305 0.006644 0.000000 0.032188 0.000000
# 2 -0.003305 0.009228 -0.002802 0.000000 -0.003265 0.000000
# 3 0.006644 -0.002802 0.017658 0.000000 0.019062 0.000000
# 4 0.000000 0.000000 0.000000 0.603801 0.000001 -0.239247
# 5 0.032188 -0.003265 0.019062 0.000001 0.100468 0.000000
# 6 0.000000 0.000000 0.000000 -0.239247 0.000000 0.118563
#
#
# Mechanical properties :
#
#
# Convention : Reuss Voigt Hill
#
# Bulk Modulus (GPa) = 20.39486 41.76778 31.08132
# Shear Modulus (GPa) = 5.64296 31.14337 18.39317
#
# Velocity S-wave (km/s) = 1.41893 3.33341 2.56174
# Velocity P-wave (km/s) = 3.15613 5.45141 4.45416
#
# Compressibility (1/GPa) = 0.04903195
#
# Stress axis : x y z
#
# Youngs Moduli (GPa) = 47.45834 108.36197 56.63043
#
# Poissons Ratio (x) = 0.35813 -0.37626
# Poissons Ratio (y) = 0.15685 0.15869
# Poissons Ratio (z) = -0.31532 0.30364
#
# Static dielectric constant tensor:
#      x y z
#    x 5.194320 0.000000 -0.014960 
#    y 0.000000 4.986320 0.000000 
#    z -0.014960 0.000000 5.487170 
# 
# 
# High freq. dielectric constant tensor:
#      x y z
#    x 2.142450 0.000000 0.008020 
#    y 0.000000 2.134460 0.000000 
#    z 0.008020 0.000000 2.162650 
# 
# From -- ./inp_files/36289.got.cif
#   From: 2010.06.25/outbox.cif.g09.slc.cpg/sg9_19_cif.got.tgz:36289.got - 2010.06.27 21:40:51.
