data_PCOD8056772
_publ_section_title
;
Structure prediction by ZEFSAII (Michael W. Deem and Ramdas Pophale) SiO2 
 PCOD8056772
Probable space group: C C
;
_chemical_formula_sum "Si O2"
_cell_formula_units_Z 32
_cell_length_a 12.706828
_cell_length_b 12.778169
_cell_length_c 9.135057
_cell_angle_alpha 90.000000
_cell_angle_beta 70.268295
_cell_angle_gamma 90.000000
_cell_volume 1396.167922
_symmetry_space_group_name_H-M "C C"
_symmetry_group_IT_number 9
_symmetry_cell_setting 'monoclinic'
loop_
_space_group_symop_operation_xyz
x,y,z
x,-y,1/2+z
1/2+x,1/2+y,z
1/2+x,1/2-y,1/2+z
loop_
_atom_site_type_symbol
_atom_site_label
_atom_site_fract_x
_atom_site_fract_y
_atom_site_fract_z
Si Si1 0.596300 0.998098 0.185370
Si Si2 0.945610 0.461192 0.513387
Si Si3 0.016443 0.119002 0.000822
Si Si4 0.685955 0.796257 0.019279
Si Si5 0.860981 0.261607 0.658120
Si Si6 0.036810 0.084225 0.653956
Si Si7 0.773088 0.365812 0.992226
Si Si8 0.273486 0.328054 0.668713
O O1 0.558303 0.969414 0.365899
O O2 0.609045 0.897160 0.076080
O O3 0.487349 0.050500 0.162145
O O4 0.704658 0.072545 0.139178
O O5 0.887944 0.348163 0.519319
O O6 0.859296 0.555465 0.530018
O O7 0.898665 0.178292 0.046702
O O8 0.110720 0.194098 0.025598
O O9 0.983176 0.024160 0.125066
O O10 0.050876 0.082164 0.822597
O O11 0.753973 0.795259 0.139339
O O12 0.768581 0.820196 0.845766
O O13 0.962337 0.181614 0.635492
O O14 0.826726 0.315415 0.824857
O O15 0.156288 0.076600 0.512985
O O16 0.723641 0.278418 0.126487
#
# Coordination Sequence:
#
# PCOD8056772 Si02
#       8
#     4   4   4   4   4   4   4   4
#     4  12  27  47  77 109 148 197 256 309 372 446
#     4  12  27  47  77 109 148 197 256 309 372 446
#     4  12  29  50  77 110 154 198 250 312 384 455
#     4  12  29  49  77 113 150 199 252 312 381 451
#     4  12  29  49  77 113 150 199 252 312 381 451
#     4  12  29  50  77 110 154 198 250 312 384 455
#     4  12  27  48  77 106 152 198 251 310 376 446
#     4  12  27  48  77 106 152 198 251 310 376 446
#
# _framework density 22.919879999999999
#
# number of rings (size 3 to 8) (size 9 to 14) (size 15 to 20)
#    0.000    0.000    5.000    3.000   14.000    0.000 
#    0.000    0.000    0.000    0.000    0.000    0.000 
#    0.000    0.000    0.000    0.000    0.000    0.000 
#
# Total GULP energy -198383.991214 kJ/mol
# GULP energy per Si atom -12398.999451 kJ/mol
# Density = 2.286771 g / cm^3
# Si number density = 22.919880 Si / 1000 Ang^3
#
#
#
# Elastic Constant Matrix: (Units=GPa)
#
#
# Indices 1 2 3 4 5 6 
#
# 1 116.9949 21.3070 44.6559 0.0000 3.4012 0.0000
# 2 21.3070 108.3658 52.3574 0.0000 5.8543 0.0000
# 3 44.6559 52.3574 97.7254 0.0000 -2.0092 0.0000
# 4 0.0000 0.0000 0.0000 38.9576 0.0000 3.0112
# 5 3.4012 5.8543 -2.0092 0.0000 39.3302 0.0000
# 6 0.0000 0.0000 0.0000 3.0112 0.0000 34.9374
#
#
#
# Elastic Compliance Matrix: (Units=1/GPa)
#
#
# Indices 1 2 3 4 5 6 
#
# 1 0.010420 0.000445 -0.005025 0.000000 -0.001224 0.000000
# 2 0.000445 0.012662 -0.007034 0.000000 -0.002283 0.000000
# 3 -0.005025 -0.007034 0.016345 0.000000 0.002317 0.000000
# 4 0.000000 0.000000 0.000000 0.025841 0.000000 -0.002227
# 5 -0.001224 -0.002283 0.002317 0.000000 0.025990 0.000000
# 6 0.000000 0.000000 0.000000 -0.002227 0.000000 0.028815
#
#
# Mechanical properties :
#
#
# Convention : Reuss Voigt Hill
#
# Bulk Modulus (GPa) = 61.73151 62.19185 61.96168
# Shear Modulus (GPa) = 33.62439 36.29609 34.96024
#
# Velocity S-wave (km/s) = 3.83435 3.98377 3.90978
# Velocity P-wave (km/s) = 6.82606 6.95370 6.89018
#
# Compressibility (1/GPa) = 0.01619918
#
# Stress axis : x y z
#
# Youngs Moduli (GPa) = 95.97004 78.97337 61.17927
#
# Poissons Ratio (x) = -0.03516 0.30743
# Poissons Ratio (y) = -0.04273 0.43036
# Poissons Ratio (z) = 0.48226 0.55553
#
# Static dielectric constant tensor:
#      x y z
#    x 3.950760 0.000000 0.030820 
#    y 0.000000 4.215570 0.000000 
#    z 0.030820 0.000000 3.989520 
# 
# 
# High freq. dielectric constant tensor:
#      x y z
#    x 1.915390 0.000000 -0.001700 
#    y 0.000000 1.920720 0.000000 
#    z -0.001700 0.000000 1.911030 
# 
# From -- ./inp_files/9228.got.cif
#   From: 2010.06.25/outbox.cif.g09.slc.cpg/sg9_5_cif.got.tgz:9228.got - 2010.06.27 21:40:51.
