data_PCOD8056972
_publ_section_title
;
Structure prediction by ZEFSAII (Michael W. Deem and Ramdas Pophale) SiO2 
 PCOD8056972
Probable space group: P 2/M
;
_chemical_formula_sum "Si O2"
_cell_formula_units_Z 32
_cell_length_a 22.524285
_cell_length_b 8.878468
_cell_length_c 14.018534
_cell_angle_alpha 90.000000
_cell_angle_beta 132.935441
_cell_angle_gamma 90.000000
_cell_volume 2052.461034
_symmetry_space_group_name_H-M "P 2/M"
_symmetry_group_IT_number 10
_symmetry_cell_setting 'monoclinic'
loop_
_space_group_symop_operation_xyz
x,y,z
-x,y,-z
-x,-y,-z
x,-y,z
loop_
_atom_site_type_symbol
_atom_site_label
_atom_site_fract_x
_atom_site_fract_y
_atom_site_fract_z
Si Si1 0.356106 0.676844 0.204590
Si Si2 0.735243 0.676462 0.246602
Si Si3 0.939109 0.178682 0.310514
Si Si4 0.471976 0.677986 0.687763
Si Si5 0.589693 0.170000 0.556678
Si Si6 0.568842 0.320187 0.146971
Si Si7 0.783850 0.678491 0.091510
Si Si8 0.091302 0.676858 0.518002
O O1 0.358890 0.500000 0.224108
O O2 0.436442 0.729792 0.235880
O O3 0.349596 0.753470 0.301210
O O4 0.278191 0.726176 0.058782
O O5 0.721109 0.500000 0.221182
O O6 0.655278 0.747638 0.207173
O O7 0.748115 0.738466 0.153294
O O8 0.813660 0.710250 0.399899
O O9 0.869068 0.236464 0.161927
O O10 0.922556 0.264201 0.390698
O O11 0.030194 0.233556 0.379306
O O12 0.936898 0.000000 0.319377
O O13 0.463743 0.500000 0.674341
O O14 0.408014 0.745835 0.542280
O O15 0.449927 0.741185 0.767943
O O16 0.500000 0.181795 0.500000
O O17 0.618111 0.000000 0.571831
O O18 0.569744 0.500000 0.148872
O O19 0.500000 0.260205 0.000000
O O20 0.798937 0.500000 0.110493
O O21 0.072699 0.500000 0.492140
#
# Coordination Sequence:
#
# PCOD8056972 Si02
#       8
#     4   4   4   4   4   4   4   4
#     4   9  16  26  41  60  80 103 133 166 199 237
#     4   8  14  23  36  55  78 106 137 164 192 229
#     4  10  17  24  36  55  77 100 130 165 199 236
#     4   9  16  26  42  61  80 104 135 170 201 229
#     4   9  17  28  41  56  76 103 133 166 204 242
#     4   9  15  23  38  61  85 106 133 169 201 225
#     4   9  16  26  39  56  81 109 133 159 196 240
#     4   9  15  25  39  52  72 103 136 166 197 233
#
# _framework density 15.591037999999999
#
# number of rings (size 3 to 8) (size 9 to 14) (size 15 to 20)
#    0.000    3.000    0.000    4.125    0.000    5.000 
#    0.000    0.000    0.000    4.125    0.000    0.000 
#    0.000    1.000    0.000   11.500    0.000    3.500 
#
# Total GULP energy -396542.791131 kJ/mol
# GULP energy per Si atom -12391.962223 kJ/mol
# Density = 1.555555 g / cm^3
# Si number density = 15.591038 Si / 1000 Ang^3
#
#
#
# Elastic Constant Matrix: (Units=GPa)
#
#
# Indices 1 2 3 4 5 6 
#
# 1 67.2475 19.0318 60.8121 0.0000 14.4697 0.0000
# 2 19.0318 36.3954 36.3016 0.0000 6.6448 0.0000
# 3 60.8121 36.3016 138.1093 0.0000 11.8966 0.0000
# 4 0.0000 0.0000 0.0000 10.8308 0.0000 3.2343
# 5 14.4697 6.6448 11.8966 0.0000 28.2707 0.0000
# 6 0.0000 0.0000 0.0000 3.2343 0.0000 6.6174
#
#
#
# Elastic Compliance Matrix: (Units=1/GPa)
#
#
# Indices 1 2 3 4 5 6 
#
# 1 0.026873 -0.001889 -0.010573 0.000000 -0.008861 0.000000
# 2 -0.001889 0.038012 -0.008792 0.000000 -0.004268 0.000000
# 3 -0.010573 -0.008792 0.014073 0.000000 0.001556 0.000000
# 4 0.000000 0.000000 0.000000 0.108108 0.000000 -0.052839
# 5 -0.008861 -0.004268 0.001556 0.000000 0.040256 0.000000
# 6 0.000000 0.000000 0.000000 -0.052839 0.000000 0.176943
#
#
# Mechanical properties :
#
#
# Convention : Reuss Voigt Hill
#
# Bulk Modulus (GPa) = 27.43442 52.67148 40.05295
# Shear Modulus (GPa) = 10.89510 17.51757 14.20633
#
# Velocity S-wave (km/s) = 2.64636 3.35560 3.02186
# Velocity P-wave (km/s) = 5.19347 6.99070 6.15800
#
# Compressibility (1/GPa) = 0.03645055
#
# Stress axis : x y z
#
# Youngs Moduli (GPa) = 37.21257 26.30727 71.05812
#
# Poissons Ratio (x) = 0.04969 0.75128
# Poissons Ratio (y) = 0.07029 0.62475
# Poissons Ratio (z) = 0.39344 0.23130
#
# Static dielectric constant tensor:
#      x y z
#    x 3.099770 0.000000 0.409660 
#    y 0.000000 2.751110 0.000000 
#    z 0.409660 0.000000 3.266840 
# 
# 
# High freq. dielectric constant tensor:
#      x y z
#    x 1.557730 0.000000 0.026520 
#    y 0.000000 1.579340 0.000000 
#    z 0.026520 0.000000 1.594720 
# 
# From -- ./inp_files/54935.got.cif
#   From: 2010.06.25/outbox.cif.g09.slc.cpg/sg10_28_cif.got.tgz:54935.got - 2010.06.27 22:07:45.
