data_PCOD8056324
_publ_section_title
;
Structure prediction by ZEFSAII (Michael W. Deem and Ramdas Pophale) SiO2 
 PCOD8056324
Probable space group: C C
;
_chemical_formula_sum "Si O2"
_cell_formula_units_Z 32
_cell_length_a 11.184249
_cell_length_b 13.990325
_cell_length_c 9.630187
_cell_angle_alpha 90.000000
_cell_angle_beta 109.476173
_cell_angle_gamma 90.000000
_cell_volume 1420.626188
_symmetry_space_group_name_H-M "C C"
_symmetry_group_IT_number 9
_symmetry_cell_setting 'monoclinic'
loop_
_space_group_symop_operation_xyz
x,y,z
x,-y,1/2+z
1/2+x,1/2+y,z
1/2+x,1/2-y,1/2+z
loop_
_atom_site_type_symbol
_atom_site_label
_atom_site_fract_x
_atom_site_fract_y
_atom_site_fract_z
Si Si1 0.117130 0.588455 0.479180
Si Si2 0.381252 0.803095 0.915301
Si Si3 0.182924 0.326897 0.712630
Si Si4 0.461011 0.906838 0.454236
Si Si5 0.260077 0.076687 0.116936
Si Si6 0.354353 0.517518 0.166139
Si Si7 0.783808 0.360225 0.166046
Si Si8 0.475346 0.595297 0.943849
O O1 0.170783 0.634987 0.361984
O O2 0.233869 0.555144 0.619890
O O3 0.023452 0.664210 0.515224
O O4 0.026637 0.499011 0.411997
O O5 0.328363 0.856099 0.757360
O O6 0.390822 0.690348 0.890617
O O7 0.290505 0.826108 0.009451
O O8 0.307246 0.378177 0.697793
O O9 0.191615 0.212180 0.712233
O O10 0.057862 0.344484 0.576864
O O11 0.344167 0.932851 0.510683
O O12 0.416070 0.849328 0.300854
O O13 0.236975 0.969231 0.164749
O O14 0.122528 0.120555 0.027624
O O15 0.462176 0.471591 0.303962
O O16 0.415894 0.530499 0.041068
#
# Coordination Sequence:
#
# PCOD8056324 Si02
#       8
#     4   4   4   4   4   4   4   4
#     4  11  23  46  76 100 143 190 247 307 354 445
#     4  12  27  48  72 110 146 194 253 298 369 447
#     4  11  24  44  73 106 142 190 253 297 362 442
#     4  11  24  44  73 103 141 193 252 300 364 435
#     4  12  27  49  71 109 150 193 241 310 374 433
#     4  11  26  49  71 107 146 193 244 297 375 433
#     4  12  25  44  71 108 145 190 248 304 369 430
#     4  12  30  48  73 107 153 195 238 311 375 439
#
# _framework density 22.525276000000002
#
# number of rings (size 3 to 8) (size 9 to 14) (size 15 to 20)
#    0.000    0.500    6.250    0.000    8.750    2.000 
#    0.000    0.000    0.000    0.000    0.000    0.000 
#    0.000    0.000    0.000    0.000    0.000    0.000 
#
# Total GULP energy -198375.454512 kJ/mol
# GULP energy per Si atom -12398.465907 kJ/mol
# Density = 2.247401 g / cm^3
# Si number density = 22.525276 Si / 1000 Ang^3
#
#
#
# Elastic Constant Matrix: (Units=GPa)
#
#
# Indices 1 2 3 4 5 6 
#
# 1 87.6018 32.7412 25.3448 0.0000 3.4151 0.0000
# 2 32.7412 132.3118 48.3029 0.0000 0.2197 0.0000
# 3 25.3448 48.3029 81.5750 0.0000 0.2618 0.0000
# 4 0.0000 0.0000 0.0000 19.0231 0.0000 -4.4356
# 5 3.4151 0.2197 0.2618 0.0000 36.2702 0.0000
# 6 0.0000 0.0000 0.0000 -4.4356 0.0000 35.3860
#
#
#
# Elastic Compliance Matrix: (Units=1/GPa)
#
#
# Indices 1 2 3 4 5 6 
#
# 1 0.013091 -0.002238 -0.002738 0.000000 -0.001199 0.000000
# 2 -0.002238 0.010025 -0.005241 0.000000 0.000188 0.000000
# 3 -0.002738 -0.005241 0.016212 0.000000 0.000173 0.000000
# 4 0.000000 0.000000 0.000000 0.054150 0.000000 0.006788
# 5 -0.001199 0.000188 0.000173 0.000000 0.027681 0.000000
# 6 0.000000 0.000000 0.000000 0.006788 0.000000 0.029111
#
#
# Mechanical properties :
#
#
# Convention : Reuss Voigt Hill
#
# Bulk Modulus (GPa) = 52.92919 57.14069 55.03494
# Shear Modulus (GPa) = 28.24820 31.14251 29.69536
#
# Velocity S-wave (km/s) = 3.54512 3.72231 3.63480
# Velocity P-wave (km/s) = 6.34869 6.62545 6.48855
#
# Compressibility (1/GPa) = 0.01889317
#
# Stress axis : x y z
#
# Youngs Moduli (GPa) = 76.39058 99.75302 61.68115
#
# Poissons Ratio (x) = 0.22321 0.16890
# Poissons Ratio (y) = 0.17094 0.32329
# Poissons Ratio (z) = 0.20918 0.52284
#
# Static dielectric constant tensor:
#      x y z
#    x 4.110620 0.000000 0.024770 
#    y 0.000000 4.113910 0.000000 
#    z 0.024770 0.000000 4.115740 
# 
# 
# High freq. dielectric constant tensor:
#      x y z
#    x 1.884900 0.000000 -0.001840 
#    y 0.000000 1.893130 0.000000 
#    z -0.001840 0.000000 1.892670 
# 
# From -- ./inp_files/7413.got.cif
#   From: 2010.06.25/outbox.cif.g09.slc.cpg/sg9_4_cif.got.tgz:7413.got - 2010.06.27 21:40:51.
