data_PCOD8056948
_publ_section_title
;
Structure prediction by ZEFSAII (Michael W. Deem and Ramdas Pophale) SiO2 
 PCOD8056948
Probable space group: P 2/M
;
_chemical_formula_sum "Si O2"
_cell_formula_units_Z 32
_cell_length_a 24.071814
_cell_length_b 9.315730
_cell_length_c 12.191259
_cell_angle_alpha 90.000000
_cell_angle_beta 49.647902
_cell_angle_gamma 90.000000
_cell_volume 2083.410157
_symmetry_space_group_name_H-M "P 2/M"
_symmetry_group_IT_number 10
_symmetry_cell_setting 'monoclinic'
loop_
_space_group_symop_operation_xyz
x,y,z
-x,y,-z
-x,-y,-z
x,-y,z
loop_
_atom_site_type_symbol
_atom_site_label
_atom_site_fract_x
_atom_site_fract_y
_atom_site_fract_z
Si Si1 0.463892 0.659285 0.926157
Si Si2 0.994462 0.831700 0.830276
Si Si3 0.762844 0.662244 0.407548
Si Si4 0.616446 0.666018 0.683809
Si Si5 0.662684 0.170493 0.837567
Si Si6 0.036225 0.668228 0.567398
Si Si7 0.201167 0.333227 0.387228
Si Si8 0.115756 0.832716 0.846023
O O1 0.432749 0.500000 0.943634
O O2 0.532012 0.692742 0.755610
O O3 0.500000 0.667853 0.000000
O O4 0.397350 0.771401 0.997605
O O5 0.992609 0.747641 0.719068
O O6 0.062584 0.779362 0.816737
O O7 0.000595 0.000000 0.798818
O O8 0.919964 0.796054 0.990896
O O9 0.782888 0.500000 0.352766
O O10 0.675024 0.689441 0.510690
O O11 0.787908 0.700085 0.498604
O O12 0.805662 0.758216 0.265053
O O13 0.625129 0.500000 0.715999
O O14 0.636245 0.778199 0.752891
O O15 0.742375 0.239032 0.757438
O O16 0.667073 0.000000 0.839581
O O17 0.029089 0.500000 0.598911
O O18 0.120433 0.715739 0.456597
O O19 0.000000 0.714564 0.500000
O O20 0.214947 0.500000 0.343564
O O21 0.128582 0.000000 0.818025
#
# Coordination Sequence:
#
# PCOD8056948 Si02
#       8
#     4   4   4   4   4   4   4   4
#     4   8  13  23  35  45  65 100 132 158 193 236
#     4   9  18  31  44  60  83 108 135 166 206 252
#     4   9  15  24  39  58  77 103 136 169 201 237
#     4   8  15  25  34  47  72 103 132 159 195 240
#     4  10  17  22  33  52  71  94 129 170 199 226
#     4  10  20  33  48  64  81 103 136 178 215 247
#     4   9  17  29  40  53  76 103 131 163 204 251
#     4   9  17  28  42  60  83 109 135 168 204 242
#
# _framework density 15.359435
#
# number of rings (size 3 to 8) (size 9 to 14) (size 15 to 20)
#    0.000    3.000    1.250    3.375    0.000    5.500 
#    0.000    1.250    0.000    0.000    0.000    0.000 
#    0.000    0.000    0.000    1.125    0.000   23.625 
#
# Total GULP energy -396505.982371 kJ/mol
# GULP energy per Si atom -12390.811949 kJ/mol
# Density = 1.532448 g / cm^3
# Si number density = 15.359435 Si / 1000 Ang^3
#
#
#
# Elastic Constant Matrix: (Units=GPa)
#
#
# Indices 1 2 3 4 5 6 
#
# 1 38.9996 28.6070 47.4173 0.0000 -11.1014 0.0000
# 2 28.6070 72.9952 58.6093 0.0000 -14.7598 0.0000
# 3 47.4173 58.6093 124.2119 0.0000 -30.4271 0.0000
# 4 0.0000 0.0000 0.0000 26.8477 0.0000 -3.4999
# 5 -11.1014 -14.7598 -30.4271 0.0000 27.3627 0.0000
# 6 0.0000 0.0000 0.0000 -3.4999 0.0000 9.7574
#
#
#
# Elastic Compliance Matrix: (Units=1/GPa)
#
#
# Indices 1 2 3 4 5 6 
#
# 1 0.049938 -0.006878 -0.016168 0.000000 -0.001429 0.000000
# 2 -0.006878 0.023007 -0.008073 0.000000 0.000643 0.000000
# 3 -0.016168 -0.008073 0.021108 0.000000 0.012558 0.000000
# 4 0.000000 0.000000 0.000000 0.039074 0.000000 0.014015
# 5 -0.001429 0.000643 0.012558 0.000000 0.050278 0.000000
# 6 0.000000 0.000000 0.000000 0.014015 0.000000 0.107513
#
#
# Mechanical properties :
#
#
# Convention : Reuss Voigt Hill
#
# Bulk Modulus (GPa) = 31.43135 56.16378 43.79756
# Shear Modulus (GPa) = 13.74533 19.56509 16.65521
#
# Velocity S-wave (km/s) = 2.99475 3.57293 3.29654
# Velocity P-wave (km/s) = 5.69793 7.32576 6.56251
#
# Compressibility (1/GPa) = 0.03181537
#
# Stress axis : x y z
#
# Youngs Moduli (GPa) = 20.02500 43.46582 47.37516
#
# Poissons Ratio (x) = 0.29895 0.76597
# Poissons Ratio (y) = 0.13773 0.38244
# Poissons Ratio (z) = 0.32377 0.35088
#
# Static dielectric constant tensor:
#      x y z
#    x 2.666950 0.000000 -0.536990 
#    y 0.000000 2.833430 0.000000 
#    z -0.536990 0.000000 3.175860 
# 
# 
# High freq. dielectric constant tensor:
#      x y z
#    x 1.527610 0.000000 -0.049120 
#    y 0.000000 1.586090 0.000000 
#    z -0.049120 0.000000 1.587190 
# 
# From -- ./inp_files/56438.got.cif
#   From: 2010.06.25/outbox.cif.g09.slc.cpg/sg10_29_cif.got.tgz:56438.got - 2010.06.27 22:07:45.
