data_PCOD8056168
_publ_section_title
;
Structure prediction by ZEFSAII (Michael W. Deem and Ramdas Pophale) SiO2 
 PCOD8056168
Probable space group: C C
;
_chemical_formula_sum "Si O2"
_cell_formula_units_Z 32
_cell_length_a 12.077560
_cell_length_b 14.183214
_cell_length_c 11.692030
_cell_angle_alpha 90.000000
_cell_angle_beta 42.171998
_cell_angle_gamma 90.000000
_cell_volume 1344.615908
_symmetry_space_group_name_H-M "C C"
_symmetry_group_IT_number 9
_symmetry_cell_setting 'monoclinic'
loop_
_space_group_symop_operation_xyz
x,y,z
x,-y,1/2+z
1/2+x,1/2+y,z
1/2+x,1/2-y,1/2+z
loop_
_atom_site_type_symbol
_atom_site_label
_atom_site_fract_x
_atom_site_fract_y
_atom_site_fract_z
Si Si1 0.928030 0.106904 0.431550
Si Si2 0.934826 0.258703 0.598928
Si Si3 0.343854 0.128228 0.462573
Si Si4 0.278051 0.686452 0.920648
Si Si5 0.749621 0.559834 0.303732
Si Si6 0.261717 0.856765 0.276355
Si Si7 0.924688 0.840238 0.672740
Si Si8 0.702809 0.950358 0.669969
O O1 0.948881 0.214585 0.461713
O O2 0.940847 0.113123 0.285158
O O3 0.076606 0.044265 0.370730
O O4 0.758601 0.059136 0.609624
O O5 0.849624 0.361327 0.655931
O O6 0.097597 0.270327 0.547223
O O7 0.838142 0.176663 0.743974
O O8 0.394525 0.236442 0.396194
O O9 0.222283 0.093289 0.454885
O O10 0.236143 0.133606 0.659572
O O11 0.506902 0.061882 0.339533
O O12 0.269862 0.591503 0.998595
O O13 0.843360 0.459010 0.242081
O O14 0.381013 0.770664 0.217144
O O15 0.093081 0.846234 0.474147
O O16 0.782807 0.897398 0.716385
#
# Coordination Sequence:
#
# PCOD8056168 Si02
#       8
#     4   4   4   4   4   4   4   4
#     4  12  29  48  78 113 165 204 254 327 405 462
#     4  11  24  47  77 109 149 194 268 319 382 448
#     4  11  25  47  77 110 147 197 274 321 381 458
#     4  11  22  43  77 105 145 192 265 322 369 455
#     4  11  26  49  78 113 146 214 258 323 386 471
#     4  12  28  48  77 108 165 203 259 324 392 470
#     4  12  30  47  73 116 160 207 255 322 401 466
#     4  12  26  47  77 114 149 205 261 322 386 478
#
# _framework density 23.798618000000001
#
# number of rings (size 3 to 8) (size 9 to 14) (size 15 to 20)
#    0.000    0.500    7.500    0.750    7.000    3.000 
#    0.000    0.000    0.000    0.000    0.000    0.000 
#    0.000    0.000    0.000    0.000    0.000    0.000 
#
# Total GULP energy -198233.263664 kJ/mol
# GULP energy per Si atom -12389.578979 kJ/mol
# Density = 2.374445 g / cm^3
# Si number density = 23.798618 Si / 1000 Ang^3
#
#
#
# Elastic Constant Matrix: (Units=GPa)
#
#
# Indices 1 2 3 4 5 6 
#
# 1 95.5929 36.4338 37.0637 -0.0003 12.7933 0.0003
# 2 36.4338 122.1699 28.3582 0.0000 5.0318 0.0000
# 3 37.0637 28.3582 100.1528 -0.0002 10.7950 0.0002
# 4 -0.0003 0.0000 -0.0002 36.6229 0.0003 -5.6993
# 5 12.7933 5.0318 10.7950 0.0003 37.7571 -0.0003
# 6 0.0003 0.0000 0.0002 -5.6993 -0.0003 21.7367
#
#
#
# Elastic Compliance Matrix: (Units=1/GPa)
#
#
# Indices 1 2 3 4 5 6 
#
# 1 0.013500 -0.003015 -0.003810 0.000000 -0.003083 0.000000
# 2 -0.003015 0.009443 -0.001581 0.000000 0.000215 0.000000
# 3 -0.003810 -0.001581 0.012052 0.000000 -0.001944 0.000000
# 4 0.000000 0.000000 0.000000 0.028467 0.000000 0.007464
# 5 -0.003083 0.000215 -0.001944 0.000000 0.028057 0.000000
# 6 0.000000 0.000000 0.000000 0.007464 0.000000 0.047962
#
#
# Mechanical properties :
#
#
# Convention : Reuss Voigt Hill
#
# Bulk Modulus (GPa) = 54.99732 57.95856 56.47794
# Shear Modulus (GPa) = 30.79713 33.62732 32.21222
#
# Velocity S-wave (km/s) = 3.60122 3.76306 3.68303
# Velocity P-wave (km/s) = 6.36014 6.57932 6.47066
#
# Compressibility (1/GPa) = 0.01818270
#
# Stress axis : x y z
#
# Youngs Moduli (GPa) = 74.07490 105.90397 82.97388
#
# Poissons Ratio (x) = 0.31926 0.31613
# Poissons Ratio (y) = 0.22331 0.13120
# Poissons Ratio (z) = 0.28223 0.16746
#
# Static dielectric constant tensor:
#      x y z
#    x 4.216010 0.000000 0.156500 
#    y 0.000000 4.828400 0.000000 
#    z 0.156500 0.000000 4.629760 
# 
# 
# High freq. dielectric constant tensor:
#      x y z
#    x 1.935920 0.000000 0.009780 
#    y 0.000000 1.947500 0.000000 
#    z 0.009780 0.000000 1.945640 
# 
# From -- ./inp_files/7663.got.cif
#   From: 2010.06.25/outbox.cif.g09.slc.cpg/sg9_4_cif.got.tgz:7663.got - 2010.06.27 21:40:51.
