data_PCOD8056617
_publ_section_title
;
Structure prediction by ZEFSAII (Michael W. Deem and Ramdas Pophale) SiO2 
 PCOD8056617
Probable space group: C C
;
_chemical_formula_sum "Si O2"
_cell_formula_units_Z 24
_cell_length_a 13.927580
_cell_length_b 14.875753
_cell_length_c 7.918659
_cell_angle_alpha 90.000000
_cell_angle_beta 148.427622
_cell_angle_gamma 90.000000
_cell_volume 858.984556
_symmetry_space_group_name_H-M "C C"
_symmetry_group_IT_number 9
_symmetry_cell_setting 'monoclinic'
loop_
_space_group_symop_operation_xyz
x,y,z
x,-y,1/2+z
1/2+x,1/2+y,z
1/2+x,1/2-y,1/2+z
loop_
_atom_site_type_symbol
_atom_site_label
_atom_site_fract_x
_atom_site_fract_y
_atom_site_fract_z
Si Si1 0.031890 0.128487 0.224230
Si Si2 0.855245 0.462219 0.067452
Si Si3 0.189888 0.423018 0.079757
Si Si4 0.115222 0.861219 0.207118
Si Si5 0.050251 0.324245 0.180702
Si Si6 0.760527 0.826266 0.853081
O O1 0.247287 0.099810 0.539994
O O2 0.980994 0.141165 0.343200
O O3 0.989620 0.221692 0.063115
O O4 0.905325 0.052747 0.939382
O O5 0.063098 0.491071 0.429447
O O6 0.880042 0.397293 0.937951
O O7 0.739404 0.551423 0.870393
O O8 0.164195 0.346535 0.184275
O O9 0.162839 0.389542 0.847389
O O10 0.253284 0.776165 0.411911
O O11 0.974320 0.855715 0.153371
O O12 0.152933 0.332081 0.515222
#
# Coordination Sequence:
#
# PCOD8056617 Si02
#       6
#     4   4   4   4   4   4
#     4  11  27  52  82 114 159 221 257 336 406 473
#     4  12  29  48  83 121 157 210 273 338 394 479
#     4  12  28  49  82 119 157 211 273 329 395 475
#     4  11  26  52  79 117 166 205 272 327 407 464
#     4  11  27  53  78 114 163 204 271 327 406 469
#     4  11  27  50  82 115 162 215 252 337 398 476
#
# _framework density 27.939965000000001
#
# number of rings (size 3 to 8) (size 9 to 14) (size 15 to 20)
#    0.000    0.667    1.667    3.000   18.667    2.667 
#    0.000    0.000    0.000    0.000    0.000    0.000 
#    0.000    0.000    0.000    0.000    0.000    0.000 
#
# Total GULP energy -148682.393606 kJ/mol
# GULP energy per Si atom -12390.199467 kJ/mol
# Density = 2.787637 g / cm^3
# Si number density = 27.939965 Si / 1000 Ang^3
#
#
#
# Elastic Constant Matrix: (Units=GPa)
#
#
# Indices 1 2 3 4 5 6 
#
# 1 171.5367 50.3684 41.8087 0.0000 14.4854 0.0000
# 2 50.3684 160.3708 40.8073 0.0000 32.8315 0.0000
# 3 41.8087 40.8073 87.4675 0.0000 30.4145 0.0000
# 4 0.0000 0.0000 0.0000 31.5217 0.0000 14.6520
# 5 14.4854 32.8315 30.4145 0.0000 42.1173 0.0000
# 6 0.0000 0.0000 0.0000 14.6520 0.0000 36.6734
#
#
#
# Elastic Compliance Matrix: (Units=1/GPa)
#
#
# Indices 1 2 3 4 5 6 
#
# 1 0.006933 -0.001644 -0.002889 0.000000 0.000983 0.000000
# 2 -0.001644 0.008063 -0.001318 0.000000 -0.004768 0.000000
# 3 -0.002889 -0.001318 0.016993 0.000000 -0.010250 0.000000
# 4 0.000000 0.000000 0.000000 0.038959 0.000000 -0.015565
# 5 0.000983 -0.004768 -0.010250 0.000000 0.034524 0.000000
# 6 0.000000 0.000000 0.000000 -0.015565 0.000000 0.033486
#
#
# Mechanical properties :
#
#
# Convention : Reuss Voigt Hill
#
# Bulk Modulus (GPa) = 49.29045 76.14930 62.71987
# Shear Modulus (GPa) = 31.76132 41.15520 36.45826
#
# Velocity S-wave (km/s) = 3.37526 3.84211 3.61623
# Velocity P-wave (km/s) = 5.73321 6.85538 6.31925
#
# Compressibility (1/GPa) = 0.02028791
#
# Stress axis : x y z
#
# Youngs Moduli (GPa) = 144.22833 124.01687 58.84798
#
# Poissons Ratio (x) = 0.20385 0.17002
# Poissons Ratio (y) = 0.23707 0.07757
# Poissons Ratio (z) = 0.41669 0.16347
#
# Static dielectric constant tensor:
#      x y z
#    x 5.256230 0.000000 0.328270 
#    y 0.000000 5.275260 0.000000 
#    z 0.328270 0.000000 4.941670 
# 
# 
# High freq. dielectric constant tensor:
#      x y z
#    x 2.145870 0.000000 0.012390 
#    y 0.000000 2.138380 0.000000 
#    z 0.012390 0.000000 2.114800 
# 
# From -- ./inp_files/9976.got.cif
#   From: 2010.06.25/outbox.cif.g09.slc.cpg/sg9_5_cif.got.tgz:9976.got - 2010.06.27 21:40:51.
