data_PCOD8056297
_publ_section_title
;
Structure prediction by ZEFSAII (Michael W. Deem and Ramdas Pophale) SiO2 
 PCOD8056297
Probable space group: C C
;
_chemical_formula_sum "Si O2"
_cell_formula_units_Z 28
_cell_length_a 14.239566
_cell_length_b 14.805978
_cell_length_c 9.281898
_cell_angle_alpha 90.000000
_cell_angle_beta 39.128602
_cell_angle_gamma 90.000000
_cell_volume 1234.933158
_symmetry_space_group_name_H-M "C C"
_symmetry_group_IT_number 9
_symmetry_cell_setting 'monoclinic'
loop_
_space_group_symop_operation_xyz
x,y,z
x,-y,1/2+z
1/2+x,1/2+y,z
1/2+x,1/2-y,1/2+z
loop_
_atom_site_type_symbol
_atom_site_label
_atom_site_fract_x
_atom_site_fract_y
_atom_site_fract_z
Si Si1 0.632540 0.200133 0.746810
Si Si2 0.230698 0.690635 0.053830
Si Si3 0.938319 0.337864 0.730446
Si Si4 0.833143 0.927868 0.195407
Si Si5 0.661806 0.587140 0.210157
Si Si6 0.833861 0.514785 0.754029
Si Si7 0.131415 0.604188 0.444508
O O1 0.760363 0.140270 0.667715
O O2 0.678535 0.304910 0.697769
O O3 0.604719 0.159943 0.621892
O O4 0.479101 0.190754 0.018075
O O5 0.224415 0.669417 0.229614
O O6 0.068181 0.688954 0.182002
O O7 0.288097 0.791498 0.963214
O O8 0.341622 0.620754 0.841112
O O9 0.908424 0.443744 0.775344
O O10 0.731433 0.015175 0.343274
O O11 0.997724 0.949716 0.943466
O O12 0.776251 0.536625 0.180940
O O13 0.698761 0.561813 0.000733
O O14 0.970904 0.583371 0.560662
#
# Coordination Sequence:
#
# PCOD8056297 Si02
#       7
#     4   4   4   4   4   4   4
#     4  11  25  47  75 105 144 195 240 296 365 440
#     4  11  24  44  72 104 139 185 240 295 362 429
#     4  11  23  45  72  99 145 194 232 286 373 437
#     4  11  25  44  74 101 143 192 238 291 372 435
#     4  12  29  46  73 108 151 188 245 304 364 432
#     4  12  26  46  72 109 146 192 241 302 363 430
#     4  12  26  44  78 104 144 184 252 298 359 431
#
# _framework density 22.673290999999999
#
# number of rings (size 3 to 8) (size 9 to 14) (size 15 to 20)
#    0.000    0.571    4.286    4.286    6.000    2.286 
#    0.000    0.000    0.000    0.000    0.000    0.000 
#    0.000    0.000    0.000    0.000    0.000    0.000 
#
# Total GULP energy -173588.052196 kJ/mol
# GULP energy per Si atom -12399.146585 kJ/mol
# Density = 2.262169 g / cm^3
# Si number density = 22.673291 Si / 1000 Ang^3
#
#
#
# Elastic Constant Matrix: (Units=GPa)
#
#
# Indices 1 2 3 4 5 6 
#
# 1 55.2815 28.2839 20.3209 0.0000 -4.5803 0.0000
# 2 28.2839 86.0785 52.9956 0.0000 15.1171 0.0000
# 3 20.3209 52.9956 112.5904 0.0000 2.7677 0.0000
# 4 0.0000 0.0000 0.0000 42.3948 0.0000 1.3250
# 5 -4.5803 15.1171 2.7677 0.0000 38.2344 0.0000
# 6 0.0000 0.0000 0.0000 1.3250 0.0000 30.0026
#
#
#
# Elastic Compliance Matrix: (Units=1/GPa)
#
#
# Indices 1 2 3 4 5 6 
#
# 1 0.023037 -0.008437 -0.000337 0.000000 0.006120 0.000000
# 2 -0.008437 0.020904 -0.008103 0.000000 -0.008689 0.000000
# 3 -0.000337 -0.008103 0.012702 0.000000 0.002244 0.000000
# 4 0.000000 0.000000 0.000000 0.023620 0.000000 -0.001043
# 5 0.006120 -0.008689 0.002244 0.000000 0.030161 0.000000
# 6 0.000000 0.000000 0.000000 -0.001043 0.000000 0.033376
#
#
# Mechanical properties :
#
#
# Convention : Reuss Voigt Hill
#
# Bulk Modulus (GPa) = 43.69000 50.79459 47.24230
# Shear Modulus (GPa) = 27.00023 32.28303 29.64163
#
# Velocity S-wave (km/s) = 3.45460 3.77747 3.61963
# Velocity P-wave (km/s) = 5.93494 6.44028 6.19276
#
# Compressibility (1/GPa) = 0.02288853
#
# Stress axis : x y z
#
# Youngs Moduli (GPa) = 43.40909 47.83701 78.73030
#
# Poissons Ratio (x) = 0.40358 0.02654
# Poissons Ratio (y) = 0.36623 0.63797
# Poissons Ratio (z) = 0.01464 0.38764
#
# Static dielectric constant tensor:
#      x y z
#    x 3.822630 0.000000 0.000470 
#    y 0.000000 4.194520 0.000000 
#    z 0.000470 0.000000 4.319210 
# 
# 
# High freq. dielectric constant tensor:
#      x y z
#    x 1.882330 0.000000 -0.001430 
#    y 0.000000 1.897900 0.000000 
#    z -0.001430 0.000000 1.910000 
# 
# From -- ./inp_files/7334.got.cif
#   From: 2010.06.25/outbox.cif.g09.slc.cpg/sg9_4_cif.got.tgz:7334.got - 2010.06.27 21:40:51.
