data_PCOD8056789
_publ_section_title
;
Structure prediction by ZEFSAII (Michael W. Deem and Ramdas Pophale) SiO2 
 PCOD8056789
Probable space group: C C
;
_chemical_formula_sum "Si O2"
_cell_formula_units_Z 20
_cell_length_a 4.883702
_cell_length_b 20.912737
_cell_length_c 7.686159
_cell_angle_alpha 90.000000
_cell_angle_beta 65.661667
_cell_angle_gamma 90.000000
_cell_volume 715.234857
_symmetry_space_group_name_H-M "C C"
_symmetry_group_IT_number 9
_symmetry_cell_setting 'monoclinic'
loop_
_space_group_symop_operation_xyz
x,y,z
x,-y,1/2+z
1/2+x,1/2+y,z
1/2+x,1/2-y,1/2+z
loop_
_atom_site_type_symbol
_atom_site_label
_atom_site_fract_x
_atom_site_fract_y
_atom_site_fract_z
Si Si1 0.884080 0.564926 0.334460
Si Si2 0.338605 0.627787 0.778593
Si Si3 0.264174 0.664835 0.410975
Si Si4 0.487378 0.490446 0.678562
Si Si5 0.198104 0.187998 0.981478
O O1 0.771643 0.507564 0.487399
O O2 0.611667 0.568427 0.266373
O O3 0.957607 0.629887 0.422715
O O4 0.193629 0.539907 0.164104
O O5 0.389326 0.630904 0.555126
O O6 0.382839 0.553188 0.814390
O O7 0.587387 0.666814 0.820385
O O8 0.023758 0.656733 0.925121
O O9 0.503376 0.664379 0.193477
O O10 0.188888 0.735848 0.491664
#
# Coordination Sequence:
#
# PCOD8056789 Si02
#       5
#     4   4   4   4   4
#     4  12  28  50  81 118 162 215 276 343 418 498
#     4  12  29  54  79 121 169 220 286 348 417 500
#     4  12  29  55  83 126 172 218 287 344 430 503
#     4  12  28  51  78 116 163 213 280 343 416 491
#     4  12  30  48  89 119 166 228 277 348 429 500
#
# _framework density 27.962845000000002
#
# number of rings (size 3 to 8) (size 9 to 14) (size 15 to 20)
#    0.000    0.000    2.000    6.000   11.200    4.800 
#    0.000    0.000    0.000    0.000    0.000    0.000 
#    0.000    0.000    0.000    0.000    0.000    0.000 
#
# Total GULP energy -123939.935449 kJ/mol
# GULP energy per Si atom -12393.993545 kJ/mol
# Density = 2.789920 g / cm^3
# Si number density = 27.962845 Si / 1000 Ang^3
#
#
#
# Elastic Constant Matrix: (Units=GPa)
#
#
# Indices 1 2 3 4 5 6 
#
# 1 149.0157 59.7964 2.1057 0.0000 -7.4391 0.0000
# 2 59.7964 144.5101 17.8971 0.0000 -0.8680 0.0000
# 3 2.1057 17.8971 130.3774 0.0000 -1.7825 0.0000
# 4 0.0000 0.0000 0.0000 30.9708 0.0000 -8.2362
# 5 -7.4391 -0.8680 -1.7825 0.0000 34.7584 0.0000
# 6 0.0000 0.0000 0.0000 -8.2362 0.0000 47.5148
#
#
#
# Elastic Compliance Matrix: (Units=1/GPa)
#
#
# Indices 1 2 3 4 5 6 
#
# 1 0.008158 -0.003410 0.000359 0.000000 0.001679 0.000000
# 2 -0.003410 0.008466 -0.001115 0.000000 -0.000576 0.000000
# 3 0.000359 -0.001115 0.007823 0.000000 0.000450 0.000000
# 4 0.000000 0.000000 0.000000 0.033849 0.000000 0.005867
# 5 0.001679 -0.000576 0.000450 0.000000 0.029138 0.000000
# 6 0.000000 0.000000 0.000000 0.005867 0.000000 0.022063
#
#
# Mechanical properties :
#
#
# Convention : Reuss Voigt Hill
#
# Bulk Modulus (GPa) = 62.05154 64.83352 63.44253
# Shear Modulus (GPa) = 40.58444 45.58907 43.08675
#
# Velocity S-wave (km/s) = 3.81382 4.04213 3.92963
# Velocity P-wave (km/s) = 6.45232 6.70977 6.58231
#
# Compressibility (1/GPa) = 0.01611564
#
# Stress axis : x y z
#
# Youngs Moduli (GPa) = 122.58199 118.12560 127.82113
#
# Poissons Ratio (x) = 0.40281 -0.04593
# Poissons Ratio (y) = 0.41801 0.14250
# Poissons Ratio (z) = -0.04404 0.13170
#
# Static dielectric constant tensor:
#      x y z
#    x 5.165750 0.000000 0.030550 
#    y 0.000000 5.555760 0.000000 
#    z 0.030550 0.000000 5.205890 
# 
# 
# High freq. dielectric constant tensor:
#      x y z
#    x 2.141570 0.000000 -0.012120 
#    y 0.000000 2.153600 0.000000 
#    z -0.012120 0.000000 2.150320 
# 
# From -- ./inp_files/3785.got.cif
#   From: 2010.06.25/outbox.cif.g09.slc.cpg/sg9_2_cif.got.tgz:3785.got - 2010.06.27 21:40:51.
