data_PCOD8056785
_publ_section_title
;
Structure prediction by ZEFSAII (Michael W. Deem and Ramdas Pophale) SiO2 
 PCOD8056785
Probable space group: C C
;
_chemical_formula_sum "Si O2"
_cell_formula_units_Z 24
_cell_length_a 4.973770
_cell_length_b 25.113591
_cell_length_c 8.996625
_cell_angle_alpha 90.000000
_cell_angle_beta 119.392337
_cell_angle_gamma 90.000000
_cell_volume 979.110278
_symmetry_space_group_name_H-M "C C"
_symmetry_group_IT_number 9
_symmetry_cell_setting 'monoclinic'
loop_
_space_group_symop_operation_xyz
x,y,z
x,-y,1/2+z
1/2+x,1/2+y,z
1/2+x,1/2-y,1/2+z
loop_
_atom_site_type_symbol
_atom_site_label
_atom_site_fract_x
_atom_site_fract_y
_atom_site_fract_z
Si Si1 0.439310 0.282967 0.663210
Si Si2 0.095145 0.030837 0.357706
Si Si3 0.217304 0.648662 0.847018
Si Si4 0.161744 0.148464 0.479418
Si Si5 0.203101 0.467848 0.464120
Si Si6 0.439415 0.290222 0.163144
O O1 0.216394 0.319895 0.502235
O O2 0.660439 0.320027 0.823828
O O3 0.645760 0.247687 0.609239
O O4 0.234018 0.247461 0.717396
O O5 0.193292 0.086266 0.456384
O O6 0.372669 0.987567 0.437262
O O7 0.808679 0.012130 0.377616
O O8 0.965930 0.039358 0.158502
O O9 0.189085 0.586456 0.868882
O O10 0.505625 0.669946 0.823999
O O11 0.940325 0.665805 0.662679
O O12 0.873894 0.169855 0.502836
#
# Coordination Sequence:
#
# PCOD8056785 Si02
#       6
#     4   4   4   4   4   4
#     4  12  28  50  73 112 155 206 256 308 372 446
#     4  12  28  52  79 113 152 198 256 320 387 461
#     4  12  28  49  78 112 155 199 255 313 380 451
#     4  12  28  49  78 112 155 199 255 313 380 451
#     4  12  28  52  79 113 152 198 256 320 387 461
#     4  12  28  48  77 110 157 204 254 312 372 450
#
# _framework density 24.512048
#
# number of rings (size 3 to 8) (size 9 to 14) (size 15 to 20)
#    0.000    0.000    3.333    5.000   11.667    0.000 
#    0.000    0.000    0.000    0.000    0.000    0.000 
#    0.000    0.000    0.000    0.000    0.000    0.000 
#
# Total GULP energy -148699.363150 kJ/mol
# GULP energy per Si atom -12391.613596 kJ/mol
# Density = 2.445626 g / cm^3
# Si number density = 24.512048 Si / 1000 Ang^3
#
#
#
# Elastic Constant Matrix: (Units=GPa)
#
#
# Indices 1 2 3 4 5 6 
#
# 1 96.9971 33.6898 33.1226 0.0000 -2.7493 0.0000
# 2 33.6898 139.0845 69.4150 0.0000 -2.7161 0.0000
# 3 33.1226 69.4150 167.5717 0.0000 4.6612 0.0000
# 4 0.0000 0.0000 0.0000 43.5055 0.0000 -7.8406
# 5 -2.7493 -2.7161 4.6612 0.0000 39.4531 0.0000
# 6 0.0000 0.0000 0.0000 -7.8406 0.0000 30.2310
#
#
#
# Elastic Compliance Matrix: (Units=1/GPa)
#
#
# Indices 1 2 3 4 5 6 
#
# 1 0.011543 -0.002054 -0.001454 0.000000 0.000835 0.000000
# 2 -0.002054 0.009475 -0.003545 0.000000 0.000928 0.000000
# 3 -0.001454 -0.003545 0.007758 0.000000 -0.001262 0.000000
# 4 0.000000 0.000000 0.000000 0.024113 0.000000 0.006254
# 5 0.000835 0.000928 -0.001262 0.000000 0.025618 0.000000
# 6 0.000000 0.000000 0.000000 0.006254 0.000000 0.034701
#
#
# Mechanical properties :
#
#
# Convention : Reuss Voigt Hill
#
# Bulk Modulus (GPa) = 68.16208 75.12314 71.64261
# Shear Modulus (GPa) = 37.82071 40.46630 39.14351
#
# Velocity S-wave (km/s) = 3.93229 4.06750 4.00047
# Velocity P-wave (km/s) = 6.96313 7.26453 7.11543
#
# Compressibility (1/GPa) = 0.01467091
#
# Stress axis : x y z
#
# Youngs Moduli (GPa) = 86.63106 105.54559 128.89269
#
# Poissons Ratio (x) = 0.21680 0.18741
# Poissons Ratio (y) = 0.17795 0.45687
# Poissons Ratio (z) = 0.12596 0.37411
#
# Static dielectric constant tensor:
#      x y z
#    x 4.771850 0.000000 -0.398570 
#    y 0.000000 4.473570 0.000000 
#    z -0.398570 0.000000 4.620060 
# 
# 
# High freq. dielectric constant tensor:
#      x y z
#    x 1.970560 0.000000 -0.013130 
#    y 0.000000 1.994370 0.000000 
#    z -0.013130 0.000000 1.987250 
# 
# From -- ./inp_files/4031.got.cif
#   From: 2010.06.25/outbox.cif.g09.slc.cpg/sg9_3_cif.got.tgz:4031.got - 2010.06.27 21:40:51.
