data_PCOD8056971
_publ_section_title
;
Structure prediction by ZEFSAII (Michael W. Deem and Ramdas Pophale) SiO2 
 PCOD8056971
Probable space group: P 2/M
;
_chemical_formula_sum "Si O2"
_cell_formula_units_Z 32
_cell_length_a 13.939590
_cell_length_b 9.431724
_cell_length_c 17.034596
_cell_angle_alpha 90.000000
_cell_angle_beta 103.897711
_cell_angle_gamma 90.000000
_cell_volume 2174.050454
_symmetry_space_group_name_H-M "P 2/M"
_symmetry_group_IT_number 10
_symmetry_cell_setting 'monoclinic'
loop_
_space_group_symop_operation_xyz
x,y,z
-x,y,-z
-x,-y,-z
x,-y,z
loop_
_atom_site_type_symbol
_atom_site_label
_atom_site_fract_x
_atom_site_fract_y
_atom_site_fract_z
Si Si1 0.770132 0.339446 0.168693
Si Si2 0.133407 0.336273 0.657570
Si Si3 0.060705 0.167444 0.335165
Si Si4 0.120529 0.832578 0.177074
Si Si5 0.611355 0.666145 0.014756
Si Si6 0.091038 0.837271 0.905981
Si Si7 0.248533 0.835877 0.066725
Si Si8 0.882961 0.843357 0.488570
O O1 0.794535 0.500000 0.149018
O O2 0.773153 0.323061 0.264053
O O3 0.665540 0.296840 0.108172
O O4 0.856788 0.243204 0.154017
O O5 0.105083 0.500000 0.637805
O O6 0.166923 0.267754 0.581121
O O7 0.039624 0.256085 0.675877
O O8 0.118373 0.216713 0.267628
O O9 0.134285 0.198195 0.423340
O O10 0.033274 0.000000 0.327062
O O11 0.217987 0.779429 0.148159
O O12 0.021375 0.780716 0.112449
O O13 0.125653 0.000000 0.173136
O O14 0.612906 0.500000 0.996299
O O15 0.500000 0.723167 0.000000
O O16 0.663134 0.743660 0.951633
O O17 0.091288 0.000000 0.880268
O O18 0.147428 0.813980 0.998292
O O19 0.282148 0.000000 0.072390
O O20 0.000000 0.842828 0.500000
O O21 0.839906 0.000000 0.462351
#
# Coordination Sequence:
#
# PCOD8056971 Si02
#       8
#     4   4   4   4   4   4   4   4
#     4   9  17  27  39  58  79 100 131 166 198 232
#     4  10  17  24  36  54  77 101 129 166 201 227
#     4   9  16  26  38  52  74 108 141 161 182 220
#     4   9  15  24  39  57  80 107 134 160 187 225
#     4   9  18  33  48  58  75 104 132 160 199 244
#     4   9  15  24  39  56  77 106 135 159 186 224
#     4   9  17  27  41  62  81  99 128 165 198 227
#     4   8  15  25  36  50  71 102 138 166 186 219
#
# _framework density 14.719068999999999
#
# number of rings (size 3 to 8) (size 9 to 14) (size 15 to 20)
#    0.000    3.000    1.250    1.500    0.000    4.500 
#    0.000    1.250    0.000    3.000    0.000    0.000 
#    0.000    1.000    0.000   12.500    0.000    0.000 
#
# Total GULP energy -396420.704845 kJ/mol
# GULP energy per Si atom -12388.147026 kJ/mol
# Density = 1.468557 g / cm^3
# Si number density = 14.719069 Si / 1000 Ang^3
#
#
#
# Elastic Constant Matrix: (Units=GPa)
#
#
# Indices 1 2 3 4 5 6 
#
# 1 79.5614 29.2399 50.2533 0.0000 -8.9642 0.0000
# 2 29.2399 48.8483 37.0617 0.0000 -3.9524 0.0000
# 3 50.2533 37.0617 99.7942 0.0000 -16.1811 0.0000
# 4 0.0000 0.0000 0.0000 -1.4642 0.0000 14.4609
# 5 -8.9642 -3.9524 -16.1811 0.0000 15.2037 0.0000
# 6 0.0000 0.0000 0.0000 14.4609 0.0000 1.1167
#
#
#
# Elastic Compliance Matrix: (Units=1/GPa)
#
#
# Indices 1 2 3 4 5 6 
#
# 1 0.019646 -0.006055 -0.007277 0.000000 0.002264 0.000000
# 2 -0.006055 0.030645 -0.009208 0.000000 -0.005403 0.000000
# 3 -0.007277 -0.009208 0.019362 0.000000 0.013923 0.000000
# 4 0.000000 0.000000 0.000000 -0.005299 0.000000 0.068616
# 5 0.002264 -0.005403 0.013923 0.000000 0.080522 0.000000
# 6 0.000000 0.000000 0.000000 0.068616 0.000000 0.006947
#
#
# Mechanical properties :
#
#
# Convention : Reuss Voigt Hill
#
# Bulk Modulus (GPa) = 40.69571 51.25708 45.97640
# Shear Modulus (GPa) = 24.37897 10.41451 17.39674
#
# Velocity S-wave (km/s) = 4.07416 2.66287 3.44163
# Velocity P-wave (km/s) = 7.05975 6.65986 6.86272
#
# Compressibility (1/GPa) = 0.02457261
#
# Stress axis : x y z
#
# Youngs Moduli (GPa) = 50.90134 32.63175 51.64699
#
# Poissons Ratio (x) = 0.19760 0.37584
# Poissons Ratio (y) = 0.30822 0.47556
# Poissons Ratio (z) = 0.37041 0.30047
#
# Static dielectric constant tensor:
#      x y z
#    x 2.591540 0.000000 -0.188500 
#    y 0.000000 2.815990 0.000000 
#    z -0.188500 0.000000 3.270790 
# 
# 
# High freq. dielectric constant tensor:
#      x y z
#    x 1.507190 0.000000 -0.013740 
#    y 0.000000 1.555720 0.000000 
#    z -0.013740 0.000000 1.569330 
# 
# From -- ./inp_files/77398.got.cif
#   From: 2010.06.25/outbox.cif.g09.slc.cpg/sg10_39_cif.got.tgz:77398.got - 2010.06.27 22:07:45.
