data_PCOD8056129
_publ_section_title
;
Structure prediction by ZEFSAII (Michael W. Deem and Ramdas Pophale) SiO2 
 PCOD8056129
Probable space group: C C
;
_chemical_formula_sum "Si O2"
_cell_formula_units_Z 32
_cell_length_a 22.533897
_cell_length_b 5.296007
_cell_length_c 12.032109
_cell_angle_alpha 90.000000
_cell_angle_beta 107.143998
_cell_angle_gamma 90.000000
_cell_volume 1372.106202
_symmetry_space_group_name_H-M "C C"
_symmetry_group_IT_number 9
_symmetry_cell_setting 'monoclinic'
loop_
_space_group_symop_operation_xyz
x,y,z
x,-y,1/2+z
1/2+x,1/2+y,z
1/2+x,1/2-y,1/2+z
loop_
_atom_site_type_symbol
_atom_site_label
_atom_site_fract_x
_atom_site_fract_y
_atom_site_fract_z
Si Si1 0.920320 0.716792 0.969790
Si Si2 0.518425 0.085019 0.638613
Si Si3 0.828116 0.424700 0.234042
Si Si4 0.100797 0.215405 0.996087
Si Si5 0.141009 0.558302 0.312531
Si Si6 0.190264 0.951102 0.731027
Si Si7 0.497339 0.450407 0.826306
Si Si8 0.377405 0.409918 0.157714
O O1 0.870359 0.569852 0.867889
O O2 0.977736 0.808321 0.927307
O O3 0.888226 0.934200 0.029454
O O4 0.952612 0.543992 0.080824
O O5 0.542942 0.193133 0.536298
O O6 0.501005 0.290884 0.717779
O O7 0.573102 0.914579 0.719459
O O8 0.759403 0.486872 0.234867
O O9 0.840703 0.650850 0.156065
O O10 0.838270 0.153590 0.178862
O O11 0.134538 0.441602 0.944581
O O12 0.149323 0.058289 0.096175
O O13 0.067022 0.050452 0.882153
O O14 0.179491 0.313240 0.291830
O O15 0.174633 0.816620 0.301002
O O16 0.440612 0.636996 0.764676
#
# Coordination Sequence:
#
# PCOD8056129 Si02
#       8
#     4   4   4   4   4   4   4   4
#     4  11  22  40  68  99 136 179 217 277 339 391
#     4  11  22  40  66 101 138 174 221 275 336 407
#     4  11  26  47  69  97 135 176 229 277 326 398
#     4  11  22  40  68  99 136 179 217 277 339 391
#     4  11  24  43  68 100 132 174 225 276 333 398
#     4  11  26  47  69  97 135 176 229 277 326 398
#     4  11  22  40  66 101 138 174 221 275 336 407
#     4  11  24  43  68 100 132 174 225 276 333 398
#
# _framework density 23.321811
#
# number of rings (size 3 to 8) (size 9 to 14) (size 15 to 20)
#    0.000    1.000    0.000    7.500    0.000    7.000 
#    0.000    5.000    0.000    0.000    0.000    0.000 
#    0.000    0.000    0.000    0.000    0.000    0.000 
#
# Total GULP energy -198264.555916 kJ/mol
# GULP energy per Si atom -12391.534745 kJ/mol
# Density = 2.326873 g / cm^3
# Si number density = 23.321811 Si / 1000 Ang^3
#
#
#
# Elastic Constant Matrix: (Units=GPa)
#
#
# Indices 1 2 3 4 5 6 
#
# 1 139.2449 48.5240 39.4591 0.0000 -8.0571 0.0000
# 2 48.5240 128.7796 41.1685 0.0000 -13.8424 0.0000
# 3 39.4591 41.1685 85.9676 0.0000 -26.6752 0.0000
# 4 0.0000 0.0000 0.0000 28.7406 0.0000 -1.1507
# 5 -8.0571 -13.8424 -26.6752 0.0000 31.8684 0.0000
# 6 0.0000 0.0000 0.0000 -1.1507 0.0000 23.9138
#
#
#
# Elastic Compliance Matrix: (Units=1/GPa)
#
#
# Indices 1 2 3 4 5 6 
#
# 1 0.008910 -0.002437 -0.003448 0.000000 -0.001692 0.000000
# 2 -0.002437 0.009839 -0.003321 0.000000 0.000878 0.000000
# 3 -0.003448 -0.003321 0.019030 0.000000 0.013614 0.000000
# 4 0.000000 0.000000 0.000000 0.034861 0.000000 0.001677
# 5 -0.001692 0.000878 0.013614 0.000000 0.042729 0.000000
# 6 0.000000 0.000000 0.000000 0.001677 0.000000 0.041898
#
#
# Mechanical properties :
#
#
# Convention : Reuss Voigt Hill
#
# Bulk Modulus (GPa) = 51.63155 68.03283 59.83219
# Shear Modulus (GPa) = 27.45247 31.89394 29.67320
#
# Velocity S-wave (km/s) = 3.43463 3.70206 3.57085
# Velocity P-wave (km/s) = 6.15758 6.89263 6.53545
#
# Compressibility (1/GPa) = 0.01936800
#
# Stress axis : x y z
#
# Youngs Moduli (GPa) = 112.23479 101.63145 52.54996
#
# Poissons Ratio (x) = 0.24767 0.18117
# Poissons Ratio (y) = 0.27351 0.17452
# Poissons Ratio (z) = 0.38693 0.33751
#
# Static dielectric constant tensor:
#      x y z
#    x 5.022030 0.000000 -0.130710 
#    y 0.000000 4.182940 0.000000 
#    z -0.130710 0.000000 4.338200 
# 
# 
# High freq. dielectric constant tensor:
#      x y z
#    x 1.932860 0.000000 -0.021290 
#    y 0.000000 1.913720 0.000000 
#    z -0.021290 0.000000 1.933890 
# 
# From -- ./inp_files/20564.got.cif
#   From: 2010.06.25/outbox.cif.g09.slc.cpg/sg9_11_cif.got.tgz:20564.got - 2010.06.27 21:40:51.
