data_PCOD8056995
_publ_section_title
;
Structure prediction by ZEFSAII (Michael W. Deem and Ramdas Pophale) SiO2 
 PCOD8056995
Probable space group: P 2/M
;
_chemical_formula_sum "Si O2"
_cell_formula_units_Z 32
_cell_length_a 31.026402
_cell_length_b 8.781482
_cell_length_c 20.256677
_cell_angle_alpha 90.000000
_cell_angle_beta 21.861192
_cell_angle_gamma 90.000000
_cell_volume 2055.084003
_symmetry_space_group_name_H-M "P 2/M"
_symmetry_group_IT_number 10
_symmetry_cell_setting 'monoclinic'
loop_
_space_group_symop_operation_xyz
x,y,z
-x,y,-z
-x,-y,-z
x,-y,z
loop_
_atom_site_type_symbol
_atom_site_label
_atom_site_fract_x
_atom_site_fract_y
_atom_site_fract_z
Si Si1 0.950014 0.176168 0.716315
Si Si2 0.902878 0.318690 0.057594
Si Si3 0.204753 0.679337 0.534421
Si Si4 0.847400 0.818609 0.263345
Si Si5 0.961297 0.178080 0.848457
Si Si6 0.201938 0.179104 0.316723
Si Si7 0.630862 0.321938 0.818095
Si Si8 0.868461 0.327786 0.709828
O O1 0.909945 0.204680 0.848428
O O2 0.859985 0.261209 0.796028
O O3 0.081271 0.237548 0.520233
O O4 0.946794 0.000000 0.701699
O O5 0.904345 0.500000 0.059317
O O6 0.813905 0.250606 0.238832
O O7 0.873808 0.260562 0.024767
O O8 0.027902 0.247804 0.894710
O O9 0.186825 0.500000 0.570167
O O10 0.237757 0.757584 0.558034
O O11 0.308119 0.718176 0.337761
O O12 0.088433 0.749891 0.669832
O O13 0.847988 0.000000 0.259326
O O14 0.971479 0.000000 0.851019
O O15 0.308227 0.241875 0.207252
O O16 0.212502 0.236810 0.226180
O O17 0.209261 0.000000 0.306781
O O18 0.635313 0.500000 0.826137
O O19 0.500000 0.261479 0.000000
O O20 0.824883 0.500000 0.773009
O O21 0.000000 0.311137 0.500000
#
# Coordination Sequence:
#
# PCOD8056995 Si02
#       8
#     4   4   4   4   4   4   4   4
#     4   9  17  27  40  59  83 109 137 170 205 245
#     4  10  17  25  36  54  77 102 134 166 198 236
#     4  10  18  28  42  57  75 102 136 173 210 247
#     4  10  17  26  39  53  73 100 132 167 203 242
#     4  10  17  26  39  57  82 109 137 167 204 242
#     4  10  18  30  45  60  79 105 137 174 213 251
#     4  10  21  34  46  61  82 108 140 179 220 256
#     4   9  17  27  41  60  80 104 135 169 205 247
#
# _framework density 15.571141000000001
#
# number of rings (size 3 to 8) (size 9 to 14) (size 15 to 20)
#    0.000    2.250    1.250    6.000    0.000    3.750 
#    0.000    0.000    0.000    0.000    0.000    0.000 
#    0.000    0.000    0.000    1.125    0.000   21.750 
#
# Total GULP energy -396651.896552 kJ/mol
# GULP energy per Si atom -12395.371767 kJ/mol
# Density = 1.553570 g / cm^3
# Si number density = 15.571141 Si / 1000 Ang^3
#
#
#
# Elastic Constant Matrix: (Units=GPa)
#
#
# Indices 1 2 3 4 5 6 
#
# 1 137.1614 58.1058 47.0447 0.0000 16.5232 0.0000
# 2 58.1058 92.5875 30.5173 0.0000 7.4859 0.0000
# 3 47.0447 30.5173 39.7363 0.0000 6.8243 0.0000
# 4 0.0000 0.0000 0.0000 9.4459 0.0000 1.4537
# 5 16.5232 7.4859 6.8243 0.0000 18.2926 0.0000
# 6 0.0000 0.0000 0.0000 1.4537 0.0000 29.7792
#
#
#
# Elastic Compliance Matrix: (Units=1/GPa)
#
#
# Indices 1 2 3 4 5 6 
#
# 1 0.014089 -0.004270 -0.012304 0.000000 -0.006389 0.000000
# 2 -0.004270 0.015817 -0.007098 0.000000 0.000032 0.000000
# 3 -0.012304 -0.007098 0.045705 0.000000 -0.003032 0.000000
# 4 0.000000 0.000000 0.000000 0.106667 0.000000 -0.005207
# 5 -0.006389 0.000032 -0.003032 0.000000 0.061556 0.000000
# 6 0.000000 0.000000 0.000000 -0.005207 0.000000 0.033835
#
#
# Mechanical properties :
#
#
# Convention : Reuss Voigt Hill
#
# Bulk Modulus (GPa) = 35.37602 60.09121 47.73362
# Shear Modulus (GPa) = 14.95057 20.42470 17.68763
#
# Velocity S-wave (km/s) = 3.10198 3.62567 3.37400
# Velocity P-wave (km/s) = 5.96641 7.49683 6.77497
#
# Compressibility (1/GPa) = 0.02826773
#
# Stress axis : x y z
#
# Youngs Moduli (GPa) = 70.97495 63.22217 21.87956
#
# Poissons Ratio (x) = 0.26997 0.26921
# Poissons Ratio (y) = 0.30307 0.15529
# Poissons Ratio (z) = 0.87329 0.44872
#
# Static dielectric constant tensor:
#      x y z
#    x 3.517290 0.000000 0.507020 
#    y 0.000000 3.058580 0.000000 
#    z 0.507020 0.000000 2.676730 
# 
# 
# High freq. dielectric constant tensor:
#      x y z
#    x 1.609290 0.000000 0.033590 
#    y 0.000000 1.614770 0.000000 
#    z 0.033590 0.000000 1.519310 
# 
# From -- ./inp_files/87196.got.cif
#   From: 2010.06.25/outbox.cif.g09.slc.cpg/sg10_44_cif.got.tgz:87196.got - 2010.06.27 22:07:45.
