data_PCOD8056431
_publ_section_title
;
Structure prediction by ZEFSAII (Michael W. Deem and Ramdas Pophale) SiO2 
 PCOD8056431
Probable space group: C C
;
_chemical_formula_sum "Si O2"
_cell_formula_units_Z 32
_cell_length_a 11.359822
_cell_length_b 14.485986
_cell_length_c 16.298288
_cell_angle_alpha 90.000000
_cell_angle_beta 30.933673
_cell_angle_gamma 90.000000
_cell_volume 1378.678797
_symmetry_space_group_name_H-M "C C"
_symmetry_group_IT_number 9
_symmetry_cell_setting 'monoclinic'
loop_
_space_group_symop_operation_xyz
x,y,z
x,-y,1/2+z
1/2+x,1/2+y,z
1/2+x,1/2-y,1/2+z
loop_
_atom_site_type_symbol
_atom_site_label
_atom_site_fract_x
_atom_site_fract_y
_atom_site_fract_z
Si Si1 0.444610 0.856648 0.097290
Si Si2 0.636322 0.675787 0.237277
Si Si3 0.280443 0.849267 0.939610
Si Si4 0.673239 0.974771 0.757500
Si Si5 0.570124 0.949217 0.496059
Si Si6 0.394205 0.357468 0.044468
Si Si7 0.857823 0.818836 0.745652
Si Si8 0.504403 0.335296 0.266560
O O1 0.437798 0.784241 0.175243
O O2 0.195981 0.879655 0.209653
O O3 0.597062 0.812515 0.933566
O O4 0.546003 0.956017 0.062885
O O5 0.433179 0.665666 0.425363
O O6 0.724058 0.781085 0.184159
O O7 0.528079 0.645494 0.214844
O O8 0.840950 0.609110 0.138958
O O9 0.430808 0.940177 0.866845
O O10 0.462218 0.766982 0.825218
O O11 0.145228 0.856198 0.935295
O O12 0.087209 0.833458 0.123565
O O13 0.852072 0.891204 0.672883
O O14 0.626737 0.031597 0.867779
O O15 0.785132 0.041495 0.622949
O O16 0.774632 0.893492 0.415285
#
# Coordination Sequence:
#
# PCOD8056431 Si02
#       8
#     4   4   4   4   4   4   4   4
#     4  11  24  45  73 107 142 198 241 298 371 435
#     4  12  27  50  72 105 152 196 246 302 365 448
#     4  12  24  46  76 106 148 190 245 309 361 440
#     4  11  25  46  74 108 143 194 240 301 379 426
#     4  11  25  43  75 108 146 196 244 300 371 434
#     4  12  26  50  73 109 145 198 252 300 369 439
#     4  11  25  48  73 104 151 190 237 302 372 438
#     4  12  22  46  74 105 151 186 249 300 364 442
#
# _framework density 23.210628
#
# number of rings (size 3 to 8) (size 9 to 14) (size 15 to 20)
#    0.000    0.500    6.250    2.250    5.250    1.000 
#    9.000    0.000    0.000    0.000    0.000    0.000 
#    0.000    0.000    0.000    0.000    0.000    0.000 
#
# Total GULP energy -198471.445552 kJ/mol
# GULP energy per Si atom -12404.465347 kJ/mol
# Density = 2.315780 g / cm^3
# Si number density = 23.210628 Si / 1000 Ang^3
#
#
#
# Elastic Constant Matrix: (Units=GPa)
#
#
# Indices 1 2 3 4 5 6 
#
# 1 73.2084 37.0533 32.2467 0.0106 -2.9201 -0.0002
# 2 37.0533 139.1405 69.3448 0.0007 2.9554 0.0076
# 3 32.2467 69.3448 111.5537 0.0391 -9.7541 0.0052
# 4 0.0106 0.0007 0.0391 40.4989 -0.0164 7.4448
# 5 -2.9201 2.9554 -9.7541 -0.0164 31.0894 -0.0022
# 6 -0.0002 0.0076 0.0052 7.4448 -0.0022 26.7046
#
#
#
# Elastic Compliance Matrix: (Units=1/GPa)
#
#
# Indices 1 2 3 4 5 6 
#
# 1 0.016454 -0.003003 -0.002806 -0.000002 0.000950 0.000002
# 2 -0.003003 0.011261 -0.006427 0.000006 -0.003369 -0.000004
# 3 -0.002806 -0.006427 0.014190 -0.000011 0.004799 0.000003
# 4 -0.000002 0.000006 -0.000011 0.026026 0.000009 -0.007256
# 5 0.000950 -0.003369 0.004799 0.000009 0.034081 0.000000
# 6 0.000002 -0.000004 0.000003 -0.007256 0.000000 0.039469
#
#
# Mechanical properties :
#
#
# Convention : Reuss Voigt Hill
#
# Bulk Modulus (GPa) = 57.36356 66.79915 62.08136
# Shear Modulus (GPa) = 29.10965 32.00909 30.55937
#
# Velocity S-wave (km/s) = 3.54524 3.71761 3.63245
# Velocity P-wave (km/s) = 6.44409 6.87529 6.66318
#
# Compressibility (1/GPa) = 0.01743267
#
# Stress axis : x y z
#
# Youngs Moduli (GPa) = 60.77667 88.80002 70.47127
#
# Poissons Ratio (x) = 0.26669 0.19776
# Poissons Ratio (y) = 0.18253 0.45290
# Poissons Ratio (z) = 0.17055 0.57069
#
# Static dielectric constant tensor:
#      x y z
#    x 4.041980 0.000000 -0.124260 
#    y 0.000000 4.283150 -0.000010 
#    z -0.124260 -0.000010 4.139600 
# 
# 
# High freq. dielectric constant tensor:
#      x y z
#    x 1.918540 0.000000 -0.016620 
#    y 0.000000 1.922500 0.000000 
#    z -0.016620 0.000000 1.916960 
# 
# From -- ./inp_files/7414.got.cif
#   From: 2010.06.25/outbox.cif.g09.slc.cpg/sg9_4_cif.got.tgz:7414.got - 2010.06.27 21:40:51.
