data_PCOD8056283
_publ_section_title
;
Structure prediction by ZEFSAII (Michael W. Deem and Ramdas Pophale) SiO2 
 PCOD8056283
Probable space group: C C
;
_chemical_formula_sum "Si O2"
_cell_formula_units_Z 32
_cell_length_a 6.845678
_cell_length_b 18.670798
_cell_length_c 10.974758
_cell_angle_alpha 90.000000
_cell_angle_beta 83.023776
_cell_angle_gamma 90.000000
_cell_volume 1392.345772
_symmetry_space_group_name_H-M "C C"
_symmetry_group_IT_number 9
_symmetry_cell_setting 'monoclinic'
loop_
_space_group_symop_operation_xyz
x,y,z
x,-y,1/2+z
1/2+x,1/2+y,z
1/2+x,1/2-y,1/2+z
loop_
_atom_site_type_symbol
_atom_site_label
_atom_site_fract_x
_atom_site_fract_y
_atom_site_fract_z
Si Si1 0.727670 0.860052 0.234390
Si Si2 0.261982 0.011147 0.422385
Si Si3 0.041430 0.860085 0.838961
Si Si4 0.015403 0.127029 0.917879
Si Si5 0.876348 0.287536 0.402424
Si Si6 0.007213 0.511167 0.650946
Si Si7 0.253684 0.626998 0.155543
Si Si8 0.892767 0.287563 0.670894
O O1 0.536403 0.825497 0.308097
O O2 0.653003 0.920603 0.147471
O O3 0.855490 0.797322 0.162337
O O4 0.871795 0.897078 0.320492
O O5 0.384570 0.023695 0.536677
O O6 0.116237 0.079389 0.425865
O O7 0.133536 0.941394 0.455265
O O8 0.384620 0.999995 0.286672
O O9 0.913691 0.797343 0.911035
O O10 0.897123 0.897147 0.753012
O O11 0.232546 0.825541 0.765079
O O12 0.161297 0.191466 0.865153
O O13 0.884634 0.158994 0.036756
O O14 0.884684 0.321289 0.536638
O O15 0.135643 0.441415 0.618016
O O16 0.107729 0.691415 0.208279
#
# Coordination Sequence:
#
# PCOD8056283 Si02
#       8
#     4   4   4   4   4   4   4   4
#     4  11  25  44  71 104 141 191 241 296 368 429
#     4  12  26  48  75 107 151 189 245 305 361 437
#     4  11  25  44  71 104 141 191 241 296 368 429
#     4  12  23  44  76 102 141 197 240 298 375 438
#     4  11  23  45  68 103 146 187 241 299 363 439
#     4  12  26  48  75 107 151 189 245 305 361 437
#     4  12  23  44  76 102 141 197 240 298 375 438
#     4  11  23  45  68 103 146 187 241 299 363 439
#
# _framework density 22.982797000000001
#
# number of rings (size 3 to 8) (size 9 to 14) (size 15 to 20)
#    0.000    0.500    5.000    3.750    0.000    3.000 
#    9.000    0.000    0.000    0.000    0.000    0.000 
#    0.000    0.000    0.000    0.000    0.000    0.000 
#
# Total GULP energy -198362.075176 kJ/mol
# GULP energy per Si atom -12397.629699 kJ/mol
# Density = 2.293049 g / cm^3
# Si number density = 22.982797 Si / 1000 Ang^3
#
#
#
# Elastic Constant Matrix: (Units=GPa)
#
#
# Indices 1 2 3 4 5 6 
#
# 1 154.5096 75.2778 55.0944 0.0000 19.6171 0.0000
# 2 75.2778 157.0287 32.8095 0.0000 8.0590 0.0000
# 3 55.0944 32.8095 113.3192 0.0000 23.5550 0.0000
# 4 0.0000 0.0000 0.0000 23.2648 0.0000 11.5482
# 5 19.6171 8.0590 23.5550 0.0000 47.0040 0.0000
# 6 0.0000 0.0000 0.0000 11.5482 0.0000 50.1262
#
#
#
# Elastic Compliance Matrix: (Units=1/GPa)
#
#
# Indices 1 2 3 4 5 6 
#
# 1 0.009759 -0.003909 -0.003243 0.000000 -0.001777 0.000000
# 2 -0.003909 0.008346 -0.000622 0.000000 0.000512 0.000000
# 3 -0.003243 -0.000622 0.011473 0.000000 -0.004289 0.000000
# 4 0.000000 0.000000 0.000000 0.048534 0.000000 -0.011181
# 5 -0.001777 0.000512 -0.004289 0.000000 0.024078 0.000000
# 6 0.000000 0.000000 0.000000 -0.011181 0.000000 0.022526
#
#
# Mechanical properties :
#
#
# Convention : Reuss Voigt Hill
#
# Bulk Modulus (GPa) = 71.28493 83.46898 77.37695
# Shear Modulus (GPa) = 34.49659 41.52406 38.01032
#
# Velocity S-wave (km/s) = 3.87844 4.25519 4.07118
# Velocity P-wave (km/s) = 7.15125 7.78069 7.47260
#
# Compressibility (1/GPa) = 0.01402821
#
# Stress axis : x y z
#
# Youngs Moduli (GPa) = 102.47018 119.81607 87.15936
#
# Poissons Ratio (x) = 0.46842 0.28269
# Poissons Ratio (y) = 0.40060 0.05424
# Poissons Ratio (z) = 0.33234 0.07456
#
# Static dielectric constant tensor:
#      x y z
#    x 4.506390 0.000000 -0.001010 
#    y 0.000000 4.279970 0.000000 
#    z -0.001010 0.000000 4.004020 
# 
# 
# High freq. dielectric constant tensor:
#      x y z
#    x 1.926390 0.000000 0.003260 
#    y 0.000000 1.911440 0.000000 
#    z 0.003260 0.000000 1.901900 
# 
# From -- ./inp_files/13345.got.cif
#   From: 2010.06.25/outbox.cif.g09.slc.cpg/sg9_7_cif.got.tgz:13345.got - 2010.06.27 21:40:51.
