data_PCOD8056792
_publ_section_title
;
Structure prediction by ZEFSAII (Michael W. Deem and Ramdas Pophale) SiO2 
 PCOD8056792
Probable space group: C C
;
_chemical_formula_sum "Si O2"
_cell_formula_units_Z 32
_cell_length_a 16.175035
_cell_length_b 15.088980
_cell_length_c 13.885153
_cell_angle_alpha 90.000000
_cell_angle_beta 149.141602
_cell_angle_gamma 90.000000
_cell_volume 1738.216195
_symmetry_space_group_name_H-M "C C"
_symmetry_group_IT_number 9
_symmetry_cell_setting 'monoclinic'
loop_
_space_group_symop_operation_xyz
x,y,z
x,-y,1/2+z
1/2+x,1/2+y,z
1/2+x,1/2-y,1/2+z
loop_
_atom_site_type_symbol
_atom_site_label
_atom_site_fract_x
_atom_site_fract_y
_atom_site_fract_z
Si Si1 0.115400 0.633512 0.519600
Si Si2 0.308682 0.208708 0.153203
Si Si3 0.308671 0.791291 0.198577
Si Si4 0.517692 0.653870 0.523844
Si Si5 0.615386 0.133510 0.945614
Si Si6 0.728374 0.034838 0.454691
Si Si7 0.728372 0.965162 0.736483
Si Si8 0.517697 0.346132 0.245973
O O1 0.212092 0.724963 0.626660
O O2 0.124215 0.596972 0.419311
O O3 0.194641 0.567225 0.675771
O O4 0.923568 0.650825 0.339148
O O5 0.415418 0.263302 0.183363
O O6 0.184307 0.145261 0.971661
O O7 0.415411 0.736699 0.381895
O O8 0.423554 0.849174 0.242401
O O9 0.184298 0.854738 0.131371
O O10 0.212079 0.724960 0.031939
O O11 0.416790 0.561899 0.411392
O O12 0.557664 0.672628 0.674878
O O13 0.694629 0.067223 0.947928
O O14 0.624204 0.096968 0.063535
O O15 0.916795 0.061897 0.656620
O O16 0.672582 0.051680 0.289796
#
# Coordination Sequence:
#
# PCOD8056792 Si02
#       8
#     4   4   4   4   4   4   4   4
#     4   9  18  33  49  70  98 129 164 200 242 289
#     4   9  17  29  48  71  98 129 161 201 245 291
#     4   9  17  29  48  71  98 129 161 201 245 291
#     4   9  16  27  48  76 101 126 159 204 254 297
#     4   9  18  33  49  70  98 129 164 200 242 289
#     4   9  18  33  51  70  97 130 161 200 248 292
#     4   9  18  33  51  70  97 130 161 200 248 292
#     4   9  16  27  48  76 101 126 159 204 254 297
#
# _framework density 18.409676999999999
#
# number of rings (size 3 to 8) (size 9 to 14) (size 15 to 20)
#    0.000    3.000    0.000    0.750    0.000    7.000 
#    0.000   16.250    0.000    0.000    0.000    0.000 
#    0.000    0.000    0.000    0.000    0.000    0.000 
#
# Total GULP energy -198275.670981 kJ/mol
# GULP energy per Si atom -12392.229436 kJ/mol
# Density = 1.836778 g / cm^3
# Si number density = 18.409677 Si / 1000 Ang^3
#
#
#
# Elastic Constant Matrix: (Units=GPa)
#
#
# Indices 1 2 3 4 5 6 
#
# 1 54.0216 24.8157 23.6419 0.0000 12.0367 -0.0001
# 2 24.8157 70.9287 37.1546 -0.0008 12.5150 -0.0008
# 3 23.6419 37.1546 87.1434 -0.0030 21.5599 -0.0029
# 4 0.0000 -0.0008 -0.0030 26.1333 -0.0012 5.0937
# 5 12.0367 12.5150 21.5599 -0.0012 30.7823 -0.0010
# 6 -0.0001 -0.0008 -0.0029 5.0937 -0.0010 21.1104
#
#
#
# Elastic Compliance Matrix: (Units=1/GPa)
#
#
# Indices 1 2 3 4 5 6 
#
# 1 0.023500 -0.005989 -0.002602 -0.000001 -0.004932 -0.000001
# 2 -0.005989 0.019823 -0.006547 0.000000 -0.001132 0.000000
# 3 -0.002602 -0.006547 0.017010 0.000001 -0.008235 0.000001
# 4 -0.000001 0.000000 0.000001 0.040154 0.000001 -0.009689
# 5 -0.004932 -0.001132 -0.008235 0.000001 0.040642 0.000001
# 6 -0.000001 0.000000 0.000001 -0.009689 0.000001 0.049708
#
#
# Mechanical properties :
#
#
# Convention : Reuss Voigt Hill
#
# Bulk Modulus (GPa) = 33.26945 42.59091 37.93018
# Shear Modulus (GPa) = 21.63272 24.03728 22.83500
#
# Velocity S-wave (km/s) = 3.43165 3.61735 3.52572
# Velocity P-wave (km/s) = 5.81486 6.37434 6.10102
#
# Compressibility (1/GPa) = 0.03005760
#
# Stress axis : x y z
#
# Youngs Moduli (GPa) = 42.55374 50.44602 58.78922
#
# Poissons Ratio (x) = 0.30210 0.15297
# Poissons Ratio (y) = 0.25484 0.38489
# Poissons Ratio (z) = 0.11072 0.33027
#
# Static dielectric constant tensor:
#      x y z
#    x 3.229350 0.000000 0.213940 
#    y 0.000000 3.383030 0.000000 
#    z 0.213940 0.000000 3.440270 
# 
# 
# High freq. dielectric constant tensor:
#      x y z
#    x 1.690320 0.000000 0.016740 
#    y 0.000000 1.698630 0.000000 
#    z 0.016740 0.000000 1.706830 
# 
# From -- ./inp_files/9525.got.cif
#   From: 2010.06.25/outbox.cif.g09.slc.cpg/sg9_5_cif.got.tgz:9525.got - 2010.06.27 21:40:51.
