data_PCOD8056686
_publ_section_title
;
Structure prediction by ZEFSAII (Michael W. Deem and Ramdas Pophale) SiO2 
 PCOD8056686
Probable space group: C C
;
_chemical_formula_sum "Si O2"
_cell_formula_units_Z 20
_cell_length_a 8.710779
_cell_length_b 15.664349
_cell_length_c 7.514497
_cell_angle_alpha 90.000000
_cell_angle_beta 126.091232
_cell_angle_gamma 90.000000
_cell_volume 828.559385
_symmetry_space_group_name_H-M "C C"
_symmetry_group_IT_number 9
_symmetry_cell_setting 'monoclinic'
loop_
_space_group_symop_operation_xyz
x,y,z
x,-y,1/2+z
1/2+x,1/2+y,z
1/2+x,1/2-y,1/2+z
loop_
_atom_site_type_symbol
_atom_site_label
_atom_site_fract_x
_atom_site_fract_y
_atom_site_fract_z
Si Si1 0.356590 0.058373 0.976430
Si Si2 0.338895 0.876246 0.069495
Si Si3 0.190085 0.672654 0.320364
Si Si4 0.502655 0.651934 0.815277
Si Si5 0.447431 0.303750 0.661800
O O1 0.336410 0.095744 0.769273
O O2 0.152995 0.074183 0.931692
O O3 0.518858 0.106067 0.198503
O O4 0.402305 0.957421 0.995188
O O5 0.484301 0.797333 0.149369
O O6 0.132203 0.844525 0.872366
O O7 0.347384 0.633450 0.558738
O O8 0.120221 0.762666 0.348866
O O9 0.271339 0.684734 0.176309
O O10 0.401323 0.655203 0.938427
#
# Coordination Sequence:
#
# PCOD8056686 Si02
#       5
#     4   4   4   4   4
#     4  12  27  50  76 112 162 195 266 329 374 453
#     4  12  26  50  77 114 156 202 257 325 378 461
#     4  12  24  49  76 115 154 203 257 316 382 469
#     4  12  24  47  80 111 155 208 253 317 389 455
#     4  12  25  50  81 108 157 212 255 311 397 460
#
# _framework density 24.138283000000001
#
# number of rings (size 3 to 8) (size 9 to 14) (size 15 to 20)
#    0.000    0.000    6.000    3.600    2.800    0.000 
#    7.200    0.000    0.000    0.000    0.000    0.000 
#    0.000    0.000    0.000    0.000    0.000    0.000 
#
# Total GULP energy -124031.994384 kJ/mol
# GULP energy per Si atom -12403.199438 kJ/mol
# Density = 2.408334 g / cm^3
# Si number density = 24.138283 Si / 1000 Ang^3
#
#
#
# Elastic Constant Matrix: (Units=GPa)
#
#
# Indices 1 2 3 4 5 6 
#
# 1 76.2776 -13.4448 52.1020 0.0000 -18.9365 0.0000
# 2 -13.4448 100.1258 46.8956 0.0000 12.5465 0.0000
# 3 52.1020 46.8956 160.9576 0.0000 3.7608 0.0000
# 4 0.0000 0.0000 0.0000 25.9627 0.0000 -8.4413
# 5 -18.9365 12.5465 3.7608 0.0000 45.8780 0.0000
# 6 0.0000 0.0000 0.0000 -8.4413 0.0000 18.3021
#
#
#
# Elastic Compliance Matrix: (Units=1/GPa)
#
#
# Indices 1 2 3 4 5 6 
#
# 1 0.022785 0.006428 -0.009445 0.000000 0.008421 0.000000
# 2 0.006428 0.013775 -0.006080 0.000000 -0.000616 0.000000
# 3 -0.009445 -0.006080 0.011115 0.000000 -0.003147 0.000000
# 4 0.000000 0.000000 0.000000 0.045312 0.000000 0.020899
# 5 0.008421 -0.000616 -0.003147 0.000000 0.025699 0.000000
# 6 0.000000 0.000000 0.000000 0.020899 0.000000 0.064277
#
#
# Mechanical properties :
#
#
# Convention : Reuss Voigt Hill
#
# Bulk Modulus (GPa) = 33.91905 56.49627 45.20766
# Shear Modulus (GPa) = 23.69835 34.81580 29.25707
#
# Velocity S-wave (km/s) = 3.13673 3.80195 3.48524
# Velocity P-wave (km/s) = 5.21548 6.53675 5.91314
#
# Compressibility (1/GPa) = 0.02948196
#
# Stress axis : x y z
#
# Youngs Moduli (GPa) = 43.88783 72.59322 89.96686
#
# Poissons Ratio (x) = -0.46665 0.84976
# Poissons Ratio (y) = -0.28212 0.54699
# Poissons Ratio (z) = 0.41453 0.44136
#
# Static dielectric constant tensor:
#      x y z
#    x 4.369220 0.000000 -0.111920 
#    y 0.000000 5.333420 0.000000 
#    z -0.111920 0.000000 4.566550 
# 
# 
# High freq. dielectric constant tensor:
#      x y z
#    x 1.954950 0.000000 -0.010560 
#    y 0.000000 1.949260 0.000000 
#    z -0.010560 0.000000 1.983970 
# 
# From -- ./inp_files/5157.got.cif
#   From: 2010.06.25/outbox.cif.g09.slc.cpg/sg9_3_cif.got.tgz:5157.got - 2010.06.27 21:40:51.
