data_PCOD8056966
_publ_section_title
;
Structure prediction by ZEFSAII (Michael W. Deem and Ramdas Pophale) SiO2 
 PCOD8056966
Probable space group: P 2/M
;
_chemical_formula_sum "Si O2"
_cell_formula_units_Z 28
_cell_length_a 8.594319
_cell_length_b 19.104277
_cell_length_c 19.804764
_cell_angle_alpha 90.000000
_cell_angle_beta 150.199165
_cell_angle_gamma 90.000000
_cell_volume 1616.056102
_symmetry_space_group_name_H-M "P 2/M"
_symmetry_group_IT_number 10
_symmetry_cell_setting 'monoclinic'
loop_
_space_group_symop_operation_xyz
x,y,z
-x,y,-z
-x,-y,-z
x,-y,z
loop_
_atom_site_type_symbol
_atom_site_label
_atom_site_fract_x
_atom_site_fract_y
_atom_site_fract_z
Si Si1 0.143124 0.281032 0.980380
Si Si2 0.753760 0.717581 0.279958
Si Si3 0.424375 0.197071 0.268545
Si Si4 0.268437 0.177714 0.472202
Si Si5 0.054541 0.574760 0.100068
Si Si6 0.764674 0.421556 0.352295
Si Si7 0.202770 0.077720 0.643405
O O1 0.943830 0.219016 0.869550
O O2 0.113339 0.356481 0.930911
O O3 0.508239 0.262145 0.127502
O O4 0.000000 0.293072 0.000000
O O5 0.634132 0.745873 0.307863
O O6 0.795362 0.633821 0.302231
O O7 0.084269 0.751216 0.384197
O O8 0.535185 0.191315 0.386614
O O9 0.480831 0.122492 0.251922
O O10 0.500000 0.156083 0.500000
O O11 0.013418 0.115633 0.382396
O O12 0.932035 0.500000 0.084634
O O13 0.420303 0.582051 0.254120
O O14 0.000000 0.572024 0.000000
O O15 0.836902 0.500000 0.351745
O O16 0.000000 0.400074 0.500000
O O17 0.000000 0.073166 0.500000
O O18 0.297549 0.000000 0.704197
#
# Coordination Sequence:
#
# PCOD8056966 Si02
#       7
#     4   4   4   4   4   4   4
#     4   9  15  25  42  67  90 120 147 188 232 274
#     4  10  17  29  46  65  92 121 152 194 234 272
#     4   9  16  29  48  69  93 117 148 184 227 272
#     4  10  20  31  46  67  92 124 156 187 222 266
#     4   9  14  22  35  59  95 119 142 185 238 280
#     4  10  17  23  37  65  95 120 149 190 239 281
#     4   8  15  29  50  74  96 118 146 183 225 268
#
# _framework density 17.326131
#
# number of rings (size 3 to 8) (size 9 to 14) (size 15 to 20)
#    0.000    2.714    4.286    2.143    0.000    0.286 
#    0.000    0.714    0.000   11.143    0.000    0.000 
#    0.000   25.143    0.000    0.000    0.000    0.000 
#
# Total GULP energy -346887.808478 kJ/mol
# GULP energy per Si atom -12388.850303 kJ/mol
# Density = 1.728670 g / cm^3
# Si number density = 17.326131 Si / 1000 Ang^3
#
#
#
# Elastic Constant Matrix: (Units=GPa)
#
#
# Indices 1 2 3 4 5 6 
#
# 1 44.6600 27.9229 25.0658 0.0000 7.7741 0.0000
# 2 27.9229 141.8432 46.8622 0.0000 5.3525 0.0000
# 3 25.0658 46.8622 112.3977 0.0000 1.5422 0.0000
# 4 0.0000 0.0000 0.0000 20.0478 0.0000 -1.7726
# 5 7.7741 5.3525 1.5422 0.0000 7.7539 0.0000
# 6 0.0000 0.0000 0.0000 -1.7726 0.0000 8.0889
#
#
#
# Elastic Compliance Matrix: (Units=1/GPa)
#
#
# Indices 1 2 3 4 5 6 
#
# 1 0.032758 -0.003551 -0.005423 0.000000 -0.029313 0.000000
# 2 -0.003551 0.008758 -0.002833 0.000000 -0.001922 0.000000
# 3 -0.005423 -0.002833 0.011217 0.000000 0.005161 0.000000
# 4 0.000000 0.000000 0.000000 0.050867 0.000000 0.011147
# 5 -0.029313 -0.001922 0.005161 0.000000 0.158657 0.000000
# 6 0.000000 0.000000 0.000000 0.011147 0.000000 0.126069
#
#
# Mechanical properties :
#
#
# Convention : Reuss Voigt Hill
#
# Bulk Modulus (GPa) = 34.34207 55.40027 44.87117
# Shear Modulus (GPa) = 11.85834 20.44811 16.15322
#
# Velocity S-wave (km/s) = 2.61898 3.43911 3.05668
# Velocity P-wave (km/s) = 5.38604 6.91480 6.19773
#
# Compressibility (1/GPa) = 0.02911880
#
# Stress axis : x y z
#
# Youngs Moduli (GPa) = 30.52718 114.18700 89.15330
#
# Poissons Ratio (x) = 0.40547 0.48344
# Poissons Ratio (y) = 0.10840 0.25258
# Poissons Ratio (z) = 0.16554 0.32350
#
# Static dielectric constant tensor:
#      x y z
#    x 2.547120 0.000000 0.092320 
#    y 0.000000 3.767550 0.000000 
#    z 0.092320 0.000000 3.461350 
# 
# 
# High freq. dielectric constant tensor:
#      x y z
#    x 1.586270 0.000000 0.004660 
#    y 0.000000 1.680200 0.000000 
#    z 0.004660 0.000000 1.673900 
# 
# From -- ./inp_files/83028.got.cif
#   From: 2010.06.25/outbox.cif.g09.slc.cpg/sg10_42_cif.got.tgz:83028.got - 2010.06.27 22:07:45.
