data_PCOD8056137
_publ_section_title
;
Structure prediction by ZEFSAII (Michael W. Deem and Ramdas Pophale) SiO2 
 PCOD8056137
Probable space group: C C
;
_chemical_formula_sum "Si O2"
_cell_formula_units_Z 28
_cell_length_a 5.047657
_cell_length_b 12.953453
_cell_length_c 19.643674
_cell_angle_alpha 90.000000
_cell_angle_beta 115.206375
_cell_angle_gamma 90.000000
_cell_volume 1162.093154
_symmetry_space_group_name_H-M "C C"
_symmetry_group_IT_number 9
_symmetry_cell_setting 'monoclinic'
loop_
_space_group_symop_operation_xyz
x,y,z
x,-y,1/2+z
1/2+x,1/2+y,z
1/2+x,1/2-y,1/2+z
loop_
_atom_site_type_symbol
_atom_site_label
_atom_site_fract_x
_atom_site_fract_y
_atom_site_fract_z
Si Si1 0.412850 0.977466 0.201060
Si Si2 0.661843 0.770306 0.523681
Si Si3 0.662561 0.788131 0.288696
Si Si4 0.261283 0.467351 0.610174
Si Si5 0.795018 0.638010 0.869962
Si Si6 0.864871 0.421493 0.830657
Si Si7 0.142743 0.641855 0.497029
O O1 0.531759 0.031305 0.146801
O O2 0.534513 0.036638 0.281900
O O3 0.063248 0.982888 0.167795
O O4 0.504838 0.855435 0.212216
O O5 0.812892 0.849105 0.593010
O O6 0.413497 0.836847 0.457472
O O7 0.475959 0.682789 0.542823
O O8 0.908172 0.721008 0.502847
O O9 0.558728 0.830892 0.349305
O O10 0.618281 0.663441 0.280049
O O11 0.011218 0.797340 0.319612
O O12 0.124116 0.532814 0.533197
O O13 0.709265 0.517457 0.851842
O O14 0.087752 0.371684 0.910052
#
# Coordination Sequence:
#
# PCOD8056137 Si02
#       7
#     4   4   4   4   4   4   4
#     4  11  27  46  72 102 146 194 232 284 358 435
#     4  12  24  44  73 105 138 181 238 291 355 418
#     4  11  24  43  69 102 142 173 236 284 349 411
#     4  12  27  51  67 102 149 190 233 292 354 430
#     4  11  22  41  67 109 135 169 227 296 343 408
#     4  11  24  45  74 106 139 185 232 299 354 406
#     4  12  26  44  76 106 137 184 244 296 357 408
#
# _framework density 24.094453000000001
#
# number of rings (size 3 to 8) (size 9 to 14) (size 15 to 20)
#    0.000    0.571    4.286    3.429    0.000   10.286 
#    0.000    2.857    0.000    0.000    0.000    0.000 
#    0.000    0.000    0.000    0.000    0.000    0.000 
#
# Total GULP energy -173600.808113 kJ/mol
# GULP energy per Si atom -12400.057722 kJ/mol
# Density = 2.403961 g / cm^3
# Si number density = 24.094453 Si / 1000 Ang^3
#
#
#
# Elastic Constant Matrix: (Units=GPa)
#
#
# Indices 1 2 3 4 5 6 
#
# 1 84.4108 16.1457 14.8633 0.0000 -1.2294 0.0000
# 2 16.1457 124.6108 14.5808 0.0000 -12.8139 0.0000
# 3 14.8633 14.5808 68.6140 0.0000 -18.3278 0.0000
# 4 0.0000 0.0000 0.0000 36.7812 0.0000 -3.3953
# 5 -1.2294 -12.8139 -18.3278 0.0000 28.7125 0.0000
# 6 0.0000 0.0000 0.0000 -3.3953 0.0000 29.4173
#
#
#
# Elastic Compliance Matrix: (Units=1/GPa)
#
#
# Indices 1 2 3 4 5 6 
#
# 1 0.012624 -0.001497 -0.002954 0.000000 -0.002013 0.000000
# 2 -0.001497 0.008640 -0.000601 0.000000 0.003408 0.000000
# 3 -0.002954 -0.000601 0.018368 0.000000 0.011330 0.000000
# 4 0.000000 0.000000 0.000000 0.027481 0.000000 0.003172
# 5 -0.002013 0.003408 0.011330 0.000000 0.043495 0.000000
# 6 0.000000 0.000000 0.000000 0.003172 0.000000 0.034360
#
#
# Mechanical properties :
#
#
# Convention : Reuss Voigt Hill
#
# Bulk Modulus (GPa) = 33.86766 40.97947 37.42357
# Shear Modulus (GPa) = 30.31859 34.45191 32.38525
#
# Velocity S-wave (km/s) = 3.55113 3.78546 3.67017
# Velocity P-wave (km/s) = 5.55885 6.01258 5.79016
#
# Compressibility (1/GPa) = 0.02952670
#
# Stress axis : x y z
#
# Youngs Moduli (GPa) = 79.21383 115.74401 54.44103
#
# Poissons Ratio (x) = 0.17327 0.16084
# Poissons Ratio (y) = 0.11859 0.03274
# Poissons Ratio (z) = 0.23402 0.06961
#
# Static dielectric constant tensor:
#      x y z
#    x 3.960230 0.000000 -0.062110 
#    y 0.000000 4.726860 0.000000 
#    z -0.062110 0.000000 4.257950 
# 
# 
# High freq. dielectric constant tensor:
#      x y z
#    x 1.942880 0.000000 -0.006420 
#    y 0.000000 1.974290 0.000000 
#    z -0.006420 0.000000 1.952540 
# 
# From -- ./inp_files/32043.got.cif
#   From: 2010.06.25/outbox.cif.g09.slc.cpg/sg9_17_cif.got.tgz:32043.got - 2010.06.27 21:40:51.
