data_PCOD8056314
_publ_section_title
;
Structure prediction by ZEFSAII (Michael W. Deem and Ramdas Pophale) SiO2 
 PCOD8056314
Probable space group: C C
;
_chemical_formula_sum "Si O2"
_cell_formula_units_Z 28
_cell_length_a 15.582648
_cell_length_b 8.388732
_cell_length_c 14.596322
_cell_angle_alpha 90.000000
_cell_angle_beta 139.471535
_cell_angle_gamma 90.000000
_cell_volume 1239.875072
_symmetry_space_group_name_H-M "C C"
_symmetry_group_IT_number 9
_symmetry_cell_setting 'monoclinic'
loop_
_space_group_symop_operation_xyz
x,y,z
x,-y,1/2+z
1/2+x,1/2+y,z
1/2+x,1/2-y,1/2+z
loop_
_atom_site_type_symbol
_atom_site_label
_atom_site_fract_x
_atom_site_fract_y
_atom_site_fract_z
Si Si1 0.109670 0.894992 0.941350
Si Si2 0.522798 0.505834 0.069591
Si Si3 0.749164 0.905333 0.812440
Si Si4 0.088133 0.188005 0.794537
Si Si5 0.416825 0.835426 0.799126
Si Si6 0.642471 0.809917 0.131876
Si Si7 0.852894 0.297176 0.229494
O O1 0.985499 0.792812 0.803595
O O2 0.139831 0.041090 0.897682
O O3 0.241656 0.785088 0.058650
O O4 0.084900 0.962966 0.022108
O O5 0.550134 0.365518 0.162084
O O6 0.590130 0.671121 0.157925
O O7 0.365811 0.526000 0.934997
O O8 0.701511 0.818925 0.866870
O O9 0.800646 0.776930 0.781168
O O10 0.636050 0.018391 0.676283
O O11 0.962246 0.275352 0.736300
O O12 0.292334 0.725248 0.722840
O O13 0.380522 0.018987 0.771156
O O14 0.542078 0.806618 0.965701
#
# Coordination Sequence:
#
# PCOD8056314 Si02
#       7
#     4   4   4   4   4   4   4
#     4  11  23  48  71 105 146 186 240 296 360 420
#     4  11  24  46  73 106 141 187 241 304 352 431
#     4  11  25  46  74 106 141 189 245 299 360 429
#     4  12  26  45  73 107 143 188 245 299 356 434
#     4  12  24  42  76 106 144 193 238 296 362 430
#     4  12  23  49  71 106 144 194 238 297 370 420
#     4  11  23  46  72 104 141 195 233 295 364 422
#
# _framework density 22.582920000000001
#
# number of rings (size 3 to 8) (size 9 to 14) (size 15 to 20)
#    0.000    0.571    5.714    1.714    6.000    1.143 
#    2.571    0.000    0.000    0.000    0.000    0.000 
#    0.000    0.000    0.000    0.000    0.000    0.000 
#
# Total GULP energy -173584.328909 kJ/mol
# GULP energy per Si atom -12398.880636 kJ/mol
# Density = 2.253152 g / cm^3
# Si number density = 22.582920 Si / 1000 Ang^3
#
#
#
# Elastic Constant Matrix: (Units=GPa)
#
#
# Indices 1 2 3 4 5 6 
#
# 1 108.5466 63.5924 60.6656 0.0000 10.7268 0.0000
# 2 63.5924 123.7567 45.4881 0.0000 11.2721 0.0000
# 3 60.6656 45.4881 130.1863 0.0000 25.6109 0.0000
# 4 0.0000 0.0000 0.0000 44.4042 0.0000 -1.3068
# 5 10.7268 11.2721 25.6109 0.0000 32.2170 0.0000
# 6 0.0000 0.0000 0.0000 -1.3068 0.0000 45.7976
#
#
#
# Elastic Compliance Matrix: (Units=1/GPa)
#
#
# Indices 1 2 3 4 5 6 
#
# 1 0.015761 -0.006221 -0.005413 0.000000 0.001232 0.000000
# 2 -0.006221 0.011744 -0.000952 0.000000 -0.001280 0.000000
# 3 -0.005413 -0.000952 0.011992 0.000000 -0.007397 0.000000
# 4 0.000000 0.000000 0.000000 0.022539 0.000000 0.000643
# 5 0.001232 -0.001280 -0.007397 0.000000 0.036958 0.000000
# 6 0.000000 0.000000 0.000000 0.000643 0.000000 0.021854
#
#
# Mechanical properties :
#
#
# Convention : Reuss Voigt Hill
#
# Bulk Modulus (GPa) = 69.81823 77.99800 73.90811
# Shear Modulus (GPa) = 33.15753 37.33334 35.24544
#
# Velocity S-wave (km/s) = 3.83594 4.07033 3.95487
# Velocity P-wave (km/s) = 7.11356 7.53018 7.32483
#
# Compressibility (1/GPa) = 0.01432291
#
# Stress axis : x y z
#
# Youngs Moduli (GPa) = 63.44770 85.15038 83.39063
#
# Poissons Ratio (x) = 0.52975 0.45140
# Poissons Ratio (y) = 0.39473 0.07942
# Poissons Ratio (z) = 0.34345 0.08110
#
# Static dielectric constant tensor:
#      x y z
#    x 3.992980 0.000000 0.311080 
#    y 0.000000 4.294310 0.000000 
#    z 0.311080 0.000000 4.399910 
# 
# 
# High freq. dielectric constant tensor:
#      x y z
#    x 1.876290 0.000000 0.014940 
#    y 0.000000 1.903950 0.000000 
#    z 0.014940 0.000000 1.895750 
# 
# From -- ./inp_files/11413.got.cif
#   From: 2010.06.25/outbox.cif.g09.slc.cpg/sg9_6_cif.got.tgz:11413.got - 2010.06.27 21:40:51.
