data_PCOD8056351
_publ_section_title
;
Structure prediction by ZEFSAII (Michael W. Deem and Ramdas Pophale) SiO2 
 PCOD8056351
Probable space group: C C
;
_chemical_formula_sum "Si O2"
_cell_formula_units_Z 32
_cell_length_a 14.047956
_cell_length_b 10.653875
_cell_length_c 17.703715
_cell_angle_alpha 90.000000
_cell_angle_beta 145.988872
_cell_angle_gamma 90.000000
_cell_volume 1482.080599
_symmetry_space_group_name_H-M "C C"
_symmetry_group_IT_number 9
_symmetry_cell_setting 'monoclinic'
loop_
_space_group_symop_operation_xyz
x,y,z
x,-y,1/2+z
1/2+x,1/2+y,z
1/2+x,1/2-y,1/2+z
loop_
_atom_site_type_symbol
_atom_site_label
_atom_site_fract_x
_atom_site_fract_y
_atom_site_fract_z
Si Si1 0.455770 0.329714 0.250000
Si Si2 0.673826 0.350916 0.530798
Si Si3 0.182578 0.867501 0.015785
Si Si4 0.620676 0.547717 0.714678
Si Si5 0.333802 0.872740 0.956281
Si Si6 0.905527 0.888128 0.462119
Si Si7 0.317817 0.749734 0.247494
Si Si8 0.705000 0.019408 0.690996
O O1 0.617673 0.305144 0.410505
O O2 0.362919 0.197066 0.172804
O O3 0.518262 0.380616 0.211809
O O4 0.327560 0.426808 0.205874
O O5 0.643396 0.498569 0.527557
O O6 0.543818 0.300368 0.508610
O O7 0.309632 0.793521 0.154722
O O8 0.270021 0.914499 0.996396
O O9 0.011790 0.786730 0.892984
O O10 0.717391 0.428801 0.813408
O O11 0.481265 0.495599 0.565179
O O12 0.753020 0.641131 0.760857
O O13 0.311453 0.721842 0.946532
O O14 0.519968 0.924000 0.062658
O O15 0.774010 0.952976 0.319559
O O16 0.194373 0.630424 0.175141
#
# Coordination Sequence:
#
# PCOD8056351 Si02
#       8
#     4   4   4   4   4   4   4   4
#     4  11  25  46  72 100 143 180 235 286 344 410
#     4  11  23  49  68  99 142 181 228 292 342 412
#     4  12  27  47  68 104 144 184 231 288 349 420
#     4  12  26  45  70 105 135 185 232 280 350 416
#     4  12  26  43  71 102 139 181 235 287 345 410
#     4  11  24  44  71  98 137 178 236 285 339 413
#     4  12  25  47  72  98 149 183 227 288 354 416
#     4  11  24  45  68 102 137 184 226 292 347 407
#
# _framework density 21.591270000000002
#
# number of rings (size 3 to 8) (size 9 to 14) (size 15 to 20)
#    0.000    0.500    6.250    1.500    8.750    2.000 
#    2.250    0.000    0.000    0.000    0.000    0.000 
#    0.000    0.000    0.000    0.000    0.000    0.000 
#
# Total GULP energy -198398.551165 kJ/mol
# GULP energy per Si atom -12399.909448 kJ/mol
# Density = 2.154213 g / cm^3
# Si number density = 21.591270 Si / 1000 Ang^3
#
#
#
# Elastic Constant Matrix: (Units=GPa)
#
#
# Indices 1 2 3 4 5 6 
#
# 1 70.3402 12.0177 12.1501 -0.0002 -14.5513 -0.0001
# 2 12.0177 96.4611 40.9402 0.0000 -3.7087 0.0000
# 3 12.1501 40.9402 99.1855 -0.0004 -14.4238 -0.0001
# 4 -0.0002 0.0000 -0.0004 41.6017 -0.0002 0.0497
# 5 -14.5513 -3.7087 -14.4238 -0.0002 30.5076 -0.0001
# 6 -0.0001 0.0000 -0.0001 0.0497 -0.0001 27.2188
#
#
#
# Elastic Compliance Matrix: (Units=1/GPa)
#
#
# Indices 1 2 3 4 5 6 
#
# 1 0.016054 -0.001620 -0.000229 0.000000 0.007352 0.000000
# 2 -0.001620 0.012760 -0.005321 0.000000 -0.001737 0.000000
# 3 -0.000229 -0.005321 0.013097 0.000000 0.005436 0.000000
# 4 0.000000 0.000000 0.000000 0.024038 0.000000 -0.000044
# 5 0.007352 -0.001737 0.005436 0.000000 0.038645 0.000000
# 6 0.000000 0.000000 0.000000 -0.000044 0.000000 0.036739
#
#
# Mechanical properties :
#
#
# Convention : Reuss Voigt Hill
#
# Bulk Modulus (GPa) = 36.26992 44.02251 40.14622
# Shear Modulus (GPa) = 30.32811 33.25754 31.79283
#
# Velocity S-wave (km/s) = 3.75193 3.92895 3.84146
# Velocity P-wave (km/s) = 5.96692 6.40434 6.18950
#
# Compressibility (1/GPa) = 0.02757106
#
# Stress axis : x y z
#
# Youngs Moduli (GPa) = 62.29010 78.36758 76.35295
#
# Poissons Ratio (x) = 0.12699 0.01745
# Poissons Ratio (y) = 0.10094 0.40629
# Poissons Ratio (z) = 0.01424 0.41701
#
# Static dielectric constant tensor:
#      x y z
#    x 3.886370 0.000000 -0.098050 
#    y 0.000000 3.932940 0.000000 
#    z -0.098050 0.000000 3.969270 
# 
# 
# High freq. dielectric constant tensor:
#      x y z
#    x 1.853970 0.000000 -0.010790 
#    y 0.000000 1.855030 0.000000 
#    z -0.010790 0.000000 1.852770 
# 
# From -- ./inp_files/9154.got.cif
#   From: 2010.06.25/outbox.cif.g09.slc.cpg/sg9_5_cif.got.tgz:9154.got - 2010.06.27 21:40:51.
