data_PCOD8056412
_publ_section_title
;
Structure prediction by ZEFSAII (Michael W. Deem and Ramdas Pophale) SiO2 
 PCOD8056412
Probable space group: C C
;
_chemical_formula_sum "Si O2"
_cell_formula_units_Z 32
_cell_length_a 9.687491
_cell_length_b 9.487676
_cell_length_c 22.530037
_cell_angle_alpha 90.000000
_cell_angle_beta 49.720990
_cell_angle_gamma 90.000000
_cell_volume 1579.805613
_symmetry_space_group_name_H-M "C C"
_symmetry_group_IT_number 9
_symmetry_cell_setting 'monoclinic'
loop_
_space_group_symop_operation_xyz
x,y,z
x,-y,1/2+z
1/2+x,1/2+y,z
1/2+x,1/2-y,1/2+z
loop_
_atom_site_type_symbol
_atom_site_label
_atom_site_fract_x
_atom_site_fract_y
_atom_site_fract_z
Si Si1 0.292070 0.501170 0.628040
Si Si2 0.402502 0.007237 0.683315
Si Si3 0.367238 0.684782 0.716020
Si Si4 0.784608 0.683810 0.611159
Si Si5 0.240936 0.374657 0.380876
Si Si6 0.134190 0.077189 0.456554
Si Si7 0.098087 0.112398 0.850652
Si Si8 0.462272 0.110136 0.441952
O O1 0.274419 0.578916 0.695693
O O2 0.316572 0.334991 0.633026
O O3 0.458871 0.563952 0.545755
O O4 0.110465 0.527725 0.641970
O O5 0.382484 0.063971 0.622221
O O6 0.279579 0.097907 0.762069
O O7 0.343045 0.844712 0.701046
O O8 0.575098 0.644130 0.666311
O O9 0.263818 0.665031 0.806160
O O10 0.863862 0.690274 0.523107
O O11 0.159609 0.241487 0.437145
O O12 0.426447 0.430462 0.358372
O O13 0.097650 0.496866 0.430373
O O14 0.314281 0.029894 0.442170
O O15 0.111673 0.986296 0.404015
O O16 0.078437 0.275804 0.873290
#
# Coordination Sequence:
#
# PCOD8056412 Si02
#       8
#     4   4   4   4   4   4   4   4
#     4  11  26  42  68  94 132 171 218 268 324 384
#     4  11  26  42  68  94 132 171 218 268 324 384
#     4  11  24  45  63  95 131 173 213 267 325 380
#     4  11  24  45  63  95 131 173 213 267 325 380
#     4  11  26  41  70  95 131 174 217 262 326 387
#     4  11  24  46  63  96 135 168 211 274 321 380
#     4  11  24  46  63  96 135 168 211 274 321 380
#     4  11  26  41  70  95 131 174 217 262 326 387
#
# _framework density 20.255656999999999
#
# number of rings (size 3 to 8) (size 9 to 14) (size 15 to 20)
#    0.000    1.000    5.000    0.000    7.000    4.000 
#    0.000    0.000    0.000    0.000    0.000    0.000 
#    0.000    0.000    0.000    0.000    0.000    0.000 
#
# Total GULP energy -198506.138157 kJ/mol
# GULP energy per Si atom -12406.633635 kJ/mol
# Density = 2.020955 g / cm^3
# Si number density = 20.255657 Si / 1000 Ang^3
#
#
#
# Elastic Constant Matrix: (Units=GPa)
#
#
# Indices 1 2 3 4 5 6 
#
# 1 87.9945 48.9758 20.4403 0.0000 8.9993 0.0000
# 2 48.9758 76.2835 17.7044 0.0000 0.2970 0.0000
# 3 20.4403 17.7044 56.1714 0.0000 0.9004 0.0000
# 4 0.0000 0.0000 0.0000 36.0525 0.0000 6.2435
# 5 8.9993 0.2970 0.9004 0.0000 38.5349 0.0000
# 6 0.0000 0.0000 0.0000 6.2435 0.0000 30.0473
#
#
#
# Elastic Compliance Matrix: (Units=1/GPa)
#
#
# Indices 1 2 3 4 5 6 
#
# 1 0.018860 -0.011345 -0.003219 0.000000 -0.004242 0.000000
# 2 -0.011345 0.020968 -0.002521 0.000000 0.002547 0.000000
# 3 -0.003219 -0.002521 0.019764 0.000000 0.000309 0.000000
# 4 0.000000 0.000000 0.000000 0.028773 0.000000 -0.005979
# 5 -0.004242 0.002547 0.000309 0.000000 0.026914 0.000000
# 6 0.000000 0.000000 0.000000 -0.005979 0.000000 0.034523
#
#
# Mechanical properties :
#
#
# Convention : Reuss Voigt Hill
#
# Bulk Modulus (GPa) = 39.33772 43.85448 41.59610
# Shear Modulus (GPa) = 25.98109 29.81554 27.89831
#
# Velocity S-wave (km/s) = 3.58531 3.84078 3.71524
# Velocity P-wave (km/s) = 6.04996 6.43166 6.24373
#
# Compressibility (1/GPa) = 0.02542089
#
# Stress axis : x y z
#
# Youngs Moduli (GPa) = 53.02095 47.69155 50.59740
#
# Poissons Ratio (x) = 0.54107 0.16289
# Poissons Ratio (y) = 0.60153 0.12757
# Poissons Ratio (z) = 0.17069 0.12024
#
# Static dielectric constant tensor:
#      x y z
#    x 3.892000 0.000000 0.057280 
#    y 0.000000 3.700160 0.000000 
#    z 0.057280 0.000000 3.767420 
# 
# 
# High freq. dielectric constant tensor:
#      x y z
#    x 1.801320 0.000000 0.002000 
#    y 0.000000 1.793030 0.000000 
#    z 0.002000 0.000000 1.804970 
# 
# From -- ./inp_files/29001.got.cif
#   From: 2010.06.25/outbox.cif.g09.slc.cpg/sg9_15_cif.got.tgz:29001.got - 2010.06.27 21:40:51.
