data_PCOD8056767
_publ_section_title
;
Structure prediction by ZEFSAII (Michael W. Deem and Ramdas Pophale) SiO2 
 PCOD8056767
Probable space group: C C
;
_chemical_formula_sum "Si O2"
_cell_formula_units_Z 20
_cell_length_a 5.044652
_cell_length_b 31.323856
_cell_length_c 5.051263
_cell_angle_alpha 90.000000
_cell_angle_beta 86.613631
_cell_angle_gamma 90.000000
_cell_volume 796.796526
_symmetry_space_group_name_H-M "C C"
_symmetry_group_IT_number 9
_symmetry_cell_setting 'monoclinic'
loop_
_space_group_symop_operation_xyz
x,y,z
x,-y,1/2+z
1/2+x,1/2+y,z
1/2+x,1/2-y,1/2+z
loop_
_atom_site_type_symbol
_atom_site_label
_atom_site_fract_x
_atom_site_fract_y
_atom_site_fract_z
Si Si1 0.528890 0.791304 0.340540
Si Si2 0.017336 0.803389 0.670491
Si Si3 0.060511 0.584425 0.982407
Si Si4 0.651525 0.860156 0.970744
Si Si5 0.562313 0.471920 0.517218
O O1 0.821038 0.802322 0.429565
O O2 0.476763 0.741127 0.326881
O O3 0.491385 0.816475 0.062412
O O4 0.316219 0.810428 0.558087
O O5 0.943543 0.843551 0.861901
O O6 0.018586 0.614814 0.237418
O O7 0.173248 0.609984 0.724987
O O8 0.266281 0.546586 0.025472
O O9 0.773219 0.564917 0.939009
O O10 0.603445 0.489748 0.809024
#
# Coordination Sequence:
#
# PCOD8056767 Si02
#       5
#     4   4   4   4   4
#     4  12  27  46  73 104 148 207 262 309 363 429
#     4  12  27  46  73 104 148 207 262 309 363 429
#     4  12  28  47  78 116 149 190 239 310 380 427
#     4  12  28  49  73 114 158 192 254 318 363 431
#     4  12  26  52  81 110 147 190 239 292 373 478
#
# _framework density 25.100508999999999
#
# number of rings (size 3 to 8) (size 9 to 14) (size 15 to 20)
#    0.000    0.000    4.000    4.800    2.800    3.200 
#    0.000    0.000    0.000    0.000    0.000    0.000 
#    0.000    0.000    0.000    0.000    0.000    0.000 
#
# Total GULP energy -124047.953684 kJ/mol
# GULP energy per Si atom -12404.795368 kJ/mol
# Density = 2.504338 g / cm^3
# Si number density = 25.100509 Si / 1000 Ang^3
#
#
#
# Elastic Constant Matrix: (Units=GPa)
#
#
# Indices 1 2 3 4 5 6 
#
# 1 66.0561 8.4577 8.7304 0.0000 -5.4792 0.0000
# 2 8.4577 96.1552 33.6753 0.0000 4.5721 0.0000
# 3 8.7304 33.6753 131.0461 0.0000 1.4619 0.0000
# 4 0.0000 0.0000 0.0000 57.5995 0.0000 2.1736
# 5 -5.4792 4.5721 1.4619 0.0000 31.6379 0.0000
# 6 0.0000 0.0000 0.0000 2.1736 0.0000 35.3536
#
#
#
# Elastic Compliance Matrix: (Units=1/GPa)
#
#
# Indices 1 2 3 4 5 6 
#
# 1 0.015641 -0.001251 -0.000753 0.000000 0.002924 0.000000
# 2 -0.001251 0.011602 -0.002878 0.000000 -0.001760 0.000000
# 3 -0.000753 -0.002878 0.008422 0.000000 -0.000104 0.000000
# 4 0.000000 0.000000 0.000000 0.017402 0.000000 -0.001070
# 5 0.002924 -0.001760 -0.000104 0.000000 0.032373 0.000000
# 6 0.000000 0.000000 0.000000 -0.001070 0.000000 0.028351
#
#
# Mechanical properties :
#
#
# Convention : Reuss Voigt Hill
#
# Bulk Modulus (GPa) = 38.61089 43.88712 41.24900
# Shear Modulus (GPa) = 37.82463 41.07780 39.45122
#
# Velocity S-wave (km/s) = 3.88613 4.04980 3.96881
# Velocity P-wave (km/s) = 5.96254 6.27617 6.12136
#
# Compressibility (1/GPa) = 0.02589943
#
# Stress axis : x y z
#
# Youngs Moduli (GPa) = 63.93479 86.19478 118.73826
#
# Poissons Ratio (x) = 0.10783 0.08943
# Poissons Ratio (y) = 0.07999 0.34177
# Poissons Ratio (z) = 0.04815 0.24810
#
# Static dielectric constant tensor:
#      x y z
#    x 4.328860 0.000000 -0.099730 
#    y 0.000000 4.694440 0.000000 
#    z -0.099730 0.000000 4.712510 
# 
# 
# High freq. dielectric constant tensor:
#      x y z
#    x 1.994210 0.000000 -0.008710 
#    y 0.000000 2.012740 0.000000 
#    z -0.008710 0.000000 2.019230 
# 
# From -- ./inp_files/324.got.cif
#   From: 2010.06.25/outbox.cif.g09.slc.cpg/sg9_1_cif.got.tgz:324.got - 2010.06.27 21:40:51.
