data_PCOD8056611
_publ_section_title
;
Structure prediction by ZEFSAII (Michael W. Deem and Ramdas Pophale) SiO2 
 PCOD8056611
Probable space group: C C
;
_chemical_formula_sum "Si O2"
_cell_formula_units_Z 32
_cell_length_a 19.141579
_cell_length_b 13.402458
_cell_length_c 12.247704
_cell_angle_alpha 90.000000
_cell_angle_beta 153.390675
_cell_angle_gamma 90.000000
_cell_volume 1407.351002
_symmetry_space_group_name_H-M "C C"
_symmetry_group_IT_number 9
_symmetry_cell_setting 'monoclinic'
loop_
_space_group_symop_operation_xyz
x,y,z
x,-y,1/2+z
1/2+x,1/2+y,z
1/2+x,1/2-y,1/2+z
loop_
_atom_site_type_symbol
_atom_site_label
_atom_site_fract_x
_atom_site_fract_y
_atom_site_fract_z
Si Si1 0.638400 0.379224 0.298110
Si Si2 0.395258 0.750025 0.035045
Si Si3 0.987530 0.379027 0.740708
Si Si4 0.000559 0.681283 0.015516
Si Si5 0.121452 0.819297 0.514905
Si Si6 0.236132 0.283550 0.532890
Si Si7 0.972390 0.073194 0.002449
Si Si8 0.176970 0.450119 0.588925
O O1 0.552202 0.294967 0.107360
O O2 0.600235 0.379445 0.373229
O O3 0.817064 0.353014 0.540317
O O4 0.601986 0.487988 0.199014
O O5 0.272188 0.716246 0.954962
O O6 0.549901 0.800213 0.302565
O O7 0.297223 0.819285 0.813205
O O8 0.494065 0.659974 0.120435
O O9 0.995458 0.377064 0.621349
O O10 0.092760 0.297308 0.949643
O O11 0.029205 0.491460 0.833483
O O12 0.123903 0.620460 0.114580
O O13 0.827877 0.690705 0.718403
O O14 0.996097 0.873869 0.417887
O O15 0.286365 0.388223 0.657011
O O16 0.799718 0.035909 0.791367
#
# Coordination Sequence:
#
# PCOD8056611 Si02
#       8
#     4   4   4   4   4   4   4   4
#     4  11  27  45  75 106 143 194 242 310 370 435
#     4  12  26  47  75 104 151 198 242 306 372 435
#     4  11  27  45  75 106 143 194 242 310 370 435
#     4  11  26  50  73 105 151 190 249 306 370 439
#     4  11  26  50  73 105 151 190 249 306 370 439
#     4  12  26  47  75 104 151 198 242 306 372 435
#     4  12  27  46  73 109 143 195 250 297 366 442
#     4  12  27  46  73 109 143 195 250 297 366 442
#
# _framework density 22.737753000000001
#
# number of rings (size 3 to 8) (size 9 to 14) (size 15 to 20)
#    0.000    0.500    5.000    1.500   10.500    1.000 
#    0.000    0.000    0.000    0.000    0.000    0.000 
#    0.000    0.000    0.000    0.000    0.000    0.000 
#
# Total GULP energy -198292.146866 kJ/mol
# GULP energy per Si atom -12393.259179 kJ/mol
# Density = 2.268600 g / cm^3
# Si number density = 22.737753 Si / 1000 Ang^3
#
#
#
# Elastic Constant Matrix: (Units=GPa)
#
#
# Indices 1 2 3 4 5 6 
#
# 1 137.8850 53.7843 34.1287 0.0000 -10.4143 0.0000
# 2 53.7843 79.2344 12.4071 0.0000 -16.7906 0.0000
# 3 34.1287 12.4071 102.8617 0.0000 6.1259 0.0000
# 4 0.0000 0.0000 0.0000 -8.8222 0.0000 66.3279
# 5 -10.4143 -16.7906 6.1259 0.0000 36.1055 0.0000
# 6 0.0000 0.0000 0.0000 66.3279 0.0000 -39.4402
#
#
#
# Elastic Compliance Matrix: (Units=1/GPa)
#
#
# Indices 1 2 3 4 5 6 
#
# 1 0.010551 -0.006648 -0.002723 0.000000 0.000414 0.000000
# 2 -0.006648 0.018652 -0.000451 0.000000 0.006833 0.000000
# 3 -0.002723 -0.000451 0.010849 0.000000 -0.002836 0.000000
# 4 0.000000 0.000000 0.000000 0.009735 0.000000 0.016371
# 5 0.000414 0.006833 -0.002836 0.000000 0.031475 0.000000
# 6 0.000000 0.000000 0.000000 0.016371 0.000000 0.002178
#
#
# Mechanical properties :
#
#
# Convention : Reuss Voigt Hill
#
# Bulk Modulus (GPa) = 49.00304 57.84679 53.42492
# Shear Modulus (GPa) = 45.50196 12.21269 28.85732
#
# Velocity S-wave (km/s) = 4.47829 2.32008 3.56636
# Velocity P-wave (km/s) = 6.95257 5.71604 6.36441
#
# Compressibility (1/GPa) = 0.02040690
#
# Stress axis : x y z
#
# Youngs Moduli (GPa) = 94.77908 53.61400 92.17676
#
# Poissons Ratio (x) = 0.35641 0.25104
# Poissons Ratio (y) = 0.63007 0.04157
# Poissons Ratio (z) = 0.25813 0.02418
#
# Static dielectric constant tensor:
#      x y z
#    x 4.036050 0.000000 -0.106570 
#    y 0.000000 4.198990 0.000000 
#    z -0.106570 0.000000 4.136150 
# 
# 
# High freq. dielectric constant tensor:
#      x y z
#    x 1.901040 0.000000 -0.002360 
#    y 0.000000 1.898810 0.000000 
#    z -0.002360 0.000000 1.909950 
# 
# From -- ./inp_files/19392.got.cif
#   From: 2010.06.25/outbox.cif.g09.slc.cpg/sg9_10_cif.got.tgz:19392.got - 2010.06.27 21:40:51.
