data_PCOD8056831
_publ_section_title
;
Structure prediction by ZEFSAII (Michael W. Deem and Ramdas Pophale) SiO2 
 PCOD8056831
Probable space group: P 2/M
;
_chemical_formula_sum "Si O2"
_cell_formula_units_Z 30
_cell_length_a 13.624116
_cell_length_b 28.834181
_cell_length_c 15.485856
_cell_angle_alpha 90.000000
_cell_angle_beta 19.038982
_cell_angle_gamma 90.000000
_cell_volume 1984.496201
_symmetry_space_group_name_H-M "P 2/M"
_symmetry_group_IT_number 10
_symmetry_cell_setting 'monoclinic'
loop_
_space_group_symop_operation_xyz
x,y,z
-x,y,-z
-x,-y,-z
x,-y,z
loop_
_atom_site_type_symbol
_atom_site_label
_atom_site_fract_x
_atom_site_fract_y
_atom_site_fract_z
Si Si1 0.837987 0.444792 0.219415
Si Si2 0.774231 0.904395 0.608821
Si Si3 0.826599 0.405652 0.555267
Si Si4 0.298897 0.248823 0.082319
Si Si5 0.198149 0.700023 0.420509
Si Si6 0.182166 0.554050 0.102691
Si Si7 0.718425 0.856323 0.900299
Si Si8 0.346771 0.000000 0.224299
O O1 0.500000 0.425287 0.500000
O O2 0.839526 0.500000 0.215481
O O3 0.010064 0.427288 0.161283
O O4 0.000000 0.424474 0.000000
O O5 0.000000 0.896727 0.500000
O O6 0.987955 0.890804 0.349538
O O7 0.601879 0.954352 0.759420
O O8 0.491335 0.869533 0.844007
O O9 0.713041 0.353126 0.637099
O O10 0.000000 0.412765 0.500000
O O11 0.060430 0.418112 0.285822
O O12 0.537096 0.438599 0.794537
O O13 0.181214 0.196434 0.167775
O O14 0.002630 0.280707 0.334053
O O15 0.500000 0.251939 0.000000
O O16 0.500841 0.268665 0.836150
O O17 0.000000 0.704569 0.500000
O O18 0.119433 0.500000 0.169851
O O19 0.500000 0.862447 0.000000
O O20 0.000000 0.000000 0.500000
O O21 0.500000 0.000000 0.000000
#
# Coordination Sequence:
#
# PCOD8056831 Si02
#       8
#     4   4   4   4   4   4   4   2
#     4   9  17  31  50  69  87 105 128 163 203 237
#     4   9  15  21  27  37  52  70  92 119 156 203
#     4  11  22  34  46  62  87 116 142 166 190 227
#     4   9  15  24  37  50  62  79 107 144 183 217
#     4   9  17  28  40  52  68  93 122 148 178 216
#     4  11  22  34  49  68  87 110 139 166 196 233
#     4   9  15  21  30  43  56  68  90 130 172 205
#     4  10  16  22  28  34  48  74  98 116 146 204
#
# _framework density 15.117186
#
# number of rings (size 3 to 8) (size 9 to 14) (size 15 to 20)
#    0.000    2.400    0.000    5.200    0.000    9.067 
#    0.000    0.000    0.000    0.000    0.000    0.000 
#    0.000    0.000    0.000    0.000    0.000    0.000 
#
# Total GULP energy -371664.783705 kJ/mol
# GULP energy per Si atom -12388.826124 kJ/mol
# Density = 1.508278 g / cm^3
# Si number density = 15.117186 Si / 1000 Ang^3
#
#
#
# Elastic Constant Matrix: (Units=GPa)
#
#
# Indices 1 2 3 4 5 6 
#
# 1 47.2203 18.8387 27.0951 0.0000 2.9092 0.0000
# 2 18.8387 68.2134 30.9175 0.0000 7.4464 0.0000
# 3 27.0951 30.9175 102.4462 0.0000 19.8934 0.0000
# 4 0.0000 0.0000 0.0000 24.9174 0.0000 8.1623
# 5 2.9092 7.4464 19.8934 0.0000 20.9760 0.0000
# 6 0.0000 0.0000 0.0000 8.1623 0.0000 2.6286
#
#
#
# Elastic Compliance Matrix: (Units=1/GPa)
#
#
# Indices 1 2 3 4 5 6 
#
# 1 0.026508 -0.004899 -0.006320 0.000000 0.004057 0.000000
# 2 -0.004899 0.017924 -0.003689 0.000000 -0.002184 0.000000
# 3 -0.006320 -0.003689 0.014858 0.000000 -0.011905 0.000000
# 4 0.000000 0.000000 0.000000 -2.336260 0.000000 7.254515
# 5 0.004057 -0.002184 -0.011905 0.000000 0.059177 0.000000
# 6 0.000000 0.000000 0.000000 7.254515 0.000000-22.146174
#
#
# Mechanical properties :
#
#
# Convention : Reuss Voigt Hill
#
# Bulk Modulus (GPa) = 33.92976 41.28694 37.60835
# Shear Modulus (GPa) = -0.20556 19.10630 9.45037
#
# Velocity S-wave (km/s) = -0.36915 3.55896 2.50299
# Velocity P-wave (km/s) = 4.72351 6.65273 5.76933
#
# Compressibility (1/GPa) = 0.02947265
#
# Stress axis : x y z
#
# Youngs Moduli (GPa) = 37.72376 55.79262 67.30411
#
# Poissons Ratio (x) = 0.27334 0.42538
# Poissons Ratio (y) = 0.18482 0.24830
# Poissons Ratio (z) = 0.23842 0.20583
#
# Static dielectric constant tensor:
#      x y z
#    x 2.431320 0.000000 0.296960 
#    y 0.000000 200.079710 0.000000 
#    z 0.296960 0.000000 3.180330 
# 
# 
# High freq. dielectric constant tensor:
#      x y z
#    x 1.496870 0.000000 0.036450 
#    y 0.000000 1.576640 0.000000 
#    z 0.036450 0.000000 1.598640 
# 
# From -- ./inp_files/65544.got.cif
#   From: 2010.06.25/outbox.cif.g09.slc.cpg/sg10_33_cif.got.tgz:65544.got - 2010.06.27 22:07:45.
