data_PCOD8056313
_publ_section_title
;
Structure prediction by ZEFSAII (Michael W. Deem and Ramdas Pophale) SiO2 
 PCOD8056313
Probable space group: C C
;
_chemical_formula_sum "Si O2"
_cell_formula_units_Z 32
_cell_length_a 13.868790
_cell_length_b 19.479369
_cell_length_c 8.832115
_cell_angle_alpha 90.000000
_cell_angle_beta 143.054592
_cell_angle_gamma 90.000000
_cell_volume 1434.139906
_symmetry_space_group_name_H-M "C C"
_symmetry_group_IT_number 9
_symmetry_cell_setting 'monoclinic'
loop_
_space_group_symop_operation_xyz
x,y,z
x,-y,1/2+z
1/2+x,1/2+y,z
1/2+x,1/2-y,1/2+z
loop_
_atom_site_type_symbol
_atom_site_label
_atom_site_fract_x
_atom_site_fract_y
_atom_site_fract_z
Si Si1 0.094440 0.516798 0.370280
Si Si2 0.788132 0.273291 0.818942
Si Si3 0.364238 0.023566 0.821056
Si Si4 0.107975 0.265319 0.364754
Si Si5 0.642270 0.638120 0.612452
Si Si6 0.161101 0.893316 0.486978
Si Si7 0.333585 0.632151 0.748911
Si Si8 0.815474 0.103886 0.071717
O O1 0.173929 0.591701 0.493642
O O2 0.228694 0.468793 0.466197
O O3 0.035335 0.483445 0.452747
O O4 0.924171 0.518883 0.069309
O O5 0.628855 0.266118 0.721305
O O6 0.786689 0.344780 0.730787
O O7 0.797207 0.213534 0.702544
O O8 0.917292 0.275515 0.118626
O O9 0.281874 0.097643 0.697622
O O10 0.229438 0.968852 0.602252
O O11 0.148169 0.216133 0.557585
O O12 0.200991 0.336879 0.495516
O O13 0.666351 0.632145 0.821501
O O14 0.472965 0.601332 0.371062
O O15 0.981438 0.887514 0.326639
O O16 0.372869 0.615482 0.972616
#
# Coordination Sequence:
#
# PCOD8056313 Si02
#       8
#     4   4   4   4   4   4   4   4
#     4  12  26  46  71 104 137 183 234 289 342 408
#     4  11  23  46  74  99 137 185 228 280 347 418
#     4  12  28  45  69 103 140 182 232 291 344 406
#     4  11  23  46  72 101 133 187 230 280 347 413
#     4  12  27  45  68 108 142 178 230 289 345 409
#     4  12  27  46  71 103 141 183 231 287 343 409
#     4  11  25  46  71 102 138 186 231 276 350 413
#     4  11  25  46  72 100 142 184 230 280 346 420
#
# _framework density 22.313026000000001
#
# number of rings (size 3 to 8) (size 9 to 14) (size 15 to 20)
#    0.000    0.500    6.250    1.500    8.750    3.000 
#    2.250    0.000    0.000    0.000    0.000    0.000 
#    0.000    0.000    0.000    0.000    0.000    0.000 
#
# Total GULP energy -198356.854050 kJ/mol
# GULP energy per Si atom -12397.303378 kJ/mol
# Density = 2.226224 g / cm^3
# Si number density = 22.313026 Si / 1000 Ang^3
#
#
#
# Elastic Constant Matrix: (Units=GPa)
#
#
# Indices 1 2 3 4 5 6 
#
# 1 85.5640 29.6835 17.3099 0.0000 5.4503 0.0000
# 2 29.6835 83.4192 39.4082 0.0000 -0.9260 0.0000
# 3 17.3099 39.4082 96.7663 0.0000 -7.8019 0.0000
# 4 0.0000 0.0000 0.0000 42.7615 0.0000 1.8535
# 5 5.4503 -0.9260 -7.8019 0.0000 33.6393 0.0000
# 6 0.0000 0.0000 0.0000 1.8535 0.0000 30.8981
#
#
#
# Elastic Compliance Matrix: (Units=1/GPa)
#
#
# Indices 1 2 3 4 5 6 
#
# 1 0.013562 -0.004472 -0.000807 0.000000 -0.002508 0.000000
# 2 -0.004472 0.016352 -0.005875 0.000000 -0.000188 0.000000
# 3 -0.000807 -0.005875 0.013114 0.000000 0.003010 0.000000
# 4 0.000000 0.000000 0.000000 0.023446 0.000000 -0.001406
# 5 -0.002508 -0.000188 0.003010 0.000000 0.030826 0.000000
# 6 0.000000 0.000000 0.000000 -0.001406 0.000000 0.032449
#
#
# Mechanical properties :
#
#
# Convention : Reuss Voigt Hill
#
# Bulk Modulus (GPa) = 48.26242 48.72810 48.49526
# Shear Modulus (GPa) = 31.45378 33.41629 32.43503
#
# Velocity S-wave (km/s) = 3.75862 3.87410 3.81680
# Velocity P-wave (km/s) = 6.36498 6.47282 6.41912
#
# Compressibility (1/GPa) = 0.02072006
#
# Stress axis : x y z
#
# Youngs Moduli (GPa) = 73.73737 61.15378 76.25648
#
# Poissons Ratio (x) = 0.27351 0.06152
# Poissons Ratio (y) = 0.32979 0.44797
# Poissons Ratio (z) = 0.05949 0.35925
#
# Static dielectric constant tensor:
#      x y z
#    x 3.996610 0.000000 0.081540 
#    y 0.000000 4.059450 0.000000 
#    z 0.081540 0.000000 3.951080 
# 
# 
# High freq. dielectric constant tensor:
#      x y z
#    x 1.886760 0.000000 0.011200 
#    y 0.000000 1.879650 0.000000 
#    z 0.011200 0.000000 1.882210 
# 
# From -- ./inp_files/9961.got.cif
#   From: 2010.06.25/outbox.cif.g09.slc.cpg/sg9_5_cif.got.tgz:9961.got - 2010.06.27 21:40:51.
