data_PCOD8056933
_publ_section_title
;
Structure prediction by ZEFSAII (Michael W. Deem and Ramdas Pophale) SiO2 
 PCOD8056933
Probable space group: P 2/M
;
_chemical_formula_sum "Si O2"
_cell_formula_units_Z 26
_cell_length_a 5.281499
_cell_length_b 20.773654
_cell_length_c 14.497031
_cell_angle_alpha 90.000000
_cell_angle_beta 60.285942
_cell_angle_gamma 90.000000
_cell_volume 1381.414303
_symmetry_space_group_name_H-M "P 2/M"
_symmetry_group_IT_number 10
_symmetry_cell_setting 'monoclinic'
loop_
_space_group_symop_operation_xyz
x,y,z
-x,y,-z
-x,-y,-z
x,-y,z
loop_
_atom_site_type_symbol
_atom_site_label
_atom_site_fract_x
_atom_site_fract_y
_atom_site_fract_z
Si Si1 0.165285 0.146070 0.373640
Si Si2 0.183917 0.349471 0.880477
Si Si3 0.453349 0.271544 0.312061
Si Si4 0.240037 0.427886 0.174323
Si Si5 0.334580 0.072110 0.625818
Si Si6 0.035959 0.387259 0.395925
Si Si7 0.500000 0.294658 0.500000
O O1 0.245888 0.215006 0.311222
O O2 0.463848 0.106462 0.334397
O O3 0.000000 0.156698 0.500000
O O4 0.968068 0.109911 0.334021
O O5 0.271077 0.285939 0.804434
O O6 0.466007 0.386647 0.869761
O O7 0.982182 0.397103 0.857967
O O8 0.000000 0.323263 0.000000
O O9 0.319416 0.342348 0.347666
O O10 0.507978 0.248311 0.408543
O O11 0.318527 0.500000 0.127528
O O12 0.069995 0.434270 0.303130
O O13 0.500000 0.068160 0.500000
O O14 0.264116 0.000000 0.673445
O O15 0.000000 0.425730 0.500000
O O16 0.772192 0.339386 0.432547
#
# Coordination Sequence:
#
# PCOD8056933 Si02
#       7
#     4   4   4   4   4   4   2
#     4  10  19  28  48  74 101 139 181 214 251 306
#     4  11  24  42  60  79 108 140 173 226 283 322
#     4  10  21  32  53  79 105 135 179 221 270 319
#     4  11  23  40  59  82 105 137 183 221 264 329
#     4   9  18  30  43  66 107 149 180 207 246 297
#     4   9  19  33  51  77 109 142 168 217 272 321
#     4  10  16  32  53  70 107 136 168 212 266 320
#
# _framework density 18.821290000000001
#
# number of rings (size 3 to 8) (size 9 to 14) (size 15 to 20)
#    0.000    2.000    1.538    2.769    5.385    4.000 
#    0.000    0.385    0.000    0.000    0.000    0.000 
#    0.000    3.692    0.000    0.000    0.000    0.000 
#
# Total GULP energy -322157.519674 kJ/mol
# GULP energy per Si atom -12390.673834 kJ/mol
# Density = 1.877845 g / cm^3
# Si number density = 18.821290 Si / 1000 Ang^3
#
#
#
# Elastic Constant Matrix: (Units=GPa)
#
#
# Indices 1 2 3 4 5 6 
#
# 1 105.3413 27.1594 26.5484 0.0000 -7.2207 0.0000
# 2 27.1594 89.1966 32.4201 0.0000 -3.1970 0.0000
# 3 26.5484 32.4201 103.9776 0.0000 -5.4265 0.0000
# 4 0.0000 0.0000 0.0000 6.9816 0.0000 -5.5449
# 5 -7.2207 -3.1970 -5.4265 0.0000 16.5508 0.0000
# 6 0.0000 0.0000 0.0000 -5.5449 0.0000 25.9860
#
#
#
# Elastic Compliance Matrix: (Units=1/GPa)
#
#
# Indices 1 2 3 4 5 6 
#
# 1 0.010845 -0.002520 -0.001793 0.000000 0.003657 0.000000
# 2 -0.002520 0.013252 -0.003472 0.000000 0.000322 0.000000
# 3 -0.001793 -0.003472 0.011275 0.000000 0.002244 0.000000
# 4 0.000000 0.000000 0.000000 0.172460 0.000000 0.036799
# 5 0.003657 0.000322 0.002244 0.000000 0.062813 0.000000
# 6 0.000000 0.000000 0.000000 0.036799 0.000000 0.046334
#
#
# Mechanical properties :
#
#
# Convention : Reuss Voigt Hill
#
# Bulk Modulus (GPa) = 50.49551 52.30792 51.40172
# Shear Modulus (GPa) = 14.74281 24.06287 19.40284
#
# Velocity S-wave (km/s) = 2.80180 3.57948 3.21424
# Velocity P-wave (km/s) = 6.11179 6.70342 6.41443
#
# Compressibility (1/GPa) = 0.01980374
#
# Stress axis : x y z
#
# Youngs Moduli (GPa) = 92.20841 75.46146 88.69373
#
# Poissons Ratio (x) = 0.19013 0.15899
# Poissons Ratio (y) = 0.23233 0.30792
# Poissons Ratio (z) = 0.16529 0.26198
#
# Static dielectric constant tensor:
#      x y z
#    x 3.646080 0.000000 0.114630 
#    y 0.000000 3.295370 0.000000 
#    z 0.114630 0.000000 3.414860 
# 
# 
# High freq. dielectric constant tensor:
#      x y z
#    x 1.746690 0.000000 -0.007020 
#    y 0.000000 1.710580 0.000000 
#    z -0.007020 0.000000 1.692870 
# 
# From -- ./inp_files/59610.got.cif
#   From: 2010.06.25/outbox.cif.g09.slc.cpg/sg10_30_cif.got.tgz:59610.got - 2010.06.27 22:07:45.
