data_PCOD8056706
_publ_section_title
;
Structure prediction by ZEFSAII (Michael W. Deem and Ramdas Pophale) SiO2 
 PCOD8056706
Probable space group: C C
;
_chemical_formula_sum "Si O2"
_cell_formula_units_Z 32
_cell_length_a 12.377852
_cell_length_b 19.150303
_cell_length_c 8.752456
_cell_angle_alpha 90.000000
_cell_angle_beta 44.998412
_cell_angle_gamma 90.000000
_cell_volume 1466.978796
_symmetry_space_group_name_H-M "C C"
_symmetry_group_IT_number 9
_symmetry_cell_setting 'monoclinic'
loop_
_space_group_symop_operation_xyz
x,y,z
x,-y,1/2+z
1/2+x,1/2+y,z
1/2+x,1/2-y,1/2+z
loop_
_atom_site_type_symbol
_atom_site_label
_atom_site_fract_x
_atom_site_fract_y
_atom_site_fract_z
Si Si1 0.879210 0.809572 0.428400
Si Si2 0.271104 0.940404 0.310473
Si Si3 0.497435 0.309617 0.976091
Si Si4 0.694495 0.793015 0.101767
Si Si5 0.593760 0.542906 0.290633
Si Si6 0.782486 0.043013 0.114460
Si Si7 0.105149 0.440434 0.094723
Si Si8 0.182039 0.792920 0.302975
O O1 0.800652 0.885333 0.503246
O O2 0.756217 0.750827 0.592100
O O3 0.009180 0.809884 0.428408
O O4 0.938309 0.790992 0.202243
O O5 0.140977 0.940222 0.570452
O O6 0.438104 0.959037 0.202662
O O7 0.275026 0.864572 0.228360
O O8 0.230406 0.999010 0.227865
O O9 0.620592 0.250959 0.812159
O O10 0.575906 0.385400 0.901450
O O11 0.367455 0.309895 0.976072
O O12 0.601433 0.864698 0.177142
O O13 0.688103 0.750196 0.952343
O O14 0.438055 0.500003 0.452766
O O15 0.735084 0.059947 0.334749
O O16 0.645889 0.999190 0.176927
#
# Coordination Sequence:
#
# PCOD8056706 Si02
#       8
#     4   4   4   4   4   4   4   4
#     4  12  26  47  71 109 145 192 244 306 365 436
#     4  12  26  47  71 109 145 192 244 306 365 436
#     4  12  26  47  71 109 145 192 244 306 365 436
#     4  12  25  46  75 104 146 193 246 296 369 440
#     4  12  25  46  75 104 146 193 246 296 369 440
#     4  12  25  46  75 104 146 193 246 296 369 440
#     4  12  26  47  71 109 145 192 244 306 365 436
#     4  12  25  46  75 104 146 193 246 296 369 440
#
# _framework density 21.813538000000001
#
# number of rings (size 3 to 8) (size 9 to 14) (size 15 to 20)
#    0.000    0.000    5.000    6.000    0.000    0.000 
#    0.000    0.000    0.000    0.000    0.000    0.000 
#    0.000    0.000    0.000    0.000    0.000    0.000 
#
# Total GULP energy -198571.626157 kJ/mol
# GULP energy per Si atom -12410.726635 kJ/mol
# Density = 2.176389 g / cm^3
# Si number density = 21.813538 Si / 1000 Ang^3
#
#
#
# Elastic Constant Matrix: (Units=GPa)
#
#
# Indices 1 2 3 4 5 6 
#
# 1 102.9825 46.4146 -7.6746 0.0000 -12.7948 0.0000
# 2 46.4146 179.8419 46.4176 0.0000 0.0265 0.0000
# 3 -7.6746 46.4176 102.9590 0.0000 12.8213 0.0000
# 4 0.0000 0.0000 0.0000 35.5444 0.0000 0.0043
# 5 -12.7948 0.0265 12.8213 0.0000 41.3778 0.0000
# 6 0.0000 0.0000 0.0000 0.0043 0.0000 35.5434
#
#
#
# Elastic Compliance Matrix: (Units=1/GPa)
#
#
# Indices 1 2 3 4 5 6 
#
# 1 0.011875 -0.003618 0.002141 0.000000 0.003011 0.000000
# 2 -0.003618 0.007428 -0.003618 0.000000 -0.000002 0.000000
# 3 0.002141 -0.003618 0.011879 0.000000 -0.003016 0.000000
# 4 0.000000 0.000000 0.000000 0.028134 0.000000 -0.000003
# 5 0.003011 -0.000002 -0.003016 0.000000 0.026033 0.000000
# 6 0.000000 0.000000 0.000000 -0.000003 0.000000 0.028135
#
#
# Mechanical properties :
#
#
# Convention : Reuss Voigt Hill
#
# Bulk Modulus (GPa) = 47.63678 61.78872 54.71275
# Shear Modulus (GPa) = 38.26434 42.53485 40.39960
#
# Velocity S-wave (km/s) = 4.19281 4.42059 4.30820
# Velocity P-wave (km/s) = 6.73239 7.37854 7.06286
#
# Compressibility (1/GPa) = 0.02099218
#
# Stress axis : x y z
#
# Youngs Moduli (GPa) = 84.21373 134.62593 84.18186
#
# Poissons Ratio (x) = 0.48704 -0.18025
# Poissons Ratio (y) = 0.30466 0.30459
# Poissons Ratio (z) = -0.18032 0.48710
#
# Static dielectric constant tensor:
#      x y z
#    x 3.968770 0.000000 -0.000050 
#    y 0.000000 4.131550 0.000000 
#    z -0.000050 0.000000 3.968940 
# 
# 
# High freq. dielectric constant tensor:
#      x y z
#    x 1.863700 0.000000 0.000000 
#    y 0.000000 1.874220 0.000000 
#    z 0.000000 0.000000 1.863700 
# 
# From -- ./inp_files/8376.got.cif
#   From: 2010.06.25/outbox.cif.g09.slc.cpg/sg9_5_cif.got.tgz:8376.got - 2010.06.27 21:40:51.
