data_PCOD8056299
_publ_section_title
;
Structure prediction by ZEFSAII (Michael W. Deem and Ramdas Pophale) SiO2 
 PCOD8056299
Probable space group: C C
;
_chemical_formula_sum "Si O2"
_cell_formula_units_Z 32
_cell_length_a 8.779815
_cell_length_b 12.967964
_cell_length_c 15.591829
_cell_angle_alpha 90.000000
_cell_angle_beta 52.530724
_cell_angle_gamma 90.000000
_cell_volume 1408.962641
_symmetry_space_group_name_H-M "C C"
_symmetry_group_IT_number 9
_symmetry_cell_setting 'monoclinic'
loop_
_space_group_symop_operation_xyz
x,y,z
x,-y,1/2+z
1/2+x,1/2+y,z
1/2+x,1/2-y,1/2+z
loop_
_atom_site_type_symbol
_atom_site_label
_atom_site_fract_x
_atom_site_fract_y
_atom_site_fract_z
Si Si1 0.700240 0.541511 0.552740
Si Si2 0.493841 0.635689 0.935252
Si Si3 0.643631 0.721784 0.301043
Si Si4 0.614146 0.050497 0.150645
Si Si5 0.196314 0.007764 0.238919
Si Si6 0.912374 0.675523 0.356768
Si Si7 0.830019 0.143812 0.609457
Si Si8 0.275296 0.811043 0.480506
O O1 0.658137 0.563192 0.667942
O O2 0.876271 0.607476 0.454814
O O3 0.520340 0.572940 0.554301
O O4 0.756417 0.421116 0.532490
O O5 0.631538 0.546278 0.850128
O O6 0.474973 0.711881 0.862482
O O7 0.591639 0.695904 0.980981
O O8 0.284542 0.593488 0.032484
O O9 0.580906 0.616782 0.272623
O O10 0.714866 0.687948 0.370901
O O11 0.820111 0.778926 0.193216
O O12 0.469817 0.803467 0.358631
O O13 0.582411 0.125348 0.242770
O O14 0.419023 0.041092 0.163885
O O15 0.656833 0.936574 0.169751
O O16 0.800085 0.212854 0.534650
#
# Coordination Sequence:
#
# PCOD8056299 Si02
#       8
#     4   4   4   4   4   4   4   4
#     4  12  25  48  72 112 150 197 256 317 390 469
#     4  12  27  47  75 111 154 201 257 323 392 467
#     4  11  23  45  75 105 144 200 249 308 394 450
#     4  11  27  48  73 108 153 198 255 325 382 465
#     4  11  26  48  74 112 156 197 256 322 390 467
#     4  11  27  45  73 107 153 195 255 320 387 464
#     4  12  24  45  74 108 148 195 253 316 382 467
#     4  12  25  46  74 107 148 197 253 315 385 465
#
# _framework density 22.711746000000002
#
# number of rings (size 3 to 8) (size 9 to 14) (size 15 to 20)
#    0.000    0.500    3.750    4.500    8.750    2.000 
#    2.250    0.000    0.000    0.000    0.000    0.000 
#    0.000    0.000    0.000    0.000    0.000    0.000 
#
# Total GULP energy -198323.182109 kJ/mol
# GULP energy per Si atom -12395.198882 kJ/mol
# Density = 2.266005 g / cm^3
# Si number density = 22.711746 Si / 1000 Ang^3
#
#
#
# Elastic Constant Matrix: (Units=GPa)
#
#
# Indices 1 2 3 4 5 6 
#
# 1 90.0479 42.4125 50.2248 -0.0001 -3.6152 0.0000
# 2 42.4125 131.5706 51.7728 0.0000 -2.9872 0.0000
# 3 50.2248 51.7728 123.4599 -0.0001 -2.4019 0.0000
# 4 -0.0001 0.0000 -0.0001 50.6063 0.0001 6.0076
# 5 -3.6152 -2.9872 -2.4019 0.0001 34.4682 0.0000
# 6 0.0000 0.0000 0.0000 6.0076 0.0000 40.6362
#
#
#
# Elastic Compliance Matrix: (Units=1/GPa)
#
#
# Indices 1 2 3 4 5 6 
#
# 1 0.015310 -0.002957 -0.004968 0.000000 0.001003 0.000000
# 2 -0.002957 0.009683 -0.002851 0.000000 0.000330 0.000000
# 3 -0.004968 -0.002851 0.011317 0.000000 0.000020 0.000000
# 4 0.000000 0.000000 0.000000 0.020113 0.000000 -0.002974
# 5 0.001003 0.000330 0.000020 0.000000 0.029148 0.000000
# 6 0.000000 0.000000 0.000000 -0.002974 0.000000 0.025048
#
#
# Mechanical properties :
#
#
# Convention : Reuss Voigt Hill
#
# Bulk Modulus (GPa) = 67.76887 70.43317 69.10102
# Shear Modulus (GPa) = 36.47204 38.52002 37.49603
#
# Velocity S-wave (km/s) = 4.01167 4.12277 4.06760
# Velocity P-wave (km/s) = 7.16669 7.33090 7.24926
#
# Compressibility (1/GPa) = 0.01475604
#
# Stress axis : x y z
#
# Youngs Moduli (GPa) = 65.31878 103.27164 88.36238
#
# Poissons Ratio (x) = 0.30540 0.43902
# Poissons Ratio (y) = 0.19317 0.25194
# Poissons Ratio (z) = 0.32453 0.29444
#
# Static dielectric constant tensor:
#      x y z
#    x 3.785580 0.000000 0.022680 
#    y 0.000000 4.249010 0.000000 
#    z 0.022680 0.000000 4.108040 
# 
# 
# High freq. dielectric constant tensor:
#      x y z
#    x 1.875460 0.000000 0.004350 
#    y 0.000000 1.913490 0.000000 
#    z 0.004350 0.000000 1.908730 
# 
# From -- ./inp_files/23358.got.cif
#   From: 2010.06.25/outbox.cif.g09.slc.cpg/sg9_12_cif.got.tgz:23358.got - 2010.06.27 21:40:51.
