data_PCOD8056156
_publ_section_title
;
Structure prediction by ZEFSAII (Michael W. Deem and Ramdas Pophale) SiO2 
 PCOD8056156
Probable space group: C C
;
_chemical_formula_sum "Si O2"
_cell_formula_units_Z 24
_cell_length_a 8.729618
_cell_length_b 17.641888
_cell_length_c 7.430159
_cell_angle_alpha 90.000000
_cell_angle_beta 50.554532
_cell_angle_gamma 90.000000
_cell_volume 883.659333
_symmetry_space_group_name_H-M "C C"
_symmetry_group_IT_number 9
_symmetry_cell_setting 'monoclinic'
loop_
_space_group_symop_operation_xyz
x,y,z
x,-y,1/2+z
1/2+x,1/2+y,z
1/2+x,1/2-y,1/2+z
loop_
_atom_site_type_symbol
_atom_site_label
_atom_site_fract_x
_atom_site_fract_y
_atom_site_fract_z
Si Si1 0.768960 0.823441 0.647440
Si Si2 0.182474 0.665434 0.721689
Si Si3 0.068140 0.835243 0.757561
Si Si4 0.949621 0.591768 0.220996
Si Si5 0.627345 0.342587 0.166337
Si Si6 0.861147 0.416974 0.293994
O O1 0.914990 0.824569 0.706090
O O2 0.580313 0.880774 0.797307
O O3 0.687969 0.739654 0.686664
O O4 0.889612 0.845900 0.370799
O O5 0.173536 0.756310 0.731872
O O6 0.416594 0.641725 0.534147
O O7 0.071403 0.621826 0.962754
O O8 0.057052 0.636534 0.640972
O O9 0.231738 0.897549 0.573867
O O10 0.728594 0.633791 0.396294
O O11 0.930978 0.502882 0.247434
O O12 0.725397 0.405866 0.221789
#
# Coordination Sequence:
#
# PCOD8056156 Si02
#       6
#     4   4   4   4   4   4
#     4  11  22  42  74 104 135 198 257 290 356 453
#     4  12  24  42  75 110 146 190 252 308 364 436
#     4  11  23  45  78 102 141 199 257 294 363 458
#     4  12  28  42  69 114 159 179 242 324 376 417
#     4  11  22  43  74 101 141 198 245 294 363 451
#     4  11  25  48  70 105 150 196 243 304 374 437
#
# _framework density 27.159787999999999
#
# number of rings (size 3 to 8) (size 9 to 14) (size 15 to 20)
#    0.000    0.667    5.000    3.000    2.333    2.667 
#    0.000    3.333    0.000    0.000    0.000    0.000 
#    0.000    0.000    0.000    0.000    0.000    0.000 
#
# Total GULP energy -148778.443105 kJ/mol
# GULP energy per Si atom -12398.203592 kJ/mol
# Density = 2.709797 g / cm^3
# Si number density = 27.159788 Si / 1000 Ang^3
#
#
#
# Elastic Constant Matrix: (Units=GPa)
#
#
# Indices 1 2 3 4 5 6 
#
# 1 69.0063 36.5509 40.7092 0.0000 -36.0963 0.0000
# 2 36.5509 181.5652 46.7845 0.0000 -8.4296 0.0000
# 3 40.7092 46.7845 151.3954 0.0000 -27.2678 0.0000
# 4 0.0000 0.0000 0.0000 43.7775 0.0000 -2.5493
# 5 -36.0963 -8.4296 -27.2678 0.0000 59.5067 0.0000
# 6 0.0000 0.0000 0.0000 -2.5493 0.0000 35.5128
#
#
#
# Elastic Compliance Matrix: (Units=1/GPa)
#
#
# Indices 1 2 3 4 5 6 
#
# 1 0.025338 -0.003634 -0.003286 0.000000 0.013349 0.000000
# 2 -0.003634 0.006505 -0.001378 0.000000 -0.001914 0.000000
# 3 -0.003286 -0.001378 0.008197 0.000000 0.001568 0.000000
# 4 0.000000 0.000000 0.000000 0.022939 0.000000 0.001647
# 5 0.013349 -0.001914 0.001568 0.000000 0.025350 0.000000
# 6 0.000000 0.000000 0.000000 0.001647 0.000000 0.028277
#
#
# Mechanical properties :
#
#
# Convention : Reuss Voigt Hill
#
# Bulk Modulus (GPa) = 42.65471 72.22847 57.44159
# Shear Modulus (GPa) = 35.45707 46.28754 40.87231
#
# Velocity S-wave (km/s) = 3.61709 4.13276 3.88349
# Velocity P-wave (km/s) = 5.76052 7.03026 6.42683
#
# Compressibility (1/GPa) = 0.02344407
#
# Stress axis : x y z
#
# Youngs Moduli (GPa) = 39.46717 153.71728 121.99734
#
# Poissons Ratio (x) = 0.55865 0.40085
# Poissons Ratio (y) = 0.14344 0.16810
# Poissons Ratio (z) = 0.12968 0.21181
#
# Static dielectric constant tensor:
#      x y z
#    x 6.421160 0.000000 -0.284100 
#    y 0.000000 4.424720 0.000000 
#    z -0.284100 0.000000 6.494030 
# 
# 
# High freq. dielectric constant tensor:
#      x y z
#    x 2.154980 0.000000 0.002670 
#    y 0.000000 2.052080 0.000000 
#    z 0.002670 0.000000 2.142970 
# 
# From -- ./inp_files/7831.got.cif
#   From: 2010.06.25/outbox.cif.g09.slc.cpg/sg9_4_cif.got.tgz:7831.got - 2010.06.27 21:40:51.
