data_PCOD8056952
_publ_section_title
;
Structure prediction by ZEFSAII (Michael W. Deem and Ramdas Pophale) SiO2 
 PCOD8056952
Probable space group: P 2/M
;
_chemical_formula_sum "Si O2"
_cell_formula_units_Z 32
_cell_length_a 14.432447
_cell_length_b 8.860183
_cell_length_c 23.574957
_cell_angle_alpha 90.000000
_cell_angle_beta 44.181141
_cell_angle_gamma 90.000000
_cell_volume 2100.981202
_symmetry_space_group_name_H-M "P 2/M"
_symmetry_group_IT_number 10
_symmetry_cell_setting 'monoclinic'
loop_
_space_group_symop_operation_xyz
x,y,z
-x,y,-z
-x,-y,-z
x,-y,z
loop_
_atom_site_type_symbol
_atom_site_label
_atom_site_fract_x
_atom_site_fract_y
_atom_site_fract_z
Si Si1 0.078344 0.675255 0.687953
Si Si2 0.749775 0.821247 0.975810
Si Si3 0.557817 0.322480 0.397165
Si Si4 0.025166 0.320448 0.052389
Si Si5 0.825536 0.677273 0.232994
Si Si6 0.212581 0.674108 0.160559
Si Si7 0.537793 0.166687 0.917894
Si Si8 0.321374 0.178129 0.543533
O O1 0.117005 0.500000 0.665375
O O2 0.109169 0.738560 0.737602
O O3 0.167638 0.769940 0.603328
O O4 0.922295 0.701886 0.744323
O O5 0.835609 0.745588 0.987349
O O6 0.796109 0.765574 0.893888
O O7 0.767100 0.000000 0.969365
O O8 0.595147 0.776166 0.056008
O O9 0.528802 0.500000 0.412528
O O10 0.666933 0.284155 0.300170
O O11 0.418187 0.232398 0.449164
O O12 0.625036 0.268404 0.425825
O O13 0.034167 0.500000 0.050530
O O14 0.904235 0.255942 0.144419
O O15 0.000000 0.261865 0.000000
O O16 0.846960 0.500000 0.223290
O O17 0.228402 0.500000 0.137125
O O18 0.336126 0.723715 0.146157
O O19 0.578719 0.000000 0.878618
O O20 0.500000 0.160308 0.000000
O O21 0.332116 0.000000 0.546756
#
# Coordination Sequence:
#
# PCOD8056952 Si02
#       8
#     4   4   4   4   4   4   4   4
#     4   9  16  26  38  52  77 106 131 157 193 237
#     4  10  19  30  42  56  79 107 133 165 206 249
#     4   9  15  25  38  48  68  99 129 158 193 235
#     4  10  19  31  46  62  79 101 136 180 214 238
#     4   8  14  26  40  54  71  97 130 164 200 239
#     4  10  17  26  42  61  79 102 136 170 197 235
#     4   8  16  28  39  55  79 104 130 161 200 242
#     4  10  17  23  33  53  75  94 127 163 191 225
#
# _framework density 15.230979
#
# number of rings (size 3 to 8) (size 9 to 14) (size 15 to 20)
#    0.000    2.750    1.250    4.500    0.000    4.000 
#    0.000    0.625    0.000    0.000    0.000    0.000 
#    0.000    0.000    0.000    1.125    0.000   23.500 
#
# Total GULP energy -396454.138498 kJ/mol
# GULP energy per Si atom -12389.191828 kJ/mol
# Density = 1.519631 g / cm^3
# Si number density = 15.230979 Si / 1000 Ang^3
#
#
#
# Elastic Constant Matrix: (Units=GPa)
#
#
# Indices 1 2 3 4 5 6 
#
# 1 64.0250 22.7491 47.3928 0.0000 -17.9398 0.0000
# 2 22.7491 51.3544 35.1910 0.0000 -14.2546 0.0000
# 3 47.3928 35.1910 105.3976 0.0000 -30.0316 0.0000
# 4 0.0000 0.0000 0.0000 13.0228 0.0000 -8.5773
# 5 -17.9398 -14.2546 -30.0316 0.0000 21.1907 0.0000
# 6 0.0000 0.0000 0.0000 -8.5773 0.0000 15.6328
#
#
#
# Elastic Compliance Matrix: (Units=1/GPa)
#
#
# Indices 1 2 3 4 5 6 
#
# 1 0.024764 -0.003528 -0.007816 0.000000 0.007514 0.000000
# 2 -0.003528 0.026687 -0.005133 0.000000 0.007691 0.000000
# 3 -0.007816 -0.005133 0.019871 0.000000 0.018092 0.000000
# 4 0.000000 0.000000 0.000000 0.120240 0.000000 0.065972
# 5 0.007514 0.007691 0.018092 0.000000 0.084366 0.000000
# 6 0.000000 0.000000 0.000000 0.065972 0.000000 0.100165
#
#
# Mechanical properties :
#
#
# Convention : Reuss Voigt Hill
#
# Bulk Modulus (GPa) = 26.06282 47.93808 37.00045
# Shear Modulus (GPa) = 11.85294 17.66553 14.75924
#
# Velocity S-wave (km/s) = 2.79267 3.40934 3.11630
# Velocity P-wave (km/s) = 5.24858 6.85861 6.10688
#
# Compressibility (1/GPa) = 0.03836884
#
# Stress axis : x y z
#
# Youngs Moduli (GPa) = 40.38180 37.47074 50.32397
#
# Poissons Ratio (x) = 0.13220 0.39333
# Poissons Ratio (y) = 0.14247 0.25830
# Poissons Ratio (z) = 0.31563 0.19232
#
# Static dielectric constant tensor:
#      x y z
#    x 2.708450 0.000000 -0.501680 
#    y 0.000000 2.856170 0.000000 
#    z -0.501680 0.000000 3.541230 
# 
# 
# High freq. dielectric constant tensor:
#      x y z
#    x 1.521260 0.000000 -0.046960 
#    y 0.000000 1.582420 0.000000 
#    z -0.046960 0.000000 1.581900 
# 
# From -- ./inp_files/92956.got.cif
#   From: 2010.06.25/outbox.cif.g09.slc.cpg/sg10_47_cif.got.tgz:92956.got - 2010.06.27 22:07:45.
