data_PCOD8056370
_publ_section_title
;
Structure prediction by ZEFSAII (Michael W. Deem and Ramdas Pophale) SiO2 
 PCOD8056370
Probable space group: C C
;
_chemical_formula_sum "Si O2"
_cell_formula_units_Z 28
_cell_length_a 7.020405
_cell_length_b 19.436464
_cell_length_c 9.945095
_cell_angle_alpha 90.000000
_cell_angle_beta 64.093432
_cell_angle_gamma 90.000000
_cell_volume 1220.655879
_symmetry_space_group_name_H-M "C C"
_symmetry_group_IT_number 9
_symmetry_cell_setting 'monoclinic'
loop_
_space_group_symop_operation_xyz
x,y,z
x,-y,1/2+z
1/2+x,1/2+y,z
1/2+x,1/2-y,1/2+z
loop_
_atom_site_type_symbol
_atom_site_label
_atom_site_fract_x
_atom_site_fract_y
_atom_site_fract_z
Si Si1 0.787530 0.013684 0.331610
Si Si2 0.082076 0.553580 0.135808
Si Si3 0.292418 0.304766 0.552909
Si Si4 0.735040 0.296995 0.296470
Si Si5 0.522344 0.380439 0.151608
Si Si6 0.657735 0.772328 0.310127
Si Si7 0.137315 0.885595 0.810172
O O1 0.607875 0.025170 0.276920
O O2 0.933684 0.081236 0.301531
O O3 0.654650 0.004188 0.508607
O O4 0.925004 0.948402 0.245990
O O5 0.244176 0.615405 0.062349
O O6 0.839873 0.574474 0.190325
O O7 0.543036 0.293969 0.460196
O O8 0.225617 0.274365 0.716649
O O9 0.162154 0.269056 0.471123
O O10 0.711697 0.358420 0.194690
O O11 0.946016 0.307848 0.318234
O O12 0.353138 0.317803 0.196635
O O13 0.618198 0.395023 0.976293
O O14 0.664257 0.693641 0.257096
#
# Coordination Sequence:
#
# PCOD8056370 Si02
#       7
#     4   4   4   4   4   4   4
#     4  12  27  51  73 110 149 200 256 304 385 459
#     4  12  27  48  74 106 153 197 250 320 371 453
#     4  11  24  45  67 112 148 186 253 310 363 463
#     4  11  24  41  73 103 152 190 242 305 384 428
#     4  11  25  48  70 110 151 188 261 307 368 470
#     4  11  25  44  76 107 149 192 243 314 379 439
#     4  12  28  47  79 106 150 197 259 312 378 450
#
# _framework density 22.938486999999999
#
# number of rings (size 3 to 8) (size 9 to 14) (size 15 to 20)
#    0.000    0.571    5.714    2.571    4.000    3.429 
#    0.000    0.000    0.000    0.000    0.000    0.000 
#    0.000    0.000    0.000    0.000    0.000    0.000 
#
# Total GULP energy -173643.387018 kJ/mol
# GULP energy per Si atom -12403.099073 kJ/mol
# Density = 2.288628 g / cm^3
# Si number density = 22.938487 Si / 1000 Ang^3
#
#
#
# Elastic Constant Matrix: (Units=GPa)
#
#
# Indices 1 2 3 4 5 6 
#
# 1 132.0249 16.0512 30.2699 0.0000 -5.8709 0.0000
# 2 16.0512 88.9027 15.2734 0.0000 -4.1453 0.0000
# 3 30.2699 15.2734 97.2652 0.0000 -13.1051 0.0000
# 4 0.0000 0.0000 0.0000 28.4662 0.0000 2.7128
# 5 -5.8709 -4.1453 -13.1051 0.0000 26.3873 0.0000
# 6 0.0000 0.0000 0.0000 2.7128 0.0000 35.0921
#
#
#
# Elastic Compliance Matrix: (Units=1/GPa)
#
#
# Indices 1 2 3 4 5 6 
#
# 1 0.008262 -0.001067 -0.002335 0.000000 0.000511 0.000000
# 2 -0.001067 0.011722 -0.001385 0.000000 0.000916 0.000000
# 3 -0.002335 -0.001385 0.011924 0.000000 0.005185 0.000000
# 4 0.000000 0.000000 0.000000 0.035390 0.000000 -0.002736
# 5 0.000511 0.000916 0.005185 0.000000 0.040730 0.000000
# 6 0.000000 0.000000 0.000000 -0.002736 0.000000 0.028708
#
#
# Mechanical properties :
#
#
# Convention : Reuss Voigt Hill
#
# Bulk Modulus (GPa) = 44.77501 49.04242 46.90872
# Shear Modulus (GPa) = 32.51959 35.09567 33.80763
#
# Velocity S-wave (km/s) = 3.76930 3.91575 3.84323
# Velocity P-wave (km/s) = 6.20528 6.47075 6.33940
#
# Compressibility (1/GPa) = 0.02233388
#
# Stress axis : x y z
#
# Youngs Moduli (GPa) = 121.03498 85.31295 83.86522
#
# Poissons Ratio (x) = 0.09101 0.19581
# Poissons Ratio (y) = 0.12911 0.11617
# Poissons Ratio (z) = 0.28260 0.11818
#
# Static dielectric constant tensor:
#      x y z
#    x 4.205490 0.000000 0.138270 
#    y 0.000000 4.181470 0.000000 
#    z 0.138270 0.000000 4.090980 
# 
# 
# High freq. dielectric constant tensor:
#      x y z
#    x 1.908560 0.000000 0.004410 
#    y 0.000000 1.907010 0.000000 
#    z 0.004410 0.000000 1.912700 
# 
# From -- ./inp_files/13269.got.cif
#   From: 2010.06.25/outbox.cif.g09.slc.cpg/sg9_7_cif.got.tgz:13269.got - 2010.06.27 21:40:51.
