data_PCOD8056318
_publ_section_title
;
Structure prediction by ZEFSAII (Michael W. Deem and Ramdas Pophale) SiO2 
 PCOD8056318
Probable space group: C C
;
_chemical_formula_sum "Si O2"
_cell_formula_units_Z 28
_cell_length_a 13.510190
_cell_length_b 8.403545
_cell_length_c 18.633220
_cell_angle_alpha 90.000000
_cell_angle_beta 147.600062
_cell_angle_gamma 90.000000
_cell_volume 1133.536699
_symmetry_space_group_name_H-M "C C"
_symmetry_group_IT_number 9
_symmetry_cell_setting 'monoclinic'
loop_
_space_group_symop_operation_xyz
x,y,z
x,-y,1/2+z
1/2+x,1/2+y,z
1/2+x,1/2-y,1/2+z
loop_
_atom_site_type_symbol
_atom_site_label
_atom_site_fract_x
_atom_site_fract_y
_atom_site_fract_z
Si Si1 0.486020 0.102561 0.338740
Si Si2 0.211769 0.861346 0.217393
Si Si3 0.296085 0.334018 0.125313
Si Si4 0.457707 0.406011 0.936919
Si Si5 0.789310 0.471909 0.538747
Si Si6 0.609664 0.450202 0.792325
Si Si7 0.149101 0.586984 0.815906
O O1 0.356438 0.255572 0.238557
O O2 0.578875 0.136105 0.473950
O O3 0.363434 0.946077 0.261481
O O4 0.638211 0.047104 0.372546
O O5 0.302129 0.705763 0.306376
O O6 0.156271 0.997924 0.240472
O O7 0.047085 0.818424 0.061345
O O8 0.395911 0.503123 0.175822
O O9 0.358821 0.202671 0.105336
O O10 0.340406 0.558785 0.890782
O O11 0.615185 0.462074 0.978000
O O12 0.732411 0.445574 0.421910
O O13 0.968381 0.583061 0.654077
O O14 0.652886 0.270509 0.842286
#
# Coordination Sequence:
#
# PCOD8056318 Si02
#       7
#     4   4   4   4   4   4   4
#     4  11  24  48  74 107 153 195 253 309 385 452
#     4  12  28  46  77 115 149 208 250 319 378 463
#     4  11  23  46  74 103 147 195 247 311 382 443
#     4  12  28  52  79 109 159 199 264 309 393 455
#     4  11  26  50  74 109 150 205 249 319 384 460
#     4  12  28  44  79 108 152 199 261 312 394 445
#     4  11  27  48  75 109 154 195 258 319 374 468
#
# _framework density 24.701450000000001
#
# number of rings (size 3 to 8) (size 9 to 14) (size 15 to 20)
#    0.000    0.571    4.286    3.429   12.000    0.000 
#    0.000    0.000    0.000    0.000    0.000    0.000 
#    0.000    0.000    0.000    0.000    0.000    0.000 
#
# Total GULP energy -173464.726449 kJ/mol
# GULP energy per Si atom -12390.337603 kJ/mol
# Density = 2.464523 g / cm^3
# Si number density = 24.701450 Si / 1000 Ang^3
#
#
#
# Elastic Constant Matrix: (Units=GPa)
#
#
# Indices 1 2 3 4 5 6 
#
# 1 56.5225 6.9064 31.0635 0.0000 -5.7001 0.0000
# 2 6.9064 110.3175 37.7423 0.0004 1.4949 0.0001
# 3 31.0635 37.7423 170.7734 0.0008 -11.2958 0.0002
# 4 0.0000 0.0004 0.0008 34.6539 0.0002 7.7506
# 5 -5.7001 1.4949 -11.2958 0.0002 29.1726 0.0000
# 6 0.0000 0.0001 0.0002 7.7506 0.0000 25.2269
#
#
#
# Elastic Compliance Matrix: (Units=1/GPa)
#
#
# Indices 1 2 3 4 5 6 
#
# 1 0.019841 -0.000108 -0.003416 0.000000 0.002560 0.000000
# 2 -0.000108 0.009861 -0.002252 0.000000 -0.001398 0.000000
# 3 -0.003416 -0.002252 0.007121 0.000000 0.002205 0.000000
# 4 0.000000 0.000000 0.000000 0.030986 0.000000 -0.009520
# 5 0.002560 -0.001398 0.002205 0.000000 0.035704 0.000000
# 6 0.000000 0.000000 0.000000 -0.009520 0.000000 0.042565
#
#
# Mechanical properties :
#
#
# Convention : Reuss Voigt Hill
#
# Bulk Modulus (GPa) = 39.57261 54.33752 46.95507
# Shear Modulus (GPa) = 30.11078 35.27075 32.69076
#
# Velocity S-wave (km/s) = 3.49519 3.78283 3.64185
# Velocity P-wave (km/s) = 5.68714 6.41289 6.06089
#
# Compressibility (1/GPa) = 0.02527001
#
# Stress axis : x y z
#
# Youngs Moduli (GPa) = 50.40156 101.40961 140.43668
#
# Poissons Ratio (x) = 0.01097 0.47970
# Poissons Ratio (y) = 0.00545 0.31629
# Poissons Ratio (z) = 0.17216 0.22839
#
# Static dielectric constant tensor:
#      x y z
#    x 4.236500 0.000000 -0.140230 
#    y 0.000000 4.318950 0.000000 
#    z -0.140230 0.000000 4.900220 
# 
# 
# High freq. dielectric constant tensor:
#      x y z
#    x 1.959370 0.000000 -0.006550 
#    y 0.000000 1.978360 0.000000 
#    z -0.006550 0.000000 2.008510 
# 
# From -- ./inp_files/19995.got.cif
#   From: 2010.06.25/outbox.cif.g09.slc.cpg/sg9_10_cif.got.tgz:19995.got - 2010.06.27 21:40:51.
