data_PCOD8056634
_publ_section_title
;
Structure prediction by ZEFSAII (Michael W. Deem and Ramdas Pophale) SiO2 
 PCOD8056634
Probable space group: C C
;
_chemical_formula_sum "Si O2"
_cell_formula_units_Z 28
_cell_length_a 5.497077
_cell_length_b 13.490530
_cell_length_c 19.852873
_cell_angle_alpha 90.000000
_cell_angle_beta 56.373213
_cell_angle_gamma 90.000000
_cell_volume 1225.894693
_symmetry_space_group_name_H-M "C C"
_symmetry_group_IT_number 9
_symmetry_cell_setting 'monoclinic'
loop_
_space_group_symop_operation_xyz
x,y,z
x,-y,1/2+z
1/2+x,1/2+y,z
1/2+x,1/2-y,1/2+z
loop_
_atom_site_type_symbol
_atom_site_label
_atom_site_fract_x
_atom_site_fract_y
_atom_site_fract_z
Si Si1 0.420520 0.236159 0.929670
Si Si2 0.225791 0.736155 0.027035
Si Si3 0.380025 0.250022 0.728349
Si Si4 0.061711 0.099378 0.313712
Si Si5 0.376423 0.606055 0.801682
Si Si6 0.903138 0.900604 0.142999
Si Si7 0.169733 0.606038 0.155017
O O1 0.516359 0.346884 0.892217
O O2 0.553099 0.152179 0.858919
O O3 0.565354 0.220336 0.980556
O O4 0.074169 0.220328 0.976149
O O5 0.075359 0.652169 0.097782
O O6 0.171838 0.846877 0.064494
O O7 0.427579 0.328463 0.779210
O O8 0.631086 0.171596 0.677507
O O9 0.356730 0.307894 0.661553
O O10 0.089547 0.192138 0.795129
O O11 0.399593 0.079512 0.245080
O O12 0.897800 0.994207 0.341774
O O13 0.466485 0.579492 0.711629
O O14 0.851369 0.005756 0.114937
#
# Coordination Sequence:
#
# PCOD8056634 Si02
#       7
#     4   4   4   4   4   4   4
#     4  12  28  48  71 105 158 198 232 296 372 448
#     4  12  28  48  71 105 158 198 232 296 372 448
#     4  12  20  44  72 106 140 174 250 310 366 412
#     4  12  25  43  77 106 137 193 253 309 359 429
#     4  12  25  43  77 106 137 193 253 309 359 429
#     4  12  25  43  77 106 137 193 253 309 359 429
#     4  12  25  43  77 106 137 193 253 309 359 429
#
# _framework density 22.84046
#
# number of rings (size 3 to 8) (size 9 to 14) (size 15 to 20)
#    0.000    0.000    8.571    1.714    0.000    2.286 
#    0.000    0.000    0.000    0.000    0.000    0.000 
#    0.000    0.000    0.000    0.000    0.000    0.000 
#
# Total GULP energy -173635.503255 kJ/mol
# GULP energy per Si atom -12402.535947 kJ/mol
# Density = 2.278847 g / cm^3
# Si number density = 22.840460 Si / 1000 Ang^3
#
#
#
# Elastic Constant Matrix: (Units=GPa)
#
#
# Indices 1 2 3 4 5 6 
#
# 1 100.8987 18.5309 15.9744 -0.0001 -0.3568 0.0004
# 2 18.5309 147.6131 8.7586 -0.0002 0.4013 0.0003
# 3 15.9744 8.7586 59.1097 -0.0002 2.1074 0.0002
# 4 -0.0001 -0.0002 -0.0002 19.8958 0.0000 0.5131
# 5 -0.3568 0.4013 2.1074 0.0000 46.7131 0.0000
# 6 0.0004 0.0003 0.0002 0.5131 0.0000 32.4886
#
#
#
# Elastic Compliance Matrix: (Units=1/GPa)
#
#
# Indices 1 2 3 4 5 6 
#
# 1 0.010551 -0.001166 -0.002686 0.000000 0.000212 0.000000
# 2 -0.001166 0.006963 -0.000715 0.000000 -0.000036 0.000000
# 3 -0.002686 -0.000715 0.017779 0.000000 -0.000816 0.000000
# 4 0.000000 0.000000 0.000000 0.050282 0.000000 -0.000794
# 5 0.000212 -0.000036 -0.000816 0.000000 0.021446 0.000000
# 6 0.000000 0.000000 0.000000 -0.000794 0.000000 0.030793
#
#
# Mechanical properties :
#
#
# Convention : Reuss Voigt Hill
#
# Bulk Modulus (GPa) = 38.22874 43.79436 41.01155
# Shear Modulus (GPa) = 32.11951 37.44331 34.78141
#
# Velocity S-wave (km/s) = 3.75407 4.05327 3.90654
# Velocity P-wave (km/s) = 5.96359 6.41256 6.19215
#
# Compressibility (1/GPa) = 0.02615833
#
# Stress axis : x y z
#
# Youngs Moduli (GPa) = 94.77714 143.60880 56.24681
#
# Poissons Ratio (x) = 0.16741 0.15109
# Poissons Ratio (y) = 0.11049 0.04024
# Poissons Ratio (z) = 0.25459 0.10275
#
# Static dielectric constant tensor:
#      x y z
#    x 4.175830 0.000000 -0.009660 
#    y 0.000000 4.316240 0.000000 
#    z -0.009660 0.000000 4.407510 
# 
# 
# High freq. dielectric constant tensor:
#      x y z
#    x 1.908390 0.000000 0.000700 
#    y 0.000000 1.912740 0.000000 
#    z 0.000700 0.000000 1.891510 
# 
# From -- ./inp_files/28512.got.cif
#   From: 2010.06.25/outbox.cif.g09.slc.cpg/sg9_15_cif.got.tgz:28512.got - 2010.06.27 21:40:51.
