data_PCOD8056278
_publ_section_title
;
Structure prediction by ZEFSAII (Michael W. Deem and Ramdas Pophale) SiO2 
 PCOD8056278
Probable space group: C C
;
_chemical_formula_sum "Si O2"
_cell_formula_units_Z 32
_cell_length_a 14.517361
_cell_length_b 11.758184
_cell_length_c 9.099370
_cell_angle_alpha 90.000000
_cell_angle_beta 62.697953
_cell_angle_gamma 90.000000
_cell_volume 1380.212561
_symmetry_space_group_name_H-M "C C"
_symmetry_group_IT_number 9
_symmetry_cell_setting 'monoclinic'
loop_
_space_group_symop_operation_xyz
x,y,z
x,-y,1/2+z
1/2+x,1/2+y,z
1/2+x,1/2-y,1/2+z
loop_
_atom_site_type_symbol
_atom_site_label
_atom_site_fract_x
_atom_site_fract_y
_atom_site_fract_z
Si Si1 0.637930 0.099303 0.092560
Si Si2 0.681108 0.755502 0.081143
Si Si3 0.832353 0.666548 0.539121
Si Si4 0.428530 0.396364 0.560019
Si Si5 0.186059 0.181521 0.404165
Si Si6 0.051960 0.584350 0.473372
Si Si7 0.656902 0.575532 0.879144
Si Si8 0.332655 0.553683 0.420394
O O1 0.628745 0.082148 0.275649
O O2 0.743006 0.039708 0.953439
O O3 0.631999 0.234461 0.063587
O O4 0.548977 0.034957 0.063794
O O5 0.671436 0.747580 0.262767
O O6 0.785762 0.822915 0.977740
O O7 0.585147 0.819211 0.068816
O O8 0.697262 0.630192 0.002049
O O9 0.846946 0.797431 0.576781
O O10 0.802885 0.664209 0.386014
O O11 0.737729 0.604160 0.691987
O O12 0.937416 0.600272 0.493743
O O13 0.545490 0.366082 0.424635
O O14 0.396171 0.515193 0.513475
O O15 0.421224 0.427773 0.734950
O O16 0.136077 0.057512 0.422912
#
# Coordination Sequence:
#
# PCOD8056278 Si02
#       8
#     4   4   4   4   4   4   4   4
#     4  11  23  47  77 111 144 195 254 312 368 454
#     4  11  23  48  73 108 148 194 248 317 377 445
#     4  12  27  50  72 106 153 200 248 312 385 457
#     4  12  26  45  77 106 143 195 246 307 380 446
#     4  12  27  46  74 108 154 191 246 318 378 453
#     4  11  25  46  82 108 148 198 256 312 382 447
#     4  12  28  50  71 105 154 198 246 311 387 454
#     4  11  23  44  76 110 140 187 250 307 365 448
#
# _framework density 23.184835
#
# number of rings (size 3 to 8) (size 9 to 14) (size 15 to 20)
#    0.000    0.500    3.750    5.250    5.250    0.000 
#    0.000    0.000    0.000    0.000    0.000    0.000 
#    0.000    0.000    0.000    0.000    0.000    0.000 
#
# Total GULP energy -198286.507010 kJ/mol
# GULP energy per Si atom -12392.906688 kJ/mol
# Density = 2.313207 g / cm^3
# Si number density = 23.184835 Si / 1000 Ang^3
#
#
#
# Elastic Constant Matrix: (Units=GPa)
#
#
# Indices 1 2 3 4 5 6 
#
# 1 108.3235 37.9201 42.3739 0.0000 7.9606 0.0000
# 2 37.9201 131.6326 42.0314 0.0000 7.3326 0.0000
# 3 42.3739 42.0314 101.3126 0.0000 9.7441 0.0000
# 4 0.0000 0.0000 0.0000 30.7021 0.0000 14.7860
# 5 7.9606 7.3326 9.7441 0.0000 44.5973 0.0000
# 6 0.0000 0.0000 0.0000 14.7860 0.0000 39.9041
#
#
#
# Elastic Compliance Matrix: (Units=1/GPa)
#
#
# Indices 1 2 3 4 5 6 
#
# 1 0.011530 -0.002029 -0.003897 0.000000 -0.000873 0.000000
# 2 -0.002029 0.009133 -0.002892 0.000000 -0.000508 0.000000
# 3 -0.003897 -0.002892 0.012858 0.000000 -0.001638 0.000000
# 4 0.000000 0.000000 0.000000 0.039646 0.000000 -0.014690
# 5 -0.000873 -0.000508 -0.001638 0.000000 0.023020 0.000000
# 6 0.000000 0.000000 0.000000 -0.014690 0.000000 0.030503
#
#
# Mechanical properties :
#
#
# Convention : Reuss Voigt Hill
#
# Bulk Modulus (GPa) = 62.94725 65.10217 64.02471
# Shear Modulus (GPa) = 33.41795 37.63693 35.52744
#
# Velocity S-wave (km/s) = 3.80066 4.03344 3.91878
# Velocity P-wave (km/s) = 6.81683 7.05919 6.93907
#
# Compressibility (1/GPa) = 0.01588632
#
# Stress axis : x y z
#
# Youngs Moduli (GPa) = 86.72782 109.49413 77.77528
#
# Poissons Ratio (x) = 0.22212 0.30309
# Poissons Ratio (y) = 0.17594 0.22490
# Poissons Ratio (z) = 0.33797 0.31662
#
# Static dielectric constant tensor:
#      x y z
#    x 4.369790 0.000000 0.343910 
#    y 0.000000 4.363160 0.000000 
#    z 0.343910 0.000000 4.074400 
# 
# 
# High freq. dielectric constant tensor:
#      x y z
#    x 1.913780 0.000000 0.020190 
#    y 0.000000 1.929370 0.000000 
#    z 0.020190 0.000000 1.907040 
# 
# From -- ./inp_files/9247.got.cif
#   From: 2010.06.25/outbox.cif.g09.slc.cpg/sg9_5_cif.got.tgz:9247.got - 2010.06.27 21:40:51.
