data_PCOD8056405
_publ_section_title
;
Structure prediction by ZEFSAII (Michael W. Deem and Ramdas Pophale) SiO2 
 PCOD8056405
Probable space group: C C
;
_chemical_formula_sum "Si O2"
_cell_formula_units_Z 32
_cell_length_a 5.307621
_cell_length_b 21.821023
_cell_length_c 11.698102
_cell_angle_alpha 90.000000
_cell_angle_beta 100.719096
_cell_angle_gamma 90.000000
_cell_volume 1331.206579
_symmetry_space_group_name_H-M "C C"
_symmetry_group_IT_number 9
_symmetry_cell_setting 'monoclinic'
loop_
_space_group_symop_operation_xyz
x,y,z
x,-y,1/2+z
1/2+x,1/2+y,z
1/2+x,1/2-y,1/2+z
loop_
_atom_site_type_symbol
_atom_site_label
_atom_site_fract_x
_atom_site_fract_y
_atom_site_fract_z
Si Si1 0.733250 0.000965 0.805430
Si Si2 0.485800 0.072230 0.093241
Si Si3 0.282306 0.157508 0.512014
Si Si4 0.262834 0.717913 0.439210
Si Si5 0.698710 0.683412 0.099376
Si Si6 0.269501 0.026195 0.437191
Si Si7 0.274230 0.369874 0.405232
Si Si8 0.439767 0.225166 0.742872
O O1 0.677055 0.973959 0.674737
O O2 0.488496 0.984621 0.861559
O O3 0.989145 0.964900 0.861435
O O4 0.796946 0.074014 0.815054
O O5 0.373037 0.127371 0.163243
O O6 0.614339 0.105804 0.998165
O O7 0.256468 0.030276 0.024587
O O8 0.487815 0.190304 0.447301
O O9 0.340714 0.085958 0.515459
O O10 0.308880 0.178791 0.644469
O O11 0.993833 0.169556 0.444088
O O12 0.359782 0.763369 0.548990
O O13 0.225224 0.751840 0.314388
O O14 0.543449 0.713327 0.189830
O O15 0.537557 0.654225 0.980634
O O16 0.155794 0.311064 0.331941
#
# Coordination Sequence:
#
# PCOD8056405 Si02
#       8
#     4   4   4   4   4   4   4   4
#     4  11  26  44  77 106 140 201 238 304 385 422
#     4  11  25  47  75 108 149 191 252 305 371 447
#     4  11  26  46  69 105 146 189 250 308 360 453
#     4  11  25  46  67 107 146 190 250 306 364 445
#     4  11  25  46  73 106 149 193 250 309 366 452
#     4  11  25  49  70 109 144 187 248 310 361 444
#     4  11  24  50  70 108 155 190 248 313 361 454
#     4  11  24  44  73 103 145 207 238 301 394 423
#
# _framework density 24.038340999999999
#
# number of rings (size 3 to 8) (size 9 to 14) (size 15 to 20)
#    0.000    1.000    2.500    3.000    3.500    5.000 
#    2.250    6.250    0.000    0.000    0.000    0.000 
#    0.000    0.000    0.000    0.000    0.000    0.000 
#
# Total GULP energy -198345.845870 kJ/mol
# GULP energy per Si atom -12396.615367 kJ/mol
# Density = 2.398363 g / cm^3
# Si number density = 24.038341 Si / 1000 Ang^3
#
#
#
# Elastic Constant Matrix: (Units=GPa)
#
#
# Indices 1 2 3 4 5 6 
#
# 1 92.7021 29.1915 27.3092 0.0000 -4.2126 0.0000
# 2 29.1915 121.6451 25.5638 0.0000 -7.1894 0.0000
# 3 27.3092 25.5638 82.2594 0.0000 -3.7227 0.0000
# 4 0.0000 0.0000 0.0000 30.9507 0.0000 14.8918
# 5 -4.2126 -7.1894 -3.7227 0.0000 36.2545 0.0000
# 6 0.0000 0.0000 0.0000 14.8918 0.0000 16.4480
#
#
#
# Elastic Compliance Matrix: (Units=1/GPa)
#
#
# Indices 1 2 3 4 5 6 
#
# 1 0.012537 -0.002248 -0.003434 0.000000 0.000658 0.000000
# 2 -0.002248 0.009277 -0.002075 0.000000 0.001365 0.000000
# 3 -0.003434 -0.002075 0.013970 0.000000 0.000624 0.000000
# 4 0.000000 0.000000 0.000000 0.057248 0.000000 -0.051832
# 5 0.000658 0.001365 0.000624 0.000000 0.027994 0.000000
# 6 0.000000 0.000000 0.000000 -0.051832 0.000000 0.107725
#
#
# Mechanical properties :
#
#
# Convention : Reuss Voigt Hill
#
# Bulk Modulus (GPa) = 49.33366 51.19284 50.26325
# Shear Modulus (GPa) = 19.91871 31.03345 25.47608
#
# Velocity S-wave (km/s) = 2.88170 3.59694 3.25900
# Velocity P-wave (km/s) = 5.62492 6.21235 5.92592
#
# Compressibility (1/GPa) = 0.02027014
#
# Stress axis : x y z
#
# Youngs Moduli (GPa) = 79.76684 107.79566 71.58388
#
# Poissons Ratio (x) = 0.24232 0.24579
# Poissons Ratio (y) = 0.17931 0.14853
# Poissons Ratio (z) = 0.27389 0.22366
#
# Static dielectric constant tensor:
#      x y z
#    x 4.079290 0.000000 -0.027300 
#    y 0.000000 4.909510 0.000000 
#    z -0.027300 0.000000 4.275370 
# 
# 
# High freq. dielectric constant tensor:
#      x y z
#    x 1.946040 0.000000 0.000970 
#    y 0.000000 1.975350 0.000000 
#    z 0.000970 0.000000 1.949240 
# 
# From -- ./inp_files/13551.got.cif
#   From: 2010.06.25/outbox.cif.g09.slc.cpg/sg9_7_cif.got.tgz:13551.got - 2010.06.27 21:40:51.
