data_PCOD8056133
_publ_section_title
;
Structure prediction by ZEFSAII (Michael W. Deem and Ramdas Pophale) SiO2 
 PCOD8056133
Probable space group: C C
;
_chemical_formula_sum "Si O2"
_cell_formula_units_Z 28
_cell_length_a 29.248589
_cell_length_b 7.365716
_cell_length_c 9.284999
_cell_angle_alpha 90.000000
_cell_angle_beta 143.047106
_cell_angle_gamma 90.000000
_cell_volume 1202.515102
_symmetry_space_group_name_H-M "C C"
_symmetry_group_IT_number 9
_symmetry_cell_setting 'monoclinic'
loop_
_space_group_symop_operation_xyz
x,y,z
x,-y,1/2+z
1/2+x,1/2+y,z
1/2+x,1/2-y,1/2+z
loop_
_atom_site_type_symbol
_atom_site_label
_atom_site_fract_x
_atom_site_fract_y
_atom_site_fract_z
Si Si1 0.911700 0.900984 0.346590
Si Si2 0.321610 0.104199 0.274075
Si Si3 0.703904 0.224220 0.659564
Si Si4 0.180950 0.555548 0.882833
Si Si5 0.088901 0.151634 0.283418
Si Si6 0.841665 0.808901 0.868582
Si Si7 0.167216 0.055614 0.744791
O O1 0.888898 0.730960 0.388405
O O2 0.001898 0.901030 0.564411
O O3 0.882728 0.090009 0.339749
O O4 0.877548 0.886086 0.103053
O O5 0.287420 0.193238 0.335109
O O6 0.355575 0.906283 0.390766
O O7 0.256360 0.099629 0.985799
O O8 0.702769 0.052115 0.767814
O O9 0.654400 0.371211 0.619357
O O10 0.672113 0.151141 0.422687
O O11 0.104498 0.665833 0.730232
O O12 0.251474 0.653182 0.141875
O O13 0.133620 0.981482 0.319931
O O14 0.119852 0.193732 0.524172
#
# Coordination Sequence:
#
# PCOD8056133 Si02
#       7
#     4   4   4   4   4   4   4
#     4  12  28  45  70 106 148 181 233 298 365 414
#     4  12  24  44  75 105 138 187 242 290 345 430
#     4  11  22  40  69 107 130 181 241 293 334 412
#     4  11  23  41  72 100 140 178 244 279 344 421
#     4  11  24  45  65 105 141 183 232 296 359 417
#     4  12  25  45  74 100 139 192 235 286 349 429
#     4  11  22  44  73  97 136 188 241 284 348 421
#
# _framework density 23.284531999999999
#
# number of rings (size 3 to 8) (size 9 to 14) (size 15 to 20)
#    0.000    0.571    5.714    3.429    2.000    0.000 
#    7.714    0.000    0.000    0.000    0.000    0.000 
#    0.000    0.000    0.000    0.000    0.000    0.000 
#
# Total GULP energy -173541.658584 kJ/mol
# GULP energy per Si atom -12395.832756 kJ/mol
# Density = 2.323154 g / cm^3
# Si number density = 23.284532 Si / 1000 Ang^3
#
#
#
# Elastic Constant Matrix: (Units=GPa)
#
#
# Indices 1 2 3 4 5 6 
#
# 1 107.0085 30.8770 47.6209 0.0000 -9.3179 0.0000
# 2 30.8770 94.4310 -5.4029 0.0000 3.2714 0.0000
# 3 47.6209 -5.4029 60.8227 0.0000 -11.0861 0.0000
# 4 0.0000 0.0000 0.0000 23.2750 0.0000 -4.0294
# 5 -9.3179 3.2714 -11.0861 0.0000 50.9115 0.0000
# 6 0.0000 0.0000 0.0000 -4.0294 0.0000 36.8832
#
#
#
# Elastic Compliance Matrix: (Units=1/GPa)
#
#
# Indices 1 2 3 4 5 6 
#
# 1 0.017680 -0.006620 -0.014332 0.000000 0.000540 0.000000
# 2 -0.006620 0.013135 0.006222 0.000000 -0.000701 0.000000
# 3 -0.014332 0.006222 0.028808 0.000000 0.003250 0.000000
# 4 0.000000 0.000000 0.000000 0.043793 0.000000 0.004784
# 5 0.000540 -0.000701 0.003250 0.000000 0.020494 0.000000
# 6 0.000000 0.000000 0.000000 0.004784 0.000000 0.027635
#
#
# Mechanical properties :
#
#
# Convention : Reuss Voigt Hill
#
# Bulk Modulus (GPa) = 33.15387 45.38358 39.26873
# Shear Modulus (GPa) = 26.16988 34.82508 30.49748
#
# Velocity S-wave (km/s) = 3.35612 3.87154 3.62301
# Velocity P-wave (km/s) = 5.41180 6.28635 5.86540
#
# Compressibility (1/GPa) = 0.03016239
#
# Stress axis : x y z
#
# Youngs Moduli (GPa) = 56.55955 76.13480 34.71274
#
# Poissons Ratio (x) = 0.50401 0.49752
# Poissons Ratio (y) = 0.37442 -0.21599
# Poissons Ratio (z) = 0.81064 -0.47372
#
# Static dielectric constant tensor:
#      x y z
#    x 4.465920 0.000000 -0.466310 
#    y 0.000000 4.496350 0.000000 
#    z -0.466310 0.000000 4.028480 
# 
# 
# High freq. dielectric constant tensor:
#      x y z
#    x 1.932670 0.000000 -0.034540 
#    y 0.000000 1.934930 0.000000 
#    z -0.034540 0.000000 1.891370 
# 
# From -- ./inp_files/12431.got.cif
#   From: 2010.06.25/outbox.cif.g09.slc.cpg/sg9_7_cif.got.tgz:12431.got - 2010.06.27 21:40:51.
