data_PCOD8056352
_publ_section_title
;
Structure prediction by ZEFSAII (Michael W. Deem and Ramdas Pophale) SiO2 
 PCOD8056352
Probable space group: C C
;
_chemical_formula_sum "Si O2"
_cell_formula_units_Z 32
_cell_length_a 8.943530
_cell_length_b 18.227779
_cell_length_c 11.336416
_cell_angle_alpha 90.000000
_cell_angle_beta 129.716412
_cell_angle_gamma 90.000000
_cell_volume 1421.566296
_symmetry_space_group_name_H-M "C C"
_symmetry_group_IT_number 9
_symmetry_cell_setting 'monoclinic'
loop_
_space_group_symop_operation_xyz
x,y,z
x,-y,1/2+z
1/2+x,1/2+y,z
1/2+x,1/2-y,1/2+z
loop_
_atom_site_type_symbol
_atom_site_label
_atom_site_fract_x
_atom_site_fract_y
_atom_site_fract_z
Si Si1 0.303320 0.093924 0.524270
Si Si2 0.577315 0.180037 0.815935
Si Si3 0.606753 0.098535 0.063319
Si Si4 0.926271 0.183636 0.349490
Si Si5 0.972048 0.809696 0.374264
Si Si6 0.026657 0.558737 0.417029
Si Si7 0.786393 0.189529 0.533337
Si Si8 0.769451 0.567428 0.057930
O O1 0.468576 0.110230 0.704723
O O2 0.402878 0.104566 0.448607
O O3 0.141545 0.153410 0.462506
O O4 0.211449 0.012816 0.483284
O O5 0.636667 0.157100 0.976412
O O6 0.433134 0.250029 0.757459
O O7 0.767131 0.199918 0.835791
O O8 0.611646 0.016194 0.014880
O O9 0.781893 0.117565 0.240676
O O10 0.406056 0.110040 0.033403
O O11 0.880745 0.214781 0.457563
O O12 0.943571 0.809243 0.218174
O O13 0.108435 0.742245 0.478543
O O14 0.074360 0.884659 0.472260
O O15 0.214309 0.606393 0.478388
O O16 0.884340 0.550301 0.235357
#
# Coordination Sequence:
#
# PCOD8056352 Si02
#       8
#     4   4   4   4   4   4   4   4
#     4  11  26  45  72 107 144 190 240 293 363 424
#     4  12  26  48  71 107 147 192 240 299 354 431
#     4  11  26  45  74 107 145 188 239 298 361 420
#     4  12  28  44  75 104 149 189 240 296 363 421
#     4  12  29  46  77 107 144 192 242 295 364 422
#     4  11  23  49  72 103 149 184 239 296 353 434
#     4  12  27  47  75 105 143 190 241 293 361 428
#     4  11  25  48  72 106 147 189 239 298 355 434
#
# _framework density 22.510380999999999
#
# number of rings (size 3 to 8) (size 9 to 14) (size 15 to 20)
#    0.000    0.500    3.750    3.000   10.500    1.000 
#    0.000    0.000    0.000    0.000    0.000    0.000 
#    0.000    0.000    0.000    0.000    0.000    0.000 
#
# Total GULP energy -198419.458968 kJ/mol
# GULP energy per Si atom -12401.216186 kJ/mol
# Density = 2.245915 g / cm^3
# Si number density = 22.510381 Si / 1000 Ang^3
#
#
#
# Elastic Constant Matrix: (Units=GPa)
#
#
# Indices 1 2 3 4 5 6 
#
# 1 104.6181 51.1919 15.9914 0.0000 -11.6855 0.0000
# 2 51.1919 101.4199 32.5427 0.0000 7.5294 0.0000
# 3 15.9914 32.5427 89.5387 0.0000 -10.1283 0.0000
# 4 0.0000 0.0000 0.0000 37.4589 0.0000 -1.0352
# 5 -11.6855 7.5294 -10.1283 0.0000 33.7558 0.0000
# 6 0.0000 0.0000 0.0000 -1.0352 0.0000 30.1700
#
#
#
# Elastic Compliance Matrix: (Units=1/GPa)
#
#
# Indices 1 2 3 4 5 6 
#
# 1 0.014080 -0.008010 0.001190 0.000000 0.007018 0.000000
# 2 -0.008010 0.016220 -0.005370 0.000000 -0.008002 0.000000
# 3 0.001190 -0.005370 0.013549 0.000000 0.005675 0.000000
# 4 0.000000 0.000000 0.000000 0.026721 0.000000 0.000917
# 5 0.007018 -0.008002 0.005675 0.000000 0.035542 0.000000
# 6 0.000000 0.000000 0.000000 0.000917 0.000000 0.033177
#
#
# Mechanical properties :
#
#
# Convention : Reuss Voigt Hill
#
# Bulk Modulus (GPa) = 51.35887 55.00321 53.18104
# Shear Modulus (GPa) = 29.38446 33.33363 31.35904
#
# Velocity S-wave (km/s) = 3.61692 3.85231 3.73646
# Velocity P-wave (km/s) = 6.34885 6.65392 6.50318
#
# Compressibility (1/GPa) = 0.01947083
#
# Stress axis : x y z
#
# Youngs Moduli (GPa) = 71.02337 61.65217 73.80424
#
# Poissons Ratio (x) = 0.49382 -0.08785
# Poissons Ratio (y) = 0.56888 0.39631
# Poissons Ratio (z) = -0.08454 0.33106
#
# Static dielectric constant tensor:
#      x y z
#    x 4.093840 0.000000 -0.172770 
#    y 0.000000 4.174220 0.000000 
#    z -0.172770 0.000000 3.949340 
# 
# 
# High freq. dielectric constant tensor:
#      x y z
#    x 1.891630 0.000000 -0.010480 
#    y 0.000000 1.897850 0.000000 
#    z -0.010480 0.000000 1.890220 
# 
# From -- ./inp_files/5409.got.cif
#   From: 2010.06.25/outbox.cif.g09.slc.cpg/sg9_3_cif.got.tgz:5409.got - 2010.06.27 21:40:51.
