data_PCOD8056768
_publ_section_title
;
Structure prediction by ZEFSAII (Michael W. Deem and Ramdas Pophale) SiO2 
 PCOD8056768
Probable space group: C C
;
_chemical_formula_sum "Si O2"
_cell_formula_units_Z 20
_cell_length_a 8.367121
_cell_length_b 12.356507
_cell_length_c 8.713848
_cell_angle_alpha 90.000000
_cell_angle_beta 124.904202
_cell_angle_gamma 90.000000
_cell_volume 738.845803
_symmetry_space_group_name_H-M "C C"
_symmetry_group_IT_number 9
_symmetry_cell_setting 'monoclinic'
loop_
_space_group_symop_operation_xyz
x,y,z
x,-y,1/2+z
1/2+x,1/2+y,z
1/2+x,1/2-y,1/2+z
loop_
_atom_site_type_symbol
_atom_site_label
_atom_site_fract_x
_atom_site_fract_y
_atom_site_fract_z
Si Si1 0.888760 0.577102 0.623720
Si Si2 0.017972 0.057126 0.243251
Si Si3 0.635802 0.253932 0.597783
Si Si4 0.028727 0.187611 0.731071
Si Si5 0.070743 0.384911 0.552470
O O1 0.655209 0.572912 0.468757
O O2 0.970575 0.668754 0.554595
O O3 0.984808 0.461677 0.637153
O O4 0.939293 0.605046 0.827241
O O5 0.794920 0.084952 0.152212
O O6 0.102109 0.130585 0.154796
O O7 0.040050 0.936644 0.188150
O O8 0.845124 0.201725 0.750431
O O9 0.686667 0.273740 0.443643
O O10 0.057628 0.260248 0.595882
#
# Coordination Sequence:
#
# PCOD8056768 Si02
#       5
#     4   4   4   4   4
#     4  12  28  56  84 125 173 218 283 352 414 507
#     4  12  30  53  90 119 170 226 273 350 423 498
#     4  12  26  55  82 120 170 214 283 346 417 496
#     4  12  28  55  84 120 171 221 273 354 415 499
#     4  12  30  55  86 126 166 223 288 342 421 502
#
# _framework density 27.069246
#
# number of rings (size 3 to 8) (size 9 to 14) (size 15 to 20)
#    0.000    0.000    4.000    3.600    2.800    4.800 
#    3.600    0.000    0.000    0.000    0.000    0.000 
#    0.000    0.000    0.000    0.000    0.000    0.000 
#
# Total GULP energy -123994.286583 kJ/mol
# GULP energy per Si atom -12399.428658 kJ/mol
# Density = 2.700763 g / cm^3
# Si number density = 27.069246 Si / 1000 Ang^3
#
#
#
# Elastic Constant Matrix: (Units=GPa)
#
#
# Indices 1 2 3 4 5 6 
#
# 1 60.4346 28.2664 62.7945 0.0000 12.7761 0.0000
# 2 28.2664 200.9520 63.3672 0.0000 9.4342 0.0000
# 3 62.7945 63.3672 170.7856 0.0000 4.9727 0.0000
# 4 0.0000 0.0000 0.0000 40.5459 0.0000 -7.7571
# 5 12.7761 9.4342 4.9727 0.0000 35.3093 0.0000
# 6 0.0000 0.0000 0.0000 -7.7571 0.0000 30.6290
#
#
#
# Elastic Compliance Matrix: (Units=1/GPa)
#
#
# Indices 1 2 3 4 5 6 
#
# 1 0.029499 -0.000437 -0.010419 0.000000 -0.009090 0.000000
# 2 -0.000437 0.005695 -0.001920 0.000000 -0.001093 0.000000
# 3 -0.010419 -0.001920 0.010316 0.000000 0.002830 0.000000
# 4 0.000000 0.000000 0.000000 0.025919 0.000000 0.006564
# 5 -0.009090 -0.001093 0.002830 0.000000 0.031504 0.000000
# 6 0.000000 0.000000 0.000000 0.006564 0.000000 0.034311
#
#
# Mechanical properties :
#
#
# Convention : Reuss Voigt Hill
#
# Bulk Modulus (GPa) = 50.10917 82.33650 66.22284
# Shear Modulus (GPa) = 29.50723 39.81312 34.66017
#
# Velocity S-wave (km/s) = 3.30519 3.83925 3.58219
# Velocity P-wave (km/s) = 5.75477 7.08069 6.45188
#
# Compressibility (1/GPa) = 0.01995643
#
# Stress axis : x y z
#
# Youngs Moduli (GPa) = 33.89939 175.60283 96.93291
#
# Poissons Ratio (x) = 0.07675 1.00998
# Poissons Ratio (y) = 0.01482 0.18615
# Poissons Ratio (z) = 0.35321 0.33722
#
# Static dielectric constant tensor:
#      x y z
#    x 4.966650 0.000000 0.465150 
#    y 0.000000 5.068450 0.000000 
#    z 0.465150 0.000000 5.030410 
# 
# 
# High freq. dielectric constant tensor:
#      x y z
#    x 2.112020 0.000000 0.015470 
#    y 0.000000 2.102460 0.000000 
#    z 0.015470 0.000000 2.101720 
# 
# From -- ./inp_files/4654.got.cif
#   From: 2010.06.25/outbox.cif.g09.slc.cpg/sg9_3_cif.got.tgz:4654.got - 2010.06.27 21:40:51.
