data_PCOD8056233
_publ_section_title
;
Structure prediction by ZEFSAII (Michael W. Deem and Ramdas Pophale) SiO2 
 PCOD8056233
Probable space group: C C
;
_chemical_formula_sum "Si O2"
_cell_formula_units_Z 20
_cell_length_a 9.305514
_cell_length_b 22.796809
_cell_length_c 8.249448
_cell_angle_alpha 90.000000
_cell_angle_beta 30.733962
_cell_angle_gamma 90.000000
_cell_volume 894.344494
_symmetry_space_group_name_H-M "C C"
_symmetry_group_IT_number 9
_symmetry_cell_setting 'monoclinic'
loop_
_space_group_symop_operation_xyz
x,y,z
x,-y,1/2+z
1/2+x,1/2+y,z
1/2+x,1/2-y,1/2+z
loop_
_atom_site_type_symbol
_atom_site_label
_atom_site_fract_x
_atom_site_fract_y
_atom_site_fract_z
Si Si1 0.872680 0.888217 0.738470
Si Si2 0.873978 0.419084 0.036391
Si Si3 0.598215 0.049370 0.804445
Si Si4 0.543544 0.709708 0.307936
Si Si5 0.598806 0.604776 0.465657
O O1 0.140507 0.921626 0.403367
O O2 0.965974 0.826252 0.721308
O O3 0.632332 0.876455 0.835625
O O4 0.732265 0.931559 0.004877
O O5 0.733408 0.394110 0.011221
O O6 0.008113 0.482481 0.879117
O O7 0.833225 0.060100 0.717098
O O8 0.323025 0.087534 0.109582
O O9 0.364591 0.769297 0.489998
O O10 0.494730 0.669703 0.515212
#
# Coordination Sequence:
#
# PCOD8056233 Si02
#       5
#     4   4   4   4   4
#     4  11  24  42  66  97 129 170 219 261 315 386
#     4  12  24  41  65 100 137 164 206 273 319 370
#     4  11  23  42  64  93 136 180 206 244 319 403
#     4  11  23  45  69  89 122 174 221 266 320 384
#     4  11  24  42  66  97 128 170 220 260 315 387
#
# _framework density 22.362746999999999
#
# number of rings (size 3 to 8) (size 9 to 14) (size 15 to 20)
#    0.000    0.800    0.000    9.600    0.000    4.800 
#    0.000   10.000    0.000    0.000    0.000    0.000 
#    0.000    0.000    0.000    0.000    0.000    0.000 
#
# Total GULP energy -124038.122735 kJ/mol
# GULP energy per Si atom -12403.812273 kJ/mol
# Density = 2.231185 g / cm^3
# Si number density = 22.362747 Si / 1000 Ang^3
#
#
#
# Elastic Constant Matrix: (Units=GPa)
#
#
# Indices 1 2 3 4 5 6 
#
# 1 127.3062 65.2396 8.0945 0.0000 -22.6724 0.0000
# 2 65.2396 107.0885 40.1180 0.0000 -0.4087 0.0000
# 3 8.0945 40.1180 110.2309 0.0000 -8.1118 0.0000
# 4 0.0000 0.0000 0.0000 36.6030 0.0000 -17.5377
# 5 -22.6724 -0.4087 -8.1118 0.0000 42.3838 0.0000
# 6 0.0000 0.0000 0.0000 -17.5377 0.0000 30.3639
#
#
#
# Elastic Compliance Matrix: (Units=1/GPa)
#
#
# Indices 1 2 3 4 5 6 
#
# 1 0.014047 -0.009682 0.003082 0.000000 0.008011 0.000000
# 2 -0.009682 0.017503 -0.006114 0.000000 -0.006180 0.000000
# 3 0.003082 -0.006114 0.011348 0.000000 0.003761 0.000000
# 4 0.000000 0.000000 0.000000 0.037774 0.000000 0.021817
# 5 0.008011 -0.006180 0.003761 0.000000 0.028539 0.000000
# 6 0.000000 0.000000 0.000000 0.021817 0.000000 0.045535
#
#
# Mechanical properties :
#
#
# Convention : Reuss Voigt Hill
#
# Bulk Modulus (GPa) = 57.24186 63.50329 60.37258
# Shear Modulus (GPa) = 26.88209 37.28171 32.08190
#
# Velocity S-wave (km/s) = 3.47088 4.08749 3.79174
# Velocity P-wave (km/s) = 6.45873 7.12287 6.79892
#
# Compressibility (1/GPa) = 0.01746973
#
# Stress axis : x y z
#
# Youngs Moduli (GPa) = 71.18829 57.13274 88.12477
#
# Poissons Ratio (x) = 0.55314 -0.27156
# Poissons Ratio (y) = 0.68922 0.53880
# Poissons Ratio (z) = -0.21937 0.34931
#
# Static dielectric constant tensor:
#      x y z
#    x 4.351650 0.000000 -0.363610 
#    y 0.000000 3.687840 0.000000 
#    z -0.363610 0.000000 4.360680 
# 
# 
# High freq. dielectric constant tensor:
#      x y z
#    x 1.892660 0.000000 -0.021770 
#    y 0.000000 1.857660 0.000000 
#    z -0.021770 0.000000 1.902640 
# 
# From -- ./inp_files/5864.got.cif
#   From: 2010.06.25/outbox.cif.g09.slc.cpg/sg9_3_cif.got.tgz:5864.got - 2010.06.27 21:40:51.
