data_PCOD8056980
_publ_section_title
;
Structure prediction by ZEFSAII (Michael W. Deem and Ramdas Pophale) SiO2 
 PCOD8056980
Probable space group: P 2/M
;
_chemical_formula_sum "Si O2"
_cell_formula_units_Z 32
_cell_length_a 20.965814
_cell_length_b 8.730584
_cell_length_c 27.733790
_cell_angle_alpha 90.000000
_cell_angle_beta 21.330602
_cell_angle_gamma 90.000000
_cell_volume 1846.570172
_symmetry_space_group_name_H-M "P 2/M"
_symmetry_group_IT_number 10
_symmetry_cell_setting 'monoclinic'
loop_
_space_group_symop_operation_xyz
x,y,z
-x,y,-z
-x,-y,-z
x,-y,z
loop_
_atom_site_type_symbol
_atom_site_label
_atom_site_fract_x
_atom_site_fract_y
_atom_site_fract_z
Si Si1 0.864916 0.676132 0.026228
Si Si2 0.252062 0.676581 0.785441
Si Si3 0.564030 0.677446 0.067160
Si Si4 0.787152 0.821199 0.983814
Si Si5 0.654704 0.170943 0.852031
Si Si6 0.860804 0.819701 0.793645
Si Si7 0.443634 0.177465 0.486029
Si Si8 0.914863 0.320073 0.291352
O O1 0.848358 0.500000 0.021998
O O2 0.758035 0.705761 0.150364
O O3 0.781201 0.783134 0.044447
O O4 0.067939 0.719249 0.890508
O O5 0.299593 0.500000 0.741347
O O6 0.397858 0.788217 0.661680
O O7 0.559143 0.500000 0.082594
O O8 0.381187 0.723102 0.169369
O O9 0.602302 0.767412 0.090115
O O10 0.721037 0.718953 0.920941
O O11 0.950750 0.734747 0.844326
O O12 0.812979 0.000000 0.957437
O O13 0.833915 0.214773 0.755185
O O14 0.667997 0.000000 0.822110
O O15 0.500000 0.183293 0.000000
O O16 0.047443 0.764654 0.683508
O O17 0.829377 0.000000 0.825642
O O18 0.500000 0.222648 0.500000
O O19 0.280137 0.281484 0.587237
O O20 0.391256 0.000000 0.519154
O O21 0.934285 0.500000 0.284948
#
# Coordination Sequence:
#
# PCOD8056980 Si02
#       8
#     4   4   4   4   4   4   4   4
#     4   9  18  34  53  72  94 119 151 189 231 277
#     4   9  19  35  54  73  93 120 152 189 231 276
#     4  10  17  24  37  58  85 117 153 190 225 267
#     4  11  20  30  45  66  94 125 157 192 233 277
#     4   8  14  24  37  54  80 115 149 183 225 270
#     4   9  16  27  41  57  83 117 151 187 228 273
#     4  11  23  36  50  70  96 124 155 192 231 273
#     4  11  21  32  47  66  91 123 159 196 233 276
#
# _framework density 17.329425000000001
#
# number of rings (size 3 to 8) (size 9 to 14) (size 15 to 20)
#    0.000    2.250    0.000    7.875    0.000    6.750 
#    0.000    1.250    0.000    0.000    0.000    0.000 
#    0.000    1.000    0.000   10.500    0.000    5.875 
#
# Total GULP energy -396639.360306 kJ/mol
# GULP energy per Si atom -12394.980010 kJ/mol
# Density = 1.728998 g / cm^3
# Si number density = 17.329425 Si / 1000 Ang^3
#
#
#
# Elastic Constant Matrix: (Units=GPa)
#
#
# Indices 1 2 3 4 5 6 
#
# 1 143.5168 50.3566 31.0236 0.0000 -14.7034 0.0000
# 2 50.3566 85.0019 18.9487 0.0000 -5.4761 0.0000
# 3 31.0236 18.9487 40.2579 0.0000 -1.0251 0.0000
# 4 0.0000 0.0000 0.0000 17.3411 0.0000 -2.9191
# 5 -14.7034 -5.4761 -1.0251 0.0000 17.0638 0.0000
# 6 0.0000 0.0000 0.0000 -2.9191 0.0000 31.3715
#
#
#
# Elastic Compliance Matrix: (Units=1/GPa)
#
#
# Indices 1 2 3 4 5 6 
#
# 1 0.010548 -0.004478 -0.005835 0.000000 0.007302 0.000000
# 2 -0.004478 0.015302 -0.003731 0.000000 0.000828 0.000000
# 3 -0.005835 -0.003731 0.030981 0.000000 -0.004364 0.000000
# 4 0.000000 0.000000 0.000000 0.058584 0.000000 0.005451
# 5 0.007302 0.000828 -0.004364 0.000000 0.064899 0.000000
# 6 0.000000 0.000000 0.000000 0.005451 0.000000 0.032383
#
#
# Mechanical properties :
#
#
# Convention : Reuss Voigt Hill
#
# Bulk Modulus (GPa) = 34.78925 52.15937 43.47431
# Shear Modulus (GPa) = 19.97065 24.38513 22.17789
#
# Velocity S-wave (km/s) = 3.39840 3.75527 3.58129
# Velocity P-wave (km/s) = 5.95967 6.99763 6.49940
#
# Compressibility (1/GPa) = 0.02874451
#
# Stress axis : x y z
#
# Youngs Moduli (GPa) = 94.80050 65.35000 32.27735
#
# Poissons Ratio (x) = 0.29263 0.18835
# Poissons Ratio (y) = 0.42451 0.12042
# Poissons Ratio (z) = 0.55319 0.24380
#
# Static dielectric constant tensor:
#      x y z
#    x 3.846800 0.000000 -0.333110 
#    y 0.000000 3.219920 0.000000 
#    z -0.333110 0.000000 2.745550 
# 
# 
# High freq. dielectric constant tensor:
#      x y z
#    x 1.690790 0.000000 -0.021260 
#    y 0.000000 1.677560 0.000000 
#    z -0.021260 0.000000 1.598460 
# 
# From -- ./inp_files/93626.got.cif
#   From: 2010.06.25/outbox.cif.g09.slc.cpg/sg10_47_cif.got.tgz:93626.got - 2010.06.27 22:07:45.
