data_PCOD8056520
_publ_section_title
;
Structure prediction by ZEFSAII (Michael W. Deem and Ramdas Pophale) SiO2 
 PCOD8056520
Probable space group: C C
;
_chemical_formula_sum "Si O2"
_cell_formula_units_Z 24
_cell_length_a 6.564197
_cell_length_b 7.811254
_cell_length_c 21.398113
_cell_angle_alpha 90.000000
_cell_angle_beta 66.245515
_cell_angle_gamma 90.000000
_cell_volume 1004.226764
_symmetry_space_group_name_H-M "C C"
_symmetry_group_IT_number 9
_symmetry_cell_setting 'monoclinic'
loop_
_space_group_symop_operation_xyz
x,y,z
x,-y,1/2+z
1/2+x,1/2+y,z
1/2+x,1/2-y,1/2+z
loop_
_atom_site_type_symbol
_atom_site_label
_atom_site_fract_x
_atom_site_fract_y
_atom_site_fract_z
Si Si1 0.065200 0.638162 0.236680
Si Si2 0.400801 0.379813 0.505798
Si Si3 0.194483 0.604514 0.826507
Si Si4 0.807701 0.158806 0.416982
Si Si5 0.447863 0.108841 0.108994
Si Si6 0.991606 0.231647 0.120746
O O1 0.086782 0.469424 0.276492
O O2 0.314634 0.710989 0.198304
O O3 0.903342 0.773531 0.288737
O O4 0.973439 0.594625 0.180185
O O5 0.566757 0.247619 0.452186
O O6 0.380890 0.553871 0.469127
O O7 0.480896 0.414869 0.567798
O O8 0.150885 0.302068 0.546190
O O9 0.295621 0.455992 0.856963
O O10 0.998909 0.699954 0.887198
O O11 0.232904 0.221151 0.121583
O O12 0.442966 0.909097 0.089767
#
# Coordination Sequence:
#
# PCOD8056520 Si02
#       6
#     4   4   4   4   4   4
#     4  11  26  46  74 109 146 189 248 298 368 429
#     4  11  26  50  74 109 146 189 248 298 368 429
#     4  12  28  48  74 104 148 197 242 296 356 435
#     4  12  28  48  74 104 148 197 242 296 356 435
#     4  11  25  45  78 108 146 187 237 313 364 426
#     4  11  25  45  78 108 146 187 237 313 364 426
#
# _framework density 23.898983000000001
#
# number of rings (size 3 to 8) (size 9 to 14) (size 15 to 20)
#    0.000    0.667    1.667    4.000    9.333    6.667 
#    0.000    0.000    0.000    0.000    0.000    0.000 
#    0.000    0.000    0.000    0.000    0.000    0.000 
#
# Total GULP energy -148768.508659 kJ/mol
# GULP energy per Si atom -12397.375722 kJ/mol
# Density = 2.384459 g / cm^3
# Si number density = 23.898983 Si / 1000 Ang^3
#
#
#
# Elastic Constant Matrix: (Units=GPa)
#
#
# Indices 1 2 3 4 5 6 
#
# 1 125.9934 36.1016 47.3293 0.0000 -37.2355 0.0000
# 2 36.1016 83.7249 24.9947 0.0000 -23.8643 0.0000
# 3 47.3293 24.9947 113.2078 0.0000 -32.0236 0.0000
# 4 0.0000 0.0000 0.0000 28.9721 0.0000 5.7396
# 5 -37.2355 -23.8643 -32.0236 0.0000 37.2881 0.0000
# 6 0.0000 0.0000 0.0000 5.7396 0.0000 41.2121
#
#
#
# Elastic Compliance Matrix: (Units=1/GPa)
#
#
# Indices 1 2 3 4 5 6 
#
# 1 0.011886 -0.001998 -0.002024 0.000000 0.008852 0.000000
# 2 -0.001998 0.014995 -0.000429 0.000000 0.007233 0.000000
# 3 -0.002024 -0.000429 0.012053 0.000000 0.008055 0.000000
# 4 0.000000 0.000000 0.000000 0.035495 0.000000 -0.004943
# 5 0.008852 0.007233 0.008055 0.000000 0.047205 0.000000
# 6 0.000000 0.000000 0.000000 -0.004943 0.000000 0.024953
#
#
# Mechanical properties :
#
#
# Convention : Reuss Voigt Hill
#
# Bulk Modulus (GPa) = 33.29815 59.97525 46.63670
# Shear Modulus (GPa) = 30.21139 35.79449 33.00294
#
# Velocity S-wave (km/s) = 3.55932 3.87426 3.72012
# Velocity P-wave (km/s) = 5.55471 6.72034 6.16514
#
# Compressibility (1/GPa) = 0.03003170
#
# Stress axis : x y z
#
# Youngs Moduli (GPa) = 84.13397 66.68817 82.96723
#
# Poissons Ratio (x) = 0.13322 0.16793
# Poissons Ratio (y) = 0.16807 0.03563
# Poissons Ratio (z) = 0.17029 0.02864
#
# Static dielectric constant tensor:
#      x y z
#    x 4.387730 0.000000 -0.125120 
#    y 0.000000 4.259420 0.000000 
#    z -0.125120 0.000000 4.568930 
# 
# 
# High freq. dielectric constant tensor:
#      x y z
#    x 1.958170 0.000000 -0.009630 
#    y 0.000000 1.941260 0.000000 
#    z -0.009630 0.000000 1.968440 
# 
# From -- ./inp_files/28400.got.cif
#   From: 2010.06.25/outbox.cif.g09.slc.cpg/sg9_15_cif.got.tgz:28400.got - 2010.06.27 21:40:51.
