data_PCOD8056548
_publ_section_title
;
Structure prediction by ZEFSAII (Michael W. Deem and Ramdas Pophale) SiO2 
 PCOD8056548
Probable space group: C C
;
_chemical_formula_sum "Si O2"
_cell_formula_units_Z 24
_cell_length_a 6.781677
_cell_length_b 17.352001
_cell_length_c 8.669452
_cell_angle_alpha 90.000000
_cell_angle_beta 74.992084
_cell_angle_gamma 90.000000
_cell_volume 985.385138
_symmetry_space_group_name_H-M "C C"
_symmetry_group_IT_number 9
_symmetry_cell_setting 'monoclinic'
loop_
_space_group_symop_operation_xyz
x,y,z
x,-y,1/2+z
1/2+x,1/2+y,z
1/2+x,1/2-y,1/2+z
loop_
_atom_site_type_symbol
_atom_site_label
_atom_site_fract_x
_atom_site_fract_y
_atom_site_fract_z
Si Si1 0.011310 0.044548 0.486130
Si Si2 0.476779 0.107079 0.866930
Si Si3 0.655450 0.334407 0.196748
Si Si4 0.772936 0.757967 0.393231
Si Si5 0.350201 0.101597 0.223519
Si Si6 0.749205 0.960311 0.754123
O O1 0.030383 0.109454 0.610432
O O2 0.224294 0.035577 0.346223
O O3 0.931559 0.967259 0.589055
O O4 0.838711 0.069286 0.397228
O O5 0.327878 0.119180 0.752896
O O6 0.587309 0.186957 0.885334
O O7 0.643501 0.043721 0.789441
O O8 0.343128 0.081401 0.043662
O O9 0.491836 0.298711 0.345656
O O10 0.755431 0.267651 0.073867
O O11 0.757221 0.685177 0.279682
O O12 0.585334 0.101967 0.231270
#
# Coordination Sequence:
#
# PCOD8056548 Si02
#       6
#     4   4   4   4   4   4
#     4  11  28  46  75 109 150 197 254 311 378 445
#     4  12  27  48  77 110 153 196 253 312 381 452
#     4  11  27  46  77 108 149 197 253 309 376 452
#     4  11  25  48  70 113 147 198 247 309 376 448
#     4  11  28  47  77 112 148 201 249 313 381 450
#     4  12  27  49  76 110 155 195 258 312 378 453
#
# _framework density 24.355958000000001
#
# number of rings (size 3 to 8) (size 9 to 14) (size 15 to 20)
#    0.000    0.667    5.000    0.000   11.667    4.000 
#    0.000    0.000    0.000    0.000    0.000    0.000 
#    0.000    0.000    0.000    0.000    0.000    0.000 
#
# Total GULP energy -148832.862000 kJ/mol
# GULP energy per Si atom -12402.738500 kJ/mol
# Density = 2.430052 g / cm^3
# Si number density = 24.355958 Si / 1000 Ang^3
#
#
#
# Elastic Constant Matrix: (Units=GPa)
#
#
# Indices 1 2 3 4 5 6 
#
# 1 142.2750 34.3911 63.1660 0.0000 13.0215 0.0000
# 2 34.3911 61.1108 32.7081 0.0000 -0.3122 0.0000
# 3 63.1660 32.7081 137.4133 0.0000 -4.1730 0.0000
# 4 0.0000 0.0000 0.0000 34.2576 0.0000 0.0086
# 5 13.0215 -0.3122 -4.1730 0.0000 56.8069 0.0000
# 6 0.0000 0.0000 0.0000 0.0086 0.0000 38.0731
#
#
#
# Elastic Compliance Matrix: (Units=1/GPa)
#
#
# Indices 1 2 3 4 5 6 
#
# 1 0.009765 -0.003512 -0.003730 0.000000 -0.002532 0.000000
# 2 -0.003512 0.020019 -0.003130 0.000000 0.000685 0.000000
# 3 -0.003730 -0.003130 0.009784 0.000000 0.001556 0.000000
# 4 0.000000 0.000000 0.000000 0.029191 0.000000 -0.000007
# 5 -0.002532 0.000685 0.001556 0.000000 0.018302 0.000000
# 6 0.000000 0.000000 0.000000 -0.000007 0.000000 0.026265
#
#
# Mechanical properties :
#
#
# Convention : Reuss Voigt Hill
#
# Bulk Modulus (GPa) = 53.12159 66.81440 59.96800
# Shear Modulus (GPa) = 35.62667 39.86312 37.74489
#
# Velocity S-wave (km/s) = 3.82874 4.04999 3.94092
# Velocity P-wave (km/s) = 6.43456 7.02580 6.73667
#
# Compressibility (1/GPa) = 0.01882474
#
# Stress axis : x y z
#
# Youngs Moduli (GPa) = 102.40413 49.95280 102.20740
#
# Poissons Ratio (x) = 0.17545 0.38121
# Poissons Ratio (y) = 0.35967 0.31988
# Poissons Ratio (z) = 0.38194 0.15634
#
# Static dielectric constant tensor:
#      x y z
#    x 4.374240 0.000000 -0.261790 
#    y 0.000000 4.218110 0.000000 
#    z -0.261790 0.000000 4.758730 
# 
# 
# High freq. dielectric constant tensor:
#      x y z
#    x 1.972180 0.000000 -0.011290 
#    y 0.000000 1.956530 0.000000 
#    z -0.011290 0.000000 1.987770 
# 
# From -- ./inp_files/3674.got.cif
#   From: 2010.06.25/outbox.cif.g09.slc.cpg/sg9_2_cif.got.tgz:3674.got - 2010.06.27 21:40:51.
