data_PCOD8056974
_publ_section_title
;
Structure prediction by ZEFSAII (Michael W. Deem and Ramdas Pophale) SiO2 
 PCOD8056974
Probable space group: P 2/M
;
_chemical_formula_sum "Si O2"
_cell_formula_units_Z 28
_cell_length_a 16.717460
_cell_length_b 8.504692
_cell_length_c 21.772050
_cell_angle_alpha 90.000000
_cell_angle_beta 148.243154
_cell_angle_gamma 90.000000
_cell_volume 1629.199943
_symmetry_space_group_name_H-M "P 2/M"
_symmetry_group_IT_number 10
_symmetry_cell_setting 'monoclinic'
loop_
_space_group_symop_operation_xyz
x,y,z
-x,y,-z
-x,-y,-z
x,-y,z
loop_
_atom_site_type_symbol
_atom_site_label
_atom_site_fract_x
_atom_site_fract_y
_atom_site_fract_z
Si Si1 0.503552 0.681823 0.592948
Si Si2 0.832819 0.687835 0.408637
Si Si3 0.246816 0.313634 0.509727
Si Si4 0.620046 0.687028 0.162533
Si Si5 0.705121 0.313246 0.084798
Si Si6 0.721020 0.182224 0.651377
Si Si7 0.969561 0.313184 0.740624
O O1 0.547571 0.500000 0.624745
O O2 0.418252 0.735380 0.600211
O O3 0.379967 0.709957 0.459018
O O4 0.659011 0.779396 0.680062
O O5 0.829167 0.500000 0.407189
O O6 0.787509 0.757706 0.445638
O O7 0.712892 0.755905 0.280815
O O8 0.000000 0.748481 0.500000
O O9 0.234924 0.500000 0.504612
O O10 0.121118 0.253592 0.379009
O O11 0.628376 0.500000 0.168934
O O12 0.694679 0.749748 0.147983
O O13 0.443508 0.742166 0.050456
O O14 0.711036 0.500000 0.091332
O O15 0.857854 0.249803 0.152185
O O16 0.895579 0.233577 0.753375
O O17 0.697143 0.000000 0.621244
O O18 0.963169 0.500000 0.743521
#
# Coordination Sequence:
#
# PCOD8056974 Si02
#       7
#     4   4   4   4   4   4   4
#     4   9  15  25  38  52  76 107 133 154 186 235
#     4   9  14  19  29  48  77 107 128 151 187 226
#     4   8  14  21  31  49  72 101 130 152 181 225
#     4   8  13  20  31  50  76 103 131 161 191 223
#     4   8  13  21  33  50  74 104 132 158 190 228
#     4  10  17  24  36  56  79  99 126 163 198 230
#     4   9  15  24  37  53  77 106 132 156 189 233
#
# _framework density 17.186349
#
# number of rings (size 3 to 8) (size 9 to 14) (size 15 to 20)
#    0.000    3.286    0.000    5.143    0.000    3.429 
#    0.000    0.000    0.000    0.000    0.000    3.000 
#    0.000   61.143    0.000    0.000    0.000    0.000 
#
# Total GULP energy -346865.997414 kJ/mol
# GULP energy per Si atom -12388.071336 kJ/mol
# Density = 1.714723 g / cm^3
# Si number density = 17.186349 Si / 1000 Ang^3
#
#
#
# Elastic Constant Matrix: (Units=GPa)
#
#
# Indices 1 2 3 4 5 6 
#
# 1 161.6320 19.7119 72.9874 0.0000 35.0534 0.0000
# 2 19.7119 20.3074 11.3906 0.0000 6.1112 0.0000
# 3 72.9874 11.3906 102.5699 0.0000 19.7049 0.0000
# 4 0.0000 0.0000 0.0000 2.2235 0.0000 1.2029
# 5 35.0534 6.1112 19.7049 0.0000 31.7799 0.0000
# 6 0.0000 0.0000 0.0000 1.2029 0.0000 1.9912
#
#
#
# Elastic Compliance Matrix: (Units=1/GPa)
#
#
# Indices 1 2 3 4 5 6 
#
# 1 0.011131 -0.005212 -0.005876 0.000000 -0.007632 0.000000
# 2 -0.005212 0.056516 -0.001798 0.000000 -0.004004 0.000000
# 3 -0.005876 -0.001798 0.014552 0.000000 -0.002196 0.000000
# 4 0.000000 0.000000 0.000000 0.668098 0.000000 -0.403609
# 5 -0.007632 -0.004004 -0.002196 0.000000 0.042016 0.000000
# 6 0.000000 0.000000 0.000000 -0.403609 0.000000 0.746045
#
#
# Mechanical properties :
#
#
# Convention : Reuss Voigt Hill
#
# Bulk Modulus (GPa) = 17.72191 54.74323 36.23257
# Shear Modulus (GPa) = 3.15868 19.22687 11.19278
#
# Velocity S-wave (km/s) = 1.35716 3.34837 2.55475
# Velocity P-wave (km/s) = 3.57629 6.84622 5.46171
#
# Compressibility (1/GPa) = 0.05642732
#
# Stress axis : x y z
#
# Youngs Moduli (GPa) = 89.83972 17.69411 68.71867
#
# Poissons Ratio (x) = 0.09222 0.40376
# Poissons Ratio (y) = 0.46825 0.12357
# Poissons Ratio (z) = 0.52786 0.03182
#
# Static dielectric constant tensor:
#      x y z
#    x 3.894110 0.000000 0.334240 
#    y 0.000000 2.619630 0.000000 
#    z 0.334240 0.000000 3.162560 
# 
# 
# High freq. dielectric constant tensor:
#      x y z
#    x 1.674210 0.000000 0.032240 
#    y 0.000000 1.611770 0.000000 
#    z 0.032240 0.000000 1.620200 
# 
# From -- ./inp_files/89889.got.cif
#   From: 2010.06.25/outbox.cif.g09.slc.cpg/sg10_45_cif.got.tgz:89889.got - 2010.06.27 22:07:45.
