data_PCOD8056167
_publ_section_title
;
Structure prediction by ZEFSAII (Michael W. Deem and Ramdas Pophale) SiO2 
 PCOD8056167
Probable space group: C C
;
_chemical_formula_sum "Si O2"
_cell_formula_units_Z 32
_cell_length_a 12.316709
_cell_length_b 14.359431
_cell_length_c 9.366345
_cell_angle_alpha 90.000000
_cell_angle_beta 57.645827
_cell_angle_gamma 90.000000
_cell_volume 1399.372916
_symmetry_space_group_name_H-M "C C"
_symmetry_group_IT_number 9
_symmetry_cell_setting 'monoclinic'
loop_
_space_group_symop_operation_xyz
x,y,z
x,-y,1/2+z
1/2+x,1/2+y,z
1/2+x,1/2-y,1/2+z
loop_
_atom_site_type_symbol
_atom_site_label
_atom_site_fract_x
_atom_site_fract_y
_atom_site_fract_z
Si Si1 0.649620 0.730917 0.122380
Si Si2 0.493892 0.568101 0.111603
Si Si3 0.557489 0.599845 0.760707
Si Si4 0.917978 0.314938 0.398217
Si Si5 0.846524 0.378502 0.149938
Si Si6 0.532356 0.811770 0.771677
Si Si7 0.515469 0.954999 0.532374
Si Si8 0.709432 0.112487 0.364891
O O1 0.609566 0.640412 0.059136
O O2 0.540903 0.744827 0.321647
O O3 0.794735 0.716667 0.081979
O O4 0.645378 0.826360 0.034892
O O5 0.531110 0.467199 0.145915
O O6 0.361980 0.605370 0.273541
O O7 0.476672 0.561105 0.952898
O O8 0.705091 0.599614 0.699507
O O9 0.516566 0.703590 0.744698
O O10 0.857584 0.309991 0.279211
O O11 0.968690 0.415571 0.411923
O O12 0.907972 0.474304 0.162811
O O13 0.923181 0.338316 0.961556
O O14 0.522777 0.868013 0.632476
O O15 0.671146 0.836825 0.743031
O O16 0.650790 0.008057 0.414873
#
# Coordination Sequence:
#
# PCOD8056167 Si02
#       8
#     4   4   4   4   4   4   4   4
#     4  12  23  45  74 100 134 189 236 282 352 434
#     4  12  27  45  69 108 140 185 239 297 355 418
#     4  12  28  45  70 102 145 188 229 300 351 428
#     4  12  23  45  72 101 139 181 234 290 356 417
#     4  11  22  43  74  98 134 184 237 278 355 429
#     4  11  25  46  73 101 134 191 237 285 357 430
#     4  11  26  43  71 106 136 178 235 300 345 423
#     4  11  24  44  77  98 138 188 241 284 353 437
#
# _framework density 22.867386
#
# number of rings (size 3 to 8) (size 9 to 14) (size 15 to 20)
#    0.000    0.500    6.250    2.250    5.250    1.000 
#    4.500    0.000    0.000    0.000    0.000    0.000 
#    0.000    0.000    0.000    0.000    0.000    0.000 
#
# Total GULP energy -198394.596717 kJ/mol
# GULP energy per Si atom -12399.662295 kJ/mol
# Density = 2.281534 g / cm^3
# Si number density = 22.867386 Si / 1000 Ang^3
#
#
#
# Elastic Constant Matrix: (Units=GPa)
#
#
# Indices 1 2 3 4 5 6 
#
# 1 83.4052 50.3932 36.3479 0.0000 -27.7913 0.0000
# 2 50.3932 156.2994 45.2339 0.0000 -0.4369 0.0000
# 3 36.3479 45.2339 67.6099 0.0000 -15.1405 0.0000
# 4 0.0000 0.0000 0.0000 32.1937 0.0000 10.2339
# 5 -27.7913 -0.4369 -15.1405 0.0000 41.1482 0.0000
# 6 0.0000 0.0000 0.0000 10.2339 0.0000 40.2617
#
#
#
# Elastic Compliance Matrix: (Units=1/GPa)
#
#
# Indices 1 2 3 4 5 6 
#
# 1 0.021835 -0.005500 -0.005198 0.000000 0.012776 0.000000
# 2 -0.005500 0.009479 -0.004571 0.000000 -0.005296 0.000000
# 3 -0.005198 -0.004571 0.021629 0.000000 0.004399 0.000000
# 4 0.000000 0.000000 0.000000 0.033792 0.000000 -0.008590
# 5 0.012776 -0.005296 0.004399 0.000000 0.034494 0.000000
# 6 0.000000 0.000000 0.000000 -0.008590 0.000000 0.027021
#
#
# Mechanical properties :
#
#
# Convention : Reuss Voigt Hill
#
# Bulk Modulus (GPa) = 44.63324 63.47385 54.05355
# Shear Modulus (GPa) = 26.84461 34.41003 30.62732
#
# Velocity S-wave (km/s) = 3.42998 3.88334 3.66368
# Velocity P-wave (km/s) = 5.93692 6.92277 6.44871
#
# Compressibility (1/GPa) = 0.02240483
#
# Stress axis : x y z
#
# Youngs Moduli (GPa) = 45.79766 105.49216 46.23475
#
# Poissons Ratio (x) = 0.58020 0.24033
# Poissons Ratio (y) = 0.25188 0.21135
# Poissons Ratio (z) = 0.23806 0.48223
#
# Static dielectric constant tensor:
#      x y z
#    x 4.136270 0.000000 -0.229110 
#    y 0.000000 4.136620 0.000000 
#    z -0.229110 0.000000 4.031040 
# 
# 
# High freq. dielectric constant tensor:
#      x y z
#    x 1.899300 0.000000 -0.021570 
#    y 0.000000 1.909480 0.000000 
#    z -0.021570 0.000000 1.892200 
# 
# From -- ./inp_files/7557.got.cif
#   From: 2010.06.25/outbox.cif.g09.slc.cpg/sg9_4_cif.got.tgz:7557.got - 2010.06.27 21:40:51.
