data_PCOD8056510
_publ_section_title
;
Structure prediction by ZEFSAII (Michael W. Deem and Ramdas Pophale) SiO2 
 PCOD8056510
Probable space group: C C
;
_chemical_formula_sum "Si O2"
_cell_formula_units_Z 32
_cell_length_a 9.799630
_cell_length_b 16.677232
_cell_length_c 15.323201
_cell_angle_alpha 90.000000
_cell_angle_beta 36.439903
_cell_angle_gamma 90.000000
_cell_volume 1487.491384
_symmetry_space_group_name_H-M "C C"
_symmetry_group_IT_number 9
_symmetry_cell_setting 'monoclinic'
loop_
_space_group_symop_operation_xyz
x,y,z
x,-y,1/2+z
1/2+x,1/2+y,z
1/2+x,1/2-y,1/2+z
loop_
_atom_site_type_symbol
_atom_site_label
_atom_site_fract_x
_atom_site_fract_y
_atom_site_fract_z
Si Si1 0.313640 0.323286 0.253350
Si Si2 0.489285 0.345017 0.665800
Si Si3 0.156121 0.834988 0.921621
Si Si4 0.988616 0.658470 0.651185
Si Si5 0.497897 0.916998 0.868385
Si Si6 0.647674 0.581842 0.701380
Si Si7 0.932941 0.589681 0.863853
Si Si8 0.461874 0.586324 0.358901
O O1 0.220237 0.238033 0.327956
O O2 0.473077 0.357190 0.246923
O O3 0.091408 0.379568 0.361122
O O4 0.440900 0.317180 0.094673
O O5 0.520797 0.253580 0.617186
O O6 0.665115 0.403258 0.525326
O O7 0.543209 0.352234 0.741263
O O8 0.238341 0.379309 0.772557
O O9 0.374447 0.854531 0.868560
O O10 0.090972 0.903726 0.885082
O O11 0.752013 0.628100 0.730433
O O12 0.976898 0.646194 0.759531
O O13 0.192685 0.604770 0.507605
O O14 0.513473 0.998655 0.804297
O O15 0.349970 0.939640 0.029809
O O16 0.506840 0.504055 0.804073
#
# Coordination Sequence:
#
# PCOD8056510 Si02
#       8
#     4   4   4   4   4   4   4   4
#     4  11  25  46  69 102 140 182 228 287 351 415
#     4  12  25  46  74  98 140 188 234 286 348 417
#     4  11  25  46  70 102 141 179 231 287 350 417
#     4  12  25  45  69 106 138 181 237 287 345 419
#     4  11  25  46  69 100 139 185 227 286 349 413
#     4  11  25  45  71 101 140 179 231 287 350 413
#     4  12  26  43  71 101 137 181 234 287 347 413
#     4  12  24  45  71 102 139 183 232 287 346 419
#
# _framework density 21.512730999999999
#
# number of rings (size 3 to 8) (size 9 to 14) (size 15 to 20)
#    0.000    0.500    3.750    4.500    3.500    1.000 
#    4.500    0.000    0.000    0.000    0.000    0.000 
#    0.000    0.000    0.000    0.000    0.000    0.000 
#
# Total GULP energy -198422.615643 kJ/mol
# GULP energy per Si atom -12401.413478 kJ/mol
# Density = 2.146377 g / cm^3
# Si number density = 21.512731 Si / 1000 Ang^3
#
#
#
# Elastic Constant Matrix: (Units=GPa)
#
#
# Indices 1 2 3 4 5 6 
#
# 1 41.0543 -7.9041 -11.6313 -0.2833 -34.9722 0.3983
# 2 -7.9041 55.1282 8.2257 -0.2136 -17.7887 0.2492
# 3 -11.6313 8.2257 63.2445 -0.2753 -25.2548 0.2759
# 4 -0.2833 -0.2136 -0.2753 34.8185 -0.1218 3.2756
# 5 -34.9722 -17.7887 -25.2548 -0.1218 20.7178 0.1781
# 6 0.3983 0.2492 0.2759 3.2756 0.1781 29.2491
#
#
#
# Elastic Compliance Matrix: (Units=1/GPa)
#
#
# Indices 1 2 3 4 5 6 
#
# 1 -0.004638 -0.008189 -0.011159 -0.000318 -0.028468 0.000447
# 2 -0.008189 0.014734 -0.007584 -0.000085 -0.010419 0.000130
# 3 -0.011159 -0.007584 0.009003 -0.000138 -0.014376 0.000235
# 4 -0.000318 -0.000085 -0.000138 0.029019 -0.000580 -0.003240
# 5 -0.028468 -0.010419 -0.014376 -0.000580 -0.026269 0.000837
# 6 0.000447 0.000130 0.000235 -0.003240 0.000837 0.034537
#
#
# Mechanical properties :
#
#
# Convention : Reuss Voigt Hill
#
# Bulk Modulus (GPa) = -28.76480 15.20086 -6.78197
# Shear Modulus (GPa) = 50.67724 28.33952 39.50838
#
# Velocity S-wave (km/s) = 4.85881 3.63345 4.29010
# Velocity P-wave (km/s) = 4.25174 4.96829 4.62392
#
# Compressibility (1/GPa) = -0.03476472
#
# Stress axis : x y z
#
# Youngs Moduli (GPa) = -215.63017 67.86990 111.06981
#
# Poissons Ratio (x) = 0.55580 1.23944
# Poissons Ratio (y) = -1.76585 0.84234
# Poissons Ratio (z) = -2.40624 0.51472
#
# Static dielectric constant tensor:
#      x y z
#    x 4.200830 0.006140 -0.074130 
#    y 0.006140 4.187600 -0.004360 
#    z -0.074130 -0.004360 4.133330 
# 
# 
# High freq. dielectric constant tensor:
#      x y z
#    x 1.864190 0.000000 -0.003220 
#    y 0.000000 1.846580 0.000010 
#    z -0.003220 0.000010 1.845780 
# 
# From -- ./inp_files/14817.got.cif
#   From: 2010.06.25/outbox.cif.g09.slc.cpg/sg9_8_cif.got.tgz:14817.got - 2010.06.27 21:40:51.
