data_PCOD8056020
_publ_section_title
;
Structure prediction by ZEFSAII (Michael W. Deem and Ramdas Pophale) SiO2 
 PCOD8056020
Probable space group: C C
;
_chemical_formula_sum "Si O2"
_cell_formula_units_Z 32
_cell_length_a 26.729476
_cell_length_b 4.743747
_cell_length_c 9.286927
_cell_angle_alpha 90.000000
_cell_angle_beta 77.610582
_cell_angle_gamma 90.000000
_cell_volume 1150.139407
_symmetry_space_group_name_H-M "C C"
_symmetry_group_IT_number 9
_symmetry_cell_setting 'monoclinic'
loop_
_space_group_symop_operation_xyz
x,y,z
x,-y,1/2+z
1/2+x,1/2+y,z
1/2+x,1/2-y,1/2+z
loop_
_atom_site_type_symbol
_atom_site_label
_atom_site_fract_x
_atom_site_fract_y
_atom_site_fract_z
Si Si1 0.628790 0.525743 0.756510
Si Si2 0.407081 0.240808 0.284623
Si Si3 0.613109 0.026765 0.588800
Si Si4 0.775080 0.311291 0.349814
Si Si5 0.039609 0.129677 0.496399
Si Si6 0.476989 0.734065 0.252746
Si Si7 0.206754 0.302346 0.360689
Si Si8 0.342750 0.922293 0.561944
O O1 0.633662 0.852863 0.715391
O O2 0.593015 0.526486 0.919593
O O3 0.683844 0.373988 0.740246
O O4 0.602411 0.350333 0.641471
O O5 0.425225 0.554483 0.315466
O O6 0.377883 0.261755 0.148707
O O7 0.458042 0.049095 0.226845
O O8 0.374895 0.135427 0.441401
O O9 0.557387 0.903496 0.577864
O O10 0.659532 0.983715 0.451228
O O11 0.734477 0.549164 0.432353
O O12 0.809901 0.233685 0.468281
O O13 0.806393 0.408790 0.192224
O O14 0.749997 0.028874 0.300512
O O15 0.012275 0.246030 0.371174
O O16 0.004275 0.908969 0.599711
#
# Coordination Sequence:
#
# PCOD8056020 Si02
#       8
#     4   4   4   4   4   4   4   4
#     4  11  25  45  71 102 155 190 239 294 354 419
#     4  11  26  48  72 105 141 184 229 300 373 422
#     4  11  25  45  71 102 155 190 239 294 354 418
#     4  11  26  44  74 103 139 185 240 293 347 442
#     4  11  26  46  72 110 144 193 240 293 353 419
#     4  12  26  45  77 105 143 185 246 292 349 449
#     4  11  26  43  70 107 141 190 239 290 353 412
#     4  10  26  48  73 102 144 181 232 300 373 423
#
# _framework density 27.822714999999999
#
# number of rings (size 3 to 8) (size 9 to 14) (size 15 to 20)
#    0.000    1.000    1.250    3.000    7.000   11.000 
#    0.000    0.000    0.000    0.000    0.000    0.000 
#    0.000    0.000    0.000    0.000    0.000    0.000 
#
# Total GULP energy -198338.491091 kJ/mol
# GULP energy per Si atom -12396.155693 kJ/mol
# Density = 2.775939 g / cm^3
# Si number density = 27.822715 Si / 1000 Ang^3
#
#
#
# Elastic Constant Matrix: (Units=GPa)
#
#
# Indices 1 2 3 4 5 6 
#
# 1 108.5284 -2.1551 29.6457 0.0000 13.1756 0.0000
# 2 -2.1551 63.9795 0.5923 0.0000 -3.9529 0.0000
# 3 29.6457 0.5923 130.6029 0.0000 15.9169 0.0000
# 4 0.0000 0.0000 0.0000 23.7034 0.0000 8.7373
# 5 13.1756 -3.9529 15.9169 0.0000 26.9265 0.0000
# 6 0.0000 0.0000 0.0000 8.7373 0.0000 28.8080
#
#
#
# Elastic Compliance Matrix: (Units=1/GPa)
#
#
# Indices 1 2 3 4 5 6 
#
# 1 0.010191 0.000121 -0.001841 0.000000 -0.003881 0.000000
# 2 0.000121 0.015792 -0.000403 0.000000 0.002498 0.000000
# 3 -0.001841 -0.000403 0.008593 0.000000 -0.004238 0.000000
# 4 0.000000 0.000000 0.000000 0.047498 0.000000 -0.014406
# 5 -0.003881 0.002498 -0.004238 0.000000 0.041909 0.000000
# 6 0.000000 0.000000 0.000000 -0.014406 0.000000 0.039082
#
#
# Mechanical properties :
#
#
# Convention : Reuss Voigt Hill
#
# Bulk Modulus (GPa) = 32.97246 39.91964 36.44605
# Shear Modulus (GPa) = 28.18153 34.22277 31.20215
#
# Velocity S-wave (km/s) = 3.18606 3.51098 3.35246
# Velocity P-wave (km/s) = 5.04096 5.55113 5.30218
#
# Compressibility (1/GPa) = 0.03032834
#
# Stress axis : x y z
#
# Youngs Moduli (GPa) = 98.13049 63.32274 116.37430
#
# Poissons Ratio (x) = -0.00763 0.21422
# Poissons Ratio (y) = -0.01183 0.04694
# Poissons Ratio (z) = 0.18064 0.02554
#
# Static dielectric constant tensor:
#      x y z
#    x 5.563490 0.000000 0.188570 
#    y 0.000000 4.973900 0.000000 
#    z 0.188570 0.000000 5.036740 
# 
# 
# High freq. dielectric constant tensor:
#      x y z
#    x 2.144640 0.000000 0.008280 
#    y 0.000000 2.123820 0.000000 
#    z 0.008280 0.000000 2.131050 
# 
# From -- ./inp_files/12582.got.cif
#   From: 2010.06.25/outbox.cif.g09.slc.cpg/sg9_7_cif.got.tgz:12582.got - 2010.06.27 21:40:51.
