data_PCOD8056719
_publ_section_title
;
Structure prediction by ZEFSAII (Michael W. Deem and Ramdas Pophale) SiO2 
 PCOD8056719
Probable space group: C C
;
_chemical_formula_sum "Si O2"
_cell_formula_units_Z 32
_cell_length_a 6.288422
_cell_length_b 13.982320
_cell_length_c 15.995231
_cell_angle_alpha 90.000000
_cell_angle_beta 63.288610
_cell_angle_gamma 90.000000
_cell_volume 1256.319321
_symmetry_space_group_name_H-M "C C"
_symmetry_group_IT_number 9
_symmetry_cell_setting 'monoclinic'
loop_
_space_group_symop_operation_xyz
x,y,z
x,-y,1/2+z
1/2+x,1/2+y,z
1/2+x,1/2-y,1/2+z
loop_
_atom_site_type_symbol
_atom_site_label
_atom_site_fract_x
_atom_site_fract_y
_atom_site_fract_z
Si Si1 0.726420 0.961809 0.366480
Si Si2 0.117309 0.196613 0.523132
Si Si3 0.680593 0.246873 0.836449
Si Si4 0.561241 0.112188 0.268345
Si Si5 0.422029 0.662114 0.071853
Si Si6 0.248408 0.027771 0.740166
Si Si7 0.604852 0.797298 0.178269
Si Si8 0.785066 0.505542 0.040133
O O1 0.653360 0.867267 0.328743
O O2 0.005761 0.944482 0.330720
O O3 0.684144 0.060369 0.324282
O O4 0.565908 0.966490 0.479648
O O5 0.030865 0.215970 0.442751
O O6 0.290760 0.286358 0.516751
O O7 0.258437 0.097342 0.501295
O O8 0.889327 0.183547 0.623204
O O9 0.570826 0.275015 0.764399
O O10 0.958759 0.280231 0.803269
O O11 0.729354 0.105074 0.159072
O O12 0.319038 0.060962 0.284390
O O13 0.528320 0.746697 0.107889
O O14 0.627955 0.584033 0.015818
O O15 0.451227 0.107237 0.711595
O O16 0.211421 0.996840 0.650070
#
# Coordination Sequence:
#
# PCOD8056719 Si02
#       8
#     4   4   4   4   4   4   4   4
#     4  12  27  50  72 113 153 200 266 321 394 478
#     4  12  27  50  77 117 157 206 267 331 400 482
#     4  12  26  49  76 111 158 199 263 320 396 481
#     4  12  25  48  76 107 150 208 255 323 397 470
#     4  12  26  49  81 112 156 207 260 330 404 472
#     4  12  26  49  79 109 156 207 255 331 392 471
#     4  12  25  50  78 112 157 209 256 329 401 475
#     4  12  26  51  77 115 155 204 270 325 400 477
#
# _framework density 25.471232000000001
#
# number of rings (size 3 to 8) (size 9 to 14) (size 15 to 20)
#    0.000    0.000    6.250    3.750    1.750    2.000 
#    9.000    0.000    0.000    0.000    0.000    0.000 
#    0.000    0.000    0.000    0.000    0.000    0.000 
#
# Total GULP energy -198271.486699 kJ/mol
# GULP energy per Si atom -12391.967919 kJ/mol
# Density = 2.541326 g / cm^3
# Si number density = 25.471232 Si / 1000 Ang^3
#
#
#
# Elastic Constant Matrix: (Units=GPa)
#
#
# Indices 1 2 3 4 5 6 
#
# 1 86.8441 32.4203 47.1550 0.0000 -16.1030 0.0000
# 2 32.4203 96.3280 27.6481 0.0000 -12.9523 0.0000
# 3 47.1550 27.6481 130.9607 0.0000 -21.8669 0.0000
# 4 0.0000 0.0000 0.0000 29.3677 0.0000 -6.1767
# 5 -16.1030 -12.9523 -21.8669 0.0000 46.2870 0.0000
# 6 0.0000 0.0000 0.0000 -6.1767 0.0000 54.3322
#
#
#
# Elastic Compliance Matrix: (Units=1/GPa)
#
#
# Indices 1 2 3 4 5 6 
#
# 1 0.015777 -0.003703 -0.004512 0.000000 0.002321 0.000000
# 2 -0.003703 0.012123 -0.000950 0.000000 0.001655 0.000000
# 3 -0.004512 -0.000950 0.009938 0.000000 0.002860 0.000000
# 4 0.000000 0.000000 0.000000 0.034885 0.000000 0.003966
# 5 0.002321 0.001655 0.002860 0.000000 0.024226 0.000000
# 6 0.000000 0.000000 0.000000 0.003966 0.000000 0.018856
#
#
# Mechanical properties :
#
#
# Convention : Reuss Voigt Hill
#
# Bulk Modulus (GPa) = 51.25565 58.73105 54.99335
# Shear Modulus (GPa) = 35.55238 39.79134 37.67186
#
# Velocity S-wave (km/s) = 3.74007 3.95676 3.84994
# Velocity P-wave (km/s) = 6.23037 6.63193 6.43428
#
# Compressibility (1/GPa) = 0.01951004
#
# Stress axis : x y z
#
# Youngs Moduli (GPa) = 63.38164 82.49041 100.62034
#
# Poissons Ratio (x) = 0.30547 0.45396
# Poissons Ratio (y) = 0.23470 0.09554
# Poissons Ratio (z) = 0.28595 0.07833
#
# Static dielectric constant tensor:
#      x y z
#    x 4.532570 0.000000 -0.201750 
#    y 0.000000 4.904410 0.000000 
#    z -0.201750 0.000000 4.630870 
# 
# 
# High freq. dielectric constant tensor:
#      x y z
#    x 2.007430 0.000000 -0.007390 
#    y 0.000000 2.029470 0.000000 
#    z -0.007390 0.000000 2.021610 
# 
# From -- ./inp_files/28672.got.cif
#   From: 2010.06.25/outbox.cif.g09.slc.cpg/sg9_15_cif.got.tgz:28672.got - 2010.06.27 21:40:51.
