data_PCOD8056781
_publ_section_title
;
Structure prediction by ZEFSAII (Michael W. Deem and Ramdas Pophale) SiO2 
 PCOD8056781
Probable space group: C C
;
_chemical_formula_sum "Si O2"
_cell_formula_units_Z 20
_cell_length_a 20.518037
_cell_length_b 7.488759
_cell_length_c 13.975068
_cell_angle_alpha 90.000000
_cell_angle_beta 19.735454
_cell_angle_gamma 90.000000
_cell_volume 725.106934
_symmetry_space_group_name_H-M "C C"
_symmetry_group_IT_number 9
_symmetry_cell_setting 'monoclinic'
loop_
_space_group_symop_operation_xyz
x,y,z
x,-y,1/2+z
1/2+x,1/2+y,z
1/2+x,1/2-y,1/2+z
loop_
_atom_site_type_symbol
_atom_site_label
_atom_site_fract_x
_atom_site_fract_y
_atom_site_fract_z
Si Si1 0.313280 0.290123 0.619620
Si Si2 0.754187 0.150000 0.672212
Si Si3 0.950959 0.918856 0.628961
Si Si4 0.454190 0.218204 0.229358
Si Si5 0.695064 0.625267 0.079943
O O1 0.180517 0.446069 0.751014
O O2 0.431630 0.398501 0.539338
O O3 0.465053 0.226210 0.329680
O O4 0.173952 0.131589 0.848044
O O5 0.672293 0.314025 0.723015
O O6 0.980345 0.132225 0.336077
O O7 0.674237 0.179184 0.890823
O O8 0.889593 0.104670 0.761355
O O9 0.807112 0.776915 0.870374
O O10 0.300897 0.062168 0.416062
#
# Coordination Sequence:
#
# PCOD8056781 Si02
#       5
#     4   4   4   4   4
#     4  12  27  51  84 121 166 221 278 349 416 499
#     4  12  27  51  84 121 166 221 278 349 416 499
#     4  12  28  56  82 125 170 218 286 346 419 506
#     4  12  28  56  84 122 172 228 276 350 428 502
#     4  12  28  56  82 125 170 218 286 346 419 506
#
# _framework density 27.582139999999999
#
# number of rings (size 3 to 8) (size 9 to 14) (size 15 to 20)
#    0.000    0.000    4.000    4.800    0.000    9.600 
#    7.200    0.000    0.000    0.000    0.000    0.000 
#    0.000    0.000    0.000    0.000    0.000    0.000 
#
# Total GULP energy -123884.301175 kJ/mol
# GULP energy per Si atom -12388.430117 kJ/mol
# Density = 2.751936 g / cm^3
# Si number density = 27.582140 Si / 1000 Ang^3
#
#
#
# Elastic Constant Matrix: (Units=GPa)
#
#
# Indices 1 2 3 4 5 6 
#
# 1 55.9175 12.0225 17.8671 0.0000 20.1454 0.0000
# 2 12.0225 173.7970 32.7745 0.0000 6.0983 0.0000
# 3 17.8671 32.7745 134.3327 0.0000 29.3418 0.0000
# 4 0.0000 0.0000 0.0000 40.0587 0.0000 11.4547
# 5 20.1454 6.0983 29.3418 0.0000 52.8923 0.0000
# 6 0.0000 0.0000 0.0000 11.4547 0.0000 39.4952
#
#
#
# Elastic Compliance Matrix: (Units=1/GPa)
#
#
# Indices 1 2 3 4 5 6 
#
# 1 0.021063 -0.001021 -0.000940 0.000000 -0.007383 0.000000
# 2 -0.001021 0.006082 -0.001456 0.000000 0.000495 0.000000
# 3 -0.000940 -0.001456 0.008886 0.000000 -0.004404 0.000000
# 4 0.000000 0.000000 0.000000 0.027221 0.000000 -0.007895
# 5 -0.007383 0.000495 -0.004404 0.000000 0.024104 0.000000
# 6 0.000000 0.000000 0.000000 -0.007895 0.000000 0.027609
#
#
# Mechanical properties :
#
#
# Convention : Reuss Voigt Hill
#
# Bulk Modulus (GPa) = 34.24911 54.37504 44.31207
# Shear Modulus (GPa) = 38.01354 46.58145 42.29749
#
# Velocity S-wave (km/s) = 3.71643 4.11399 3.92025
# Velocity P-wave (km/s) = 5.55517 6.50563 6.04910
#
# Compressibility (1/GPa) = 0.02919784
#
# Stress axis : x y z
#
# Youngs Moduli (GPa) = 47.47598 164.42808 112.53125
#
# Poissons Ratio (x) = 0.16784 0.10575
# Poissons Ratio (y) = 0.04846 0.16387
# Poissons Ratio (z) = 0.04462 0.23945
#
# Static dielectric constant tensor:
#      x y z
#    x 5.169140 0.000000 0.506020 
#    y 0.000000 5.660360 0.000000 
#    z 0.506020 0.000000 5.033620 
# 
# 
# High freq. dielectric constant tensor:
#      x y z
#    x 2.090890 0.000000 0.041010 
#    y 0.000000 2.145910 0.000000 
#    z 0.041010 0.000000 2.130000 
# 
# From -- ./inp_files/27286.got.cif
#   From: 2010.06.25/outbox.cif.g09.slc.cpg/sg9_14_cif.got.tgz:27286.got - 2010.06.27 21:40:51.
