data_PCOD8056850
_publ_section_title
;
Structure prediction by ZEFSAII (Michael W. Deem and Ramdas Pophale) SiO2 
 PCOD8056850
Probable space group: P 2/M
;
_chemical_formula_sum "Si O2"
_cell_formula_units_Z 28
_cell_length_a 12.286727
_cell_length_b 11.751269
_cell_length_c 21.519147
_cell_angle_alpha 90.000000
_cell_angle_beta 37.206014
_cell_angle_gamma 90.000000
_cell_volume 1878.769866
_symmetry_space_group_name_H-M "P 2/M"
_symmetry_group_IT_number 10
_symmetry_cell_setting 'monoclinic'
loop_
_space_group_symop_operation_xyz
x,y,z
-x,y,-z
-x,-y,-z
x,-y,z
loop_
_atom_site_type_symbol
_atom_site_label
_atom_site_fract_x
_atom_site_fract_y
_atom_site_fract_z
Si Si1 0.883081 0.000000 0.145777
Si Si2 0.744638 0.240260 0.226497
Si Si3 0.599726 0.759723 0.153681
Si Si4 0.927635 0.626481 0.963470
Si Si5 0.854093 0.367247 0.487380
Si Si6 0.735205 0.000000 0.075337
Si Si7 0.518218 0.632361 0.563904
Si Si8 0.244448 0.364833 0.331947
O O1 0.797001 0.889879 0.217844
O O2 0.831244 0.000000 0.097679
O O3 0.102249 0.000000 0.049391
O O4 0.646320 0.253456 0.205160
O O5 0.618063 0.287131 0.337937
O O6 0.928351 0.311630 0.145507
O O7 0.606691 0.890322 0.127892
O O8 0.405226 0.706457 0.227946
O O9 0.740152 0.692509 0.046864
O O10 0.897393 0.500000 0.951288
O O11 0.000000 0.624654 0.000000
O O12 0.869891 0.500000 0.490572
O O13 0.722281 0.334819 0.490793
O O14 0.772542 0.321621 0.589146
O O15 0.059224 0.326638 0.381383
O O16 0.500000 0.657996 0.500000
O O17 0.477997 0.500000 0.598032
O O18 0.285290 0.500000 0.307976
#
# Coordination Sequence:
#
# PCOD8056850 Si02
#       8
#     2   4   4   4   4   2   4   4
#     4   9  16  28  41  55  83 124 150 170 207 259
#     4  10  17  27  41  58  86 117 146 179 211 254
#     4  10  16  24  40  61  89 115 144 173 207 265
#     4   9  16  22  34  59  87 111 133 170 219 262
#     4   8  15  27  41  60  86 115 146 175 210 257
#     4   9  16  26  38  58  88 121 149 163 207 267
#     4  10  19  30  45  65  88 115 147 181 218 254
#     4   9  15  24  42  64  86 114 143 174 212 255
#
# _framework density 14.903369
#
# number of rings (size 3 to 8) (size 9 to 14) (size 15 to 20)
#    0.000    2.714    2.857    1.714    0.000    1.143 
#    0.000    0.357    0.000    2.571    0.000    1.000 
#    0.000    6.857    0.000    0.000    0.000    0.000 
#
# Total GULP energy -347024.430678 kJ/mol
# GULP energy per Si atom -12393.729667 kJ/mol
# Density = 1.486945 g / cm^3
# Si number density = 14.903369 Si / 1000 Ang^3
#
#
#
# Elastic Constant Matrix: (Units=GPa)
#
#
# Indices 1 2 3 4 5 6 
#
# 1 67.1003 29.4066 44.6501 0.0000 -15.1218 0.0000
# 2 29.4066 111.7183 59.5623 0.0000 -15.3129 0.0000
# 3 44.6501 59.5623 99.5059 0.0000 -28.4535 0.0000
# 4 0.0000 0.0000 0.0000 14.3066 0.0000 3.3922
# 5 -15.1218 -15.3129 -28.4535 0.0000 24.3121 0.0000
# 6 0.0000 0.0000 0.0000 3.3922 0.0000 4.1511
#
#
#
# Elastic Compliance Matrix: (Units=1/GPa)
#
#
# Indices 1 2 3 4 5 6 
#
# 1 0.021455 -0.000828 -0.008213 0.000000 0.003211 0.000000
# 2 -0.000828 0.013210 -0.007971 0.000000 -0.001524 0.000000
# 3 -0.008213 -0.007971 0.023462 0.000000 0.017329 0.000000
# 4 0.000000 0.000000 0.000000 0.086696 0.000000 -0.070846
# 5 0.003211 -0.001524 0.017329 0.000000 0.062450 0.000000
# 6 0.000000 0.000000 0.000000 -0.070846 0.000000 0.298796
#
#
# Mechanical properties :
#
#
# Convention : Reuss Voigt Hill
#
# Bulk Modulus (GPa) = 41.49265 60.61806 51.05536
# Shear Modulus (GPa) = 9.12195 18.20098 13.66147
#
# Velocity S-wave (km/s) = 2.47670 3.49845 3.03094
# Velocity P-wave (km/s) = 6.00668 7.55521 6.82501
#
# Compressibility (1/GPa) = 0.02410065
#
# Stress axis : x y z
#
# Youngs Moduli (GPa) = 46.60918 75.69910 42.62216
#
# Poissons Ratio (x) = 0.06271 0.35007
# Poissons Ratio (y) = 0.03861 0.33976
# Poissons Ratio (z) = 0.38282 0.60344
#
# Static dielectric constant tensor:
#      x y z
#    x 2.609900 0.000000 -0.302730 
#    y 0.000000 2.935590 0.000000 
#    z -0.302730 0.000000 2.832340 
# 
# 
# High freq. dielectric constant tensor:
#      x y z
#    x 1.520330 0.000000 -0.030260 
#    y 0.000000 1.561150 0.000000 
#    z -0.030260 0.000000 1.567310 
# 
# From -- ./inp_files/50355.got.cif
#   From: 2010.06.25/outbox.cif.g09.slc.cpg/sg10_26_cif.got.tgz:50355.got - 2010.06.27 22:07:45.
