data_PCOD8056774
_publ_section_title
;
Structure prediction by ZEFSAII (Michael W. Deem and Ramdas Pophale) SiO2 
 PCOD8056774
Probable space group: C C
;
_chemical_formula_sum "Si O2"
_cell_formula_units_Z 24
_cell_length_a 10.471040
_cell_length_b 15.033381
_cell_length_c 8.322579
_cell_angle_alpha 90.000000
_cell_angle_beta 49.043518
_cell_angle_gamma 90.000000
_cell_volume 989.397471
_symmetry_space_group_name_H-M "C C"
_symmetry_group_IT_number 9
_symmetry_cell_setting 'monoclinic'
loop_
_space_group_symop_operation_xyz
x,y,z
x,-y,1/2+z
1/2+x,1/2+y,z
1/2+x,1/2-y,1/2+z
loop_
_atom_site_type_symbol
_atom_site_label
_atom_site_fract_x
_atom_site_fract_y
_atom_site_fract_z
Si Si1 0.599220 0.104862 0.805210
Si Si2 0.060076 0.093384 0.991029
Si Si3 0.683448 0.073746 0.374974
Si Si4 0.489919 0.231777 0.382233
Si Si5 0.183893 0.235571 0.441385
Si Si6 0.718324 0.573512 0.192378
O O1 0.685892 0.094708 0.561130
O O2 0.694780 0.192469 0.790718
O O3 0.631077 0.027856 0.906493
O O4 0.395687 0.101503 0.963397
O O5 0.086697 0.089469 0.159288
O O6 0.860896 0.076550 0.134821
O O7 0.085449 0.193830 0.908853
O O8 0.184063 0.026254 0.790101
O O9 0.544811 0.135542 0.401249
O O10 0.286991 0.242073 0.530127
O O11 0.505045 0.242965 0.173481
O O12 0.185057 0.136475 0.371661
#
# Coordination Sequence:
#
# PCOD8056774 Si02
#       6
#     4   4   4   4   4   4
#     4  12  28  47  75 108 150 193 246 305 366 433
#     4  12  28  47  75 109 147 195 247 303 365 437
#     4  12  28  47  75 108 150 193 246 305 366 433
#     4  12  27  48  76 109 148 194 244 298 367 434
#     4  12  27  48  76 109 148 194 244 298 367 434
#     4  12  28  47  75 109 147 195 247 303 365 437
#
# _framework density 24.257186999999998
#
# number of rings (size 3 to 8) (size 9 to 14) (size 15 to 20)
#    0.000    0.000    3.333    5.000   14.000    2.667 
#    0.000    0.000    0.000    0.000    0.000    0.000 
#    0.000    0.000    0.000    0.000    0.000    0.000 
#
# Total GULP energy -148672.407017 kJ/mol
# GULP energy per Si atom -12389.367251 kJ/mol
# Density = 2.420198 g / cm^3
# Si number density = 24.257187 Si / 1000 Ang^3
#
#
#
# Elastic Constant Matrix: (Units=GPa)
#
#
# Indices 1 2 3 4 5 6 
#
# 1 100.7572 28.2944 3.3735 0.0001 9.2515 -0.0001
# 2 28.2944 90.6114 6.5346 0.0001 -8.3023 -0.0001
# 3 3.3735 6.5346 84.6629 0.0000 13.8178 0.0000
# 4 0.0001 0.0001 0.0000 29.9949 0.0000 11.2181
# 5 9.2515 -8.3023 13.8178 0.0000 34.7965 0.0000
# 6 -0.0001 -0.0001 0.0000 11.2181 0.0000 48.9223
#
#
#
# Elastic Compliance Matrix: (Units=1/GPa)
#
#
# Indices 1 2 3 4 5 6 
#
# 1 0.011412 -0.003987 0.000538 0.000000 -0.004199 0.000000
# 2 -0.003987 0.012833 -0.001609 0.000000 0.004761 0.000000
# 3 0.000538 -0.001609 0.012832 0.000000 -0.005623 0.000000
# 4 0.000000 0.000000 0.000000 0.036466 0.000000 -0.008362
# 5 -0.004199 0.004761 -0.005623 0.000000 0.033224 0.000000
# 6 0.000000 0.000000 0.000000 -0.008362 0.000000 0.022358
#
#
# Mechanical properties :
#
#
# Convention : Reuss Voigt Hill
#
# Bulk Modulus (GPa) = 37.08852 39.15959 38.12406
# Shear Modulus (GPa) = 33.73189 38.59803 36.16496
#
# Velocity S-wave (km/s) = 3.73311 3.99331 3.86540
# Velocity P-wave (km/s) = 5.82275 6.11887 5.97265
#
# Compressibility (1/GPa) = 0.02696252
#
# Stress axis : x y z
#
# Youngs Moduli (GPa) = 87.62668 77.92170 77.93063
#
# Poissons Ratio (x) = 0.31068 -0.04196
# Poissons Ratio (y) = 0.34938 0.12537
# Poissons Ratio (z) = -0.04718 0.12535
#
# Static dielectric constant tensor:
#      x y z
#    x 4.250560 0.000000 -0.227160 
#    y 0.000000 4.253320 0.000000 
#    z -0.227160 0.000000 4.496540 
# 
# 
# High freq. dielectric constant tensor:
#      x y z
#    x 1.974460 0.000000 -0.005800 
#    y 0.000000 1.964640 0.000000 
#    z -0.005800 0.000000 1.986430 
# 
# From -- ./inp_files/6929.got.cif
#   From: 2010.06.25/outbox.cif.g09.slc.cpg/sg9_4_cif.got.tgz:6929.got - 2010.06.27 21:40:51.
