data_PCOD8056811
_publ_section_title
;
Structure prediction by ZEFSAII (Michael W. Deem and Ramdas Pophale) SiO2 
 PCOD8056811
Probable space group: P 2/M
;
_chemical_formula_sum "Si O2"
_cell_formula_units_Z 26
_cell_length_a 15.610566
_cell_length_b 21.877603
_cell_length_c 5.250578
_cell_angle_alpha 90.000000
_cell_angle_beta 119.029342
_cell_angle_gamma 90.000000
_cell_volume 1567.910985
_symmetry_space_group_name_H-M "P 2/M"
_symmetry_group_IT_number 10
_symmetry_cell_setting 'monoclinic'
loop_
_space_group_symop_operation_xyz
x,y,z
-x,y,-z
-x,-y,-z
x,-y,z
loop_
_atom_site_type_symbol
_atom_site_label
_atom_site_fract_x
_atom_site_fract_y
_atom_site_fract_z
Si Si1 0.614208 0.376522 0.924863
Si Si2 0.891605 0.071027 0.331455
Si Si3 0.434535 0.000000 0.151981
Si Si4 0.435131 0.756792 0.155773
Si Si5 0.396399 0.571656 0.591426
Si Si6 0.775121 0.928373 0.648968
Si Si7 0.386093 0.120944 0.267763
O O1 0.630215 0.303843 0.974169
O O2 0.663821 0.403846 0.740743
O O3 0.499163 0.392824 0.750224
O O4 0.663150 0.410014 0.239588
O O5 0.823501 0.098126 0.460328
O O6 0.000000 0.100942 0.500000
O O7 0.901574 0.000000 0.409622
O O8 0.848178 0.083226 0.990869
O O9 0.500000 0.000000 0.500000
O O10 0.366628 0.061214 0.057039
O O11 0.500000 0.000000 0.000000
O O12 0.500000 0.746436 0.500000
O O13 0.362607 0.815212 0.091144
O O14 0.500000 0.769038 0.000000
O O15 0.415886 0.500000 0.601877
O O16 0.677729 0.888484 0.568635
O O17 0.746156 0.000000 0.584533
O O18 0.500000 0.123834 0.500000
#
# Coordination Sequence:
#
# PCOD8056811 Si02
#       7
#     4   4   2   4   4   4   4
#     4  10  15  25  35  50  71  92 124 160 207 259
#     4   9  18  32  51  70  87 104 127 164 222 282
#     4  10  20  34  44  58  75 104 145 184 212 246
#     4  11  19  31  41  53  73 108 142 173 206 251
#     4  10  16  23  37  54  70  88 118 168 224 254
#     4  10  19  32  48  68  88 109 135 174 218 263
#     4  10  22  34  47  63  86 118 150 183 216 256
#
# _framework density 16.582576
#
# number of rings (size 3 to 8) (size 9 to 14) (size 15 to 20)
#    0.000    2.000    3.846    3.231    0.000    6.769 
#    0.000    0.000    0.000    0.000    0.000    0.000 
#    0.000    0.000    0.000    0.000    0.000    0.000 
#
# Total GULP energy -322182.836804 kJ/mol
# GULP energy per Si atom -12391.647569 kJ/mol
# Density = 1.654483 g / cm^3
# Si number density = 16.582576 Si / 1000 Ang^3
#
#
#
# Elastic Constant Matrix: (Units=GPa)
#
#
# Indices 1 2 3 4 5 6 
#
# 1 76.9949 22.7265 24.0391 0.0000 -18.6405 0.0000
# 2 22.7265 121.4561 12.1861 0.0000 -13.9635 0.0000
# 3 24.0391 12.1861 48.2012 0.0000 -29.8981 0.0000
# 4 0.0000 0.0000 0.0000 13.1597 0.0000 -10.4504
# 5 -18.6405 -13.9635 -29.8981 0.0000 37.2267 0.0000
# 6 0.0000 0.0000 0.0000 -10.4504 0.0000 11.0268
#
#
#
# Elastic Compliance Matrix: (Units=1/GPa)
#
#
# Indices 1 2 3 4 5 6 
#
# 1 0.016070 -0.002126 -0.005939 0.000000 0.002479 0.000000
# 2 -0.002126 0.008889 0.000440 0.000000 0.002623 0.000000
# 3 -0.005939 0.000440 0.043550 0.000000 0.032168 0.000000
# 4 0.000000 0.000000 0.000000 0.307172 0.000000 0.291117
# 5 0.002479 0.002623 0.032168 0.000000 0.054923 0.000000
# 6 0.000000 0.000000 0.000000 0.291117 0.000000 0.366589
#
#
# Mechanical properties :
#
#
# Convention : Reuss Voigt Hill
#
# Bulk Modulus (GPa) = 18.77643 40.50619 29.64131
# Shear Modulus (GPa) = 6.02268 24.79599 15.40934
#
# Velocity S-wave (km/s) = 1.90783 3.87111 3.05167
# Velocity P-wave (km/s) = 4.02500 6.66788 5.50733
#
# Compressibility (1/GPa) = 0.05325826
#
# Stress axis : x y z
#
# Youngs Moduli (GPa) = 62.22793 112.50309 22.96218
#
# Poissons Ratio (x) = 0.23918 0.13637
# Poissons Ratio (y) = 0.13230 -0.01010
# Poissons Ratio (z) = 0.36958 -0.04950
#
# Static dielectric constant tensor:
#      x y z
#    x 3.527520 0.000000 -1.362310 
#    y 0.000000 3.505220 0.000000 
#    z -1.362310 0.000000 4.833990 
# 
# 
# High freq. dielectric constant tensor:
#      x y z
#    x 1.597120 0.000000 -0.057650 
#    y 0.000000 1.619900 0.000000 
#    z -0.057650 0.000000 1.631560 
# 
# From -- ./inp_files/9998.got.cif
#   From: 2010.06.25/outbox.cif.g09.slc.cpg/sg10_5_cif.got.tgz:9998.got - 2010.06.27 22:07:45.
