data_PCOD8056799
_publ_section_title
;
Structure prediction by ZEFSAII (Michael W. Deem and Ramdas Pophale) SiO2 
 PCOD8056799
Probable space group: C C
;
_chemical_formula_sum "Si O2"
_cell_formula_units_Z 16
_cell_length_a 15.000000
_cell_length_b 12.000000
_cell_length_c 9.000000
_cell_angle_alpha 90.000000
_cell_angle_beta 60.000000
_cell_angle_gamma 90.000000
_cell_volume 1402.961154
_symmetry_space_group_name_H-M "C C"
_symmetry_group_IT_number 9
_symmetry_cell_setting 'monoclinic'
loop_
_space_group_symop_operation_xyz
x,y,z
x,-y,1/2+z
1/2+x,1/2+y,z
1/2+x,1/2-y,1/2+z
loop_
_atom_site_type_symbol
_atom_site_label
_atom_site_fract_x
_atom_site_fract_y
_atom_site_fract_z
Si Si1 0.155950 0.466279 0.745140
Si Si2 0.791254 0.913983 0.892086
Si Si3 0.604642 0.610319 0.461108
Si Si4 0.334790 0.068910 0.314110
Si Si5 0.492554 0.458356 0.320177
Si Si6 0.891121 0.320145 0.303396
Si Si7 0.521155 0.847637 0.467678
Si Si8 0.967743 0.300388 0.916285
O O1 0.252855 0.414536 0.752904
O O2 0.200018 0.534189 0.567772
O O3 0.107428 0.558018 0.894738
O O4 0.070287 0.370441 0.774724
O O5 0.814510 0.783128 0.905327
O O6 0.892211 0.990211 0.824070
O O7 0.726728 0.606305 0.329699
O O8 0.531824 0.543188 0.410371
O O9 0.588490 0.547786 0.629250
O O10 0.564428 0.737385 0.511849
O O11 0.364793 0.144333 0.431463
O O12 0.330198 0.937839 0.360436
O O13 0.421345 0.097721 0.123468
O O14 0.470709 0.331677 0.386779
O O15 0.987928 0.314846 0.331217
O O16 0.954246 0.310481 0.100724
#
# Coordination Sequence:
#
# PCOD8056799 Si02
#       8
#     4   4   4   4   4   4   4   4
#     4  12  26  47  77 111 144 203 245 306 381 449
#     4  12  28  46  77 109 151 194 251 308 383 447
#     4  12  30  46  76 106 151 202 247 307 386 444
#     4  12  27  50  76 108 148 202 251 309 381 453
#     4  12  28  50  69 110 153 194 249 309 372 459
#     4  12  25  49  75 107 152 192 245 325 364 445
#     4  12  26  51  73 107 151 193 255 314 368 462
#     4  12  26  49  75 108 156 192 253 312 369 455
#
# _framework density 11.404450000000001
#
# number of rings (size 3 to 8) (size 9 to 14) (size 15 to 20)
#    0.000    0.000    5.000    3.750    8.750    0.000 
#    0.000    0.000    0.000    0.000    0.000    0.000 
#    0.000    0.000    0.000    0.000    0.000    0.000 
#
# Total GULP energy -198350.731633 kJ/mol
# GULP energy per Si atom -12396.920727 kJ/mol
# Density = 1.137849 g / cm^3
# Si number density = 11.404450 Si / 1000 Ang^3
#
#
#
# Elastic Constant Matrix: (Units=GPa)
#
#
# Indices 1 2 3 4 5 6 
#
# 1 130.6780 52.5393 8.1036 0.0000 -9.3936 0.0000
# 2 52.5393 179.7905 10.4730 0.0000 -11.9594 0.0000
# 3 8.1036 10.4730 70.6568 0.0000 -8.1820 0.0000
# 4 0.0000 0.0000 0.0000 35.6891 0.0000 -2.5346
# 5 -9.3936 -11.9594 -8.1820 0.0000 36.8463 0.0000
# 6 0.0000 0.0000 0.0000 -2.5346 0.0000 37.5718
#
#
#
# Elastic Compliance Matrix: (Units=1/GPa)
#
#
# Indices 1 2 3 4 5 6 
#
# 1 0.008761 -0.002443 -0.000488 0.000000 0.001332 0.000000
# 2 -0.002443 0.006395 -0.000513 0.000000 0.001339 0.000000
# 3 -0.000488 -0.000513 0.014627 0.000000 0.002957 0.000000
# 4 0.000000 0.000000 0.000000 0.028155 0.000000 0.001899
# 5 0.001332 0.001339 0.002957 0.000000 0.028571 0.000000
# 6 0.000000 0.000000 0.000000 0.001899 0.000000 0.026744
#
#
# Mechanical properties :
#
#
# Convention : Reuss Voigt Hill
#
# Bulk Modulus (GPa) = 43.67807 58.15081 50.91444
# Shear Modulus (GPa) = 39.13230 42.68873 40.91052
#
# Velocity S-wave (km/s) = 4.14655 4.33087 4.23971
# Velocity P-wave (km/s) = 6.48970 7.11047 6.80717
#
# Compressibility (1/GPa) = 0.02289478
#
# Stress axis : x y z
#
# Youngs Moduli (GPa) = 114.14671 156.37535 68.36502
#
# Poissons Ratio (x) = 0.38203 0.03339
# Poissons Ratio (y) = 0.27886 0.03505
# Poissons Ratio (z) = 0.05575 0.08016
#
# Static dielectric constant tensor:
#      x y z
#    x 4.229150 0.000000 0.106140 
#    y 0.000000 4.608270 0.000000 
#    z 0.106140 0.000000 4.093380 
# 
# 
# High freq. dielectric constant tensor:
#      x y z
#    x 1.913400 0.000000 0.004700 
#    y 0.000000 1.932350 0.000000 
#    z 0.004700 0.000000 1.903160 
# 
# From -- ./inp_files/9232.got.cif
#   From: 2010.06.25/outbox.ucp.g09.slc.cvg/sg9_5_cif.got.tgz:9232.got - 2010.06.28 13:32:59.
