data_PCOD8056641
_publ_section_title
;
Structure prediction by ZEFSAII (Michael W. Deem and Ramdas Pophale) SiO2 
 PCOD8056641
Probable space group: C C
;
_chemical_formula_sum "Si O2"
_cell_formula_units_Z 32
_cell_length_a 14.716850
_cell_length_b 11.324109
_cell_length_c 9.766412
_cell_angle_alpha 90.000000
_cell_angle_beta 109.677222
_cell_angle_gamma 90.000000
_cell_volume 1532.577563
_symmetry_space_group_name_H-M "C C"
_symmetry_group_IT_number 9
_symmetry_cell_setting 'monoclinic'
loop_
_space_group_symop_operation_xyz
x,y,z
x,-y,1/2+z
1/2+x,1/2+y,z
1/2+x,1/2-y,1/2+z
loop_
_atom_site_type_symbol
_atom_site_label
_atom_site_fract_x
_atom_site_fract_y
_atom_site_fract_z
Si Si1 0.375000 0.737079 0.157540
Si Si2 0.963350 0.360868 0.454923
Si Si3 0.958335 0.021293 0.700233
Si Si4 0.161001 0.242795 0.489346
Si Si5 0.078276 0.997028 0.014160
Si Si6 0.157715 0.229442 0.166679
Si Si7 0.369966 0.243008 0.169042
Si Si8 0.478131 0.139177 0.468772
O O1 0.413294 0.831997 0.285355
O O2 0.426085 0.612416 0.208880
O O3 0.260825 0.713081 0.105633
O O4 0.403335 0.789316 0.025277
O O5 0.072918 0.312838 0.513765
O O6 0.894252 0.299186 0.529415
O O7 0.966854 0.500018 0.483257
O O8 0.874981 0.115315 0.688992
O O9 0.043543 0.048566 0.851723
O O10 0.989650 0.052124 0.560587
O O11 0.161578 0.265330 0.327168
O O12 0.155658 0.104515 0.523483
O O13 0.117573 0.097921 0.133677
O O14 0.260386 0.216846 0.148128
O O15 0.088663 0.323120 0.054646
O O16 0.447972 0.174113 0.300786
#
# Coordination Sequence:
#
# PCOD8056641 Si02
#       8
#     4   4   4   4   4   4   4   4
#     4  12  25  47  71 100 142 186 225 279 356 405
#     4  12  27  47  65 105 145 178 230 288 339 408
#     4  12  22  46  70 100 136 181 227 293 334 398
#     4  12  26  45  71 103 137 189 225 280 353 403
#     4  12  22  44  71  96 140 176 236 281 335 403
#     4  12  26  45  70 105 137 185 229 280 350 407
#     4  12  27  43  70 109 134 180 238 281 342 406
#     4  12  25  47  68 100 145 187 222 282 347 416
#
# _framework density 20.879859
#
# number of rings (size 3 to 8) (size 9 to 14) (size 15 to 20)
#    0.000    0.000    8.750    0.750    5.250    2.000 
#    0.000    0.000    0.000    0.000    0.000    0.000 
#    0.000    0.000    0.000    0.000    0.000    0.000 
#
# Total GULP energy -198438.397535 kJ/mol
# GULP energy per Si atom -12402.399846 kJ/mol
# Density = 2.083234 g / cm^3
# Si number density = 20.879859 Si / 1000 Ang^3
#
#
#
# Elastic Constant Matrix: (Units=GPa)
#
#
# Indices 1 2 3 4 5 6 
#
# 1 118.7627 25.6014 27.6050 0.0000 6.9820 0.0000
# 2 25.6014 106.2894 9.2001 0.0000 3.1406 0.0000
# 3 27.6050 9.2001 68.1701 0.0000 3.8417 0.0000
# 4 0.0000 0.0000 0.0000 24.5022 0.0000 -7.6892
# 5 6.9820 3.1406 3.8417 0.0000 34.8110 0.0000
# 6 0.0000 0.0000 0.0000 -7.6892 0.0000 19.8485
#
#
#
# Elastic Compliance Matrix: (Units=1/GPa)
#
#
# Indices 1 2 3 4 5 6 
#
# 1 0.009771 -0.002000 -0.003609 0.000000 -0.001381 0.000000
# 2 -0.002000 0.009947 -0.000508 0.000000 -0.000440 0.000000
# 3 -0.003609 -0.000508 0.016257 0.000000 -0.001024 0.000000
# 4 0.000000 0.000000 0.000000 0.046461 0.000000 0.017999
# 5 -0.001381 -0.000440 -0.001024 0.000000 0.029156 0.000000
# 6 0.000000 0.000000 0.000000 0.017999 0.000000 0.057354
#
#
# Mechanical properties :
#
#
# Convention : Reuss Voigt Hill
#
# Bulk Modulus (GPa) = 42.12076 46.44838 44.28457
# Shear Modulus (GPa) = 26.44175 31.22005 28.83090
#
# Velocity S-wave (km/s) = 3.56248 3.87101 3.71994
# Velocity P-wave (km/s) = 6.09413 6.50180 6.30126
#
# Compressibility (1/GPa) = 0.02374126
#
# Stress axis : x y z
#
# Youngs Moduli (GPa) = 102.33886 100.53239 61.51234
#
# Poissons Ratio (x) = 0.20111 0.22200
# Poissons Ratio (y) = 0.20472 0.03122
# Poissons Ratio (z) = 0.36935 0.05103
#
# Static dielectric constant tensor:
#      x y z
#    x 3.814080 0.000000 -0.065650 
#    y 0.000000 3.802310 0.000000 
#    z -0.065650 0.000000 3.798560 
# 
# 
# High freq. dielectric constant tensor:
#      x y z
#    x 1.817600 0.000000 -0.006080 
#    y 0.000000 1.825770 0.000000 
#    z -0.006080 0.000000 1.827420 
# 
# From -- ./inp_files/9069.got.cif
#   From: 2010.06.25/outbox.cif.g09.slc.cpg/sg9_5_cif.got.tgz:9069.got - 2010.06.27 21:40:51.
