data_PCOD8056173
_publ_section_title
;
Structure prediction by ZEFSAII (Michael W. Deem and Ramdas Pophale) SiO2 
 PCOD8056173
Probable space group: C C
;
_chemical_formula_sum "Si O2"
_cell_formula_units_Z 32
_cell_length_a 14.411738
_cell_length_b 10.893803
_cell_length_c 14.514669
_cell_angle_alpha 90.000000
_cell_angle_beta 39.435630
_cell_angle_gamma 90.000000
_cell_volume 1447.507990
_symmetry_space_group_name_H-M "C C"
_symmetry_group_IT_number 9
_symmetry_cell_setting 'monoclinic'
loop_
_space_group_symop_operation_xyz
x,y,z
x,-y,1/2+z
1/2+x,1/2+y,z
1/2+x,1/2-y,1/2+z
loop_
_atom_site_type_symbol
_atom_site_label
_atom_site_fract_x
_atom_site_fract_y
_atom_site_fract_z
Si Si1 0.724540 0.344986 0.901680
Si Si2 0.075750 0.260183 0.076430
Si Si3 0.878140 0.152624 0.668087
Si Si4 0.282851 0.891714 0.302570
Si Si5 0.767283 0.185053 0.049117
Si Si6 0.453529 0.469549 0.754316
Si Si7 0.093353 0.131274 0.785777
Si Si8 0.751656 0.914369 0.067895
O O1 0.807851 0.282584 0.751066
O O2 0.782407 0.486370 0.867633
O O3 0.551081 0.336461 0.019146
O O4 0.768302 0.268764 0.958256
O O5 0.130522 0.315220 0.131921
O O6 0.945233 0.351108 0.144268
O O7 0.021218 0.123055 0.131092
O O8 0.207376 0.233642 0.902807
O O9 0.802451 0.106591 0.632724
O O10 0.845911 0.056188 0.776241
O O11 0.188426 0.940373 0.288290
O O12 0.680852 0.244405 0.199156
O O13 0.691339 0.051994 0.095674
O O14 0.934961 0.160875 0.949944
O O15 0.580872 0.555087 0.700305
O O16 0.381125 0.397131 0.894377
#
# Coordination Sequence:
#
# PCOD8056173 Si02
#       8
#     4   4   4   4   4   4   4   4
#     4  12  24  46  70 107 139 189 235 298 349 425
#     4  12  26  46  66 102 141 187 229 304 344 427
#     4  12  26  45  77 101 146 189 238 290 362 423
#     4  12  27  43  74 100 144 184 245 286 364 417
#     4  11  22  44  69  99 138 177 230 288 349 416
#     4  11  23  47  68  97 144 183 225 293 354 418
#     4  11  23  42  70  98 135 183 227 285 351 419
#     4  11  27  43  74 100 143 186 237 284 363 419
#
# _framework density 22.106959
#
# number of rings (size 3 to 8) (size 9 to 14) (size 15 to 20)
#    0.000    0.500    6.250    2.250    8.750    0.000 
#    0.000    1.250    0.000    0.000    0.000    0.000 
#    0.000    0.000    0.000    0.000    0.000    0.000 
#
# Total GULP energy -198289.847316 kJ/mol
# GULP energy per Si atom -12393.115457 kJ/mol
# Density = 2.205664 g / cm^3
# Si number density = 22.106959 Si / 1000 Ang^3
#
#
#
# Elastic Constant Matrix: (Units=GPa)
#
#
# Indices 1 2 3 4 5 6 
#
# 1 131.5391 29.3799 6.6668 0.0000 8.6233 0.0000
# 2 29.3799 108.7361 30.5169 0.0000 -6.0866 0.0000
# 3 6.6668 30.5169 67.2218 0.0000 -2.3972 0.0000
# 4 0.0000 0.0000 0.0000 41.7731 0.0000 5.3060
# 5 8.6233 -6.0866 -2.3972 0.0000 32.4189 0.0000
# 6 0.0000 0.0000 0.0000 5.3060 0.0000 24.3670
#
#
#
# Elastic Compliance Matrix: (Units=1/GPa)
#
#
# Indices 1 2 3 4 5 6 
#
# 1 0.008314 -0.002449 0.000193 0.000000 -0.002657 0.000000
# 2 -0.002449 0.011347 -0.004822 0.000000 0.002425 0.000000
# 3 0.000193 -0.004822 0.017057 0.000000 0.000305 0.000000
# 4 0.000000 0.000000 0.000000 0.024620 0.000000 -0.005361
# 5 -0.002657 0.002425 0.000305 0.000000 0.032031 0.000000
# 6 0.000000 0.000000 0.000000 -0.005361 0.000000 0.042207
#
#
# Mechanical properties :
#
#
# Convention : Reuss Voigt Hill
#
# Bulk Modulus (GPa) = 44.32439 48.95824 46.64131
# Shear Modulus (GPa) = 31.79594 35.77402 33.78498
#
# Velocity S-wave (km/s) = 3.79658 4.02708 3.91353
# Velocity P-wave (km/s) = 6.26994 6.61947 6.44707
#
# Compressibility (1/GPa) = 0.02256094
#
# Stress axis : x y z
#
# Youngs Moduli (GPa) = 120.28275 88.12615 58.62707
#
# Poissons Ratio (x) = 0.21583 -0.01129
# Poissons Ratio (y) = 0.29458 0.28270
# Poissons Ratio (z) = -0.02316 0.42495
#
# Static dielectric constant tensor:
#      x y z
#    x 3.910710 0.000000 -0.062780 
#    y 0.000000 4.205130 0.000000 
#    z -0.062780 0.000000 4.114100 
# 
# 
# High freq. dielectric constant tensor:
#      x y z
#    x 1.863010 0.000000 0.002600 
#    y 0.000000 1.878680 0.000000 
#    z 0.002600 0.000000 1.868070 
# 
# From -- ./inp_files/25904.got.cif
#   From: 2010.06.25/outbox.cif.g09.slc.cpg/sg9_13_cif.got.tgz:25904.got - 2010.06.27 21:40:51.
