data_PCOD8056211
_publ_section_title
;
Structure prediction by ZEFSAII (Michael W. Deem and Ramdas Pophale) SiO2 
 PCOD8056211
Probable space group: C C
;
_chemical_formula_sum "Si O2"
_cell_formula_units_Z 32
_cell_length_a 8.730550
_cell_length_b 14.532835
_cell_length_c 12.687521
_cell_angle_alpha 90.000000
_cell_angle_beta 115.316533
_cell_angle_gamma 90.000000
_cell_volume 1455.182783
_symmetry_space_group_name_H-M "C C"
_symmetry_group_IT_number 9
_symmetry_cell_setting 'monoclinic'
loop_
_space_group_symop_operation_xyz
x,y,z
x,-y,1/2+z
1/2+x,1/2+y,z
1/2+x,1/2-y,1/2+z
loop_
_atom_site_type_symbol
_atom_site_label
_atom_site_fract_x
_atom_site_fract_y
_atom_site_fract_z
Si Si1 0.968660 0.379867 0.478450
Si Si2 0.769795 0.418864 0.620515
Si Si3 0.302742 0.386401 0.259439
Si Si4 0.155098 0.563702 0.503593
Si Si5 0.454448 0.523349 0.446962
Si Si6 0.930592 0.603888 0.730404
Si Si7 0.864085 0.305036 0.842053
Si Si8 0.173242 0.199768 0.503760
O O1 0.831973 0.367879 0.531799
O O2 0.879310 0.380490 0.337512
O O3 0.052897 0.479237 0.524246
O O4 0.104394 0.297663 0.522755
O O5 0.584053 0.460649 0.550413
O O6 0.900633 0.498899 0.689503
O O7 0.758749 0.348789 0.714399
O O8 0.413910 0.476026 0.322645
O O9 0.416112 0.297474 0.321598
O O10 0.127749 0.375391 0.272259
O O11 0.268507 0.387798 0.125376
O O12 0.274336 0.522531 0.450135
O O13 0.032804 0.638799 0.416251
O O14 0.521087 0.626442 0.455132
O O15 0.820084 0.672618 0.627797
O O16 0.745009 0.298678 0.908009
#
# Coordination Sequence:
#
# PCOD8056211 Si02
#       8
#     4   4   4   4   4   4   4   4
#     4  12  24  48  73 100 140 193 237 294 357 422
#     4  11  26  45  72 102 143 188 237 299 356 423
#     4  12  25  43  71 104 140 186 234 296 355 424
#     4  12  25  46  72 100 144 184 240 290 360 425
#     4  11  27  44  67 108 139 181 239 294 358 418
#     4  11  22  48  70 100 141 191 238 292 359 422
#     4  12  25  46  73 100 142 189 238 291 357 429
#     4  11  26  44  72 106 139 188 241 296 360 425
#
# _framework density 21.990364
#
# number of rings (size 3 to 8) (size 9 to 14) (size 15 to 20)
#    0.000    0.500    6.250    0.750    5.250    3.000 
#    0.000    0.000    0.000    0.000    0.000    0.000 
#    0.000    0.000    0.000    0.000    0.000    0.000 
#
# Total GULP energy -198452.170811 kJ/mol
# GULP energy per Si atom -12403.260676 kJ/mol
# Density = 2.194031 g / cm^3
# Si number density = 21.990364 Si / 1000 Ang^3
#
#
#
# Elastic Constant Matrix: (Units=GPa)
#
#
# Indices 1 2 3 4 5 6 
#
# 1 43.2185 36.0059 -2.3902 0.0000 6.5692 0.0000
# 2 36.0059 116.0508 53.5578 0.0000 7.1257 0.0000
# 3 -2.3902 53.5578 107.0339 0.0000 -3.0500 0.0000
# 4 0.0000 0.0000 0.0000 35.6937 0.0000 -1.5451
# 5 6.5692 7.1257 -3.0500 0.0000 35.4102 0.0000
# 6 0.0000 0.0000 0.0000 -1.5451 0.0000 25.6763
#
#
#
# Elastic Compliance Matrix: (Units=1/GPa)
#
#
# Indices 1 2 3 4 5 6 
#
# 1 0.036476 -0.014907 0.008186 0.000000 -0.003062 0.000000
# 2 -0.014907 0.017569 -0.009169 0.000000 -0.001560 0.000000
# 3 0.008186 -0.009169 0.014157 0.000000 0.001546 0.000000
# 4 0.000000 0.000000 0.000000 0.028089 0.000000 0.001690
# 5 -0.003062 -0.001560 0.001546 0.000000 0.029255 0.000000
# 6 0.000000 0.000000 0.000000 0.001690 0.000000 0.039048
#
#
# Mechanical properties :
#
#
# Convention : Reuss Voigt Hill
#
# Bulk Modulus (GPa) = 27.45449 48.96114 38.20782
# Shear Modulus (GPa) = 23.97916 31.29802 27.63859
#
# Velocity S-wave (km/s) = 3.30576 3.77671 3.54905
# Velocity P-wave (km/s) = 5.20410 6.42893 5.84867
#
# Compressibility (1/GPa) = 0.03642392
#
# Stress axis : x y z
#
# Youngs Moduli (GPa) = 27.41563 56.91837 70.63413
#
# Poissons Ratio (x) = 0.84848 -0.57824
# Poissons Ratio (y) = 0.40868 0.64761
# Poissons Ratio (z) = -0.22444 0.52186
#
# Static dielectric constant tensor:
#      x y z
#    x 3.753020 0.000000 -0.038330 
#    y 0.000000 4.135500 0.000000 
#    z -0.038330 0.000000 4.165900 
# 
# 
# High freq. dielectric constant tensor:
#      x y z
#    x 1.853300 0.000000 -0.001690 
#    y 0.000000 1.875170 0.000000 
#    z -0.001690 0.000000 1.881320 
# 
# From -- ./inp_files/14583.got.cif
#   From: 2010.06.25/outbox.cif.g09.slc.cpg/sg9_8_cif.got.tgz:14583.got - 2010.06.27 21:40:51.
