data_PCOD8056450
_publ_section_title
;
Structure prediction by ZEFSAII (Michael W. Deem and Ramdas Pophale) SiO2 
 PCOD8056450
Probable space group: C C
;
_chemical_formula_sum "Si O2"
_cell_formula_units_Z 32
_cell_length_a 8.524221
_cell_length_b 14.585318
_cell_length_c 16.200510
_cell_angle_alpha 90.000000
_cell_angle_beta 135.907038
_cell_angle_gamma 90.000000
_cell_volume 1401.519212
_symmetry_space_group_name_H-M "C C"
_symmetry_group_IT_number 9
_symmetry_cell_setting 'monoclinic'
loop_
_space_group_symop_operation_xyz
x,y,z
x,-y,1/2+z
1/2+x,1/2+y,z
1/2+x,1/2-y,1/2+z
loop_
_atom_site_type_symbol
_atom_site_label
_atom_site_fract_x
_atom_site_fract_y
_atom_site_fract_z
Si Si1 0.026660 0.712540 0.444280
Si Si2 0.877733 0.890015 0.452879
Si Si3 0.175363 0.089835 0.215554
Si Si4 0.394043 0.903101 0.235310
Si Si5 0.445855 0.085823 0.559389
Si Si6 0.232347 0.415037 0.650385
Si Si7 0.014010 0.225198 0.554551
Si Si8 0.455217 0.579352 0.397460
O O1 0.005789 0.677460 0.530960
O O2 0.287668 0.714835 0.520567
O O3 0.936382 0.816959 0.403558
O O4 0.879595 0.652720 0.324818
O O5 0.611960 0.880269 0.373772
O O6 0.038939 0.862982 0.589445
O O7 0.909800 0.995549 0.441317
O O8 0.986100 0.075978 0.213360
O O9 0.282892 0.996699 0.223063
O O10 0.473847 0.904932 0.169009
O O11 0.215540 0.822120 0.182264
O O12 0.190207 0.058708 0.440471
O O13 0.599957 0.006934 0.577757
O O14 0.086927 0.329325 0.563151
O O15 0.250575 0.408814 0.756632
O O16 0.980885 0.174379 0.455504
#
# Coordination Sequence:
#
# PCOD8056450 Si02
#       8
#     4   4   4   4   4   4   4   4
#     4  12  28  45  74 110 146 189 252 302 362 446
#     4  12  26  47  76 103 146 196 242 298 373 431
#     4  12  27  45  75 107 149 189 247 298 370 435
#     4  11  25  47  75 100 148 193 233 305 370 426
#     4  11  24  46  72 103 146 185 240 297 365 428
#     4  12  26  45  74 109 144 195 244 298 367 440
#     4  11  26  46  71 109 143 192 242 305 364 432
#     4  11  24  49  69 103 150 189 238 305 369 434
#
# _framework density 22.832366
#
# number of rings (size 3 to 8) (size 9 to 14) (size 15 to 20)
#    0.000    0.500    5.000    3.000    7.000    0.000 
#    0.000    0.000    0.000    0.000    0.000    0.000 
#    0.000    0.000    0.000    0.000    0.000    0.000 
#
# Total GULP energy -198374.116750 kJ/mol
# GULP energy per Si atom -12398.382297 kJ/mol
# Density = 2.278040 g / cm^3
# Si number density = 22.832366 Si / 1000 Ang^3
#
#
#
# Elastic Constant Matrix: (Units=GPa)
#
#
# Indices 1 2 3 4 5 6 
#
# 1 104.0694 27.1291 52.2489 0.0000 25.1226 0.0000
# 2 27.1291 98.5377 48.4882 0.0000 1.6250 0.0000
# 3 52.2489 48.4882 97.0153 0.0001 17.4153 0.0000
# 4 0.0000 0.0000 0.0001 30.4393 0.0000 7.3269
# 5 25.1226 1.6250 17.4153 0.0000 47.1711 0.0000
# 6 0.0000 0.0000 0.0000 7.3269 0.0000 33.8841
#
#
#
# Elastic Compliance Matrix: (Units=1/GPa)
#
#
# Indices 1 2 3 4 5 6 
#
# 1 0.014259 -0.000691 -0.006399 0.000000 -0.005208 0.000000
# 2 -0.000691 0.013701 -0.006915 0.000000 0.002449 0.000000
# 3 -0.006399 -0.006915 0.017731 0.000000 -0.002900 0.000000
# 4 0.000000 0.000000 0.000000 0.034656 0.000000 -0.007494
# 5 -0.005208 0.002449 -0.002900 0.000000 0.024959 0.000000
# 6 0.000000 0.000000 0.000000 -0.007494 0.000000 0.031133
#
#
# Mechanical properties :
#
#
# Convention : Reuss Voigt Hill
#
# Bulk Modulus (GPa) = 56.56101 61.70609 59.13355
# Shear Modulus (GPa) = 29.35246 33.74930 31.55088
#
# Velocity S-wave (km/s) = 3.58937 3.84882 3.72136
# Velocity P-wave (km/s) = 6.48106 6.84366 6.66482
#
# Compressibility (1/GPa) = 0.01768002
#
# Stress axis : x y z
#
# Youngs Moduli (GPa) = 70.13098 72.98667 56.39881
#
# Poissons Ratio (x) = 0.05043 0.36091
# Poissons Ratio (y) = 0.04846 0.39002
# Poissons Ratio (z) = 0.44878 0.50473
#
# Static dielectric constant tensor:
#      x y z
#    x 4.077090 0.000000 0.208260 
#    y 0.000000 4.066410 0.000000 
#    z 0.208260 0.000000 4.376250 
# 
# 
# High freq. dielectric constant tensor:
#      x y z
#    x 1.897800 0.000000 0.015670 
#    y 0.000000 1.906780 0.000000 
#    z 0.015670 0.000000 1.915240 
# 
# From -- ./inp_files/29442.got.cif
#   From: 2010.06.25/outbox.cif.g09.slc.cpg/sg9_15_cif.got.tgz:29442.got - 2010.06.27 21:40:51.
