data_PCOD8056674
_publ_section_title
;
Structure prediction by ZEFSAII (Michael W. Deem and Ramdas Pophale) SiO2 
 PCOD8056674
Probable space group: C C
;
_chemical_formula_sum "Si O2"
_cell_formula_units_Z 24
_cell_length_a 9.694074
_cell_length_b 9.642116
_cell_length_c 13.268033
_cell_angle_alpha 90.000000
_cell_angle_beta 112.009941
_cell_angle_gamma 90.000000
_cell_volume 1149.795579
_symmetry_space_group_name_H-M "C C"
_symmetry_group_IT_number 9
_symmetry_cell_setting 'monoclinic'
loop_
_space_group_symop_operation_xyz
x,y,z
x,-y,1/2+z
1/2+x,1/2+y,z
1/2+x,1/2-y,1/2+z
loop_
_atom_site_type_symbol
_atom_site_label
_atom_site_fract_x
_atom_site_fract_y
_atom_site_fract_z
Si Si1 0.939810 0.636847 0.754320
Si Si2 0.763452 0.974981 0.377282
Si Si3 0.961756 0.109607 0.756507
Si Si4 0.792820 0.632962 0.133139
Si Si5 0.276265 0.792138 0.407527
Si Si6 0.460438 0.376598 0.602859
O O1 0.830965 0.518336 0.684143
O O2 0.899869 0.680181 0.856837
O O3 0.915326 0.766266 0.674502
O O4 0.109389 0.589224 0.798680
O O5 0.872922 0.982635 0.312319
O O6 0.834384 0.876640 0.482353
O O7 0.739767 0.130078 0.411122
O O8 0.884844 0.258337 0.724592
O O9 0.128751 0.124945 0.839730
O O10 0.965700 0.029825 0.651680
O O11 0.617688 0.662462 0.096007
O O12 0.839850 0.647141 0.029357
#
# Coordination Sequence:
#
# PCOD8056674 Si02
#       6
#     4   4   4   4   4   4
#     4  12  28  44  72 110 140 172 236 296 332 406
#     4  12  26  44  72 104 138 183 231 284 344 408
#     4  12  24  44  72  98 136 180 236 280 340 410
#     4  12  26  44  72 104 138 183 231 284 344 408
#     4  12  26  44  72 104 138 183 231 284 344 408
#     4  12  26  44  72 104 138 183 231 284 344 408
#
# _framework density 20.873276000000001
#
# number of rings (size 3 to 8) (size 9 to 14) (size 15 to 20)
#    0.000    0.000   10.000    0.000    0.000    8.000 
#    0.000    0.000    0.000    0.000    0.000    0.000 
#    0.000    0.000    0.000    0.000    0.000    0.000 
#
# Total GULP energy -148906.124121 kJ/mol
# GULP energy per Si atom -12408.843677 kJ/mol
# Density = 2.082577 g / cm^3
# Si number density = 20.873276 Si / 1000 Ang^3
#
#
#
# Elastic Constant Matrix: (Units=GPa)
#
#
# Indices 1 2 3 4 5 6 
#
# 1 73.9742 6.6397 13.5116 0.0000 -8.4870 0.0000
# 2 6.6397 87.3400 19.0900 0.0000 -3.6296 0.0000
# 3 13.5116 19.0900 102.6639 0.0000 -11.0918 0.0000
# 4 0.0000 0.0000 0.0000 33.0214 0.0000 -5.5359
# 5 -8.4870 -3.6296 -11.0918 0.0000 41.8851 0.0000
# 6 0.0000 0.0000 0.0000 -5.5359 0.0000 24.4205
#
#
#
# Elastic Compliance Matrix: (Units=1/GPa)
#
#
# Indices 1 2 3 4 5 6 
#
# 1 0.014123 -0.000651 -0.001477 0.000000 0.002414 0.000000
# 2 -0.000651 0.011973 -0.002103 0.000000 0.000349 0.000000
# 3 -0.001477 -0.002103 0.010577 0.000000 0.002319 0.000000
# 4 0.000000 0.000000 0.000000 0.031480 0.000000 0.007136
# 5 0.002414 0.000349 0.002319 0.000000 0.025008 0.000000
# 6 0.000000 0.000000 0.000000 0.007136 0.000000 0.042567
#
#
# Mechanical properties :
#
#
# Convention : Reuss Voigt Hill
#
# Bulk Modulus (GPa) = 35.44601 38.05119 36.74860
# Shear Modulus (GPa) = 32.55353 34.84787 33.70070
#
# Velocity S-wave (km/s) = 3.95344 4.09038 4.02249
# Velocity P-wave (km/s) = 6.15288 6.37005 6.26240
#
# Compressibility (1/GPa) = 0.02821192
#
# Stress axis : x y z
#
# Youngs Moduli (GPa) = 70.80462 83.52039 94.54893
#
# Poissons Ratio (x) = 0.05433 0.13965
# Poissons Ratio (y) = 0.04606 0.19884
# Poissons Ratio (z) = 0.10458 0.17565
#
# Static dielectric constant tensor:
#      x y z
#    x 3.734440 0.000000 -0.074710 
#    y 0.000000 3.789830 0.000000 
#    z -0.074710 0.000000 3.808170 
# 
# 
# High freq. dielectric constant tensor:
#      x y z
#    x 1.823480 0.000000 -0.003200 
#    y 0.000000 1.823430 0.000000 
#    z -0.003200 0.000000 1.828330 
# 
# From -- ./inp_files/14004.got.cif
#   From: 2010.06.25/outbox.cif.g09.slc.cpg/sg9_8_cif.got.tgz:14004.got - 2010.06.27 21:40:51.
