data_PCOD8056858
_publ_section_title
;
Structure prediction by ZEFSAII (Michael W. Deem and Ramdas Pophale) SiO2 
 PCOD8056858
Probable space group: P 2/M
;
_chemical_formula_sum "Si O2"
_cell_formula_units_Z 28
_cell_length_a 12.207361
_cell_length_b 26.152147
_cell_length_c 11.736039
_cell_angle_alpha 90.000000
_cell_angle_beta 155.245039
_cell_angle_gamma 90.000000
_cell_volume 1568.893403
_symmetry_space_group_name_H-M "P 2/M"
_symmetry_group_IT_number 10
_symmetry_cell_setting 'monoclinic'
loop_
_space_group_symop_operation_xyz
x,y,z
-x,y,-z
-x,-y,-z
x,-y,z
loop_
_atom_site_type_symbol
_atom_site_label
_atom_site_fract_x
_atom_site_fract_y
_atom_site_fract_z
Si Si1 0.269323 0.281546 0.194364
Si Si2 0.469725 0.190478 0.232811
Si Si3 0.016002 0.161631 0.647398
Si Si4 0.024573 0.056396 0.279995
Si Si5 0.236716 0.560080 0.362973
Si Si6 0.263056 0.604931 0.133645
Si Si7 0.437424 0.085095 0.311348
O O1 0.500000 0.292355 0.500000
O O2 0.383990 0.242568 0.210984
O O3 0.209853 0.334701 0.074781
O O4 0.000000 0.261566 0.000000
O O5 0.426238 0.146076 0.284521
O O6 0.773325 0.189052 0.481936
O O7 0.287284 0.184045 0.950149
O O8 0.030821 0.100325 0.679738
O O9 0.000000 0.173938 0.500000
O O10 0.330147 0.059593 0.539861
O O11 0.971751 0.000000 0.282589
O O12 0.841259 0.063136 0.994638
O O13 0.282005 0.500000 0.400689
O O14 0.248921 0.584402 0.249187
O O15 0.455039 0.587527 0.648221
O O16 0.955091 0.575650 0.148132
O O17 0.500000 0.071369 0.500000
#
# Coordination Sequence:
#
# PCOD8056858 Si02
#       7
#     4   4   4   4   4   4   4
#     4  12  20  32  48  69 104 133 165 209 239 281
#     4  10  22  35  53  77  94 128 169 200 248 292
#     4  10  21  40  58  73  96 121 158 209 253 305
#     4  10  21  34  52  78 100 123 160 195 234 294
#     4  10  16  25  38  55  86 127 182 211 218 262
#     4  10  16  26  36  59  84 123 170 207 229 265
#     4  10  20  34  49  71 105 134 162 189 226 283
#
# _framework density 17.846972999999998
#
# number of rings (size 3 to 8) (size 9 to 14) (size 15 to 20)
#    0.000    1.714    2.857    4.714    0.000    4.286 
#    0.000    0.000    0.000    5.143    0.000    0.000 
#    0.000    0.000    0.000    0.000    0.000   82.857 
#
# Total GULP energy -347006.890584 kJ/mol
# GULP energy per Si atom -12393.103235 kJ/mol
# Density = 1.780635 g / cm^3
# Si number density = 17.846973 Si / 1000 Ang^3
#
#
#
# Elastic Constant Matrix: (Units=GPa)
#
#
# Indices 1 2 3 4 5 6 
#
# 1 31.1976 25.1106 13.3531 0.0000 2.3465 0.0000
# 2 25.1106 112.9507 15.3264 0.0000 5.6619 0.0000
# 3 13.3531 15.3264 112.1671 0.0000 22.2953 0.0000
# 4 0.0000 0.0000 0.0000 18.4652 0.0000 7.2023
# 5 2.3465 5.6619 22.2953 0.0000 22.9896 0.0000
# 6 0.0000 0.0000 0.0000 7.2023 0.0000 11.9421
#
#
#
# Elastic Compliance Matrix: (Units=1/GPa)
#
#
# Indices 1 2 3 4 5 6 
#
# 1 0.040524 -0.008557 -0.004028 0.000000 0.001878 0.000000
# 2 -0.008557 0.010857 -0.000133 0.000000 -0.001672 0.000000
# 3 -0.004028 -0.000133 0.011551 0.000000 -0.010759 0.000000
# 4 0.000000 0.000000 0.000000 0.070814 0.000000 -0.042708
# 5 0.001878 -0.001672 -0.010759 0.000000 0.054152 0.000000
# 6 0.000000 0.000000 0.000000 -0.042708 0.000000 0.109494
#
#
# Mechanical properties :
#
#
# Convention : Reuss Voigt Hill
#
# Bulk Modulus (GPa) = 26.66820 40.43284 33.55052
# Shear Modulus (GPa) = 14.91081 24.18106 19.54594
#
# Velocity S-wave (km/s) = 2.89361 3.68491 3.31297
# Velocity P-wave (km/s) = 5.11264 6.38821 5.78568
#
# Compressibility (1/GPa) = 0.03749784
#
# Stress axis : x y z
#
# Youngs Moduli (GPa) = 24.67684 92.10235 86.56925
#
# Poissons Ratio (x) = 0.78808 0.34873
# Poissons Ratio (y) = 0.21115 0.01148
# Poissons Ratio (z) = 0.09941 0.01221
#
# Static dielectric constant tensor:
#      x y z
#    x 4.049330 0.000000 4.390000 
#    y 0.000000 3.357120 0.000000 
#    z 4.390000 0.000000 16.378130 
# 
# 
# High freq. dielectric constant tensor:
#      x y z
#    x 1.618730 0.000000 0.031920 
#    y 0.000000 1.694570 0.000000 
#    z 0.031920 0.000000 1.721400 
# 
# From -- ./inp_files/48074.got.cif
#   From: 2010.06.25/outbox.cif.g09.slc.cpg/sg10_25_cif.got.tgz:48074.got - 2010.06.27 22:07:45.
