data_PCOD8056965
_publ_section_title
;
Structure prediction by ZEFSAII (Michael W. Deem and Ramdas Pophale) SiO2 
 PCOD8056965
Probable space group: P 2/M
;
_chemical_formula_sum "Si O2"
_cell_formula_units_Z 28
_cell_length_a 21.077070
_cell_length_b 8.894191
_cell_length_c 18.146711
_cell_angle_alpha 90.000000
_cell_angle_beta 152.684527
_cell_angle_gamma 90.000000
_cell_volume 1561.071321
_symmetry_space_group_name_H-M "P 2/M"
_symmetry_group_IT_number 10
_symmetry_cell_setting 'monoclinic'
loop_
_space_group_symop_operation_xyz
x,y,z
-x,y,-z
-x,-y,-z
x,-y,z
loop_
_atom_site_type_symbol
_atom_site_label
_atom_site_fract_x
_atom_site_fract_y
_atom_site_fract_z
Si Si1 0.665556 0.167206 0.166583
Si Si2 0.162145 0.322010 0.233384
Si Si3 0.367449 0.171739 0.551085
Si Si4 0.619603 0.173182 0.274239
Si Si5 0.687290 0.175096 0.899741
Si Si6 0.668727 0.325900 0.027047
Si Si7 0.125523 0.179406 0.042631
O O1 0.717432 0.208538 0.303883
O O2 0.712331 0.000000 0.194065
O O3 0.500000 0.181506 0.000000
O O4 0.730475 0.271489 0.169767
O O5 0.139370 0.500000 0.204760
O O6 0.292361 0.285605 0.419015
O O7 0.191520 0.254764 0.183071
O O8 0.027747 0.242528 0.129228
O O9 0.303512 0.192026 0.567877
O O10 0.528653 0.216005 0.718266
O O11 0.347089 0.000000 0.503012
O O12 0.492257 0.286641 0.141356
O O13 0.563916 0.000000 0.210484
O O14 0.741368 0.251925 0.030785
O O15 0.781068 0.230998 0.929247
O O16 0.704362 0.000000 0.930026
O O17 0.694727 0.500000 0.048160
O O18 0.121051 0.000000 0.047845
#
# Coordination Sequence:
#
# PCOD8056965 Si02
#       7
#     4   4   4   4   4   4   4
#     4   8  13  23  38  56  84 123 162 196 231 272
#     4  11  22  35  51  74 102 128 154 191 241 292
#     4   9  17  32  51  72  98 127 162 200 237 281
#     4   8  15  27  42  60  87 125 164 200 234 270
#     4   9  19  34  52  72  95 125 163 204 241 278
#     4  10  17  23  37  63  95 126 154 190 238 288
#     4  10  20  37  58  74  90 122 166 204 236 277
#
# _framework density 17.936401
#
# number of rings (size 3 to 8) (size 9 to 14) (size 15 to 20)
#    0.000    2.714    0.000    5.571    0.000    6.571 
#    0.000    2.857    0.000    0.000    0.000    1.000 
#    0.000    8.000    0.000    0.000    0.000    0.000 
#
# Total GULP energy -346968.101574 kJ/mol
# GULP energy per Si atom -12391.717913 kJ/mol
# Density = 1.789558 g / cm^3
# Si number density = 17.936401 Si / 1000 Ang^3
#
#
#
# Elastic Constant Matrix: (Units=GPa)
#
#
# Indices 1 2 3 4 5 6 
#
# 1 169.9168 60.1696 51.3016 0.0000 -25.2879 0.0000
# 2 60.1696 84.6195 19.8328 0.0000 -8.1431 0.0000
# 3 51.3016 19.8328 22.1754 0.0000 -3.3732 0.0000
# 4 0.0000 0.0000 0.0000 16.2292 0.0000 -1.9726
# 5 -25.2879 -8.1431 -3.3732 0.0000 11.1980 0.0000
# 6 0.0000 0.0000 0.0000 -1.9726 0.0000 14.8578
#
#
#
# Elastic Compliance Matrix: (Units=1/GPa)
#
#
# Indices 1 2 3 4 5 6 
#
# 1 0.045285 -0.004147 -0.090086 0.000000 0.072112 0.000000
# 2 -0.004147 0.015902 -0.004501 0.000000 0.000844 0.000000
# 3 -0.090086 -0.004501 0.236944 0.000000 -0.135335 0.000000
# 4 0.000000 0.000000 0.000000 0.062628 0.000000 0.008315
# 5 0.072112 0.000844 -0.135335 0.000000 0.211995 0.000000
# 6 0.000000 0.000000 0.000000 0.008315 0.000000 0.068409
#
#
# Mechanical properties :
#
#
# Convention : Reuss Voigt Hill
#
# Bulk Modulus (GPa) = 9.93408 59.92441 34.92924
# Shear Modulus (GPa) = 5.73273 18.15083 11.94178
#
# Velocity S-wave (km/s) = 1.78972 3.18457 2.58308
# Velocity P-wave (km/s) = 3.13390 6.85594 5.33035
#
# Compressibility (1/GPa) = 0.10066359
#
# Stress axis : x y z
#
# Youngs Moduli (GPa) = 22.08256 62.88422 4.22041
#
# Poissons Ratio (x) = 0.26076 0.38020
# Poissons Ratio (y) = 0.09157 0.01900
# Poissons Ratio (z) = 1.98933 0.28304
#
# Static dielectric constant tensor:
#      x y z
#    x 3.767570 0.000000 -0.424380 
#    y 0.000000 3.194090 0.000000 
#    z -0.424380 0.000000 2.960570 
# 
# 
# High freq. dielectric constant tensor:
#      x y z
#    x 1.704740 0.000000 -0.037820 
#    y 0.000000 1.689650 0.000000 
#    z -0.037820 0.000000 1.643010 
# 
# From -- ./inp_files/79325.got.cif
#   From: 2010.06.25/outbox.cif.g09.slc.cpg/sg10_40_cif.got.tgz:79325.got - 2010.06.27 22:07:45.
