data_PCOD8056231
_publ_section_title
;
Structure prediction by ZEFSAII (Michael W. Deem and Ramdas Pophale) SiO2 
 PCOD8056231
Probable space group: C C
;
_chemical_formula_sum "Si O2"
_cell_formula_units_Z 32
_cell_length_a 18.415899
_cell_length_b 11.939482
_cell_length_c 13.894589
_cell_angle_alpha 90.000000
_cell_angle_beta 31.325034
_cell_angle_gamma 90.000000
_cell_volume 1588.318451
_symmetry_space_group_name_H-M "C C"
_symmetry_group_IT_number 9
_symmetry_cell_setting 'monoclinic'
loop_
_space_group_symop_operation_xyz
x,y,z
x,-y,1/2+z
1/2+x,1/2+y,z
1/2+x,1/2-y,1/2+z
loop_
_atom_site_type_symbol
_atom_site_label
_atom_site_fract_x
_atom_site_fract_y
_atom_site_fract_z
Si Si1 0.698260 0.341187 0.137230
Si Si2 0.753126 0.103634 0.028746
Si Si3 0.523405 0.873862 0.521969
Si Si4 0.461597 0.976141 0.780250
Si Si5 0.536021 0.352847 0.121002
Si Si6 0.310239 0.411191 0.102347
Si Si7 0.345127 0.838759 0.534546
Si Si8 0.086948 0.973542 0.885588
O O1 0.714066 0.209376 0.141318
O O2 0.613266 0.357415 0.135031
O O3 0.614433 0.398546 0.320891
O O4 0.852404 0.393826 0.955822
O O5 0.617074 0.060547 0.129659
O O6 0.826387 0.005558 0.004227
O O7 0.868426 0.142732 0.820935
O O8 0.450998 0.963535 0.676540
O O9 0.568213 0.761708 0.527695
O O10 0.662698 0.927545 0.321241
O O11 0.414634 0.851925 0.560228
O O12 0.435993 0.102806 0.846816
O O13 0.598446 0.456831 0.987883
O O14 0.325215 0.291347 0.032741
O O15 0.432376 0.429398 0.039810
O O16 0.193217 0.894888 0.706688
#
# Coordination Sequence:
#
# PCOD8056231 Si02
#       8
#     4   4   4   4   4   4   4   4
#     4  11  23  42  63  97 132 164 215 268 321 386
#     4  12  23  41  65  96 132 167 211 270 326 382
#     4  12  22  40  69  97 123 166 226 262 312 387
#     4  11  24  38  64  96 128 167 212 270 324 369
#     4  12  22  40  69  97 123 166 226 262 312 387
#     4  12  23  41  65  96 132 167 211 270 326 382
#     4  11  23  42  63  97 132 164 215 268 321 386
#     4  11  24  38  64  96 128 167 212 270 324 369
#
# _framework density 20.147093000000002
#
# number of rings (size 3 to 8) (size 9 to 14) (size 15 to 20)
#    0.000    0.500    7.500    1.500    0.000    0.000 
#    0.000    1.250    0.000    3.000    0.000    0.000 
#    0.000    0.000    0.000    0.000    0.000    0.000 
#
# Total GULP energy -198415.663211 kJ/mol
# GULP energy per Si atom -12400.978951 kJ/mol
# Density = 2.010124 g / cm^3
# Si number density = 20.147093 Si / 1000 Ang^3
#
#
#
# Elastic Constant Matrix: (Units=GPa)
#
#
# Indices 1 2 3 4 5 6 
#
# 1 76.8835 35.3575 9.2896 0.0000 4.9757 0.0000
# 2 35.3575 128.4554 21.5219 0.0000 21.0542 0.0000
# 3 9.2896 21.5219 67.2434 0.0000 -3.9674 0.0000
# 4 0.0000 0.0000 0.0000 31.9316 0.0000 3.0902
# 5 4.9757 21.0542 -3.9674 0.0000 37.7981 0.0000
# 6 0.0000 0.0000 0.0000 3.0902 0.0000 29.1450
#
#
#
# Elastic Compliance Matrix: (Units=1/GPa)
#
#
# Indices 1 2 3 4 5 6 
#
# 1 0.014933 -0.004013 -0.000768 0.000000 0.000189 0.000000
# 2 -0.004013 0.010312 -0.003073 0.000000 -0.005538 0.000000
# 3 -0.000768 -0.003073 0.016168 0.000000 0.003510 0.000000
# 4 0.000000 0.000000 0.000000 0.031642 0.000000 -0.003355
# 5 0.000189 -0.005538 0.003510 0.000000 0.029885 0.000000
# 6 0.000000 0.000000 0.000000 -0.003355 0.000000 0.034667
#
#
# Mechanical properties :
#
#
# Convention : Reuss Voigt Hill
#
# Bulk Modulus (GPa) = 38.90066 44.99115 41.94590
# Shear Modulus (GPa) = 30.88704 33.53582 32.21143
#
# Velocity S-wave (km/s) = 3.91970 4.08431 4.00285
# Velocity P-wave (km/s) = 6.31155 6.67997 6.49837
#
# Compressibility (1/GPa) = 0.02570651
#
# Stress axis : x y z
#
# Youngs Moduli (GPa) = 66.96799 96.97608 61.85079
#
# Poissons Ratio (x) = 0.38912 0.04747
# Poissons Ratio (y) = 0.26871 0.19006
# Poissons Ratio (z) = 0.05140 0.29799
#
# Static dielectric constant tensor:
#      x y z
#    x 3.740810 0.000000 -0.009280 
#    y 0.000000 3.847120 0.000000 
#    z -0.009280 0.000000 3.863890 
# 
# 
# High freq. dielectric constant tensor:
#      x y z
#    x 1.776990 0.000000 -0.019590 
#    y 0.000000 1.775800 0.000000 
#    z -0.019590 0.000000 1.801520 
# 
# From -- ./inp_files/9175.got.cif
#   From: 2010.06.25/outbox.cif.g09.slc.cpg/sg9_5_cif.got.tgz:9175.got - 2010.06.27 21:40:51.
