data_PCOD8056035
_publ_section_title
;
Structure prediction by ZEFSAII (Michael W. Deem and Ramdas Pophale) SiO2 
 PCOD8056035
Probable space group: C C
;
_chemical_formula_sum "Si O2"
_cell_formula_units_Z 28
_cell_length_a 22.218398
_cell_length_b 4.992393
_cell_length_c 9.419887
_cell_angle_alpha 90.000000
_cell_angle_beta 107.639139
_cell_angle_gamma 90.000000
_cell_volume 995.755611
_symmetry_space_group_name_H-M "C C"
_symmetry_group_IT_number 9
_symmetry_cell_setting 'monoclinic'
loop_
_space_group_symop_operation_xyz
x,y,z
x,-y,1/2+z
1/2+x,1/2+y,z
1/2+x,1/2-y,1/2+z
loop_
_atom_site_type_symbol
_atom_site_label
_atom_site_fract_x
_atom_site_fract_y
_atom_site_fract_z
Si Si1 0.951580 0.512703 0.417800
Si Si2 0.191397 0.057639 0.105974
Si Si3 0.358260 0.652856 0.982837
Si Si4 0.605007 0.661321 0.813485
Si Si5 0.470728 0.509045 0.246058
Si Si6 0.584046 0.100929 0.591802
Si Si7 0.775086 0.078137 0.187483
O O1 0.882194 0.558603 0.439590
O O2 0.955625 0.213214 0.362251
O O3 0.957695 0.711616 0.290589
O O4 0.088709 0.607468 0.423010
O O5 0.129356 0.134780 0.166435
O O6 0.239041 0.304598 0.132819
O O7 0.225739 0.805308 0.200215
O O8 0.165834 0.007238 0.926815
O O9 0.329037 0.464814 0.841478
O O10 0.423808 0.519190 0.079507
O O11 0.307600 0.695719 0.069620
O O12 0.544291 0.462472 0.750980
O O13 0.617937 0.837335 0.680002
O O14 0.508683 0.918031 0.072874
#
# Coordination Sequence:
#
# PCOD8056035 Si02
#       7
#     4   4   4   4   4   4   4
#     4  11  27  49  81 125 166 212 272 353 425 496
#     4  10  28  52  82 115 167 212 282 334 419 489
#     4  12  30  55  84 119 168 223 288 337 419 493
#     4   9  23  50  85 123 168 208 274 352 425 496
#     4  11  27  50  81 125 164 212 272 350 425 493
#     4   9  23  48  82 125 161 212 266 351 424 490
#     4  12  30  54  81 118 164 231 276 343 399 507
#
# _framework density 28.119347000000001
#
# number of rings (size 3 to 8) (size 9 to 14) (size 15 to 20)
#    0.857    0.571    1.429    0.000   12.000    3.429 
#    0.000    0.000    0.000    0.000    0.000    0.000 
#    0.000    0.000    0.000    0.000    0.000    0.000 
#
# Total GULP energy -173527.689446 kJ/mol
# GULP energy per Si atom -12394.834960 kJ/mol
# Density = 2.805535 g / cm^3
# Si number density = 28.119347 Si / 1000 Ang^3
#
#
#
# Elastic Constant Matrix: (Units=GPa)
#
#
# Indices 1 2 3 4 5 6 
#
# 1 165.0838 37.0512 58.9928 0.0000 10.2444 0.0000
# 2 37.0512 114.2587 64.9436 0.0000 11.1335 0.0000
# 3 58.9928 64.9436 153.7783 0.0000 38.0077 0.0000
# 4 0.0000 0.0000 0.0000 41.5209 0.0000 8.1475
# 5 10.2444 11.1335 38.0077 0.0000 44.3605 0.0000
# 6 0.0000 0.0000 0.0000 8.1475 0.0000 49.1632
#
#
#
# Elastic Compliance Matrix: (Units=1/GPa)
#
#
# Indices 1 2 3 4 5 6 
#
# 1 0.007124 -0.000953 -0.002515 0.000000 0.000749 0.000000
# 2 -0.000953 0.011737 -0.004970 0.000000 0.001532 0.000000
# 3 -0.002515 -0.004970 0.011564 0.000000 -0.008079 0.000000
# 4 0.000000 0.000000 0.000000 0.024894 0.000000 -0.004125
# 5 0.000749 0.001532 -0.008079 0.000000 0.028907 0.000000
# 6 0.000000 0.000000 0.000000 -0.004125 0.000000 0.021024
#
#
# Mechanical properties :
#
#
# Convention : Reuss Voigt Hill
#
# Bulk Modulus (GPa) = 73.81658 83.89956 78.85807
# Shear Modulus (GPa) = 39.48146 45.15114 42.31630
#
# Velocity S-wave (km/s) = 3.75115 4.01146 3.88349
# Velocity P-wave (km/s) = 6.71340 7.16641 6.94360
#
# Compressibility (1/GPa) = 0.01354709
#
# Stress axis : x y z
#
# Youngs Moduli (GPa) = 140.37240 85.20374 86.47883
#
# Poissons Ratio (x) = 0.08123 0.21754
# Poissons Ratio (y) = 0.13382 0.42977
# Poissons Ratio (z) = 0.35311 0.42343
#
# Static dielectric constant tensor:
#      x y z
#    x 5.418210 0.000000 0.248980 
#    y 0.000000 4.979430 0.000000 
#    z 0.248980 0.000000 5.423970 
# 
# 
# High freq. dielectric constant tensor:
#      x y z
#    x 2.154850 0.000000 0.007700 
#    y 0.000000 2.138430 0.000000 
#    z 0.007700 0.000000 2.150390 
# 
# From -- ./inp_files/19864.got.cif
#   From: 2010.06.25/outbox.cif.g09.slc.cpg/sg9_10_cif.got.tgz:19864.got - 2010.06.27 21:40:51.
