data_PCOD8056914
_publ_section_title
;
Structure prediction by ZEFSAII (Michael W. Deem and Ramdas Pophale) SiO2 
 PCOD8056914
Probable space group: P 2/M
;
_chemical_formula_sum "Si O2"
_cell_formula_units_Z 30
_cell_length_a 29.864634
_cell_length_b 9.245301
_cell_length_c 12.110692
_cell_angle_alpha 90.000000
_cell_angle_beta 150.506784
_cell_angle_gamma 90.000000
_cell_volume 1646.247523
_symmetry_space_group_name_H-M "P 2/M"
_symmetry_group_IT_number 10
_symmetry_cell_setting 'monoclinic'
loop_
_space_group_symop_operation_xyz
x,y,z
-x,y,-z
-x,-y,-z
x,-y,z
loop_
_atom_site_type_symbol
_atom_site_label
_atom_site_fract_x
_atom_site_fract_y
_atom_site_fract_z
Si Si1 0.777468 0.828906 0.343714
Si Si2 0.730767 0.673936 0.789886
Si Si3 0.917046 0.341320 0.105936
Si Si4 0.947635 0.665427 0.774950
Si Si5 0.806069 0.836280 0.153690
Si Si6 0.594225 0.171592 0.341107
Si Si7 0.610228 0.829300 0.128447
Si Si8 0.000000 0.256704 0.500000
O O1 0.856370 0.757150 0.585588
O O2 0.786022 0.779705 0.234790
O O3 0.683915 0.771572 0.198381
O O4 0.786606 0.000000 0.374061
O O5 0.725047 0.500000 0.783180
O O6 0.643120 0.741082 0.543747
O O7 0.817689 0.730159 0.904655
O O8 0.744986 0.734633 0.943905
O O9 0.902763 0.500000 0.024097
O O10 0.963962 0.357842 0.325580
O O11 0.984915 0.257674 0.169667
O O12 0.923464 0.500000 0.690303
O O13 0.000000 0.673731 0.000000
O O14 0.914236 0.837309 0.359397
O O15 0.770874 0.000000 0.064763
O O16 0.631544 0.220762 0.300355
O O17 0.606578 0.000000 0.386430
O O18 0.489274 0.221292 0.123923
O O19 0.610114 0.000000 0.130625
#
# Coordination Sequence:
#
# PCOD8056914 Si02
#       8
#     4   4   4   4   4   4   4   2
#     4  10  20  36  55  78 104 134 174 218 256 302
#     4  10  21  34  52  77 106 137 172 216 256 302
#     4   9  18  31  47  71 101 137 173 205 250 300
#     4  10  21  35  50  71 104 143 175 206 249 307
#     4  10  20  33  51  75 103 136 174 215 258 302
#     4   9  17  35  59  81 102 132 168 211 261 313
#     4   8  17  34  58  81 104 132 168 210 262 314
#     4  10  16  30  50  72  95 134 173 220 247 288
#
# _framework density 18.223262999999999
#
# number of rings (size 3 to 8) (size 9 to 14) (size 15 to 20)
#    0.000    2.533    1.333    1.600    1.867    1.333 
#    0.000    3.333    0.000    4.000    0.000    0.000 
#    0.000    0.000    0.000    0.000    0.000    0.000 
#
# Total GULP energy -371766.906233 kJ/mol
# GULP energy per Si atom -12392.230208 kJ/mol
# Density = 1.818179 g / cm^3
# Si number density = 18.223263 Si / 1000 Ang^3
#
#
#
# Elastic Constant Matrix: (Units=GPa)
#
#
# Indices 1 2 3 4 5 6 
#
# 1 131.5169 25.7402 54.8508 0.0000 9.4870 0.0000
# 2 25.7402 52.5651 37.8271 0.0000 -2.0281 0.0000
# 3 54.8508 37.8271 118.3735 0.0000 -0.2632 0.0000
# 4 0.0000 0.0000 0.0000 108.7435 0.0000 -25.0656
# 5 9.4870 -2.0281 -0.2632 0.0000 21.9073 0.0000
# 6 0.0000 0.0000 0.0000 -25.0656 0.0000 21.6999
#
#
#
# Elastic Compliance Matrix: (Units=1/GPa)
#
#
# Indices 1 2 3 4 5 6 
#
# 1 0.010015 -0.002253 -0.003931 0.000000 -0.004593 0.000000
# 2 -0.002253 0.025318 -0.007039 0.000000 0.003235 0.000000
# 3 -0.003931 -0.007039 0.012522 0.000000 0.001201 0.000000
# 4 0.000000 0.000000 0.000000 0.012533 0.000000 0.014477
# 5 -0.004593 0.003235 0.001201 0.000000 0.047950 0.000000
# 6 0.000000 0.000000 0.000000 0.014477 0.000000 0.062805
#
#
# Mechanical properties :
#
#
# Convention : Reuss Voigt Hill
#
# Bulk Modulus (GPa) = 46.71122 59.92128 53.31625
# Shear Modulus (GPa) = 24.42301 42.73932 33.58116
#
# Velocity S-wave (km/s) = 3.66486 4.84810 4.29740
# Velocity P-wave (km/s) = 6.60278 8.01822 7.34468
#
# Compressibility (1/GPa) = 0.02140813
#
# Stress axis : x y z
#
# Youngs Moduli (GPa) = 99.84711 39.49820 79.86183
#
# Poissons Ratio (x) = 0.08897 0.31395
# Poissons Ratio (y) = 0.22491 0.56219
# Poissons Ratio (z) = 0.39252 0.27805
#
# Static dielectric constant tensor:
#      x y z
#    x 3.726780 0.000000 0.154350 
#    y 0.000000 3.040900 0.000000 
#    z 0.154350 0.000000 3.323480 
# 
# 
# High freq. dielectric constant tensor:
#      x y z
#    x 1.710920 0.000000 -0.002610 
#    y 0.000000 1.677390 0.000000 
#    z -0.002610 0.000000 1.703290 
# 
# From -- ./inp_files/58034.got.cif
#   From: 2010.06.25/outbox.cif.g09.slc.cpg/sg10_30_cif.got.tgz:58034.got - 2010.06.27 22:07:45.
