data_PCOD8056988
_publ_section_title
;
Structure prediction by ZEFSAII (Michael W. Deem and Ramdas Pophale) SiO2 
 PCOD8056988
Probable space group: P 2/M
;
_chemical_formula_sum "Si O2"
_cell_formula_units_Z 28
_cell_length_a 9.096317
_cell_length_b 8.906543
_cell_length_c 29.450321
_cell_angle_alpha 90.000000
_cell_angle_beta 141.391822
_cell_angle_gamma 90.000000
_cell_volume 1488.823486
_symmetry_space_group_name_H-M "P 2/M"
_symmetry_group_IT_number 10
_symmetry_cell_setting 'monoclinic'
loop_
_space_group_symop_operation_xyz
x,y,z
-x,y,-z
-x,-y,-z
x,-y,z
loop_
_atom_site_type_symbol
_atom_site_label
_atom_site_fract_x
_atom_site_fract_y
_atom_site_fract_z
Si Si1 0.299967 0.667084 0.990254
Si Si2 0.584188 0.678068 0.703473
Si Si3 0.778090 0.672607 0.569875
Si Si4 0.956847 0.174535 0.849593
Si Si5 0.098353 0.326419 0.302597
Si Si6 0.085904 0.824228 0.570615
Si Si7 0.721206 0.673957 0.144507
O O1 0.195639 0.500000 0.967735
O O2 0.077235 0.774472 0.926451
O O3 0.500000 0.679193 0.000000
O O4 0.439820 0.707185 0.071366
O O5 0.589710 0.500000 0.707233
O O6 0.711676 0.741255 0.779589
O O7 0.721568 0.739203 0.691762
O O8 0.319606 0.734285 0.639076
O O9 0.500000 0.684106 0.500000
O O10 0.862193 0.500000 0.584102
O O11 0.864006 0.744619 0.638702
O O12 0.882643 0.775445 0.555876
O O13 0.140774 0.213496 0.854696
O O14 0.904333 0.000000 0.839274
O O15 0.161011 0.500000 0.323116
O O16 0.825966 0.301087 0.220488
O O17 0.000000 0.779368 0.500000
O O18 0.136329 0.000000 0.587008
O O19 0.772033 0.500000 0.141914
#
# Coordination Sequence:
#
# PCOD8056988 Si02
#       7
#     4   4   4   4   4   4   4
#     4   8  13  22  36  56  87 128 170 207 245 291
#     4  10  19  34  55  75  99 133 172 210 248 294
#     4  10  20  35  56  80 103 130 168 208 246 295
#     4  10  17  24  38  64  98 130 162 204 253 300
#     4   8  15  29  50  75 100 128 167 214 255 291
#     4  11  24  39  54  76 106 135 164 202 249 298
#     4   8  14  25  40  60  91 131 171 209 248 292
#
# _framework density 18.806795000000001
#
# number of rings (size 3 to 8) (size 9 to 14) (size 15 to 20)
#    0.000    2.714    0.000    4.714    0.000    5.143 
#    0.000    3.571    0.000    0.000    0.000    1.000 
#    0.000    8.000    0.000    0.000    0.000    0.000 
#
# Total GULP energy -346942.084816 kJ/mol
# GULP energy per Si atom -12390.788743 kJ/mol
# Density = 1.876399 g / cm^3
# Si number density = 18.806795 Si / 1000 Ang^3
#
#
#
# Elastic Constant Matrix: (Units=GPa)
#
#
# Indices 1 2 3 4 5 6 
#
# 1 52.1097 17.9399 37.2288 0.0000 -2.9768 0.0000
# 2 17.9399 76.7350 49.5391 0.0000 7.2316 0.0000
# 3 37.2288 49.5391 171.2449 0.0000 -3.0036 0.0000
# 4 0.0000 0.0000 0.0000 24.5666 0.0000 2.7641
# 5 -2.9768 7.2316 -3.0036 0.0000 20.8495 0.0000
# 6 0.0000 0.0000 0.0000 2.7641 0.0000 14.2899
#
#
#
# Elastic Compliance Matrix: (Units=1/GPa)
#
#
# Indices 1 2 3 4 5 6 
#
# 1 0.023443 -0.003195 -0.004105 0.000000 0.003864 0.000000
# 2 -0.003195 0.017313 -0.004438 0.000000 -0.007101 0.000000
# 3 -0.004105 -0.004438 0.008053 0.000000 0.002114 0.000000
# 4 0.000000 0.000000 0.000000 0.041611 0.000000 -0.008049
# 5 0.003864 -0.007101 0.002114 0.000000 0.051282 0.000000
# 6 0.000000 0.000000 0.000000 -0.008049 0.000000 0.071537
#
#
# Mechanical properties :
#
#
# Convention : Reuss Voigt Hill
#
# Bulk Modulus (GPa) = 39.47341 56.61170 48.04256
# Shear Modulus (GPa) = 20.39481 24.96666 22.68073
#
# Velocity S-wave (km/s) = 3.29665 3.64749 3.47650
# Velocity P-wave (km/s) = 5.96029 6.92141 6.45875
#
# Compressibility (1/GPa) = 0.02533351
#
# Stress axis : x y z
#
# Youngs Moduli (GPa) = 42.65591 57.75848 124.17739
#
# Poissons Ratio (x) = 0.18455 0.50969
# Poissons Ratio (y) = 0.13629 0.55116
# Poissons Ratio (z) = 0.17508 0.25636
#
# Static dielectric constant tensor:
#      x y z
#    x 2.952490 0.000000 -0.164850 
#    y 0.000000 3.234510 0.000000 
#    z -0.164850 0.000000 4.164410 
# 
# 
# High freq. dielectric constant tensor:
#      x y z
#    x 1.663430 0.000000 -0.003060 
#    y 0.000000 1.710100 0.000000 
#    z -0.003060 0.000000 1.765780 
# 
# From -- ./inp_files/94546.got.cif
#   From: 2010.06.25/outbox.cif.g09.slc.cpg/sg10_48_cif.got.tgz:94546.got - 2010.06.27 22:07:45.
