data_PCOD8056579
_publ_section_title
;
Structure prediction by ZEFSAII (Michael W. Deem and Ramdas Pophale) SiO2 
 PCOD8056579
Probable space group: C C
;
_chemical_formula_sum "Si O2"
_cell_formula_units_Z 20
_cell_length_a 13.209935
_cell_length_b 7.050655
_cell_length_c 20.260758
_cell_angle_alpha 90.000000
_cell_angle_beta 158.994750
_cell_angle_gamma 90.000000
_cell_volume 676.423442
_symmetry_space_group_name_H-M "C C"
_symmetry_group_IT_number 9
_symmetry_cell_setting 'monoclinic'
loop_
_space_group_symop_operation_xyz
x,y,z
x,-y,1/2+z
1/2+x,1/2+y,z
1/2+x,1/2-y,1/2+z
loop_
_atom_site_type_symbol
_atom_site_label
_atom_site_fract_x
_atom_site_fract_y
_atom_site_fract_z
Si Si1 0.185990 0.789439 0.072850
Si Si2 0.772145 0.328792 0.956709
Si Si3 0.681153 0.281252 0.354533
Si Si4 0.352690 0.323194 0.368247
Si Si5 0.170258 0.568919 0.473241
O O1 0.492092 0.809104 0.295772
O O2 0.217890 0.651366 0.026532
O O3 0.982260 0.695719 0.002751
O O4 0.038370 0.990004 0.964324
O O5 0.013202 0.352847 0.160220
O O6 0.631345 0.534247 0.868820
O O7 0.934529 0.258113 0.989728
O O8 0.430971 0.290358 0.149243
O O9 0.655936 0.091114 0.384197
O O10 0.398775 0.155470 0.343441
#
# Coordination Sequence:
#
# PCOD8056579 Si02
#       5
#     4   4   4   4   4
#     4  11  28  53  85 125 166 240 290 364 456 532
#     4  11  28  52  83 125 173 225 298 366 444 535
#     4  11  25  53  81 120 172 219 290 372 432 529
#     4  12  27  55  80 122 173 222 293 366 437 536
#     4  11  26  53  81 122 170 224 295 362 441 534
#
# _framework density 29.567274999999999
#
# number of rings (size 3 to 8) (size 9 to 14) (size 15 to 20)
#    0.000    0.800    2.000    2.400    8.400    4.800 
#   18.000    0.000    0.000    0.000    0.000    0.000 
#    0.000    0.000    0.000    0.000    0.000    0.000 
#
# Total GULP energy -123888.012033 kJ/mol
# GULP energy per Si atom -12388.801203 kJ/mol
# Density = 2.949998 g / cm^3
# Si number density = 29.567275 Si / 1000 Ang^3
#
#
#
# Elastic Constant Matrix: (Units=GPa)
#
#
# Indices 1 2 3 4 5 6 
#
# 1 43.9689 15.0167 -7.9234 0.0187 6.1579 0.0062
# 2 15.0167 161.8346 20.2097 0.0281 13.9423 0.0160
# 3 -7.9234 20.2097 144.4879 0.0926 13.6397 0.0222
# 4 0.0187 0.0281 0.0926 38.2690 0.0081 8.9059
# 5 6.1579 13.9423 13.6397 0.0081 52.4907 -0.0022
# 6 0.0062 0.0160 0.0222 8.9059 -0.0022 55.6405
#
#
#
# Elastic Compliance Matrix: (Units=1/GPa)
#
#
# Indices 1 2 3 4 5 6 
#
# 1 0.024239 -0.002251 0.001903 -0.000014 -0.002740 -0.000001
# 2 -0.002251 0.006612 -0.000930 -0.000001 -0.001250 -0.000001
# 3 0.001903 -0.000930 0.007333 -0.000018 -0.001882 0.000000
# 4 -0.000014 -0.000001 -0.000018 0.027142 0.000002 -0.004344
# 5 -0.002740 -0.001250 -0.001882 0.000002 0.020194 0.000002
# 6 -0.000001 -0.000001 0.000000 -0.004344 0.000002 0.018668
#
#
# Mechanical properties :
#
#
# Convention : Reuss Voigt Hill
#
# Bulk Modulus (GPa) = 28.06840 44.98860 36.52850
# Shear Modulus (GPa) = 42.15178 50.81260 46.48219
#
# Velocity S-wave (km/s) = 3.77984 4.15003 3.96925
# Velocity P-wave (km/s) = 5.34446 6.18161 5.77822
#
# Compressibility (1/GPa) = 0.03562726
#
# Stress axis : x y z
#
# Youngs Moduli (GPa) = 41.25648 151.24297 136.36841
#
# Poissons Ratio (x) = 0.34039 -0.25946
# Poissons Ratio (y) = 0.09285 0.12685
# Poissons Ratio (z) = -0.07850 0.14068
#
# Static dielectric constant tensor:
#      x y z
#    x 5.257920 -0.000050 -0.053800 
#    y -0.000050 5.538470 -0.000100 
#    z -0.053800 -0.000100 5.710650 
# 
# 
# High freq. dielectric constant tensor:
#      x y z
#    x 2.207250 0.000000 -0.002220 
#    y 0.000000 2.231450 -0.000010 
#    z -0.002220 -0.000010 2.224800 
# 
# From -- ./inp_files/33683.got.cif
#   From: 2010.06.25/outbox.cif.g09.slc.cpg/sg9_17_cif.got.tgz:33683.got - 2010.06.27 21:40:51.
