data_PCOD8056970
_publ_section_title
;
Structure prediction by ZEFSAII (Michael W. Deem and Ramdas Pophale) SiO2 
 PCOD8056970
Probable space group: P 2/M
;
_chemical_formula_sum "Si O2"
_cell_formula_units_Z 32
_cell_length_a 23.361345
_cell_length_b 9.059985
_cell_length_c 28.716513
_cell_angle_alpha 90.000000
_cell_angle_beta 162.803194
_cell_angle_gamma 90.000000
_cell_volume 1796.974666
_symmetry_space_group_name_H-M "P 2/M"
_symmetry_group_IT_number 10
_symmetry_cell_setting 'monoclinic'
loop_
_space_group_symop_operation_xyz
x,y,z
-x,y,-z
-x,-y,-z
x,-y,z
loop_
_atom_site_type_symbol
_atom_site_label
_atom_site_fract_x
_atom_site_fract_y
_atom_site_fract_z
Si Si1 0.424665 0.667140 0.047482
Si Si2 0.831651 0.174454 0.083944
Si Si3 0.849566 0.324386 0.845575
Si Si4 0.929971 0.675031 0.803626
Si Si5 0.329789 0.165675 0.830174
Si Si6 0.572008 0.670160 0.464199
Si Si7 0.862450 0.329675 0.616507
Si Si8 0.090045 0.663551 0.710538
O O1 0.475925 0.500000 0.100977
O O2 0.615152 0.740162 0.172513
O O3 0.365879 0.755819 0.048546
O O4 0.251663 0.674354 0.876070
O O5 0.882991 0.244763 0.073551
O O6 0.005596 0.213995 0.253750
O O7 0.805972 0.000000 0.059726
O O8 0.841879 0.500000 0.843733
O O9 0.919056 0.275900 0.848599
O O10 0.637075 0.254110 0.690968
O O11 0.000000 0.259002 0.000000
O O12 0.955245 0.500000 0.817183
O O13 0.733996 0.731803 0.625705
O O14 0.133501 0.226426 0.701821
O O15 0.289676 0.000000 0.782688
O O16 0.500000 0.174412 0.000000
O O17 0.544423 0.500000 0.455057
O O18 0.644058 0.692137 0.466334
O O19 0.929481 0.500000 0.679319
O O20 0.886504 0.300288 0.579409
O O21 0.086399 0.500000 0.686043
#
# Coordination Sequence:
#
# PCOD8056970 Si02
#       8
#     4   4   4   4   4   4   4   4
#     4   9  15  23  33  45  66  97 131 165 202 244
#     4  10  17  24  36  54  74  96 129 172 208 238
#     4   9  16  25  41  66  88 104 131 173 210 239
#     4   9  16  27  42  59  81 109 137 165 204 252
#     4   9  15  20  27  42  65  95 130 165 200 237
#     4   8  13  23  40  60  81 107 137 168 205 248
#     4   8  14  24  37  52  72 100 132 165 204 248
#     4   8  13  20  29  42  62  92 129 163 195 236
#
# _framework density 17.807707000000001
#
# number of rings (size 3 to 8) (size 9 to 14) (size 15 to 20)
#    0.000    3.250    0.000    3.750    0.000    6.000 
#    0.000    0.000    0.000    6.375    0.000    0.000 
#    0.000    0.000    0.000    1.125    0.000   27.750 
#
# Total GULP energy -396442.086991 kJ/mol
# GULP energy per Si atom -12388.815218 kJ/mol
# Density = 1.776718 g / cm^3
# Si number density = 17.807707 Si / 1000 Ang^3
#
#
#
# Elastic Constant Matrix: (Units=GPa)
#
#
# Indices 1 2 3 4 5 6 
#
# 1 168.9130 60.9444 56.4400 0.0000 42.1409 0.0000
# 2 60.9444 91.4584 18.5573 0.0000 17.0210 0.0000
# 3 56.4400 18.5573 34.5190 0.0000 5.7409 0.0000
# 4 0.0000 0.0000 0.0000 3.5428 0.0000 2.8647
# 5 42.1409 17.0210 5.7409 0.0000 18.8535 0.0000
# 6 0.0000 0.0000 0.0000 2.8647 0.0000 15.4015
#
#
#
# Elastic Compliance Matrix: (Units=1/GPa)
#
#
# Indices 1 2 3 4 5 6 
#
# 1 0.061262 -0.004425 -0.079715 0.000000 -0.108663 0.000000
# 2 -0.004425 0.014477 -0.000020 0.000000 -0.003173 0.000000
# 3 -0.079715 -0.000020 0.136600 0.000000 0.136601 0.000000
# 4 0.000000 0.000000 0.000000 0.332228 0.000000 -0.061796
# 5 -0.108663 -0.003173 0.136601 0.000000 0.257191 0.000000
# 6 0.000000 0.000000 0.000000 -0.061796 0.000000 0.076423
#
#
# Mechanical properties :
#
#
# Convention : Reuss Voigt Hill
#
# Bulk Modulus (GPa) = 22.71769 62.97488 42.84628
# Shear Modulus (GPa) = 4.71175 18.15614 11.43395
#
# Velocity S-wave (km/s) = 1.62839 3.19653 2.53668
# Velocity P-wave (km/s) = 4.03986 7.00459 5.71773
#
# Compressibility (1/GPa) = 0.04401856
#
# Stress axis : x y z
#
# Youngs Moduli (GPa) = 16.32324 69.07383 7.32066
#
# Poissons Ratio (x) = 0.30567 0.58357
# Poissons Ratio (y) = 0.07224 0.00014
# Poissons Ratio (z) = 1.30121 0.00136
#
# Static dielectric constant tensor:
#      x y z
#    x 3.680830 0.000000 0.506810 
#    y 0.000000 3.027410 0.000000 
#    z 0.506810 0.000000 2.876450 
# 
# 
# High freq. dielectric constant tensor:
#      x y z
#    x 1.703990 0.000000 0.045680 
#    y 0.000000 1.659170 0.000000 
#    z 0.045680 0.000000 1.614880 
# 
# From -- ./inp_files/95755.got.cif
#   From: 2010.06.25/outbox.cif.g09.slc.cpg/sg10_48_cif.got.tgz:95755.got - 2010.06.27 22:07:45.
