data_PCOD8056225
_publ_section_title
;
Structure prediction by ZEFSAII (Michael W. Deem and Ramdas Pophale) SiO2 
 PCOD8056225
Probable space group: C C
;
_chemical_formula_sum "Si O2"
_cell_formula_units_Z 24
_cell_length_a 8.510625
_cell_length_b 12.591808
_cell_length_c 10.345656
_cell_angle_alpha 90.000000
_cell_angle_beta 88.565988
_cell_angle_gamma 90.000000
_cell_volume 1108.336265
_symmetry_space_group_name_H-M "C C"
_symmetry_group_IT_number 9
_symmetry_cell_setting 'monoclinic'
loop_
_space_group_symop_operation_xyz
x,y,z
x,-y,1/2+z
1/2+x,1/2+y,z
1/2+x,1/2-y,1/2+z
loop_
_atom_site_type_symbol
_atom_site_label
_atom_site_fract_x
_atom_site_fract_y
_atom_site_fract_z
Si Si1 0.779220 0.158303 0.820490
Si Si2 0.650975 0.701823 0.097748
Si Si3 0.845155 0.499443 0.117690
Si Si4 0.103180 0.746042 0.331816
Si Si5 0.291207 0.763286 0.078775
Si Si6 0.534412 0.008513 0.368427
O O1 0.715145 0.207227 0.689288
O O2 0.709985 0.038910 0.839116
O O3 0.968835 0.164165 0.810257
O O4 0.717001 0.223677 0.945975
O O5 0.708763 0.586530 0.143592
O O6 0.463613 0.713372 0.093668
O O7 0.714334 0.716745 0.948346
O O8 0.769417 0.389441 0.075228
O O9 0.926797 0.473305 0.251578
O O10 0.967450 0.538424 0.004896
O O11 0.194011 0.718181 0.200706
O O12 0.026079 0.635601 0.380198
#
# Coordination Sequence:
#
# PCOD8056225 Si02
#       6
#     4   4   4   4   4   4
#     4  11  23  41  66 100 134 177 230 276 340 409
#     4  11  23  41  66 100 134 177 230 276 340 409
#     4  12  22  42  70  96 133 187 224 279 350 398
#     4  11  24  43  65 101 140 172 229 287 339 406
#     4  11  24  43  65 101 140 172 229 287 339 406
#     4  12  22  42  70  96 133 187 224 279 350 398
#
# _framework density 21.654076
#
# number of rings (size 3 to 8) (size 9 to 14) (size 15 to 20)
#    0.000    0.667    6.667    2.000    0.000    1.333 
#    0.000    3.333    0.000    0.000    0.000    0.000 
#    0.000    0.000    0.000    0.000    0.000    0.000 
#
# Total GULP energy -148755.397744 kJ/mol
# GULP energy per Si atom -12396.283145 kJ/mol
# Density = 2.160479 g / cm^3
# Si number density = 21.654076 Si / 1000 Ang^3
#
#
#
# Elastic Constant Matrix: (Units=GPa)
#
#
# Indices 1 2 3 4 5 6 
#
# 1 60.9809 20.2532 23.2547 0.0000 -0.5973 0.0000
# 2 20.2532 75.3568 -18.5227 0.0000 1.2295 0.0000
# 3 23.2547 -18.5227 136.9025 0.0000 3.8246 0.0000
# 4 0.0000 0.0000 0.0000 32.8542 0.0000 -0.0127
# 5 -0.5973 1.2295 3.8246 0.0000 34.4363 0.0000
# 6 0.0000 0.0000 0.0000 -0.0127 0.0000 42.0388
#
#
#
# Elastic Compliance Matrix: (Units=1/GPa)
#
#
# Indices 1 2 3 4 5 6 
#
# 1 0.020235 -0.006525 -0.004350 0.000000 0.001067 0.000000
# 2 -0.006525 0.015848 0.003282 0.000000 -0.001043 0.000000
# 3 -0.004350 0.003282 0.008519 0.000000 -0.001139 0.000000
# 4 0.000000 0.000000 0.000000 0.030437 0.000000 0.000009
# 5 0.001067 -0.001043 -0.001139 0.000000 0.029221 0.000000
# 6 0.000000 0.000000 0.000000 0.000009 0.000000 0.023788
#
#
# Mechanical properties :
#
#
# Convention : Reuss Voigt Hill
#
# Bulk Modulus (GPa) = 33.99589 35.91229 34.95409
# Shear Modulus (GPa) = 32.67132 38.41621 35.54377
#
# Velocity S-wave (km/s) = 3.88852 4.21656 4.05586
# Velocity P-wave (km/s) = 5.99119 6.35031 6.17336
#
# Compressibility (1/GPa) = 0.02941532
#
# Stress axis : x y z
#
# Youngs Moduli (GPa) = 49.41949 63.10121 117.38243
#
# Poissons Ratio (x) = 0.41174 0.51059
# Poissons Ratio (y) = 0.32246 -0.38521
# Poissons Ratio (z) = 0.21497 -0.20708
#
# Static dielectric constant tensor:
#      x y z
#    x 3.725920 0.000000 -0.003070 
#    y 0.000000 3.752530 0.000000 
#    z -0.003070 0.000000 4.527430 
# 
# 
# High freq. dielectric constant tensor:
#      x y z
#    x 1.826090 0.000000 0.001090 
#    y 0.000000 1.843350 0.000000 
#    z 0.001090 0.000000 1.883470 
# 
# From -- ./inp_files/4771.got.cif
#   From: 2010.06.25/outbox.cif.g09.slc.cpg/sg9_3_cif.got.tgz:4771.got - 2010.06.27 21:40:51.
