data_PCOD8056220
_publ_section_title
;
Structure prediction by ZEFSAII (Michael W. Deem and Ramdas Pophale) SiO2 
 PCOD8056220
Probable space group: C C
;
_chemical_formula_sum "Si O2"
_cell_formula_units_Z 32
_cell_length_a 29.099452
_cell_length_b 5.213793
_cell_length_c 9.016134
_cell_angle_alpha 90.000000
_cell_angle_beta 94.781843
_cell_angle_gamma 90.000000
_cell_volume 1363.153235
_symmetry_space_group_name_H-M "C C"
_symmetry_group_IT_number 9
_symmetry_cell_setting 'monoclinic'
loop_
_space_group_symop_operation_xyz
x,y,z
x,-y,1/2+z
1/2+x,1/2+y,z
1/2+x,1/2-y,1/2+z
loop_
_atom_site_type_symbol
_atom_site_label
_atom_site_fract_x
_atom_site_fract_y
_atom_site_fract_z
Si Si1 0.041620 0.309213 0.048960
Si Si2 0.285086 0.224618 0.477701
Si Si3 0.147797 0.709725 0.574715
Si Si4 0.877561 0.483585 0.452508
Si Si5 0.680388 0.710666 0.418773
Si Si6 0.509970 0.684890 0.707676
Si Si7 0.407556 0.700391 0.715630
Si Si8 0.328263 0.604558 0.271168
O O1 0.095145 0.380419 0.055400
O O2 0.015899 0.558828 0.109580
O O3 0.038076 0.055899 0.151041
O O4 0.023856 0.250208 0.879286
O O5 0.233834 0.128890 0.431671
O O6 0.296165 0.478303 0.386470
O O7 0.292226 0.248449 0.656832
O O8 0.321760 0.014830 0.435816
O O9 0.176155 0.476232 0.508731
O O10 0.163393 0.749566 0.747381
O O11 0.152969 0.975642 0.486152
O O12 0.902920 0.457791 0.614885
O O13 0.905415 0.717998 0.387279
O O14 0.875672 0.231889 0.350192
O O15 0.457106 0.580873 0.691897
O O16 0.358804 0.563969 0.662111
#
# Coordination Sequence:
#
# PCOD8056220 Si02
#       8
#     4   4   4   4   4   4   4   4
#     4  12  26  49  73 106 140 183 227 296 361 416
#     4  11  25  40  65  95 129 180 223 273 332 393
#     4  12  26  49  73 106 140 183 227 296 361 416
#     4  11  23  40  61  88 133 172 218 270 325 388
#     4  12  27  44  77 103 143 180 240 286 343 431
#     4  12  27  44  77 103 143 180 240 286 343 431
#     4  11  25  40  65  95 129 180 223 273 332 393
#     4  11  23  40  61  88 133 172 218 270 325 388
#
# _framework density 23.474982000000001
#
# number of rings (size 3 to 8) (size 9 to 14) (size 15 to 20)
#    0.000    0.500    2.500    5.250    7.000    0.000 
#    0.000    0.000    0.000    0.000    0.000    0.000 
#    0.000    0.000    0.000    0.000    0.000    0.000 
#
# Total GULP energy -198232.020860 kJ/mol
# GULP energy per Si atom -12389.501304 kJ/mol
# Density = 2.342155 g / cm^3
# Si number density = 23.474982 Si / 1000 Ang^3
#
#
#
# Elastic Constant Matrix: (Units=GPa)
#
#
# Indices 1 2 3 4 5 6 
#
# 1 98.1391 -7.8025 3.5435 0.0000 -10.5911 0.0000
# 2 -7.8025 79.6918 13.8609 0.0000 -8.6530 0.0000
# 3 3.5435 13.8609 113.1232 0.0000 -0.4151 0.0000
# 4 0.0000 0.0000 0.0000 29.1741 0.0000 3.9020
# 5 -10.5911 -8.6530 -0.4151 0.0000 24.5646 0.0000
# 6 0.0000 0.0000 0.0000 3.9020 0.0000 27.7509
#
#
#
# Elastic Compliance Matrix: (Units=1/GPa)
#
#
# Indices 1 2 3 4 5 6 
#
# 1 0.010920 0.001739 -0.000536 0.000000 0.005312 0.000000
# 2 0.001739 0.013614 -0.001702 0.000000 0.005517 0.000000
# 3 -0.000536 -0.001702 0.009063 0.000000 -0.000677 0.000000
# 4 0.000000 0.000000 0.000000 0.034934 0.000000 -0.004912
# 5 0.005312 0.005517 -0.000677 0.000000 0.044931 0.000000
# 6 0.000000 0.000000 0.000000 -0.004912 0.000000 0.036725
#
#
# Mechanical properties :
#
#
# Convention : Reuss Voigt Hill
#
# Bulk Modulus (GPa) = 30.67548 34.46199 32.56873
# Shear Modulus (GPa) = 30.85437 35.05475 32.95456
#
# Velocity S-wave (km/s) = 3.62933 3.86849 3.75082
# Velocity P-wave (km/s) = 5.53700 5.88777 5.71508
#
# Compressibility (1/GPa) = 0.03259933
#
# Stress axis : x y z
#
# Youngs Moduli (GPa) = 91.57101 73.45543 110.34124
#
# Poissons Ratio (x) = -0.12775 0.05911
# Poissons Ratio (y) = -0.15926 0.18783
# Poissons Ratio (z) = 0.04905 0.12504
#
# Static dielectric constant tensor:
#      x y z
#    x 4.235100 0.000000 -0.108980 
#    y 0.000000 4.242710 0.000000 
#    z -0.108980 0.000000 4.335200 
# 
# 
# High freq. dielectric constant tensor:
#      x y z
#    x 1.929020 0.000000 -0.004080 
#    y 0.000000 1.933240 0.000000 
#    z -0.004080 0.000000 1.952950 
# 
# From -- ./inp_files/12566.got.cif
#   From: 2010.06.25/outbox.cif.g09.slc.cpg/sg9_7_cif.got.tgz:12566.got - 2010.06.27 21:40:51.
