data_PCOD8056433
_publ_section_title
;
Structure prediction by ZEFSAII (Michael W. Deem and Ramdas Pophale) SiO2 
 PCOD8056433
Probable space group: C C
;
_chemical_formula_sum "Si O2"
_cell_formula_units_Z 28
_cell_length_a 14.858511
_cell_length_b 14.845461
_cell_length_c 9.129470
_cell_angle_alpha 90.000000
_cell_angle_beta 37.361080
_cell_angle_gamma 90.000000
_cell_volume 1222.041431
_symmetry_space_group_name_H-M "C C"
_symmetry_group_IT_number 9
_symmetry_cell_setting 'monoclinic'
loop_
_space_group_symop_operation_xyz
x,y,z
x,-y,1/2+z
1/2+x,1/2+y,z
1/2+x,1/2-y,1/2+z
loop_
_atom_site_type_symbol
_atom_site_label
_atom_site_fract_x
_atom_site_fract_y
_atom_site_fract_z
Si Si1 0.223350 0.038751 0.165940
Si Si2 0.486342 0.406121 0.576799
Si Si3 0.671511 0.140619 0.390312
Si Si4 0.580929 0.298611 0.722618
Si Si5 0.426375 0.007874 0.162601
Si Si6 0.150382 0.766673 0.161542
Si Si7 0.462065 0.199857 0.145127
O O1 0.201218 0.145980 0.164655
O O2 0.370536 0.014777 0.068238
O O3 0.072185 0.999225 0.432924
O O4 0.269827 0.994556 0.951778
O O5 0.315017 0.417603 0.751235
O O6 0.494878 0.373578 0.735465
O O7 0.567120 0.330042 0.380928
O O8 0.658585 0.222745 0.522401
O O9 0.694587 0.177266 0.195406
O O10 0.525143 0.078916 0.574046
O O11 0.470559 0.250129 0.978419
O O12 0.524960 0.097749 0.059241
O O13 0.041165 0.752232 0.170032
O O14 0.291456 0.812580 0.907471
#
# Coordination Sequence:
#
# PCOD8056433 Si02
#       7
#     4   4   4   4   4   4   4
#     4  12  25  49  74 105 146 198 243 295 378 446
#     4  11  25  49  72 104 149 196 240 299 380 446
#     4  11  27  47  73 110 149 192 244 303 379 433
#     4  11  28  45  78 109 150 193 250 308 370 436
#     4  12  26  46  75 109 147 191 244 303 368 446
#     4  11  24  45  74 105 143 194 241 299 368 443
#     4  12  25  45  72 110 144 190 248 307 357 436
#
# _framework density 22.912478
#
# number of rings (size 3 to 8) (size 9 to 14) (size 15 to 20)
#    0.000    0.571    4.286    2.571    8.000    1.143 
#    5.143    0.000    0.000    0.000    0.000    0.000 
#    0.000    0.000    0.000    0.000    0.000    0.000 
#
# Total GULP energy -173547.790837 kJ/mol
# GULP energy per Si atom -12396.270774 kJ/mol
# Density = 2.286033 g / cm^3
# Si number density = 22.912478 Si / 1000 Ang^3
#
#
#
# Elastic Constant Matrix: (Units=GPa)
#
#
# Indices 1 2 3 4 5 6 
#
# 1 113.5024 43.9710 34.4242 0.0000 -10.4618 0.0000
# 2 43.9710 122.0562 37.7792 0.0000 3.0749 0.0000
# 3 34.4242 37.7792 99.4962 0.0000 6.6877 0.0000
# 4 0.0000 0.0000 0.0000 43.1546 0.0000 1.3848
# 5 -10.4618 3.0749 6.6877 0.0000 41.3973 0.0000
# 6 0.0000 0.0000 0.0000 1.3848 0.0000 35.0040
#
#
#
# Elastic Compliance Matrix: (Units=1/GPa)
#
#
# Indices 1 2 3 4 5 6 
#
# 1 0.011281 -0.003254 -0.002907 0.000000 0.003562 0.000000
# 2 -0.003254 0.010223 -0.002679 0.000000 -0.001149 0.000000
# 3 -0.002907 -0.002679 0.012242 0.000000 -0.002513 0.000000
# 4 0.000000 0.000000 0.000000 0.023202 0.000000 -0.000918
# 5 0.003562 -0.001149 -0.002513 0.000000 0.025548 0.000000
# 6 0.000000 0.000000 0.000000 -0.000918 0.000000 0.028604
#
#
# Mechanical properties :
#
#
# Convention : Reuss Voigt Hill
#
# Bulk Modulus (GPa) = 62.23798 63.04485 62.64142
# Shear Modulus (GPa) = 37.27559 38.50321 37.88940
#
# Velocity S-wave (km/s) = 4.03782 4.10377 4.07093
# Velocity P-wave (km/s) = 6.99721 7.07318 7.03530
#
# Compressibility (1/GPa) = 0.01606736
#
# Stress axis : x y z
#
# Youngs Moduli (GPa) = 88.64491 97.81597 81.68285
#
# Poissons Ratio (x) = 0.31829 0.23745
# Poissons Ratio (y) = 0.28845 0.21881
# Poissons Ratio (z) = 0.25769 0.26203
#
# Static dielectric constant tensor:
#      x y z
#    x 4.212930 0.000000 0.292890 
#    y 0.000000 4.064570 0.000000 
#    z 0.292890 0.000000 4.046220 
# 
# 
# High freq. dielectric constant tensor:
#      x y z
#    x 1.915210 0.000000 0.018590 
#    y 0.000000 1.904640 0.000000 
#    z 0.018590 0.000000 1.900270 
# 
# From -- ./inp_files/7341.got.cif
#   From: 2010.06.25/outbox.cif.g09.slc.cpg/sg9_4_cif.got.tgz:7341.got - 2010.06.27 21:40:51.
