data_PCOD8056951
_publ_section_title
;
Structure prediction by ZEFSAII (Michael W. Deem and Ramdas Pophale) SiO2 
 PCOD8056951
Probable space group: P 2/M
;
_chemical_formula_sum "Si O2"
_cell_formula_units_Z 32
_cell_length_a 23.273202
_cell_length_b 17.366185
_cell_length_c 11.106761
_cell_angle_alpha 90.000000
_cell_angle_beta 25.274955
_cell_angle_gamma 90.000000
_cell_volume 1916.628121
_symmetry_space_group_name_H-M "P 2/M"
_symmetry_group_IT_number 10
_symmetry_cell_setting 'monoclinic'
loop_
_space_group_symop_operation_xyz
x,y,z
-x,y,-z
-x,-y,-z
x,-y,z
loop_
_atom_site_type_symbol
_atom_site_label
_atom_site_fract_x
_atom_site_fract_y
_atom_site_fract_z
Si Si1 0.687088 0.085564 0.418178
Si Si2 0.573129 0.709887 0.586603
Si Si3 0.715452 0.761827 0.800262
Si Si4 0.349375 0.790475 0.331670
Si Si5 0.701342 0.172629 0.173222
Si Si6 0.352388 0.413267 0.725733
Si Si7 0.617850 0.087968 0.098980
Si Si8 0.848873 0.697733 0.762118
O O1 0.705933 0.129337 0.509201
O O2 0.771588 0.123158 0.147798
O O3 0.737619 0.000000 0.346244
O O4 0.533742 0.090843 0.662037
O O5 0.656565 0.729237 0.548888
O O6 0.591371 0.770830 0.443099
O O7 0.632478 0.627889 0.432673
O O8 0.415749 0.712276 0.914250
O O9 0.741358 0.759493 0.607235
O O10 0.704045 0.852471 0.855238
O O11 0.833484 0.717987 0.648912
O O12 0.500000 0.804912 0.000000
O O13 0.628017 0.115561 0.218317
O O14 0.817252 0.223362 0.892619
O O15 0.500000 0.411585 0.500000
O O16 0.300328 0.500000 0.804388
O O17 0.249050 0.370700 0.010533
O O18 0.672970 0.000000 0.983666
O O19 0.000000 0.670764 0.500000
#
# Coordination Sequence:
#
# PCOD8056951 Si02
#       8
#     4   4   4   4   4   4   4   4
#     4  10  17  23  38  66  97 125 161 208 254 293
#     4   9  16  28  47  70  92 127 159 195 227 281
#     4  10  17  30  45  64 100 131 162 199 239 285
#     4   9  16  26  41  65  96 133 159 196 243 282
#     4   9  17  27  43  61  95 121 163 201 245 281
#     4  10  19  32  55  81 104 126 150 188 239 292
#     4  10  17  22  36  65  96 125 158 203 255 290
#     4  10  21  33  52  75  98 126 160 199 240 286
#
# _framework density 16.695989000000001
#
# number of rings (size 3 to 8) (size 9 to 14) (size 15 to 20)
#    0.000    2.375    5.000    0.750    1.750    2.000 
#    0.000    0.000    0.000   20.250    0.000    1.750 
#    0.000    0.000    0.000    0.000    0.000    0.000 
#
# Total GULP energy -396507.193652 kJ/mol
# GULP energy per Si atom -12390.849802 kJ/mol
# Density = 1.665799 g / cm^3
# Si number density = 16.695989 Si / 1000 Ang^3
#
#
#
# Elastic Constant Matrix: (Units=GPa)
#
#
# Indices 1 2 3 4 5 6 
#
# 1 113.6731 46.6101 31.6316 0.0000 22.4398 0.0000
# 2 46.6101 117.6155 24.3468 0.0000 8.4236 0.0000
# 3 31.6316 24.3468 34.9311 0.0000 0.9891 0.0000
# 4 0.0000 0.0000 0.0000 4.0496 0.0000 3.3928
# 5 22.4398 8.4236 0.9891 0.0000 24.4602 0.0000
# 6 0.0000 0.0000 0.0000 3.3928 0.0000 15.4631
#
#
#
# Elastic Compliance Matrix: (Units=1/GPa)
#
#
# Indices 1 2 3 4 5 6 
#
# 1 0.015917 -0.002876 -0.012037 0.000000 -0.013125 0.000000
# 2 -0.002876 0.010703 -0.004832 0.000000 -0.000852 0.000000
# 3 -0.012037 -0.004832 0.042585 0.000000 0.010985 0.000000
# 4 0.000000 0.000000 0.000000 0.302561 0.000000 -0.066387
# 5 -0.013125 -0.000852 0.010985 0.000000 0.052773 0.000000
# 6 0.000000 0.000000 0.000000 -0.066387 0.000000 0.079236
#
#
# Mechanical properties :
#
#
# Convention : Reuss Voigt Hill
#
# Bulk Modulus (GPa) = 33.65306 52.37741 43.01524
# Shear Modulus (GPa) = 9.03882 19.70333 14.37107
#
# Velocity S-wave (km/s) = 2.32927 3.43902 2.93704
# Velocity P-wave (km/s) = 5.23776 6.87084 6.10912
#
# Compressibility (1/GPa) = 0.02971498
#
# Stress axis : x y z
#
# Youngs Moduli (GPa) = 62.82605 93.42999 23.48268
#
# Poissons Ratio (x) = 0.26870 0.28267
# Poissons Ratio (y) = 0.18069 0.11346
# Poissons Ratio (z) = 0.75626 0.45142
#
# Static dielectric constant tensor:
#      x y z
#    x 3.302080 0.000000 0.354620 
#    y 0.000000 3.356280 0.000000 
#    z 0.354620 0.000000 2.748990 
# 
# 
# High freq. dielectric constant tensor:
#      x y z
#    x 1.636220 0.000000 0.029810 
#    y 0.000000 1.633780 0.000000 
#    z 0.029810 0.000000 1.595480 
# 
# From -- ./inp_files/57804.got.cif
#   From: 2010.06.25/outbox.cif.g09.slc.cpg/sg10_29_cif.got.tgz:57804.got - 2010.06.27 22:07:45.
