data_PCOD8056194
_publ_section_title
;
Structure prediction by ZEFSAII (Michael W. Deem and Ramdas Pophale) SiO2 
 PCOD8056194
Probable space group: C C
;
_chemical_formula_sum "Si O2"
_cell_formula_units_Z 32
_cell_length_a 24.947027
_cell_length_b 11.804701
_cell_length_c 14.533169
_cell_angle_alpha 90.000000
_cell_angle_beta 18.840898
_cell_angle_gamma 90.000000
_cell_volume 1382.158184
_symmetry_space_group_name_H-M "C C"
_symmetry_group_IT_number 9
_symmetry_cell_setting 'monoclinic'
loop_
_space_group_symop_operation_xyz
x,y,z
x,-y,1/2+z
1/2+x,1/2+y,z
1/2+x,1/2-y,1/2+z
loop_
_atom_site_type_symbol
_atom_site_label
_atom_site_fract_x
_atom_site_fract_y
_atom_site_fract_z
Si Si1 0.614540 0.876408 0.216140
Si Si2 0.234053 0.614550 0.987264
Si Si3 0.061012 0.162003 0.801217
Si Si4 0.179756 0.669547 0.407134
Si Si5 0.023327 0.562106 0.163960
Si Si6 0.730110 0.404934 0.840079
Si Si7 0.565220 0.253981 0.967860
Si Si8 0.673952 0.603455 0.811996
O O1 0.426530 0.920119 0.523598
O O2 0.656506 0.783130 0.225617
O O3 0.657179 0.811472 0.052606
O O4 0.723221 0.991033 0.053368
O O5 0.424174 0.653681 0.678773
O O6 0.117242 0.707555 0.228013
O O7 0.182095 0.602446 0.965117
O O8 0.172256 0.112704 0.538347
O O9 0.083157 0.092164 0.860572
O O10 0.873333 0.149148 0.071907
O O11 0.061719 0.565456 0.567365
O O12 0.126165 0.777003 0.434337
O O13 0.867846 0.576016 0.483765
O O14 0.985172 0.638876 0.137834
O O15 0.696698 0.297268 0.828650
O O16 0.625125 0.508487 0.966203
#
# Coordination Sequence:
#
# PCOD8056194 Si02
#       8
#     4   4   4   4   4   4   4   4
#     4  11  25  46  71 111 149 189 244 313 365 434
#     4  11  22  45  73 101 146 193 242 299 369 432
#     4  12  25  46  73 106 142 193 249 298 364 450
#     4  11  26  48  70 107 146 185 247 310 362 439
#     4  11  22  46  70 101 145 188 238 306 365 431
#     4  12  25  48  72 105 153 193 244 308 369 438
#     4  12  24  42  77 108 141 198 247 300 369 443
#     4  12  25  47  72 103 146 195 241 298 375 437
#
# _framework density 23.152199
#
# number of rings (size 3 to 8) (size 9 to 14) (size 15 to 20)
#    0.000    0.500    7.500    0.000    5.250    2.000 
#    4.500    0.000    0.000    0.000    0.000    0.000 
#    0.000    0.000    0.000    0.000    0.000    0.000 
#
# Total GULP energy -198360.284574 kJ/mol
# GULP energy per Si atom -12397.517786 kJ/mol
# Density = 2.309950 g / cm^3
# Si number density = 23.152199 Si / 1000 Ang^3
#
#
#
# Elastic Constant Matrix: (Units=GPa)
#
#
# Indices 1 2 3 4 5 6 
#
# 1 100.6220 52.5752 6.1824 0.0008 19.4538 -0.0005
# 2 52.5752 139.4269 32.4395 0.0012 14.6289 -0.0007
# 3 6.1824 32.4395 59.8250 0.0020 17.0694 -0.0011
# 4 0.0008 0.0012 0.0020 38.3382 -0.0007 1.4030
# 5 19.4538 14.6289 17.0694 -0.0007 28.4470 0.0004
# 6 -0.0005 -0.0007 -0.0011 1.4030 0.0004 26.3916
#
#
#
# Elastic Compliance Matrix: (Units=1/GPa)
#
#
# Indices 1 2 3 4 5 6 
#
# 1 0.014331 -0.005370 0.004149 -0.000001 -0.009529 0.000000
# 2 -0.005370 0.010303 -0.005511 0.000000 0.001681 0.000000
# 3 0.004149 -0.005511 0.023258 -0.000001 -0.013959 0.000001
# 4 -0.000001 0.000000 -0.000001 0.026134 0.000002 -0.001389
# 5 -0.009529 0.001681 -0.013959 0.000002 0.049181 -0.000002
# 6 0.000000 0.000000 0.000001 -0.001389 -0.000002 0.037965
#
#
# Mechanical properties :
#
#
# Convention : Reuss Voigt Hill
#
# Bulk Modulus (GPa) = 29.04525 53.58533 41.31529
# Shear Modulus (GPa) = 26.86556 32.54715 29.70636
#
# Velocity S-wave (km/s) = 3.41014 3.75346 3.58591
# Velocity P-wave (km/s) = 5.29887 6.47917 5.91852
#
# Compressibility (1/GPa) = 0.03442904
#
# Stress axis : x y z
#
# Youngs Moduli (GPa) = 69.77792 97.05980 42.99615
#
# Poissons Ratio (x) = 0.52118 -0.17841
# Poissons Ratio (y) = 0.37468 0.23697
# Poissons Ratio (z) = -0.28954 0.53493
#
# Static dielectric constant tensor:
#      x y z
#    x 4.117540 0.000000 0.108800 
#    y 0.000000 4.389710 0.000000 
#    z 0.108800 0.000000 4.060630 
# 
# 
# High freq. dielectric constant tensor:
#      x y z
#    x 1.920950 0.000000 0.001660 
#    y 0.000000 1.916900 0.000000 
#    z 0.001660 0.000000 1.904520 
# 
# From -- ./inp_files/22956.got.cif
#   From: 2010.06.25/outbox.cif.g09.slc.cpg/sg9_12_cif.got.tgz:22956.got - 2010.06.27 21:40:51.
