data_PCOD8056823
_publ_section_title
;
Structure prediction by ZEFSAII (Michael W. Deem and Ramdas Pophale) SiO2 
 PCOD8056823
Probable space group: P 2/M
;
_chemical_formula_sum "Si O2"
_cell_formula_units_Z 26
_cell_length_a 17.591167
_cell_length_b 20.462184
_cell_length_c 5.164792
_cell_angle_alpha 90.000000
_cell_angle_beta 91.636237
_cell_angle_gamma 90.000000
_cell_volume 1858.327938
_symmetry_space_group_name_H-M "P 2/M"
_symmetry_group_IT_number 10
_symmetry_cell_setting 'monoclinic'
loop_
_space_group_symop_operation_xyz
x,y,z
-x,y,-z
-x,-y,-z
x,-y,z
loop_
_atom_site_type_symbol
_atom_site_label
_atom_site_fract_x
_atom_site_fract_y
_atom_site_fract_z
Si Si1 0.044255 0.922035 0.754301
Si Si2 0.784744 0.922401 0.236841
Si Si3 0.694290 0.077575 0.728703
Si Si4 0.549421 0.837578 0.761341
Si Si5 0.447481 0.500000 0.738597
Si Si6 0.412066 0.636154 0.565996
Si Si7 0.414228 0.304054 0.062683
O O1 0.129875 0.893861 0.762812
O O2 0.000000 0.895370 0.500000
O O3 0.045940 0.000000 0.754263
O O4 0.000000 0.895364 0.000000
O O5 0.743073 0.897656 0.490106
O O6 0.788850 0.000000 0.232190
O O7 0.737658 0.896770 0.986739
O O8 0.610828 0.107561 0.704447
O O9 0.684643 0.000000 0.727107
O O10 0.500000 0.825526 0.500000
O O11 0.590306 0.770354 0.845051
O O12 0.500000 0.862663 0.000000
O O13 0.500000 0.500000 0.500000
O O14 0.396952 0.565215 0.696814
O O15 0.500000 0.500000 0.000000
O O16 0.500000 0.650814 0.500000
O O17 0.374006 0.650051 0.280159
O O18 0.375594 0.686127 0.775730
O O19 0.500000 0.327831 0.000000
#
# Coordination Sequence:
#
# PCOD8056823 Si02
#       7
#     4   4   4   4   2   4   4
#     4   9  15  23  38  59  78  94 111 128 148 190
#     4   9  17  29  42  56  75  95 111 131 169 218
#     4  10  20  32  43  54  70  91 114 147 191 232
#     4  11  21  31  43  55  65  84 119 158 194 230
#     4  10  16  20  30  48  66  84 102 118 146 200
#     4   9  15  23  34  48  66  84 101 124 159 205
#     4   9  16  26  37  48  63  82 105 138 176 211
#
# _framework density 13.991072000000001
#
# number of rings (size 3 to 8) (size 9 to 14) (size 15 to 20)
#    0.000    2.462    0.000    6.462    0.000    4.308 
#    0.000    0.000    0.000    0.000    0.000    0.000 
#    0.000    0.000    0.000    0.000    0.000    0.000 
#
# Total GULP energy -322104.553167 kJ/mol
# GULP energy per Si atom -12388.636660 kJ/mol
# Density = 1.395923 g / cm^3
# Si number density = 13.991072 Si / 1000 Ang^3
#
#
#
# Elastic Constant Matrix: (Units=GPa)
#
#
# Indices 1 2 3 4 5 6 
#
# 1 53.3172 23.6481 30.6736 0.0000 -8.0296 0.0000
# 2 23.6481 39.5305 30.5106 0.0000 -2.9538 0.0000
# 3 30.6736 30.5106 134.0922 0.0000 -9.1089 0.0000
# 4 0.0000 0.0000 0.0000 13.7019 0.0000 -0.3298
# 5 -8.0296 -2.9538 -9.1089 0.0000 18.0068 0.0000
# 6 0.0000 0.0000 0.0000 -0.3298 0.0000 0.2247
#
#
#
# Elastic Compliance Matrix: (Units=1/GPa)
#
#
# Indices 1 2 3 4 5 6 
#
# 1 0.027750 -0.013957 -0.002576 0.000000 0.008782 0.000000
# 2 -0.013957 0.037747 -0.005590 0.000000 -0.002860 0.000000
# 3 -0.002576 -0.005590 0.009505 0.000000 0.002743 0.000000
# 4 0.000000 0.000000 0.000000 0.075655 0.000000 0.111037
# 5 0.008782 -0.002860 0.002743 0.000000 0.060369 0.000000
# 6 0.000000 0.000000 0.000000 0.111037 0.000000 4.612880
#
#
# Mechanical properties :
#
#
# Convention : Reuss Voigt Hill
#
# Bulk Modulus (GPa) = 32.51295 44.06719 38.29007
# Shear Modulus (GPa) = 1.02493 15.86053 8.44273
#
# Velocity S-wave (km/s) = 0.85682 3.37058 2.45916
# Velocity P-wave (km/s) = 4.92622 6.83467 5.95737
#
# Compressibility (1/GPa) = 0.03075698
#
# Stress axis : x y z
#
# Youngs Moduli (GPa) = 36.03557 26.49194 105.20691
#
# Poissons Ratio (x) = 0.36974 0.27098
# Poissons Ratio (y) = 0.50294 0.58816
# Poissons Ratio (z) = 0.09282 0.14810
#
# Static dielectric constant tensor:
#      x y z
#    x 2.412080 0.000000 -0.044450 
#    y 0.000000 3.445660 0.000000 
#    z -0.044450 0.000000 3.291430 
# 
# 
# High freq. dielectric constant tensor:
#      x y z
#    x 1.471610 0.000000 -0.006300 
#    y 0.000000 1.494470 0.000000 
#    z -0.006300 0.000000 1.571690 
# 
# From -- ./inp_files/9904.got.cif
#   From: 2010.06.25/outbox.cif.g09.slc.cpg/sg10_5_cif.got.tgz:9904.got - 2010.06.27 22:07:45.
