data_PCOD8056144
_publ_section_title
;
Structure prediction by ZEFSAII (Michael W. Deem and Ramdas Pophale) SiO2 
 PCOD8056144
Probable space group: C C
;
_chemical_formula_sum "Si O2"
_cell_formula_units_Z 28
_cell_length_a 9.099067
_cell_length_b 10.415243
_cell_length_c 14.477547
_cell_angle_alpha 90.000000
_cell_angle_beta 123.636893
_cell_angle_gamma 90.000000
_cell_volume 1142.297604
_symmetry_space_group_name_H-M "C C"
_symmetry_group_IT_number 9
_symmetry_cell_setting 'monoclinic'
loop_
_space_group_symop_operation_xyz
x,y,z
x,-y,1/2+z
1/2+x,1/2+y,z
1/2+x,1/2-y,1/2+z
loop_
_atom_site_type_symbol
_atom_site_label
_atom_site_fract_x
_atom_site_fract_y
_atom_site_fract_z
Si Si1 0.184940 0.677576 0.099380
Si Si2 0.206659 0.054622 0.646166
Si Si3 0.196426 0.044846 0.939681
Si Si4 0.198153 0.306456 0.014269
Si Si5 0.057473 0.210853 0.143068
Si Si6 0.812044 0.926097 0.225227
Si Si7 0.470247 0.973082 0.385897
O O1 0.105933 0.806861 0.120774
O O2 0.376879 0.725534 0.133681
O O3 0.197436 0.558441 0.175740
O O4 0.073836 0.643579 0.969859
O O5 0.398271 0.069457 0.761514
O O6 0.229564 0.031088 0.545222
O O7 0.111277 0.939489 0.667632
O O8 0.273806 0.190311 0.979092
O O9 0.990652 0.046715 0.841718
O O10 0.310425 0.982017 0.898125
O O11 0.103753 0.408841 0.914920
O O12 0.048010 0.245562 0.030629
O O13 0.345580 0.376970 0.130426
O O14 0.200187 0.312485 0.237464
#
# Coordination Sequence:
#
# PCOD8056144 Si02
#       7
#     4   4   4   4   4   4   4
#     4  11  24  43  66  99 136 177 224 284 337 394
#     4  11  25  43  67 104 128 184 226 269 349 402
#     4  11  22  41  74  95 136 182 223 280 340 403
#     4   8  20  41  66  96 123 183 222 271 342 387
#     4   9  20  46  67  95 132 170 232 274 329 410
#     4   9  21  41  66  97 130 178 226 275 335 398
#     4  11  24  43  64 102 143 168 227 289 330 406
#
# _framework density 24.511998999999999
#
# number of rings (size 3 to 8) (size 9 to 14) (size 15 to 20)
#    0.857    1.143    0.000    2.571    2.000    3.429 
#    7.714    0.000    0.000    0.000    0.000    0.000 
#    0.000    0.000    0.000    0.000    0.000    0.000 
#
# Total GULP energy -173434.756926 kJ/mol
# GULP energy per Si atom -12388.196923 kJ/mol
# Density = 2.445621 g / cm^3
# Si number density = 24.511999 Si / 1000 Ang^3
#
#
#
# Elastic Constant Matrix: (Units=GPa)
#
#
# Indices 1 2 3 4 5 6 
#
# 1 46.5317 -0.1436 7.4319 0.0000 0.9670 0.0000
# 2 -0.1436 185.4874 51.7528 0.0000 7.2567 0.0000
# 3 7.4319 51.7528 169.9560 0.0000 18.5714 0.0000
# 4 0.0000 0.0000 0.0000 22.0777 0.0000 -0.0882
# 5 0.9670 7.2567 18.5714 0.0000 24.6359 0.0000
# 6 0.0000 0.0000 0.0000 -0.0882 0.0000 17.0985
#
#
#
# Elastic Compliance Matrix: (Units=1/GPa)
#
#
# Indices 1 2 3 4 5 6 
#
# 1 0.021659 0.000309 -0.001022 0.000000 -0.000170 0.000000
# 2 0.000309 0.005900 -0.001764 0.000000 -0.000420 0.000000
# 3 -0.001022 -0.001764 0.006980 0.000000 -0.004702 0.000000
# 4 0.000000 0.000000 0.000000 0.045296 0.000000 0.000234
# 5 -0.000170 -0.000420 -0.004702 0.000000 0.044266 0.000000
# 6 0.000000 0.000000 0.000000 0.000234 0.000000 0.058486
#
#
# Mechanical properties :
#
#
# Convention : Reuss Voigt Hill
#
# Bulk Modulus (GPa) = 33.80407 57.78415 45.79411
# Shear Modulus (GPa) = 25.32898 35.62467 30.47683
#
# Velocity S-wave (km/s) = 3.21803 3.81643 3.52993
# Velocity P-wave (km/s) = 5.25627 6.56088 5.94447
#
# Compressibility (1/GPa) = 0.02958223
#
# Stress axis : x y z
#
# Youngs Moduli (GPa) = 46.17115 169.48833 143.27549
#
# Poissons Ratio (x) = -0.05232 0.14650
# Poissons Ratio (y) = -0.01425 0.25277
# Poissons Ratio (z) = 0.04721 0.29901
#
# Static dielectric constant tensor:
#      x y z
#    x 3.784100 0.000000 0.175640 
#    y 0.000000 4.721520 0.000000 
#    z 0.175640 0.000000 4.226950 
# 
# 
# High freq. dielectric constant tensor:
#      x y z
#    x 1.939890 0.000000 0.012160 
#    y 0.000000 1.994570 0.000000 
#    z 0.012160 0.000000 1.965460 
# 
# From -- ./inp_files/22833.got.cif
#   From: 2010.06.25/outbox.cif.g09.slc.cpg/sg9_12_cif.got.tgz:22833.got - 2010.06.27 21:40:51.
