data_PCOD8056835
_publ_section_title
;
Structure prediction by ZEFSAII (Michael W. Deem and Ramdas Pophale) SiO2 
 PCOD8056835
Probable space group: P 2/M
;
_chemical_formula_sum "Si O2"
_cell_formula_units_Z 28
_cell_length_a 5.334495
_cell_length_b 21.661942
_cell_length_c 20.291379
_cell_angle_alpha 90.000000
_cell_angle_beta 121.721451
_cell_angle_gamma 90.000000
_cell_volume 1994.504188
_symmetry_space_group_name_H-M "P 2/M"
_symmetry_group_IT_number 10
_symmetry_cell_setting 'monoclinic'
loop_
_space_group_symop_operation_xyz
x,y,z
-x,y,-z
-x,-y,-z
x,-y,z
loop_
_atom_site_type_symbol
_atom_site_label
_atom_site_fract_x
_atom_site_fract_y
_atom_site_fract_z
Si Si1 0.164726 0.926325 0.957363
Si Si2 0.068140 0.428359 0.409070
Si Si3 0.068821 0.816524 0.409411
Si Si4 0.182359 0.072662 0.216185
Si Si5 0.864307 0.072525 0.307157
Si Si6 0.591138 0.234200 0.420570
Si Si7 0.590844 0.377616 0.420423
O O1 0.990406 0.899152 0.870202
O O2 0.164230 0.000000 0.957116
O O3 0.500000 0.901655 0.000000
O O4 0.000000 0.901655 0.000000
O O5 0.027182 0.500000 0.388592
O O6 0.245104 0.396337 0.372786
O O7 0.252373 0.417494 0.501186
O O8 0.746037 0.396336 0.372786
O O9 0.253354 0.807310 0.501677
O O10 0.245225 0.783573 0.373365
O O11 0.024628 0.888982 0.387316
O O12 0.748234 0.783572 0.373365
O O13 0.522908 0.093013 0.259995
O O14 0.017045 0.093014 0.259993
O O15 0.166832 0.000000 0.208425
O O16 0.905302 0.000000 0.327654
O O17 0.635043 0.305889 0.442523
#
# Coordination Sequence:
#
# PCOD8056835 Si02
#       7
#     4   4   4   4   4   4   4
#     4   9  15  23  37  56  75  93 111 129 147 176
#     4  10  16  22  33  51  70  88 106 124 153 206
#     4  10  18  30  42  54  66  82 112 148 183 225
#     4   9  17  28  40  55  74  93 111 129 158 206
#     4  10  19  30  42  54  70  91 111 138 181 227
#     4  10  19  30  42  54  66  85 115 153 188 218
#     4  10  16  25  36  48  67  88 106 133 171 206
#
# _framework density 14.038577999999999
#
# number of rings (size 3 to 8) (size 9 to 14) (size 15 to 20)
#    0.000    2.286    0.000    8.143    0.000    3.429 
#    0.000    2.857    0.000    0.000    0.000    0.000 
#    0.000    0.000    0.000    0.000    0.000    0.000 
#
# Total GULP energy -346907.519138 kJ/mol
# GULP energy per Si atom -12389.554255 kJ/mol
# Density = 1.400663 g / cm^3
# Si number density = 14.038578 Si / 1000 Ang^3
#
#
#
# Elastic Constant Matrix: (Units=GPa)
#
#
# Indices 1 2 3 4 5 6 
#
# 1 171.5684 40.2785 24.1931 0.0000 -1.6727 0.0000
# 2 40.2785 68.6662 33.2065 0.0000 -0.0904 0.0000
# 3 24.1931 33.2065 39.8759 0.0000 -0.0308 0.0000
# 4 0.0000 0.0000 0.0000 0.8451 0.0000 -0.1963
# 5 -1.6727 -0.0904 -0.0308 0.0000 9.0745 0.0000
# 6 0.0000 0.0000 0.0000 -0.1963 0.0000 16.0127
#
#
#
# Elastic Compliance Matrix: (Units=1/GPa)
#
#
# Indices 1 2 3 4 5 6 
#
# 1 0.006816 -0.003344 -0.001350 0.000000 0.001219 0.000000
# 2 -0.003344 0.026023 -0.019642 0.000000 -0.000424 0.000000
# 3 -0.001350 -0.019642 0.042253 0.000000 -0.000301 0.000000
# 4 0.000000 0.000000 0.000000 1.186737 0.000000 0.014548
# 5 0.001219 -0.000424 -0.000301 0.000000 0.110419 0.000000
# 6 0.000000 0.000000 0.000000 0.014548 0.000000 0.062629
#
#
# Mechanical properties :
#
#
# Convention : Reuss Voigt Hill
#
# Bulk Modulus (GPa) = 37.84893 52.82962 45.33928
# Shear Modulus (GPa) = 3.35041 17.34861 10.34951
#
# Velocity S-wave (km/s) = 1.54653 3.51918 2.71812
# Velocity P-wave (km/s) = 5.49620 7.36385 6.49748
#
# Compressibility (1/GPa) = 0.02642082
#
# Stress axis : x y z
#
# Youngs Moduli (GPa) = 146.71840 38.42793 23.66676
#
# Poissons Ratio (x) = 0.12849 0.03195
# Poissons Ratio (y) = 0.49057 0.46486
# Poissons Ratio (z) = 0.19805 0.75480
#
# Static dielectric constant tensor:
#      x y z
#    x 4.472970 0.000000 -0.027730 
#    y 0.000000 2.508820 0.000000 
#    z -0.027730 0.000000 2.332330 
# 
# 
# High freq. dielectric constant tensor:
#      x y z
#    x 1.581300 0.000000 -0.001580 
#    y 0.000000 1.505300 0.000000 
#    z -0.001580 0.000000 1.459250 
# 
# From -- ./inp_files/12801.got.cif
#   From: 2010.06.25/outbox.cif.g09.slc.cpg/sg10_7_cif.got.tgz:12801.got - 2010.06.27 22:07:45.
