data_PCOD8056667
_publ_section_title
;
Structure prediction by ZEFSAII (Michael W. Deem and Ramdas Pophale) SiO2 
 PCOD8056667
Probable space group: C C
;
_chemical_formula_sum "Si O2"
_cell_formula_units_Z 32
_cell_length_a 4.995003
_cell_length_b 8.693362
_cell_length_c 34.616678
_cell_angle_alpha 90.000000
_cell_angle_beta 107.038807
_cell_angle_gamma 90.000000
_cell_volume 1437.193292
_symmetry_space_group_name_H-M "C C"
_symmetry_group_IT_number 9
_symmetry_cell_setting 'monoclinic'
loop_
_space_group_symop_operation_xyz
x,y,z
x,-y,1/2+z
1/2+x,1/2+y,z
1/2+x,1/2-y,1/2+z
loop_
_atom_site_type_symbol
_atom_site_label
_atom_site_fract_x
_atom_site_fract_y
_atom_site_fract_z
Si Si1 0.703390 0.178533 0.970470
Si Si2 0.343350 0.473642 0.251349
Si Si3 0.015475 0.678901 0.876944
Si Si4 0.266698 0.010001 0.001874
Si Si5 0.950554 0.010137 0.845442
Si Si6 0.782597 0.693730 0.719533
Si Si7 0.006342 0.832786 0.125975
Si Si8 0.942636 0.499510 0.594957
O O1 0.688818 0.181844 0.923747
O O2 0.639598 0.344905 0.985665
O O3 0.474234 0.060746 0.976753
O O4 0.013041 0.128664 0.996089
O O5 0.424979 0.501615 0.298722
O O6 0.620926 0.420407 0.241171
O O7 0.224774 0.630570 0.228363
O O8 0.111186 0.341705 0.236924
O O9 0.223407 0.630051 0.851572
O O10 0.761018 0.560815 0.870257
O O11 0.889182 0.845364 0.861873
O O12 0.440447 0.004880 0.048696
O O13 0.690014 0.666006 0.672039
O O14 0.883421 0.666078 0.110967
O O15 0.199471 0.886696 0.098769
O O16 0.746461 0.945762 0.121722
#
# Coordination Sequence:
#
# PCOD8056667 Si02
#       8
#     4   4   4   4   4   4   4   4
#     4  12  24  43  67  96 129 168 213 264 319 379
#     4  12  25  44  67  96 130 170 214 264 319 380
#     4  12  25  43  66  96 129 168 213 264 318 379
#     4  12  25  44  67  96 130 170 214 264 319 380
#     4  12  25  44  67  96 130 170 214 264 319 380
#     4  12  25  43  66  96 129 168 213 264 318 379
#     4  12  24  43  67  96 129 168 213 264 319 379
#     4  12  25  44  67  96 130 170 214 264 319 380
#
# _framework density 22.265618
#
# number of rings (size 3 to 8) (size 9 to 14) (size 15 to 20)
#    0.000    0.000    0.000   12.000    0.000    0.000 
#    0.000    0.000    0.000    0.000    0.000    0.000 
#    0.000    0.000    0.000    0.000    0.000    0.000 
#
# Total GULP energy -198615.789695 kJ/mol
# GULP energy per Si atom -12413.486856 kJ/mol
# Density = 2.221494 g / cm^3
# Si number density = 22.265618 Si / 1000 Ang^3
#
#
#
# Elastic Constant Matrix: (Units=GPa)
#
#
# Indices 1 2 3 4 5 6 
#
# 1 99.7855 13.1258 0.6737 0.0000 0.2773 0.0000
# 2 13.1258 103.5130 50.5024 0.0000 -3.8139 0.0000
# 3 0.6737 50.5024 103.6482 0.0000 -3.1793 0.0000
# 4 0.0000 0.0000 0.0000 41.7587 0.0000 -0.6917
# 5 0.2773 -3.8139 -3.1793 0.0000 30.5864 0.0000
# 6 0.0000 0.0000 0.0000 -0.6917 0.0000 32.0698
#
#
#
# Elastic Compliance Matrix: (Units=1/GPa)
#
#
# Indices 1 2 3 4 5 6 
#
# 1 0.010236 -0.001667 0.000739 0.000000 -0.000224 0.000000
# 2 -0.001667 0.012972 -0.006280 0.000000 0.000980 0.000000
# 3 0.000739 -0.006280 0.012719 0.000000 0.000532 0.000000
# 4 0.000000 0.000000 0.000000 0.023956 0.000000 0.000517
# 5 -0.000224 0.000980 0.000532 0.000000 0.032874 0.000000
# 6 0.000000 0.000000 0.000000 0.000517 0.000000 0.031193
#
#
# Mechanical properties :
#
#
# Convention : Reuss Voigt Hill
#
# Bulk Modulus (GPa) = 46.48506 48.39451 47.43978
# Shear Modulus (GPa) = 34.35577 37.05929 35.70753
#
# Velocity S-wave (km/s) = 3.93236 4.08415 4.00898
# Velocity P-wave (km/s) = 6.44521 6.63496 6.54077
#
# Compressibility (1/GPa) = 0.02151229
#
# Stress axis : x y z
#
# Youngs Moduli (GPa) = 97.69097 77.09039 78.62081
#
# Poissons Ratio (x) = 0.12848 -0.05808
# Poissons Ratio (y) = 0.16282 0.49371
# Poissons Ratio (z) = -0.07216 0.48410
#
# Static dielectric constant tensor:
#      x y z
#    x 3.957310 0.000000 -0.029990 
#    y 0.000000 4.115120 0.000000 
#    z -0.029990 0.000000 4.076880 
# 
# 
# High freq. dielectric constant tensor:
#      x y z
#    x 1.886020 0.000000 -0.001040 
#    y 0.000000 1.890240 0.000000 
#    z -0.001040 0.000000 1.893620 
# 
# From -- ./inp_files/37081.got.cif
#   From: 2010.06.25/outbox.cif.g09.slc.cpg/sg9_19_cif.got.tgz:37081.got - 2010.06.27 21:40:51.
