data_PCOD8056337
_publ_section_title
;
Structure prediction by ZEFSAII (Michael W. Deem and Ramdas Pophale) SiO2 
 PCOD8056337
Probable space group: C C
;
_chemical_formula_sum "Si O2"
_cell_formula_units_Z 32
_cell_length_a 6.295428
_cell_length_b 25.888835
_cell_length_c 9.566877
_cell_angle_alpha 90.000000
_cell_angle_beta 65.806600
_cell_angle_gamma 90.000000
_cell_volume 1422.271386
_symmetry_space_group_name_H-M "C C"
_symmetry_group_IT_number 9
_symmetry_cell_setting 'monoclinic'
loop_
_space_group_symop_operation_xyz
x,y,z
x,-y,1/2+z
1/2+x,1/2+y,z
1/2+x,1/2-y,1/2+z
loop_
_atom_site_type_symbol
_atom_site_label
_atom_site_fract_x
_atom_site_fract_y
_atom_site_fract_z
Si Si1 0.184100 0.833615 0.978290
Si Si2 0.483103 0.726754 0.290739
Si Si3 0.478495 0.263725 0.485123
Si Si4 0.480917 0.073069 0.303364
Si Si5 0.332827 0.502003 0.820345
Si Si6 0.130955 0.011115 0.993316
Si Si7 0.490568 0.087275 0.971258
Si Si8 0.781152 0.177996 0.786215
O O1 0.299823 0.783597 0.017092
O O2 0.377485 0.878097 0.915179
O O3 0.088488 0.821041 0.848928
O O4 0.963146 0.850401 0.133198
O O5 0.671960 0.772770 0.238945
O O6 0.242035 0.744914 0.420736
O O7 0.432904 0.708687 0.146197
O O8 0.431167 0.306263 0.380944
O O9 0.721840 0.054441 0.312573
O O10 0.304552 0.025983 0.364793
O O11 0.517991 0.086665 0.131252
O O12 0.397022 0.510039 0.965148
O O13 0.560631 0.511456 0.663813
O O14 0.147992 0.546595 0.845322
O O15 0.232025 0.069257 0.991740
O O16 0.562842 0.142846 0.892222
#
# Coordination Sequence:
#
# PCOD8056337 Si02
#       8
#     4   4   4   4   4   4   4   4
#     4  11  25  45  68 102 140 180 233 280 342 414
#     4  11  24  45  70  99 139 185 228 285 342 399
#     4  11  24  45  70  99 139 185 228 285 342 399
#     4  11  25  42  69 104 132 178 232 282 343 414
#     4  11  23  47  70  96 138 177 223 288 346 407
#     4  11  23  47  70  96 138 177 223 288 346 407
#     4  11  25  42  69 104 132 178 232 282 343 414
#     4  11  25  45  68 102 140 180 233 280 342 414
#
# _framework density 22.499222
#
# number of rings (size 3 to 8) (size 9 to 14) (size 15 to 20)
#    0.000    1.000    5.000    0.750    3.500    2.000 
#    4.500    0.000    0.000    0.000    0.000    0.000 
#    0.000    0.000    0.000    0.000    0.000    0.000 
#
# Total GULP energy -198364.935542 kJ/mol
# GULP energy per Si atom -12397.808471 kJ/mol
# Density = 2.244801 g / cm^3
# Si number density = 22.499222 Si / 1000 Ang^3
#
#
#
# Elastic Constant Matrix: (Units=GPa)
#
#
# Indices 1 2 3 4 5 6 
#
# 1 97.0900 21.5285 30.0538 0.0000 14.8130 0.0000
# 2 21.5285 70.0711 30.2468 0.0000 7.3306 0.0000
# 3 30.0538 30.2468 123.5615 0.0000 4.3251 0.0000
# 4 0.0000 0.0000 0.0000 33.6324 0.0000 -10.9725
# 5 14.8130 7.3306 4.3251 0.0000 43.7436 0.0000
# 6 0.0000 0.0000 0.0000 -10.9725 0.0000 30.9589
#
#
#
# Elastic Compliance Matrix: (Units=1/GPa)
#
#
# Indices 1 2 3 4 5 6 
#
# 1 0.012044 -0.002377 -0.002226 0.000000 -0.003460 0.000000
# 2 -0.002377 0.016660 -0.003442 0.000000 -0.001646 0.000000
# 3 -0.002226 -0.003442 0.009463 0.000000 0.000395 0.000000
# 4 0.000000 0.000000 0.000000 0.033621 0.000000 0.011916
# 5 -0.003460 -0.001646 0.000395 0.000000 0.024269 0.000000
# 6 0.000000 0.000000 0.000000 0.011916 0.000000 0.036524
#
#
# Mechanical properties :
#
#
# Convention : Reuss Voigt Hill
#
# Bulk Modulus (GPa) = 45.29986 50.48676 47.89331
# Shear Modulus (GPa) = 32.04481 35.59321 33.81901
#
# Velocity S-wave (km/s) = 3.77804 3.98172 3.88121
# Velocity P-wave (km/s) = 6.26172 6.60506 6.43568
#
# Compressibility (1/GPa) = 0.02207512
#
# Stress axis : x y z
#
# Youngs Moduli (GPa) = 83.02948 60.02477 105.66941
#
# Poissons Ratio (x) = 0.14270 0.23526
# Poissons Ratio (y) = 0.19739 0.36375
# Poissons Ratio (z) = 0.18485 0.20662
#
# Static dielectric constant tensor:
#      x y z
#    x 4.269760 0.000000 -0.057590 
#    y 0.000000 3.814310 0.000000 
#    z -0.057590 0.000000 4.063760 
# 
# 
# High freq. dielectric constant tensor:
#      x y z
#    x 1.893980 0.000000 -0.006550 
#    y 0.000000 1.862070 0.000000 
#    z -0.006550 0.000000 1.903440 
# 
# From -- ./inp_files/4339.got.cif
#   From: 2010.06.25/outbox.cif.g09.slc.cpg/sg9_3_cif.got.tgz:4339.got - 2010.06.27 21:40:51.
