data_PCOD8056582
_publ_section_title
;
Structure prediction by ZEFSAII (Michael W. Deem and Ramdas Pophale) SiO2 
 PCOD8056582
Probable space group: C C
;
_chemical_formula_sum "Si O2"
_cell_formula_units_Z 28
_cell_length_a 5.063595
_cell_length_b 26.957079
_cell_length_c 8.076686
_cell_angle_alpha 90.000000
_cell_angle_beta 97.459693
_cell_angle_gamma 90.000000
_cell_volume 1093.134679
_symmetry_space_group_name_H-M "C C"
_symmetry_group_IT_number 9
_symmetry_cell_setting 'monoclinic'
loop_
_space_group_symop_operation_xyz
x,y,z
x,-y,1/2+z
1/2+x,1/2+y,z
1/2+x,1/2-y,1/2+z
loop_
_atom_site_type_symbol
_atom_site_label
_atom_site_fract_x
_atom_site_fract_y
_atom_site_fract_z
Si Si1 0.812530 0.002015 0.242110
Si Si2 0.034473 0.410193 0.285007
Si Si3 0.092482 0.057087 0.506711
Si Si4 0.570305 0.269926 0.014000
Si Si5 0.493272 0.640747 0.293660
Si Si6 0.616329 0.200927 0.728344
Si Si7 0.980936 0.404504 0.639225
O O1 0.565419 0.040814 0.211315
O O2 0.087560 0.029812 0.325029
O O3 0.753890 0.952107 0.346116
O O4 0.874089 0.978953 0.069115
O O5 0.161155 0.358544 0.232570
O O6 0.867325 0.403821 0.441704
O O7 0.865385 0.437006 0.125899
O O8 0.964789 0.111513 0.467289
O O9 0.495333 0.302077 0.844380
O O10 0.614165 0.217440 0.922955
O O11 0.340465 0.270952 0.135763
O O12 0.835099 0.289089 0.120773
O O13 0.245393 0.630122 0.154558
O O14 0.770869 0.622348 0.239095
#
# Coordination Sequence:
#
# PCOD8056582 Si02
#       7
#     4   4   4   4   4   4   4
#     4  11  26  46  69 110 149 208 249 322 378 459
#     4  12  28  45  77 109 153 204 266 314 393 461
#     4  11  26  44  70 100 154 195 255 312 377 456
#     4  12  27  54  80 120 155 206 260 327 408 460
#     4  11  26  49  75 107 153 196 254 319 393 453
#     4  12  29  50  85 116 158 207 260 332 392 481
#     4  11  28  46  76 110 148 204 254 316 377 474
#
# _framework density 25.614408999999998
#
# number of rings (size 3 to 8) (size 9 to 14) (size 15 to 20)
#    0.000    0.571    2.857    2.571   16.000    0.000 
#    0.000    0.000    0.000    0.000    0.000    0.000 
#    0.000    0.000    0.000    0.000    0.000    0.000 
#
# Total GULP energy -173440.544401 kJ/mol
# GULP energy per Si atom -12388.610314 kJ/mol
# Density = 2.555611 g / cm^3
# Si number density = 25.614409 Si / 1000 Ang^3
#
#
#
# Elastic Constant Matrix: (Units=GPa)
#
#
# Indices 1 2 3 4 5 6 
#
# 1 113.9329 28.7603 25.7802 0.0000 -9.2801 0.0000
# 2 28.7603 102.4856 25.0316 0.0000 -1.9855 0.0000
# 3 25.7802 25.0316 99.4701 0.0000 -3.1616 0.0000
# 4 0.0000 0.0000 0.0000 41.6699 0.0000 -7.1439
# 5 -9.2801 -1.9855 -3.1616 0.0000 39.0883 0.0000
# 6 0.0000 0.0000 0.0000 -7.1439 0.0000 32.0122
#
#
#
# Elastic Compliance Matrix: (Units=1/GPa)
#
#
# Indices 1 2 3 4 5 6 
#
# 1 0.009963 -0.002281 -0.001942 0.000000 0.002092 0.000000
# 2 -0.002281 0.010923 -0.002163 0.000000 -0.000162 0.000000
# 3 -0.001942 -0.002163 0.011111 0.000000 0.000328 0.000000
# 4 0.000000 0.000000 0.000000 0.024953 0.000000 0.005568
# 5 0.002092 -0.000162 0.000328 0.000000 0.026098 0.000000
# 6 0.000000 0.000000 0.000000 0.005568 0.000000 0.032481
#
#
# Mechanical properties :
#
#
# Convention : Reuss Voigt Hill
#
# Bulk Modulus (GPa) = 52.01288 52.78140 52.39714
# Shear Modulus (GPa) = 37.11751 38.30851 37.71301
#
# Velocity S-wave (km/s) = 3.81082 3.87147 3.84127
# Velocity P-wave (km/s) = 6.30185 6.37458 6.33832
#
# Compressibility (1/GPa) = 0.01922601
#
# Stress axis : x y z
#
# Youngs Moduli (GPa) = 100.37480 91.55265 89.99987
#
# Poissons Ratio (x) = 0.20884 0.17474
# Poissons Ratio (y) = 0.22896 0.19464
# Poissons Ratio (z) = 0.19488 0.19799
#
# Static dielectric constant tensor:
#      x y z
#    x 4.316860 0.000000 -0.155360 
#    y 0.000000 5.023460 0.000000 
#    z -0.155360 0.000000 4.753050 
# 
# 
# High freq. dielectric constant tensor:
#      x y z
#    x 2.003630 0.000000 0.000960 
#    y 0.000000 2.039700 0.000000 
#    z 0.000960 0.000000 2.036750 
# 
# From -- ./inp_files/4174.got.cif
#   From: 2010.06.25/outbox.cif.g09.slc.cpg/sg9_3_cif.got.tgz:4174.got - 2010.06.27 21:40:51.
