data_PCOD8056743
_publ_section_title
;
Structure prediction by ZEFSAII (Michael W. Deem and Ramdas Pophale) SiO2 
 PCOD8056743
Probable space group: C C
;
_chemical_formula_sum "Si O2"
_cell_formula_units_Z 32
_cell_length_a 16.816259
_cell_length_b 8.409926
_cell_length_c 19.791773
_cell_angle_alpha 90.000000
_cell_angle_beta 150.874546
_cell_angle_gamma 90.000000
_cell_volume 1362.349663
_symmetry_space_group_name_H-M "C C"
_symmetry_group_IT_number 9
_symmetry_cell_setting 'monoclinic'
loop_
_space_group_symop_operation_xyz
x,y,z
x,-y,1/2+z
1/2+x,1/2+y,z
1/2+x,1/2-y,1/2+z
loop_
_atom_site_type_symbol
_atom_site_label
_atom_site_fract_x
_atom_site_fract_y
_atom_site_fract_z
Si Si1 0.578420 0.803904 0.174110
Si Si2 0.374904 0.808059 0.267560
Si Si3 0.168859 0.191346 0.876972
Si Si4 0.945783 0.784288 0.441565
Si Si5 0.011783 0.849918 0.995165
Si Si6 0.032019 0.335744 0.649744
Si Si7 0.606370 0.091176 0.447024
Si Si8 0.949731 0.099290 0.202777
O O1 0.758023 0.746678 0.283072
O O2 0.491062 0.687987 0.163414
O O3 0.593145 0.985966 0.207318
O O4 0.465011 0.811754 0.024764
O O5 0.195580 0.836895 0.104291
O O6 0.380431 0.703706 0.340791
O O7 0.469512 0.724935 0.277173
O O8 0.458631 0.972060 0.348780
O O9 0.078848 0.324968 0.854666
O O10 0.157697 0.235632 0.789173
O O11 0.349093 0.180988 0.042327
O O12 0.091031 0.020633 0.827653
O O13 0.078618 0.723999 0.485031
O O14 0.972318 0.968061 0.481558
O O15 0.016961 0.734394 0.063635
O O16 0.777708 0.995669 0.576443
#
# Coordination Sequence:
#
# PCOD8056743 Si02
#       8
#     4   4   4   4   4   4   4   4
#     4  12  28  47  76 107 151 195 256 313 379 451
#     4  12  26  46  75 104 151 195 254 310 380 451
#     4  12  26  46  75 104 151 195 254 310 380 451
#     4  12  28  47  76 107 151 195 256 313 379 451
#     4  12  26  46  75 110 149 199 252 314 381 453
#     4  12  26  46  75 110 149 199 252 314 381 453
#     4  12  28  48  75 112 150 200 254 313 383 455
#     4  12  28  48  75 112 150 200 254 313 383 455
#
# _framework density 23.488831000000001
#
# number of rings (size 3 to 8) (size 9 to 14) (size 15 to 20)
#    0.000    0.000    2.500    6.750   10.500    2.000 
#    0.000    0.000    0.000    0.000    0.000    0.000 
#    0.000    0.000    0.000    0.000    0.000    0.000 
#
# Total GULP energy -198376.834654 kJ/mol
# GULP energy per Si atom -12398.552166 kJ/mol
# Density = 2.343537 g / cm^3
# Si number density = 23.488831 Si / 1000 Ang^3
#
#
#
# Elastic Constant Matrix: (Units=GPa)
#
#
# Indices 1 2 3 4 5 6 
#
# 1 112.2251 27.6557 21.8772 0.0004 -3.9853 0.0000
# 2 27.6557 100.0763 24.7155 0.0006 12.2009 0.0000
# 3 21.8772 24.7155 95.3796 0.0011 -3.5133 0.0000
# 4 0.0004 0.0006 0.0011 35.4386 0.0002 -3.5734
# 5 -3.9853 12.2009 -3.5133 0.0002 35.9919 0.0000
# 6 0.0000 0.0000 0.0000 -3.5734 0.0000 49.2419
#
#
#
# Elastic Compliance Matrix: (Units=1/GPa)
#
#
# Indices 1 2 3 4 5 6 
#
# 1 0.009911 -0.002581 -0.001537 0.000000 0.001822 0.000000
# 2 -0.002581 0.011924 -0.002667 0.000000 -0.004588 0.000000
# 3 -0.001537 -0.002667 0.011597 0.000000 0.001866 0.000000
# 4 0.000000 0.000000 0.000000 0.028426 0.000000 0.002063
# 5 0.001822 -0.004588 0.001866 0.000000 0.029723 0.000000
# 6 0.000000 0.000000 0.000000 0.002063 0.000000 0.020458
#
#
# Mechanical properties :
#
#
# Convention : Reuss Voigt Hill
#
# Bulk Modulus (GPa) = 50.35021 50.68641 50.51831
# Shear Modulus (GPa) = 37.81308 39.69666 38.75487
#
# Velocity S-wave (km/s) = 4.01662 4.11545 4.06634
# Velocity P-wave (km/s) = 6.55693 6.64894 6.60309
#
# Compressibility (1/GPa) = 0.01986089
#
# Stress axis : x y z
#
# Youngs Moduli (GPa) = 100.89592 83.86660 86.23105
#
# Poissons Ratio (x) = 0.21650 0.13256
# Poissons Ratio (y) = 0.26046 0.22995
# Poissons Ratio (z) = 0.15510 0.22364
#
# Static dielectric constant tensor:
#      x y z
#    x 4.179890 0.000000 0.170320 
#    y 0.000000 4.267470 0.000000 
#    z 0.170320 0.000000 4.479720 
# 
# 
# High freq. dielectric constant tensor:
#      x y z
#    x 1.933390 0.000000 0.004570 
#    y 0.000000 1.944020 0.000000 
#    z 0.004570 0.000000 1.944530 
# 
# From -- ./inp_files/33722.got.cif
#   From: 2010.06.25/outbox.cif.g09.slc.cpg/sg9_17_cif.got.tgz:33722.got - 2010.06.27 21:40:51.
