data_PCOD8056812
_publ_section_title
;
Structure prediction by ZEFSAII (Michael W. Deem and Ramdas Pophale) SiO2 
 PCOD8056812
Probable space group: P 2/M
;
_chemical_formula_sum "Si O2"
_cell_formula_units_Z 28
_cell_length_a 20.541822
_cell_length_b 11.559057
_cell_length_c 11.571250
_cell_angle_alpha 90.000000
_cell_angle_beta 142.369527
_cell_angle_gamma 90.000000
_cell_volume 1677.546578
_symmetry_space_group_name_H-M "P 2/M"
_symmetry_group_IT_number 10
_symmetry_cell_setting 'monoclinic'
loop_
_space_group_symop_operation_xyz
x,y,z
-x,y,-z
-x,-y,-z
x,-y,z
loop_
_atom_site_type_symbol
_atom_site_label
_atom_site_fract_x
_atom_site_fract_y
_atom_site_fract_z
Si Si1 0.222162 0.200029 0.111076
Si Si2 0.877386 0.635726 0.842816
Si Si3 0.404668 0.130333 0.534297
Si Si4 0.924898 0.000000 0.065004
Si Si5 0.267520 0.228171 0.515636
Si Si6 0.142244 0.000000 0.289929
Si Si7 0.618432 0.865677 0.120736
Si Si8 0.639702 0.865548 0.883360
O O1 0.178591 0.309832 0.121636
O O2 0.319655 0.135816 0.311918
O O3 0.274221 0.221241 0.057038
O O4 0.123715 0.115251 0.948499
O O5 0.874922 0.500000 0.858700
O O6 0.809973 0.666060 0.631087
O O7 0.000000 0.679239 0.000000
O O8 0.376299 0.225235 0.593299
O O9 0.524778 0.156748 0.661782
O O10 0.403963 0.000000 0.586341
O O11 0.907826 0.000000 0.905511
O O12 0.052184 0.000000 0.263771
O O13 0.298382 0.219073 0.693905
O O14 0.210399 0.113621 0.392461
O O15 0.648947 0.000000 0.185793
O O16 0.500000 0.841383 0.000000
O O17 0.630753 0.831988 0.005112
O O18 0.674682 0.000000 0.918277
#
# Coordination Sequence:
#
# PCOD8056812 Si02
#       8
#     4   4   4   2   4   2   4   4
#     4  11  18  30  47  73 105 133 161 204 261 312
#     4  10  22  38  57  77  94 124 173 225 268 301
#     4  10  15  25  43  73 105 133 164 195 239 302
#     4  11  18  26  43  72 100 126 158 201 267 314
#     4  11  17  30  51  75 104 131 168 209 250 296
#     4  11  18  26  45  73  98 127 160 207 256 310
#     4  10  18  29  47  76 112 143 172 199 232 293
#     4  10  19  27  44  73 114 144 165 192 236 306
#
# _framework density 16.691041999999999
#
# number of rings (size 3 to 8) (size 9 to 14) (size 15 to 20)
#    0.000    1.571    7.143    1.286    0.000    1.143 
#    0.000    0.000    0.000   12.429    0.000    2.000 
#    0.000    0.000    0.000    0.000    0.000    0.000 
#
# Total GULP energy -346873.774450 kJ/mol
# GULP energy per Si atom -12388.349087 kJ/mol
# Density = 1.665305 g / cm^3
# Si number density = 16.691042 Si / 1000 Ang^3
#
#
#
# Elastic Constant Matrix: (Units=GPa)
#
#
# Indices 1 2 3 4 5 6 
#
# 1 122.0791 28.7088 38.0209 0.0000 5.5010 0.0000
# 2 28.7088 48.0455 17.8528 0.0000 6.4610 0.0000
# 3 38.0209 17.8528 50.5413 0.0000 0.4123 0.0000
# 4 0.0000 0.0000 0.0000 16.0786 0.0000 3.3825
# 5 5.5010 6.4610 0.4123 0.0000 25.2822 0.0000
# 6 0.0000 0.0000 0.0000 3.3825 0.0000 16.6669
#
#
#
# Elastic Compliance Matrix: (Units=1/GPa)
#
#
# Indices 1 2 3 4 5 6 
#
# 1 0.011423 -0.003977 -0.007177 0.000000 -0.001352 0.000000
# 2 -0.003977 0.026284 -0.006246 0.000000 -0.005750 0.000000
# 3 -0.007177 -0.006246 0.027369 0.000000 0.002712 0.000000
# 4 0.000000 0.000000 0.000000 0.064968 0.000000 -0.013185
# 5 -0.001352 -0.005750 0.002712 0.000000 0.041273 0.000000
# 6 0.000000 0.000000 0.000000 -0.013185 0.000000 0.062675
#
#
# Mechanical properties :
#
#
# Convention : Reuss Voigt Hill
#
# Bulk Modulus (GPa) = 33.02928 43.31453 38.17191
# Shear Modulus (GPa) = 17.92857 20.67775 19.30316
#
# Velocity S-wave (km/s) = 3.28097 3.52355 3.40442
# Velocity P-wave (km/s) = 5.84676 6.52388 6.19458
#
# Compressibility (1/GPa) = 0.03027617
#
# Stress axis : x y z
#
# Youngs Moduli (GPa) = 87.54339 38.04615 36.53730
#
# Poissons Ratio (x) = 0.15130 0.26224
# Poissons Ratio (y) = 0.34814 0.22820
# Poissons Ratio (z) = 0.62834 0.23763
#
# Static dielectric constant tensor:
#      x y z
#    x 3.427310 0.000000 0.201610 
#    y 0.000000 2.689880 0.000000 
#    z 0.201610 0.000000 3.278490 
# 
# 
# High freq. dielectric constant tensor:
#      x y z
#    x 1.651330 0.000000 0.016640 
#    y 0.000000 1.583250 0.000000 
#    z 0.016640 0.000000 1.634180 
# 
# From -- ./inp_files/55580.got.cif
#   From: 2010.06.25/outbox.cif.g09.slc.cpg/sg10_28_cif.got.tgz:55580.got - 2010.06.27 22:07:45.
