data_PCOD8056493
_publ_section_title
;
Structure prediction by ZEFSAII (Michael W. Deem and Ramdas Pophale) SiO2 
 PCOD8056493
Probable space group: C C
;
_chemical_formula_sum "Si O2"
_cell_formula_units_Z 32
_cell_length_a 11.758553
_cell_length_b 14.368219
_cell_length_c 9.267927
_cell_angle_alpha 90.000000
_cell_angle_beta 123.762365
_cell_angle_gamma 90.000000
_cell_volume 1301.736751
_symmetry_space_group_name_H-M "C C"
_symmetry_group_IT_number 9
_symmetry_cell_setting 'monoclinic'
loop_
_space_group_symop_operation_xyz
x,y,z
x,-y,1/2+z
1/2+x,1/2+y,z
1/2+x,1/2-y,1/2+z
loop_
_atom_site_type_symbol
_atom_site_label
_atom_site_fract_x
_atom_site_fract_y
_atom_site_fract_z
Si Si1 0.884970 0.898536 0.587370
Si Si2 0.025461 0.770966 0.482982
Si Si3 0.697382 0.377264 0.145594
Si Si4 0.423068 0.877988 0.102972
Si Si5 0.907587 0.921363 0.943282
Si Si6 0.439553 0.915037 0.540659
Si Si7 0.335681 0.737152 0.603071
Si Si8 0.620019 0.812600 0.477658
O O1 0.902526 0.919936 0.767637
O O2 0.758550 0.826875 0.485764
O O3 0.015410 0.846583 0.606527
O O4 0.835930 0.990419 0.466914
O O5 0.180201 0.753933 0.543036
O O6 0.954789 0.671852 0.474363
O O7 0.929471 0.814118 0.289011
O O8 0.762480 0.384836 0.030975
O O9 0.810396 0.404880 0.341913
O O10 0.568049 0.441326 0.090428
O O11 0.628046 0.274748 0.092312
O O12 0.497361 0.811479 0.274386
O O13 0.467939 0.985430 0.131507
O O14 0.842123 0.826269 0.962832
O O15 0.408555 0.837282 0.637836
O O16 0.582925 0.897132 0.559746
#
# Coordination Sequence:
#
# PCOD8056493 Si02
#       8
#     4   4   4   4   4   4   4   4
#     4  12  28  47  77 108 152 204 262 326 395 476
#     4  12  28  47  74 111 154 203 263 329 397 477
#     4  11  24  49  74 105 150 207 262 312 400 470
#     4  11  27  45  75 110 152 203 260 326 389 471
#     4  12  28  47  77 108 152 204 262 326 395 476
#     4  11  27  45  75 110 152 203 260 326 389 471
#     4  12  28  47  74 111 154 203 263 329 397 477
#     4  11  24  49  74 105 150 207 262 312 400 470
#
# _framework density 24.582543999999999
#
# number of rings (size 3 to 8) (size 9 to 14) (size 15 to 20)
#    0.000    0.500    2.500    3.750   14.000    0.000 
#    0.000    0.000    0.000    0.000    0.000    0.000 
#    0.000    0.000    0.000    0.000    0.000    0.000 
#
# Total GULP energy -198257.046428 kJ/mol
# GULP energy per Si atom -12391.065402 kJ/mol
# Density = 2.452659 g / cm^3
# Si number density = 24.582544 Si / 1000 Ang^3
#
#
#
# Elastic Constant Matrix: (Units=GPa)
#
#
# Indices 1 2 3 4 5 6 
#
# 1 141.5788 5.2552 27.8722 0.0000 -7.3550 0.0000
# 2 5.2552 102.9298 17.3889 0.0000 -20.1999 0.0000
# 3 27.8722 17.3889 95.1975 0.0000 -16.2691 0.0000
# 4 0.0000 0.0000 0.0000 33.7042 0.0000 -8.4565
# 5 -7.3550 -20.1999 -16.2691 0.0000 38.0048 0.0000
# 6 0.0000 0.0000 0.0000 -8.4565 0.0000 32.4771
#
#
#
# Elastic Compliance Matrix: (Units=1/GPa)
#
#
# Indices 1 2 3 4 5 6 
#
# 1 0.007507 0.000091 -0.002112 0.000000 0.000597 0.000000
# 2 0.000091 0.010951 -0.001110 0.000000 0.005363 0.000000
# 3 -0.002112 -0.001110 0.012036 0.000000 0.004153 0.000000
# 4 0.000000 0.000000 0.000000 0.031744 0.000000 0.008266
# 5 0.000597 0.005363 0.004153 0.000000 0.031056 0.000000
# 6 0.000000 0.000000 0.000000 0.008266 0.000000 0.032943
#
#
# Mechanical properties :
#
#
# Convention : Reuss Voigt Hill
#
# Bulk Modulus (GPa) = 41.27318 48.97096 45.12207
# Shear Modulus (GPa) = 35.56781 40.11652 37.84217
#
# Velocity S-wave (km/s) = 3.80790 4.04407 3.92776
# Velocity P-wave (km/s) = 6.01328 6.46300 6.24219
#
# Compressibility (1/GPa) = 0.02422881
#
# Stress axis : x y z
#
# Youngs Moduli (GPa) = 133.21429 91.31815 83.08715
#
# Poissons Ratio (x) = -0.00828 0.17552
# Poissons Ratio (y) = -0.01208 0.09226
# Poissons Ratio (z) = 0.28141 0.10140
#
# Static dielectric constant tensor:
#      x y z
#    x 4.901200 0.000000 -0.134960 
#    y 0.000000 4.338720 0.000000 
#    z -0.134960 0.000000 4.245320 
# 
# 
# High freq. dielectric constant tensor:
#      x y z
#    x 2.002080 0.000000 -0.009220 
#    y 0.000000 1.971740 0.000000 
#    z -0.009220 0.000000 1.966940 
# 
# From -- ./inp_files/7650.got.cif
#   From: 2010.06.25/outbox.cif.g09.slc.cpg/sg9_4_cif.got.tgz:7650.got - 2010.06.27 21:40:51.
