data_PCOD8056498
_publ_section_title
;
Structure prediction by ZEFSAII (Michael W. Deem and Ramdas Pophale) SiO2 
 PCOD8056498
Probable space group: C C
;
_chemical_formula_sum "Si O2"
_cell_formula_units_Z 28
_cell_length_a 11.962736
_cell_length_b 11.781579
_cell_length_c 16.578465
_cell_angle_alpha 90.000000
_cell_angle_beta 151.123449
_cell_angle_gamma 90.000000
_cell_volume 1128.384645
_symmetry_space_group_name_H-M "C C"
_symmetry_group_IT_number 9
_symmetry_cell_setting 'monoclinic'
loop_
_space_group_symop_operation_xyz
x,y,z
x,-y,1/2+z
1/2+x,1/2+y,z
1/2+x,1/2-y,1/2+z
loop_
_atom_site_type_symbol
_atom_site_label
_atom_site_fract_x
_atom_site_fract_y
_atom_site_fract_z
Si Si1 0.067790 0.401891 0.677130
Si Si2 0.268598 0.387390 0.240572
Si Si3 0.734043 0.133737 0.054579
Si Si4 0.115764 0.018641 0.852397
Si Si5 0.496883 0.698167 0.522526
Si Si6 0.470142 0.318890 0.539606
Si Si7 0.290358 0.986352 0.285981
O O1 0.207082 0.478551 0.700712
O O2 0.841694 0.481282 0.556247
O O3 0.972224 0.286672 0.578727
O O4 0.247154 0.365100 0.859678
O O5 0.458372 0.379503 0.289667
O O6 0.355968 0.356373 0.384658
O O7 0.044092 0.312555 0.077187
O O8 0.588989 0.238197 0.000403
O O9 0.974629 0.100617 0.253096
O O10 0.785853 0.165777 0.994733
O O11 0.568553 0.021516 0.952171
O O12 0.209404 0.053980 0.823636
O O13 0.684190 0.602398 0.656510
O O14 0.704576 0.388331 0.708134
#
# Coordination Sequence:
#
# PCOD8056498 Si02
#       7
#     4   4   4   4   4   4   4
#     4  12  25  46  76 111 152 199 260 317 386 455
#     4  12  28  49  71 112 152 211 246 309 388 468
#     4  11  25  47  82 107 147 201 257 326 376 454
#     4  11  25  48  76 105 156 199 250 317 387 454
#     4  12  23  45  78 112 146 190 267 322 377 449
#     4  11  30  47  73 106 159 198 253 306 390 456
#     4  11  24  50  74 113 142 198 263 319 382 458
#
# _framework density 24.814233000000002
#
# number of rings (size 3 to 8) (size 9 to 14) (size 15 to 20)
#    0.000    0.571    5.714    0.000    8.000    4.571 
#    2.571    0.000    0.000    0.000    0.000    0.000 
#    0.000    0.000    0.000    0.000    0.000    0.000 
#
# Total GULP energy -173476.476173 kJ/mol
# GULP energy per Si atom -12391.176869 kJ/mol
# Density = 2.475776 g / cm^3
# Si number density = 24.814233 Si / 1000 Ang^3
#
#
#
# Elastic Constant Matrix: (Units=GPa)
#
#
# Indices 1 2 3 4 5 6 
#
# 1 97.0343 -4.0616 12.1111 0.0030 12.5454 -0.0015
# 2 -4.0616 72.0806 20.3530 0.0000 4.6267 0.0032
# 3 12.1111 20.3530 140.0528 -0.0025 10.3237 0.0024
# 4 0.0030 0.0000 -0.0025 53.7554 0.0076 -0.3909
# 5 12.5454 4.6267 10.3237 0.0076 27.2055 0.0024
# 6 -0.0015 0.0032 0.0024 -0.3909 0.0024 23.9114
#
#
#
# Elastic Compliance Matrix: (Units=1/GPa)
#
#
# Indices 1 2 3 4 5 6 
#
# 1 0.011099 0.001162 -0.000758 0.000000 -0.005028 0.000001
# 2 0.001162 0.014666 -0.002066 0.000000 -0.002246 -0.000001
# 3 -0.000758 -0.002066 0.007669 0.000001 -0.002209 0.000000
# 4 0.000000 0.000000 0.000001 0.018605 -0.000006 0.000304
# 5 -0.005028 -0.002246 -0.002209 -0.000006 0.040296 -0.000004
# 6 0.000001 -0.000001 0.000000 0.000304 -0.000004 0.041826
#
#
# Mechanical properties :
#
#
# Convention : Reuss Voigt Hill
#
# Bulk Modulus (GPa) = 33.21162 40.66362 36.93762
# Shear Modulus (GPa) = 33.89315 39.69216 36.79265
#
# Velocity S-wave (km/s) = 3.69978 4.00380 3.85479
# Velocity P-wave (km/s) = 5.62711 6.14790 5.89326
#
# Compressibility (1/GPa) = 0.03010995
#
# Stress axis : x y z
#
# Youngs Moduli (GPa) = 90.09846 68.18269 130.39779
#
# Poissons Ratio (x) = -0.07924 0.09885
# Poissons Ratio (y) = -0.10471 0.26944
# Poissons Ratio (z) = 0.06830 0.14089
#
# Static dielectric constant tensor:
#      x y z
#    x 4.271880 0.000000 0.132250 
#    y 0.000000 4.586730 0.000000 
#    z 0.132250 0.000000 4.860850 
# 
# 
# High freq. dielectric constant tensor:
#      x y z
#    x 1.971780 0.000000 0.005900 
#    y 0.000000 1.983150 0.000000 
#    z 0.005900 0.000000 2.007060 
# 
# From -- ./inp_files/19334.got.cif
#   From: 2010.06.25/outbox.cif.g09.slc.cpg/sg9_10_cif.got.tgz:19334.got - 2010.06.27 21:40:51.
