data_PCOD8056602
_publ_section_title
;
Structure prediction by ZEFSAII (Michael W. Deem and Ramdas Pophale) SiO2 
 PCOD8056602
Probable space group: C C
;
_chemical_formula_sum "Si O2"
_cell_formula_units_Z 24
_cell_length_a 4.966511
_cell_length_b 21.728931
_cell_length_c 9.881247
_cell_angle_alpha 90.000000
_cell_angle_beta 112.333029
_cell_angle_gamma 90.000000
_cell_volume 986.367925
_symmetry_space_group_name_H-M "C C"
_symmetry_group_IT_number 9
_symmetry_cell_setting 'monoclinic'
loop_
_space_group_symop_operation_xyz
x,y,z
x,-y,1/2+z
1/2+x,1/2+y,z
1/2+x,1/2-y,1/2+z
loop_
_atom_site_type_symbol
_atom_site_label
_atom_site_fract_x
_atom_site_fract_y
_atom_site_fract_z
Si Si1 0.208740 0.651004 0.075510
Si Si2 0.359916 0.320114 0.319415
Si Si3 0.044299 0.606926 0.540269
Si Si4 0.271813 0.935911 0.428148
Si Si5 0.857016 0.682144 0.258303
Si Si6 0.095070 0.029783 0.609027
O O1 0.517516 0.663861 0.203947
O O2 0.955389 0.676151 0.123216
O O3 0.185721 0.683733 0.926615
O O4 0.112244 0.579007 0.029538
O O5 0.619220 0.369780 0.373062
O O6 0.456024 0.250341 0.316643
O O7 0.145967 0.338575 0.157528
O O8 0.261943 0.548785 0.572366
O O9 0.016170 0.634006 0.385573
O O10 0.744324 0.582211 0.545497
O O11 0.252363 0.976694 0.286855
O O12 0.117801 0.966477 0.529305
#
# Coordination Sequence:
#
# PCOD8056602 Si02
#       6
#     4   4   4   4   4   4
#     4  12  26  47  74 113 148 201 246 306 375 447
#     4  11  26  51  75 110 154 197 246 314 377 446
#     4  11  26  48  70 113 146 199 244 313 372 444
#     4  11  27  50  78 111 147 204 249 319 368 449
#     4  12  28  45  79 112 154 192 256 304 381 456
#     4  11  27  47  78 101 155 189 255 308 377 432
#
# _framework density 24.331692
#
# number of rings (size 3 to 8) (size 9 to 14) (size 15 to 20)
#    0.000    0.667    3.333    2.000    7.000    4.000 
#    3.000    0.000    0.000    0.000    0.000    0.000 
#    0.000    0.000    0.000    0.000    0.000    0.000 
#
# Total GULP energy -148753.843587 kJ/mol
# GULP energy per Si atom -12396.153632 kJ/mol
# Density = 2.427631 g / cm^3
# Si number density = 24.331692 Si / 1000 Ang^3
#
#
#
# Elastic Constant Matrix: (Units=GPa)
#
#
# Indices 1 2 3 4 5 6 
#
# 1 58.0376 2.1495 22.0836 0.0000 0.8628 0.0000
# 2 2.1495 78.3426 49.0812 0.0000 18.5609 0.0000
# 3 22.0836 49.0812 138.3163 0.0000 -19.8654 0.0000
# 4 0.0000 0.0000 0.0000 19.9615 0.0000 -1.7244
# 5 0.8628 18.5609 -19.8654 0.0000 36.0173 0.0000
# 6 0.0000 0.0000 0.0000 -1.7244 0.0000 25.2449
#
#
#
# Elastic Compliance Matrix: (Units=1/GPa)
#
#
# Indices 1 2 3 4 5 6 
#
# 1 0.019180 0.004103 -0.005308 0.000000 -0.005502 0.000000
# 2 0.004103 0.025179 -0.012454 0.000000 -0.019943 0.000000
# 3 -0.005308 -0.012454 0.014593 0.000000 0.014594 0.000000
# 4 0.000000 0.000000 0.000000 0.050394 0.000000 0.003442
# 5 -0.005502 -0.019943 0.014594 0.000000 0.046223 0.000000
# 6 0.000000 0.000000 0.000000 0.003442 0.000000 0.039847
#
#
# Mechanical properties :
#
#
# Convention : Reuss Voigt Hill
#
# Bulk Modulus (GPa) = 31.61301 46.81389 39.21345
# Shear Modulus (GPa) = 21.43360 29.67024 25.55192
#
# Velocity S-wave (km/s) = 2.97120 3.49579 3.24412
# Velocity P-wave (km/s) = 4.97910 5.96454 5.49396
#
# Compressibility (1/GPa) = 0.03163254
#
# Stress axis : x y z
#
# Youngs Moduli (GPa) = 52.13797 39.71528 68.52771
#
# Poissons Ratio (x) = -0.16294 0.36376
# Poissons Ratio (y) = -0.21391 0.85345
# Poissons Ratio (z) = 0.27676 0.49462
#
# Static dielectric constant tensor:
#      x y z
#    x 4.362020 0.000000 -0.137730 
#    y 0.000000 4.236470 0.000000 
#    z -0.137730 0.000000 4.749250 
# 
# 
# High freq. dielectric constant tensor:
#      x y z
#    x 1.970700 0.000000 -0.008890 
#    y 0.000000 1.959530 0.000000 
#    z -0.008890 0.000000 1.987250 
# 
# From -- ./inp_files/3912.got.cif
#   From: 2010.06.25/outbox.cif.g09.slc.cpg/sg9_2_cif.got.tgz:3912.got - 2010.06.27 21:40:51.
