data_PCOD8056436
_publ_section_title
;
Structure prediction by ZEFSAII (Michael W. Deem and Ramdas Pophale) SiO2 
 PCOD8056436
Probable space group: C C
;
_chemical_formula_sum "Si O2"
_cell_formula_units_Z 32
_cell_length_a 10.151762
_cell_length_b 15.195443
_cell_length_c 10.660903
_cell_angle_alpha 90.000000
_cell_angle_beta 121.935673
_cell_angle_gamma 90.000000
_cell_volume 1395.640515
_symmetry_space_group_name_H-M "C C"
_symmetry_group_IT_number 9
_symmetry_cell_setting 'monoclinic'
loop_
_space_group_symop_operation_xyz
x,y,z
x,-y,1/2+z
1/2+x,1/2+y,z
1/2+x,1/2-y,1/2+z
loop_
_atom_site_type_symbol
_atom_site_label
_atom_site_fract_x
_atom_site_fract_y
_atom_site_fract_z
Si Si1 0.072570 0.702295 0.811150
Si Si2 0.790711 0.352960 0.991420
Si Si3 0.318114 0.006523 0.313349
Si Si4 0.279892 0.425182 0.279800
Si Si5 0.899349 0.328844 0.474484
Si Si6 0.051630 0.965896 0.030024
Si Si7 0.560451 0.059554 0.247207
Si Si8 0.304206 0.651558 0.528746
O O1 0.196424 0.623758 0.854039
O O2 0.925545 0.697630 0.639773
O O3 0.012468 0.704411 0.922775
O O4 0.178375 0.789329 0.854451
O O5 0.682843 0.417176 0.016823
O O6 0.877061 0.415481 0.933491
O O7 0.430022 0.998523 0.247610
O O8 0.305911 0.913417 0.379179
O O9 0.143142 0.025731 0.177611
O O10 0.445612 0.467162 0.398000
O O11 0.159979 0.505603 0.193031
O O12 0.301463 0.355932 0.178182
O O13 0.787090 0.251049 0.467941
O O14 0.996327 0.355103 0.645548
O O15 0.961589 0.888917 0.055192
O O16 0.663862 0.092483 0.413000
#
# Coordination Sequence:
#
# PCOD8056436 Si02
#       8
#     4   4   4   4   4   4   4   4
#     4  12  27  48  76 104 152 194 252 306 377 438
#     4  12  27  48  74 112 148 200 248 309 371 454
#     4  12  25  49  73 106 148 194 249 294 382 445
#     4  11  25  49  73 108 146 191 251 305 372 444
#     4  12  25  44  74 100 147 189 242 304 365 442
#     4  11  24  45  75 109 146 193 242 310 370 445
#     4  11  25  45  75 101 143 199 239 305 368 444
#     4  11  26  44  72 112 142 186 251 307 369 440
#
# _framework density 22.928539000000001
#
# number of rings (size 3 to 8) (size 9 to 14) (size 15 to 20)
#    0.000    0.500    3.750    3.750    8.750    0.000 
#    0.000    0.000    0.000    0.000    0.000    0.000 
#    0.000    0.000    0.000    0.000    0.000    0.000 
#
# Total GULP energy -198324.923256 kJ/mol
# GULP energy per Si atom -12395.307704 kJ/mol
# Density = 2.287635 g / cm^3
# Si number density = 22.928539 Si / 1000 Ang^3
#
#
#
# Elastic Constant Matrix: (Units=GPa)
#
#
# Indices 1 2 3 4 5 6 
#
# 1 99.6445 47.6470 58.5812 0.0000 4.6851 0.0000
# 2 47.6470 123.0665 51.4753 0.0000 3.6769 0.0000
# 3 58.5812 51.4753 115.4462 0.0000 9.1490 0.0000
# 4 0.0000 0.0000 0.0000 43.9294 0.0000 2.8755
# 5 4.6851 3.6769 9.1490 0.0000 36.6879 0.0000
# 6 0.0000 0.0000 0.0000 2.8755 0.0000 38.6286
#
#
#
# Elastic Compliance Matrix: (Units=1/GPa)
#
#
# Indices 1 2 3 4 5 6 
#
# 1 0.015316 -0.003294 -0.006299 0.000000 -0.000055 0.000000
# 2 -0.003294 0.010697 -0.003108 0.000000 0.000124 0.000000
# 3 -0.006299 -0.003108 0.013421 0.000000 -0.002231 0.000000
# 4 0.000000 0.000000 0.000000 0.022875 0.000000 -0.001703
# 5 -0.000055 0.000124 -0.002231 0.000000 0.027808 0.000000
# 6 0.000000 0.000000 0.000000 -0.001703 0.000000 0.026014
#
#
# Mechanical properties :
#
#
# Convention : Reuss Voigt Hill
#
# Bulk Modulus (GPa) = 71.26114 72.61824 71.93969
# Shear Modulus (GPa) = 34.19696 35.87943 35.03819
#
# Velocity S-wave (km/s) = 3.86613 3.96009 3.91339
# Velocity P-wave (km/s) = 7.14678 7.25604 7.20161
#
# Compressibility (1/GPa) = 0.01403289
#
# Stress axis : x y z
#
# Youngs Moduli (GPa) = 65.28935 93.48211 74.50939
#
# Poissons Ratio (x) = 0.30789 0.46935
# Poissons Ratio (y) = 0.21504 0.23159
# Poissons Ratio (z) = 0.41127 0.29056
#
# Static dielectric constant tensor:
#      x y z
#    x 4.170590 0.000000 0.071060 
#    y 0.000000 4.146890 0.000000 
#    z 0.071060 0.000000 4.203660 
# 
# 
# High freq. dielectric constant tensor:
#      x y z
#    x 1.911220 0.000000 0.003900 
#    y 0.000000 1.905040 0.000000 
#    z 0.003900 0.000000 1.909160 
# 
# From -- ./inp_files/14813.got.cif
#   From: 2010.06.25/outbox.cif.g09.slc.cpg/sg9_8_cif.got.tgz:14813.got - 2010.06.27 21:40:51.
