data_PCOD8056158
_publ_section_title
;
Structure prediction by ZEFSAII (Michael W. Deem and Ramdas Pophale) SiO2 
 PCOD8056158
Probable space group: C C
;
_chemical_formula_sum "Si O2"
_cell_formula_units_Z 32
_cell_length_a 18.696756
_cell_length_b 14.228184
_cell_length_c 11.854766
_cell_angle_alpha 90.000000
_cell_angle_beta 24.958297
_cell_angle_gamma 90.000000
_cell_volume 1330.694764
_symmetry_space_group_name_H-M "C C"
_symmetry_group_IT_number 9
_symmetry_cell_setting 'monoclinic'
loop_
_space_group_symop_operation_xyz
x,y,z
x,-y,1/2+z
1/2+x,1/2+y,z
1/2+x,1/2-y,1/2+z
loop_
_atom_site_type_symbol
_atom_site_label
_atom_site_fract_x
_atom_site_fract_y
_atom_site_fract_z
Si Si1 0.578670 0.129282 0.493210
Si Si2 0.068689 0.288978 0.384890
Si Si3 0.950537 0.208920 0.330651
Si Si4 0.588644 0.788977 0.601545
Si Si5 0.725383 0.985178 0.442358
Si Si6 0.706798 0.291082 0.155780
Si Si7 0.578666 0.557149 0.993218
Si Si8 0.931952 0.485178 0.544071
O O1 0.489455 0.191645 0.716121
O O2 0.667890 0.191646 0.270294
O O3 0.441155 0.062857 0.629497
O O4 0.716182 0.062852 0.356923
O O5 0.981115 0.219099 0.420805
O O6 0.078664 0.238389 0.493221
O O7 0.954311 0.381812 0.563941
O O8 0.257640 0.316648 0.074611
O O9 0.069505 0.125507 0.115444
O O10 0.703028 0.881809 0.422486
O O11 0.676213 0.719096 0.565635
O O12 0.399694 0.816652 0.911821
O O13 0.578664 0.000002 0.743216
O O14 0.913178 0.991695 0.226117
O O15 0.587827 0.374492 0.370994
O O16 0.744153 0.491694 0.760322
#
# Coordination Sequence:
#
# PCOD8056158 Si02
#       8
#     4   4   4   4   4   4   4   4
#     4  11  22  42  76  99 136 180 228 293 334 410
#     4  12  25  45  68 101 143 182 225 285 343 406
#     4  11  23  44  71 103 135 178 234 279 344 407
#     4  12  25  45  68 101 143 182 225 285 343 406
#     4  12  23  45  68 103 141 177 229 281 343 406
#     4  11  23  44  71 103 135 178 234 279 344 407
#     4  11  24  44  76 103 132 182 234 283 336 410
#     4  12  23  45  68 103 141 177 229 281 343 406
#
# _framework density 24.047588999999999
#
# number of rings (size 3 to 8) (size 9 to 14) (size 15 to 20)
#    0.000    0.500    6.250    2.250    0.000    4.000 
#    6.750    2.500    0.000    0.000    0.000    0.000 
#    0.000    0.000    0.000    0.000    0.000    0.000 
#
# Total GULP energy -198475.831885 kJ/mol
# GULP energy per Si atom -12404.739493 kJ/mol
# Density = 2.399286 g / cm^3
# Si number density = 24.047589 Si / 1000 Ang^3
#
#
#
# Elastic Constant Matrix: (Units=GPa)
#
#
# Indices 1 2 3 4 5 6 
#
# 1 153.1863 60.1049 47.3166 0.0000 -7.3030 0.0000
# 2 60.1049 84.3300 43.1115 0.0003 -7.3650 -0.0001
# 3 47.3166 43.1115 117.9188 0.0004 -35.5375 -0.0001
# 4 0.0000 0.0003 0.0004 23.1793 -0.0001 -6.2769
# 5 -7.3030 -7.3650 -35.5375 -0.0001 45.0035 0.0001
# 6 0.0000 -0.0001 -0.0001 -6.2769 0.0001 21.6685
#
#
#
# Elastic Compliance Matrix: (Units=1/GPa)
#
#
# Indices 1 2 3 4 5 6 
#
# 1 0.009335 -0.005750 -0.001930 0.000000 -0.000950 0.000000
# 2 -0.005750 0.018324 -0.004947 0.000000 -0.001841 0.000000
# 3 -0.001930 -0.004947 0.014075 0.000000 0.009991 0.000000
# 4 0.000000 0.000000 0.000000 0.046814 0.000000 0.013561
# 5 -0.000950 -0.001841 0.009991 0.000000 0.029655 0.000000
# 6 0.000000 0.000000 0.000000 0.013561 0.000000 0.050078
#
#
# Mechanical properties :
#
#
# Convention : Reuss Voigt Hill
#
# Bulk Modulus (GPa) = 60.67770 72.94455 66.81113
# Shear Modulus (GPa) = 25.12207 31.63039 28.37623
#
# Velocity S-wave (km/s) = 3.23566 3.63068 3.43884
# Velocity P-wave (km/s) = 6.26470 6.92640 6.60384
#
# Compressibility (1/GPa) = 0.01648052
#
# Stress axis : x y z
#
# Youngs Moduli (GPa) = 107.12653 54.57211 71.04953
#
# Poissons Ratio (x) = 0.31376 0.13713
# Poissons Ratio (y) = 0.61592 0.35149
# Poissons Ratio (z) = 0.20676 0.26997
#
# Static dielectric constant tensor:
#      x y z
#    x 4.412210 0.000000 -0.019730 
#    y 0.000000 4.180680 0.000000 
#    z -0.019730 0.000000 4.278660 
# 
# 
# High freq. dielectric constant tensor:
#      x y z
#    x 1.960280 0.000000 -0.001010 
#    y 0.000000 1.943770 0.000000 
#    z -0.001010 0.000000 1.958670 
# 
# From -- ./inp_files/7419.got.cif
#   From: 2010.06.25/outbox.cif.g09.slc.cpg/sg9_4_cif.got.tgz:7419.got - 2010.06.27 21:40:51.
