data_PCOD8056373
_publ_section_title
;
Structure prediction by ZEFSAII (Michael W. Deem and Ramdas Pophale) SiO2 
 PCOD8056373
Probable space group: C C
;
_chemical_formula_sum "Si O2"
_cell_formula_units_Z 32
_cell_length_a 9.854942
_cell_length_b 18.832523
_cell_length_c 16.130860
_cell_angle_alpha 90.000000
_cell_angle_beta 150.592675
_cell_angle_gamma 90.000000
_cell_volume 1469.992016
_symmetry_space_group_name_H-M "C C"
_symmetry_group_IT_number 9
_symmetry_cell_setting 'monoclinic'
loop_
_space_group_symop_operation_xyz
x,y,z
x,-y,1/2+z
1/2+x,1/2+y,z
1/2+x,1/2-y,1/2+z
loop_
_atom_site_type_symbol
_atom_site_label
_atom_site_fract_x
_atom_site_fract_y
_atom_site_fract_z
Si Si1 0.020240 0.169996 0.769970
Si Si2 0.678132 0.543623 0.082822
Si Si3 0.369255 0.185743 0.119934
Si Si4 0.012106 0.183365 0.441560
Si Si5 0.870825 0.329476 0.297505
Si Si6 0.626110 0.546950 0.404627
Si Si7 0.164140 0.529101 0.916753
Si Si8 0.670782 0.967180 0.090401
O O1 0.190969 0.145524 0.780282
O O2 0.837787 0.238965 0.649419
O O3 0.817760 0.107250 0.689004
O O4 0.230995 0.189619 0.955854
O O5 0.720948 0.627826 0.098770
O O6 0.961960 0.499284 0.237851
O O7 0.547593 0.513950 0.929188
O O8 0.479974 0.525504 0.054556
O O9 0.690815 0.165018 0.283318
O O10 0.168633 0.184822 0.612470
O O11 0.150231 0.124979 0.455682
O O12 0.041100 0.258586 0.410768
O O13 0.094912 0.389351 0.398600
O O14 0.363321 0.537334 0.204551
O O15 0.900847 0.526616 0.502164
O O16 0.099868 0.473254 0.955780
#
# Coordination Sequence:
#
# PCOD8056373 Si02
#       8
#     4   4   4   4   4   4   4   4
#     4  11  24  43  68 100 138 178 227 275 339 405
#     4  12  25  45  70  98 136 176 225 276 342 396
#     4  11  24  42  70  99 137 181 223 277 340 405
#     4  11  24  42  70  99 137 181 223 277 340 405
#     4  11  24  43  68 100 138 178 227 275 339 405
#     4  12  25  45  70  98 136 176 225 276 342 396
#     4  12  27  45  68 102 135 179 225 282 332 402
#     4  12  27  45  68 102 135 179 225 282 332 402
#
# _framework density 21.768825
#
# number of rings (size 3 to 8) (size 9 to 14) (size 15 to 20)
#    0.000    0.500    2.500    7.500    7.000    1.000 
#    0.000    0.000    0.000    0.000    0.000    0.000 
#    0.000    0.000    0.000    0.000    0.000    0.000 
#
# Total GULP energy -198440.412599 kJ/mol
# GULP energy per Si atom -12402.525787 kJ/mol
# Density = 2.171928 g / cm^3
# Si number density = 21.768825 Si / 1000 Ang^3
#
#
#
# Elastic Constant Matrix: (Units=GPa)
#
#
# Indices 1 2 3 4 5 6 
#
# 1 113.8536 43.2563 41.3359 0.0003 3.2459 -0.0102
# 2 43.2563 100.9527 25.6030 -0.0455 -2.3903 -0.0155
# 3 41.3359 25.6030 101.8346 0.1025 -6.3774 -0.0271
# 4 0.0003 -0.0455 0.1025 37.9498 0.0265 -2.1309
# 5 3.2459 -2.3903 -6.3774 0.0265 28.5360 -0.0072
# 6 -0.0102 -0.0155 -0.0271 -2.1309 -0.0072 42.4499
#
#
#
# Elastic Compliance Matrix: (Units=1/GPa)
#
#
# Indices 1 2 3 4 5 6 
#
# 1 0.011859 -0.004145 -0.003933 0.000007 -0.002575 -0.000001
# 2 -0.004145 0.012031 -0.001268 0.000017 0.001196 0.000004
# 3 -0.003933 -0.001268 0.011923 -0.000036 0.003006 0.000005
# 4 0.000007 0.000017 -0.000036 0.026425 -0.000031 0.001326
# 5 -0.002575 0.001196 0.003006 -0.000031 0.036108 0.000006
# 6 -0.000001 0.000004 0.000005 0.001326 0.000006 0.023624
#
#
# Mechanical properties :
#
#
# Convention : Reuss Voigt Hill
#
# Bulk Modulus (GPa) = 58.40098 59.67014 59.03556
# Shear Modulus (GPa) = 34.15997 35.55020 34.85509
#
# Velocity S-wave (km/s) = 3.96563 4.04552 4.00577
# Velocity P-wave (km/s) = 6.91768 7.02082 6.96944
#
# Compressibility (1/GPa) = 0.01712300
#
# Stress axis : x y z
#
# Youngs Moduli (GPa) = 84.32158 83.11529 83.86971
#
# Poissons Ratio (x) = 0.34451 0.32986
# Poissons Ratio (y) = 0.34951 0.10631
# Poissons Ratio (z) = 0.33164 0.10535
#
# Static dielectric constant tensor:
#      x y z
#    x 3.740500 -0.000020 -0.208070 
#    y -0.000020 3.991380 -0.000150 
#    z -0.208070 -0.000150 3.994980 
# 
# 
# High freq. dielectric constant tensor:
#      x y z
#    x 1.850210 0.000000 -0.016600 
#    y 0.000000 1.865890 -0.000020 
#    z -0.016600 -0.000020 1.867840 
# 
# From -- ./inp_files/10101.got.cif
#   From: 2010.06.25/outbox.cif.g09.slc.cpg/sg9_6_cif.got.tgz:10101.got - 2010.06.27 21:40:51.
