data_PCOD8056549
_publ_section_title
;
Structure prediction by ZEFSAII (Michael W. Deem and Ramdas Pophale) SiO2 
 PCOD8056549
Probable space group: C C
;
_chemical_formula_sum "Si O2"
_cell_formula_units_Z 32
_cell_length_a 12.902835
_cell_length_b 8.164019
_cell_length_c 15.321516
_cell_angle_alpha 90.000000
_cell_angle_beta 56.257512
_cell_angle_gamma 90.000000
_cell_volume 1342.070443
_symmetry_space_group_name_H-M "C C"
_symmetry_group_IT_number 9
_symmetry_cell_setting 'monoclinic'
loop_
_space_group_symop_operation_xyz
x,y,z
x,-y,1/2+z
1/2+x,1/2+y,z
1/2+x,1/2-y,1/2+z
loop_
_atom_site_type_symbol
_atom_site_label
_atom_site_fract_x
_atom_site_fract_y
_atom_site_fract_z
Si Si1 0.234090 0.778461 0.025700
Si Si2 0.086920 0.128509 0.248585
Si Si3 0.863417 0.112536 0.817029
Si Si4 0.291644 0.122380 0.688879
Si Si5 0.662832 0.138448 0.374052
Si Si6 0.479524 0.880624 0.425506
Si Si7 0.696168 0.368864 0.516478
Si Si8 0.978372 0.354062 0.625753
O O1 0.303636 0.824627 0.082803
O O2 0.122819 0.644623 0.090681
O O3 0.160339 0.939095 0.023361
O O4 0.346361 0.724358 0.910589
O O5 0.070941 0.275410 0.322913
O O6 0.141992 0.200434 0.132611
O O7 0.183087 0.009130 0.251043
O O8 0.961593 0.029456 0.288784
O O9 0.899467 0.222498 0.717470
O O10 0.728819 0.030191 0.870252
O O11 0.254337 0.280951 0.760856
O O12 0.419615 0.037689 0.663493
O O13 0.638826 0.261998 0.465354
O O14 0.529999 0.070132 0.401067
O O15 0.345471 0.866957 0.443660
O O16 0.470840 0.807125 0.527158
#
# Coordination Sequence:
#
# PCOD8056549 Si02
#       8
#     4   4   4   4   4   4   4   4
#     4  11  25  48  73 107 149 192 245 308 375 442
#     4  11  25  48  71 103 148 192 239 306 372 436
#     4  12  25  46  73 103 146 195 241 304 374 433
#     4  11  26  46  74 106 145 191 245 303 373 444
#     4  12  28  44  73 113 140 194 253 299 378 444
#     4  12  26  47  75 106 147 198 246 304 373 443
#     4  11  25  51  70 108 151 189 245 315 366 440
#     4  12  24  48  75 104 148 197 242 303 373 444
#
# _framework density 23.843755999999999
#
# number of rings (size 3 to 8) (size 9 to 14) (size 15 to 20)
#    0.000    0.500    7.500    1.500    3.500    4.000 
#    2.250    0.000    0.000    0.000    0.000    0.000 
#    0.000    0.000    0.000    0.000    0.000    0.000 
#
# Total GULP energy -198385.985024 kJ/mol
# GULP energy per Si atom -12399.124064 kJ/mol
# Density = 2.378949 g / cm^3
# Si number density = 23.843756 Si / 1000 Ang^3
#
#
#
# Elastic Constant Matrix: (Units=GPa)
#
#
# Indices 1 2 3 4 5 6 
#
# 1 66.8243 34.6099 10.7887 0.0000 -5.5632 0.0000
# 2 34.6099 109.9223 71.1584 0.0000 15.0731 0.0000
# 3 10.7887 71.1584 140.8048 0.0000 2.8328 0.0000
# 4 0.0000 0.0000 0.0000 49.3036 0.0000 5.2242
# 5 -5.5632 15.0731 2.8328 0.0000 27.2022 0.0000
# 6 0.0000 0.0000 0.0000 5.2242 0.0000 42.3168
#
#
#
# Elastic Compliance Matrix: (Units=1/GPa)
#
#
# Indices 1 2 3 4 5 6 
#
# 1 0.020223 -0.009663 0.003149 0.000000 0.009162 0.000000
# 2 -0.009663 0.019519 -0.008885 0.000000 -0.011866 0.000000
# 3 0.003149 -0.008885 0.011263 0.000000 0.004394 0.000000
# 4 0.000000 0.000000 0.000000 0.020551 0.000000 -0.002537
# 5 0.009162 -0.011866 0.004394 0.000000 0.044753 0.000000
# 6 0.000000 0.000000 0.000000 -0.002537 0.000000 0.023945
#
#
# Mechanical properties :
#
#
# Convention : Reuss Voigt Hill
#
# Bulk Modulus (GPa) = 49.48543 61.18501 55.33522
# Shear Modulus (GPa) = 28.12371 37.16415 32.64393
#
# Velocity S-wave (km/s) = 3.43811 3.95226 3.70412
# Velocity P-wave (km/s) = 6.04648 6.82229 6.44607
#
# Compressibility (1/GPa) = 0.02020797
#
# Stress axis : x y z
#
# Youngs Moduli (GPa) = 49.44763 51.23334 88.79020
#
# Poissons Ratio (x) = 0.49504 -0.27962
# Poissons Ratio (y) = 0.47779 0.78890
# Poissons Ratio (z) = -0.15572 0.45521
#
# Static dielectric constant tensor:
#      x y z
#    x 4.242200 0.000000 -0.167990 
#    y 0.000000 4.470450 0.000000 
#    z -0.167990 0.000000 4.521020 
# 
# 
# High freq. dielectric constant tensor:
#      x y z
#    x 1.939510 0.000000 -0.012770 
#    y 0.000000 1.940710 0.000000 
#    z -0.012770 0.000000 1.965210 
# 
# From -- ./inp_files/24350.got.cif
#   From: 2010.06.25/outbox.cif.g09.slc.cpg/sg9_13_cif.got.tgz:24350.got - 2010.06.27 21:40:51.
