data_PCOD8056866
_publ_section_title
;
Structure prediction by ZEFSAII (Michael W. Deem and Ramdas Pophale) SiO2 
 PCOD8056866
Probable space group: P 2/M
;
_chemical_formula_sum "Si O2"
_cell_formula_units_Z 22
_cell_length_a 5.276755
_cell_length_b 25.173111
_cell_length_c 8.649539
_cell_angle_alpha 90.000000
_cell_angle_beta 72.245686
_cell_angle_gamma 90.000000
_cell_volume 1094.217825
_symmetry_space_group_name_H-M "P 2/M"
_symmetry_group_IT_number 10
_symmetry_cell_setting 'monoclinic'
loop_
_space_group_symop_operation_xyz
x,y,z
-x,y,-z
-x,-y,-z
x,-y,z
loop_
_atom_site_type_symbol
_atom_site_label
_atom_site_fract_x
_atom_site_fract_y
_atom_site_fract_z
Si Si1 0.195938 0.000000 0.608141
Si Si2 0.404352 0.169530 0.191348
Si Si3 0.837182 0.437437 0.325426
Si Si4 0.303604 0.725469 0.392721
Si Si5 0.096122 0.893110 0.807722
Si Si6 0.343394 0.607577 0.312990
O O1 0.500000 0.000000 0.500000
O O2 0.137974 0.949616 0.724023
O O3 0.000000 0.000000 0.500000
O O4 0.368488 0.227914 0.263331
O O5 0.625193 0.138461 0.250358
O O6 0.124475 0.138474 0.250357
O O7 0.500000 0.175857 0.000000
O O8 0.823738 0.500000 0.352018
O O9 0.751082 0.408011 0.497849
O O10 0.634986 0.418036 0.228833
O O11 0.136016 0.418080 0.228842
O O12 0.500000 0.729197 0.500000
O O13 0.353762 0.670776 0.291873
O O14 0.000000 0.729317 0.500000
O O15 0.000000 0.901859 0.000000
#
# Coordination Sequence:
#
# PCOD8056866 Si02
#       6
#     2   4   4   4   4   4
#     4  12  25  38  63  94 126 144 178 236 279 324
#     4  10  23  40  60  82 111 148 195 229 263 326
#     4  10  16  25  41  61  99 138 167 207 269 326
#     4  12  21  34  53  78 109 146 173 229 281 329
#     4  10  22  43  62  82 112 154 190 223 269 329
#     4  10  16  27  38  64  98 130 167 209 266 323
#
# _framework density 20.105687
#
# number of rings (size 3 to 8) (size 9 to 14) (size 15 to 20)
#    0.000    1.455    3.636    5.182    0.000    4.364 
#    0.000    3.636    0.000    0.000    0.000    0.000 
#    0.000    8.000    0.000    0.000    0.000    0.000 
#
# Total GULP energy -272762.472945 kJ/mol
# GULP energy per Si atom -12398.294225 kJ/mol
# Density = 2.005993 g / cm^3
# Si number density = 20.105687 Si / 1000 Ang^3
#
#
#
# Elastic Constant Matrix: (Units=GPa)
#
#
# Indices 1 2 3 4 5 6 
#
# 1 227.6576 77.7474 21.1304 0.0000 -0.9060 0.0000
# 2 77.7474 202.9591 33.5128 0.0000 -0.2195 0.0000
# 3 21.1304 33.5128 14.6551 0.0000 -0.0931 0.0000
# 4 0.0000 0.0000 0.0000 -8.5100 0.0000 -0.2106
# 5 -0.9060 -0.2195 -0.0931 0.0000 5.6853 0.0000
# 6 0.0000 0.0000 0.0000 -0.2106 0.0000 40.1271
#
#
#
# Elastic Compliance Matrix: (Units=1/GPa)
#
#
# Indices 1 2 3 4 5 6 
#
# 1 0.005257 -0.001225 -0.004775 0.000000 0.000712 0.000000
# 2 -0.001225 0.008201 -0.016990 0.000000 -0.000157 0.000000
# 3 -0.004775 -0.016990 0.113975 0.000000 0.000450 0.000000
# 4 0.000000 0.000000 0.000000 -0.117494 0.000000 -0.000617
# 5 0.000712 -0.000157 0.000450 0.000000 0.176006 0.000000
# 6 0.000000 0.000000 0.000000 -0.000617 0.000000 0.024918
#
#
# Mechanical properties :
#
#
# Convention : Reuss Voigt Hill
#
# Bulk Modulus (GPa) = 12.27678 78.89480 45.58579
# Shear Modulus (GPa) = 17.60600 28.31922 22.96261
#
# Velocity S-wave (km/s) = 2.96239 3.75709 3.38316
# Velocity P-wave (km/s) = 4.22142 7.62537 6.16306
#
# Compressibility (1/GPa) = 0.08145459
#
# Stress axis : x y z
#
# Youngs Moduli (GPa) = 190.23136 121.92969 8.77384
#
# Poissons Ratio (x) = 0.14931 0.04189
# Poissons Ratio (y) = 0.23294 0.14907
# Poissons Ratio (z) = 0.90830 2.07161
#
# Static dielectric constant tensor:
#      x y z
#    x 11.514630 0.000000 -0.035790 
#    y 0.000000 3.803610 0.000000 
#    z -0.035790 0.000000 3.060140 
# 
# 
# High freq. dielectric constant tensor:
#      x y z
#    x 1.825010 0.000000 -0.000440 
#    y 0.000000 1.803170 0.000000 
#    z -0.000440 0.000000 1.726270 
# 
# From -- ./inp_files/15548.got.cif
#   From: 2010.06.25/outbox.cif.g09.slc.cpg/sg10_8_cif.got.tgz:15548.got - 2010.06.27 22:07:45.
