data_PCOD8056329
_publ_section_title
;
Structure prediction by ZEFSAII (Michael W. Deem and Ramdas Pophale) SiO2 
 PCOD8056329
Probable space group: C C
;
_chemical_formula_sum "Si O2"
_cell_formula_units_Z 28
_cell_length_a 15.058858
_cell_length_b 13.394661
_cell_length_c 8.920728
_cell_angle_alpha 90.000000
_cell_angle_beta 40.508248
_cell_angle_gamma 90.000000
_cell_volume 1168.803942
_symmetry_space_group_name_H-M "C C"
_symmetry_group_IT_number 9
_symmetry_cell_setting 'monoclinic'
loop_
_space_group_symop_operation_xyz
x,y,z
x,-y,1/2+z
1/2+x,1/2+y,z
1/2+x,1/2-y,1/2+z
loop_
_atom_site_type_symbol
_atom_site_label
_atom_site_fract_x
_atom_site_fract_y
_atom_site_fract_z
Si Si1 0.043580 0.665902 0.421720
Si Si2 0.182228 0.326161 0.027509
Si Si3 0.002877 0.445170 0.468551
Si Si4 0.202540 0.630171 0.944669
Si Si5 0.933961 0.873084 0.516129
Si Si6 0.486070 0.452895 0.123520
Si Si7 0.237630 0.821364 0.714928
O O1 0.060967 0.706054 0.569979
O O2 0.959032 0.561474 0.526628
O O3 0.968509 0.757679 0.437009
O O4 0.182518 0.641753 0.149877
O O5 0.241318 0.232565 0.046129
O O6 0.132172 0.416841 0.197207
O O7 0.282490 0.375462 0.778209
O O8 0.874345 0.382399 0.575803
O O9 0.061708 0.417871 0.558276
O O10 0.341423 0.571773 0.727401
O O11 0.222778 0.741453 0.862360
O O12 0.965565 0.936117 0.325878
O O13 0.020060 0.931626 0.536273
O O14 0.604676 0.389332 0.894250
#
# Coordination Sequence:
#
# PCOD8056329 Si02
#       7
#     4   4   4   4   4   4   4
#     4  12  24  45  71 113 147 197 258 313 376 457
#     4  11  25  46  77 111 149 205 256 303 377 468
#     4  11  25  47  76 111 152 201 251 320 379 449
#     4  11  23  46  79 103 146 199 258 298 377 459
#     4  12  28  45  75 109 149 200 254 315 374 467
#     4  12  27  50  73 109 149 203 247 316 387 456
#     4  11  26  49  75 110 156 197 244 317 392 446
#
# _framework density 23.956111
#
# number of rings (size 3 to 8) (size 9 to 14) (size 15 to 20)
#    0.000    0.571    2.857    5.143    6.000    1.143 
#    5.143    0.000    0.000    0.000    0.000    0.000 
#    0.000    0.000    0.000    0.000    0.000    0.000 
#
# Total GULP energy -173444.201481 kJ/mol
# GULP energy per Si atom -12388.871534 kJ/mol
# Density = 2.390159 g / cm^3
# Si number density = 23.956111 Si / 1000 Ang^3
#
#
#
# Elastic Constant Matrix: (Units=GPa)
#
#
# Indices 1 2 3 4 5 6 
#
# 1 126.5900 58.6957 43.9576 0.0000 9.5593 0.0000
# 2 58.6957 183.7099 42.9506 0.0000 -2.7512 0.0000
# 3 43.9576 42.9506 82.5244 0.0000 3.7652 0.0000
# 4 0.0000 0.0000 0.0000 22.2610 0.0000 0.3294
# 5 9.5593 -2.7512 3.7652 0.0000 41.1409 0.0000
# 6 0.0000 0.0000 0.0000 0.3294 0.0000 39.2382
#
#
#
# Elastic Compliance Matrix: (Units=1/GPa)
#
#
# Indices 1 2 3 4 5 6 
#
# 1 0.010705 -0.002442 -0.004328 0.000000 -0.002255 0.000000
# 2 -0.002442 0.006775 -0.002282 0.000000 0.001229 0.000000
# 3 -0.004328 -0.002282 0.015637 0.000000 -0.000578 0.000000
# 4 0.000000 0.000000 0.000000 0.044927 0.000000 -0.000377
# 5 -0.002255 0.001229 -0.000578 0.000000 0.024966 0.000000
# 6 0.000000 0.000000 0.000000 -0.000377 0.000000 0.025489
#
#
# Mechanical properties :
#
#
# Convention : Reuss Voigt Hill
#
# Bulk Modulus (GPa) = 66.60683 76.00355 71.30519
# Shear Modulus (GPa) = 32.97992 37.00939 34.99465
#
# Velocity S-wave (km/s) = 3.71439 3.93476 3.82616
# Velocity P-wave (km/s) = 6.80144 7.24142 7.02488
#
# Compressibility (1/GPa) = 0.01501348
#
# Stress axis : x y z
#
# Youngs Moduli (GPa) = 93.41357 147.59120 63.95088
#
# Poissons Ratio (x) = 0.36044 0.27680
# Poissons Ratio (y) = 0.22813 0.14591
# Poissons Ratio (z) = 0.40432 0.33675
#
# Static dielectric constant tensor:
#      x y z
#    x 4.305320 0.000000 0.212440 
#    y 0.000000 4.497970 0.000000 
#    z 0.212440 0.000000 4.282250 
# 
# 
# High freq. dielectric constant tensor:
#      x y z
#    x 1.945590 0.000000 0.020320 
#    y 0.000000 1.962090 0.000000 
#    z 0.020320 0.000000 1.950920 
# 
# From -- ./inp_files/9753.got.cif
#   From: 2010.06.25/outbox.cif.g09.slc.cpg/sg9_5_cif.got.tgz:9753.got - 2010.06.27 21:40:51.
