data_PCOD8056117
_publ_section_title
;
Structure prediction by ZEFSAII (Michael W. Deem and Ramdas Pophale) SiO2 
 PCOD8056117
Probable space group: C C
;
_chemical_formula_sum "Si O2"
_cell_formula_units_Z 32
_cell_length_a 8.568242
_cell_length_b 22.116944
_cell_length_c 8.142977
_cell_angle_alpha 90.000000
_cell_angle_beta 127.579180
_cell_angle_gamma 90.000000
_cell_volume 1222.941031
_symmetry_space_group_name_H-M "C C"
_symmetry_group_IT_number 9
_symmetry_cell_setting 'monoclinic'
loop_
_space_group_symop_operation_xyz
x,y,z
x,-y,1/2+z
1/2+x,1/2+y,z
1/2+x,1/2-y,1/2+z
loop_
_atom_site_type_symbol
_atom_site_label
_atom_site_fract_x
_atom_site_fract_y
_atom_site_fract_z
Si Si1 0.566830 0.413793 0.445230
Si Si2 0.458956 0.024767 0.093634
Si Si3 0.515964 0.813548 0.069564
Si Si4 0.994135 0.375607 0.375852
Si Si5 0.077171 0.815371 0.703013
Si Si6 0.154055 0.427312 0.029414
Si Si7 0.762830 0.191173 0.277914
Si Si8 0.113242 0.179608 0.716903
O O1 0.743735 0.463063 0.539465
O O2 0.530141 0.383334 0.601207
O O3 0.373953 0.442250 0.236725
O O4 0.638330 0.352105 0.406931
O O5 0.627546 0.045678 0.330219
O O6 0.500998 0.954985 0.070422
O O7 0.479004 0.053849 0.919205
O O8 0.610605 0.849684 0.291089
O O9 0.585640 0.744249 0.089052
O O10 0.606060 0.855291 0.981516
O O11 0.283301 0.818995 0.925152
O O12 0.777823 0.348811 0.205167
O O13 0.094116 0.352934 0.608455
O O14 0.915163 0.793900 0.729596
O O15 0.645645 0.249823 0.261127
O O16 0.895805 0.163466 0.508956
#
# Coordination Sequence:
#
# PCOD8056117 Si02
#       8
#     4   4   4   4   4   4   4   4
#     4  11  27  47  71 108 148 190 247 309 375 432
#     4  11  27  50  74 104 141 195 250 316 363 441
#     4  12  23  42  70 105 149 193 241 305 364 448
#     4  11  22  41  66 100 142 185 244 294 361 427
#     4  12  23  42  70 110 151 193 243 298 374 450
#     4  12  26  51  74 105 143 193 252 311 379 430
#     4  12  20  38  65  99 143 190 234 285 362 439
#     4  11  22  37  62  99 141 187 239 294 358 437
#
# _framework density 26.166429999999998
#
# number of rings (size 3 to 8) (size 9 to 14) (size 15 to 20)
#    0.000    0.500    5.000    3.750    0.000    4.000 
#    2.250    0.000    0.000    0.000    0.000    0.000 
#    0.000    0.000    0.000    0.000    0.000    0.000 
#
# Total GULP energy -198216.425492 kJ/mol
# GULP energy per Si atom -12388.526593 kJ/mol
# Density = 2.610687 g / cm^3
# Si number density = 26.166430 Si / 1000 Ang^3
#
#
#
# Elastic Constant Matrix: (Units=GPa)
#
#
# Indices 1 2 3 4 5 6 
#
# 1 59.4508 7.6576 8.5931 0.0000 21.3555 0.0000
# 2 7.6576 83.7090 4.7976 0.0000 16.4556 0.0000
# 3 8.5931 4.7976 118.3913 0.0000 33.9913 0.0000
# 4 0.0000 0.0000 0.0000 24.4411 0.0000 -1.2301
# 5 21.3555 16.4556 33.9913 0.0000 36.5200 0.0000
# 6 0.0000 0.0000 0.0000 -1.2301 0.0000 23.7667
#
#
#
# Elastic Compliance Matrix: (Units=1/GPa)
#
#
# Indices 1 2 3 4 5 6 
#
# 1 0.022052 0.000980 0.002987 0.000000 -0.016117 0.000000
# 2 0.000980 0.013373 0.001749 0.000000 -0.008227 0.000000
# 3 0.002987 0.001749 0.012127 0.000000 -0.013822 0.000000
# 4 0.000000 0.000000 0.000000 0.041021 0.000000 0.002123
# 5 -0.016117 -0.008227 -0.013822 0.000000 0.053379 0.000000
# 6 0.000000 0.000000 0.000000 0.002123 0.000000 0.042186
#
#
# Mechanical properties :
#
#
# Convention : Reuss Voigt Hill
#
# Bulk Modulus (GPa) = 16.95364 33.73864 25.34614
# Shear Modulus (GPa) = 25.99171 32.97909 29.48540
#
# Velocity S-wave (km/s) = 3.15512 3.55400 3.36049
# Velocity P-wave (km/s) = 4.44593 5.45556 4.97641
#
# Compressibility (1/GPa) = 0.05898437
#
# Stress axis : x y z
#
# Youngs Moduli (GPa) = 45.34729 74.77476 82.45764
#
# Poissons Ratio (x) = -0.07326 -0.24630
# Poissons Ratio (y) = -0.04443 -0.14421
# Poissons Ratio (z) = -0.13545 -0.13078
#
# Static dielectric constant tensor:
#      x y z
#    x 4.691590 0.000000 -0.045120 
#    y 0.000000 4.554730 0.000000 
#    z -0.045120 0.000000 4.857410 
# 
# 
# High freq. dielectric constant tensor:
#      x y z
#    x 2.044030 0.000000 -0.001760 
#    y 0.000000 2.038340 0.000000 
#    z -0.001760 0.000000 2.060370 
# 
# From -- ./inp_files/6386.got.cif
#   From: 2010.06.25/outbox.cif.g09.slc.cpg/sg9_4_cif.got.tgz:6386.got - 2010.06.27 21:40:51.
