data_PCOD8056122
_publ_section_title
;
Structure prediction by ZEFSAII (Michael W. Deem and Ramdas Pophale) SiO2 
 PCOD8056122
Probable space group: C C
;
_chemical_formula_sum "Si O2"
_cell_formula_units_Z 32
_cell_length_a 8.633783
_cell_length_b 21.339767
_cell_length_c 9.068770
_cell_angle_alpha 90.000000
_cell_angle_beta 63.272527
_cell_angle_gamma 90.000000
_cell_volume 1492.335368
_symmetry_space_group_name_H-M "C C"
_symmetry_group_IT_number 9
_symmetry_cell_setting 'monoclinic'
loop_
_space_group_symop_operation_xyz
x,y,z
x,-y,1/2+z
1/2+x,1/2+y,z
1/2+x,1/2-y,1/2+z
loop_
_atom_site_type_symbol
_atom_site_label
_atom_site_fract_x
_atom_site_fract_y
_atom_site_fract_z
Si Si1 0.052170 0.393895 0.774070
Si Si2 0.823629 0.606551 0.639873
Si Si3 0.610053 0.507034 0.582962
Si Si4 0.087123 0.461785 0.224646
Si Si5 0.891883 0.398059 0.532306
Si Si6 0.875903 0.824906 0.736090
Si Si7 0.424444 0.555762 0.390838
Si Si8 0.218315 0.798382 0.422792
O O1 0.087109 0.467240 0.776583
O O2 0.235743 0.358338 0.688447
O O3 0.927470 0.385127 0.687825
O O4 0.957413 0.367746 0.960382
O O5 0.668497 0.572026 0.625632
O O6 0.736697 0.664390 0.761637
O O7 0.913299 0.556259 0.709796
O O8 0.745298 0.450239 0.553800
O O9 0.575108 0.524489 0.427339
O O10 0.428342 0.487156 0.740494
O O11 0.245114 0.444093 0.052708
O O12 0.074445 0.420699 0.380446
O O13 0.838754 0.330801 0.493117
O O14 0.784508 0.771661 0.871757
O O15 0.021231 0.797172 0.565303
O O16 0.959613 0.873284 0.819602
#
# Coordination Sequence:
#
# PCOD8056122 Si02
#       8
#     4   4   4   4   4   4   4   4
#     4  12  22  42  70 104 139 180 230 280 351 415
#     4  11  23  42  71  99 142 181 219 287 351 419
#     4  12  23  42  68 110 138 173 225 285 368 411
#     4  11  22  39  63 106 141 177 219 274 356 413
#     4  11  24  43  72 103 141 181 223 293 352 421
#     4  12  27  48  70  98 135 194 241 288 341 412
#     4  12  26  40  66 101 144 181 224 288 341 422
#     4  11  27  50  70  93 140 187 241 285 352 407
#
# _framework density 21.442902
#
# number of rings (size 3 to 8) (size 9 to 14) (size 15 to 20)
#    0.000    0.500    5.000    3.750    5.250    0.000 
#    2.250    1.250    0.000    0.000    0.000    0.000 
#    0.000    0.000    0.000    0.000    0.000    0.000 
#
# Total GULP energy -198327.452743 kJ/mol
# GULP energy per Si atom -12395.465796 kJ/mol
# Density = 2.139410 g / cm^3
# Si number density = 21.442902 Si / 1000 Ang^3
#
#
#
# Elastic Constant Matrix: (Units=GPa)
#
#
# Indices 1 2 3 4 5 6 
#
# 1 83.7571 48.5520 38.3780 0.0000 8.7227 0.0000
# 2 48.5520 109.8942 41.2688 0.0000 5.5206 0.0000
# 3 38.3780 41.2688 145.3783 0.0000 -12.6018 0.0000
# 4 0.0000 0.0000 0.0000 41.5070 0.0000 -6.5322
# 5 8.7227 5.5206 -12.6018 0.0000 44.6595 0.0000
# 6 0.0000 0.0000 0.0000 -6.5322 0.0000 30.0098
#
#
#
# Elastic Compliance Matrix: (Units=1/GPa)
#
#
# Indices 1 2 3 4 5 6 
#
# 1 0.017401 -0.006351 -0.003093 0.000000 -0.003486 0.000000
# 2 -0.006351 0.012705 -0.002008 0.000000 -0.000896 0.000000
# 3 -0.003093 -0.002008 0.008548 0.000000 0.003264 0.000000
# 4 0.000000 0.000000 0.000000 0.024947 0.000000 0.005430
# 5 -0.003486 -0.000896 0.003264 0.000000 0.024104 0.000000
# 6 0.000000 0.000000 0.000000 0.005430 0.000000 0.034504
#
#
# Mechanical properties :
#
#
# Convention : Reuss Voigt Hill
#
# Bulk Modulus (GPa) = 63.49117 66.15857 64.82487
# Shear Modulus (GPa) = 33.25274 37.29065 35.27170
#
# Velocity S-wave (km/s) = 3.94224 4.17474 4.06015
# Velocity P-wave (km/s) = 7.09897 7.35923 7.23027
#
# Compressibility (1/GPa) = 0.01575022
#
# Stress axis : x y z
#
# Youngs Moduli (GPa) = 57.46692 78.71129 116.98726
#
# Poissons Ratio (x) = 0.49992 0.36184
# Poissons Ratio (y) = 0.36499 0.23485
# Poissons Ratio (z) = 0.17774 0.15801
#
# Static dielectric constant tensor:
#      x y z
#    x 3.931470 0.000000 -0.072930 
#    y 0.000000 3.701610 0.000000 
#    z -0.072930 0.000000 4.449770 
# 
# 
# High freq. dielectric constant tensor:
#      x y z
#    x 1.832800 0.000000 -0.006070 
#    y 0.000000 1.823030 0.000000 
#    z -0.006070 0.000000 1.870760 
# 
# From -- ./inp_files/6160.got.cif
#   From: 2010.06.25/outbox.cif.g09.slc.cpg/sg9_4_cif.got.tgz:6160.got - 2010.06.27 21:40:51.
