data_PCOD8056267
_publ_section_title
;
Structure prediction by ZEFSAII (Michael W. Deem and Ramdas Pophale) SiO2 
 PCOD8056267
Probable space group: C C
;
_chemical_formula_sum "Si O2"
_cell_formula_units_Z 32
_cell_length_a 15.784444
_cell_length_b 9.316526
_cell_length_c 12.522484
_cell_angle_alpha 90.000000
_cell_angle_beta 122.222310
_cell_angle_gamma 90.000000
_cell_volume 1557.889857
_symmetry_space_group_name_H-M "C C"
_symmetry_group_IT_number 9
_symmetry_cell_setting 'monoclinic'
loop_
_space_group_symop_operation_xyz
x,y,z
x,-y,1/2+z
1/2+x,1/2+y,z
1/2+x,1/2-y,1/2+z
loop_
_atom_site_type_symbol
_atom_site_label
_atom_site_fract_x
_atom_site_fract_y
_atom_site_fract_z
Si Si1 0.996900 0.739034 0.864380
Si Si2 0.552361 0.117533 0.686065
Si Si3 0.122546 0.192066 0.636244
Si Si4 0.100770 0.871848 0.573333
Si Si5 0.413682 0.467853 0.319061
Si Si6 0.737579 0.920580 0.830376
Si Si7 0.936847 0.360381 0.536364
Si Si8 0.279229 0.283048 0.070399
O O1 0.918994 0.668470 0.897716
O O2 0.018884 0.627616 0.786085
O O3 0.950672 0.886361 0.785730
O O4 0.102356 0.770063 0.997474
O O5 0.560729 0.273822 0.641706
O O6 0.658095 0.039957 0.744185
O O7 0.467932 0.025926 0.569095
O O8 0.218450 0.274470 0.748661
O O9 0.024900 0.250863 0.636545
O O10 0.134299 0.020434 0.652404
O O11 0.194699 0.799488 0.578523
O O12 0.011141 0.886730 0.428512
O O13 0.346502 0.517093 0.375023
O O14 0.352448 0.367942 0.198326
O O15 0.730755 0.893153 0.952869
O O16 0.838872 0.333719 0.540503
#
# Coordination Sequence:
#
# PCOD8056267 Si02
#       8
#     4   4   4   4   4   4   4   4
#     4   9  21  40  67  93 133 175 220 267 342 391
#     4  11  24  40  72 100 132 176 225 287 329 408
#     4   8  21  43  67  93 135 173 221 272 343 396
#     4  11  25  44  69 104 135 177 229 282 334 403
#     4  11  25  45  68  99 139 181 221 280 344 405
#     4  11  23  44  69  98 135 179 224 280 340 405
#     4   9  22  44  62  95 134 174 222 268 343 395
#     4  12  25  42  70 100 135 181 232 274 345 401
#
# _framework density 20.540604999999999
#
# number of rings (size 3 to 8) (size 9 to 14) (size 15 to 20)
#    0.750    1.000    2.500    0.000   10.500    2.000 
#    2.250    2.500    0.000    0.000    0.000    0.000 
#    0.000    0.000    0.000    0.000    0.000    0.000 
#
# Total GULP energy -198313.190875 kJ/mol
# GULP energy per Si atom -12394.574430 kJ/mol
# Density = 2.049385 g / cm^3
# Si number density = 20.540605 Si / 1000 Ang^3
#
#
#
# Elastic Constant Matrix: (Units=GPa)
#
#
# Indices 1 2 3 4 5 6 
#
# 1 91.7967 36.2865 35.6780 0.0000 -8.7340 0.0000
# 2 36.2865 122.7396 55.5389 0.0000 -7.4768 0.0000
# 3 35.6780 55.5389 92.4027 0.0000 0.9527 0.0000
# 4 0.0000 0.0000 0.0000 31.8368 0.0000 -4.9808
# 5 -8.7340 -7.4768 0.9527 0.0000 30.6142 0.0000
# 6 0.0000 0.0000 0.0000 -4.9808 0.0000 26.7694
#
#
#
# Elastic Compliance Matrix: (Units=1/GPa)
#
#
# Indices 1 2 3 4 5 6 
#
# 1 0.013598 -0.001940 -0.004121 0.000000 0.003534 0.000000
# 2 -0.001940 0.011739 -0.006333 0.000000 0.002511 0.000000
# 3 -0.004121 -0.006333 0.016253 0.000000 -0.003228 0.000000
# 4 0.000000 0.000000 0.000000 0.032352 0.000000 0.006019
# 5 0.003534 0.002511 -0.003228 0.000000 0.034386 0.000000
# 6 0.000000 0.000000 0.000000 0.006019 0.000000 0.038476
#
#
# Mechanical properties :
#
#
# Convention : Reuss Voigt Hill
#
# Bulk Modulus (GPa) = 59.51270 62.43844 60.97557
# Shear Modulus (GPa) = 28.21773 29.80647 29.01210
#
# Velocity S-wave (km/s) = 3.71044 3.81346 3.76230
# Velocity P-wave (km/s) = 6.88423 7.06071 6.97302
#
# Compressibility (1/GPa) = 0.01680314
#
# Stress axis : x y z
#
# Youngs Moduli (GPa) = 73.53779 85.18317 61.52774
#
# Poissons Ratio (x) = 0.16528 0.25354
# Poissons Ratio (y) = 0.14269 0.38964
# Poissons Ratio (z) = 0.30303 0.53944
#
# Static dielectric constant tensor:
#      x y z
#    x 3.556270 0.000000 0.056580 
#    y 0.000000 3.683460 0.000000 
#    z 0.056580 0.000000 3.581990 
# 
# 
# High freq. dielectric constant tensor:
#      x y z
#    x 1.797000 0.000000 0.002580 
#    y 0.000000 1.805090 0.000000 
#    z 0.002580 0.000000 1.793430 
# 
# From -- ./inp_files/17981.got.cif
#   From: 2010.06.25/outbox.cif.g09.slc.cpg/sg9_9_cif.got.tgz:17981.got - 2010.06.27 21:40:51.
