data_PCOD8056619
_publ_section_title
;
Structure prediction by ZEFSAII (Michael W. Deem and Ramdas Pophale) SiO2 
 PCOD8056619
Probable space group: C C
;
_chemical_formula_sum "Si O2"
_cell_formula_units_Z 28
_cell_length_a 6.331316
_cell_length_b 21.236745
_cell_length_c 11.209130
_cell_angle_alpha 90.000000
_cell_angle_beta 122.679866
_cell_angle_gamma 90.000000
_cell_volume 1268.561337
_symmetry_space_group_name_H-M "C C"
_symmetry_group_IT_number 9
_symmetry_cell_setting 'monoclinic'
loop_
_space_group_symop_operation_xyz
x,y,z
x,-y,1/2+z
1/2+x,1/2+y,z
1/2+x,1/2-y,1/2+z
loop_
_atom_site_type_symbol
_atom_site_label
_atom_site_fract_x
_atom_site_fract_y
_atom_site_fract_z
Si Si1 0.452250 0.105559 0.237520
Si Si2 0.606244 0.500720 0.195256
Si Si3 0.464607 0.809683 0.516561
Si Si4 0.969449 0.272384 0.870724
Si Si5 0.841550 0.003167 0.865218
Si Si6 0.494810 0.110491 0.793359
Si Si7 0.933086 0.729038 0.628871
O O1 0.200042 0.071986 0.205164
O O2 0.398622 0.141145 0.098480
O O3 0.545136 0.155808 0.363706
O O4 0.641904 0.049546 0.271660
O O5 0.520212 0.499953 0.305901
O O6 0.804558 0.445404 0.255792
O O7 0.431092 0.486395 0.027242
O O8 0.538658 0.847576 0.422257
O O9 0.713659 0.769072 0.629219
O O10 0.214851 0.768759 0.416239
O O11 0.721593 0.252872 0.721095
O O12 0.863698 0.267581 0.970366
O O13 0.751338 0.075615 0.836388
O O14 0.411303 0.156739 0.662306
#
# Coordination Sequence:
#
# PCOD8056619 Si02
#       7
#     4   4   4   4   4   4   4
#     4  11  27  44  71 105 141 185 245 296 363 433
#     4  11  27  46  74 100 140 192 240 306 358 428
#     4  12  26  48  74 108 150 188 240 306 364 436
#     4  12  28  45  74 109 145 195 241 297 370 436
#     4  11  27  46  74 100 140 192 240 306 358 428
#     4  11  27  44  71 105 141 185 245 296 363 433
#     4  12  28  45  74 109 145 195 241 297 370 436
#
# _framework density 22.072248999999999
#
# number of rings (size 3 to 8) (size 9 to 14) (size 15 to 20)
#    0.000    0.571    2.857    2.571   14.000    2.286 
#    0.000    0.000    0.000    0.000    0.000    0.000 
#    0.000    0.000    0.000    0.000    0.000    0.000 
#
# Total GULP energy -173484.264462 kJ/mol
# GULP energy per Si atom -12391.733176 kJ/mol
# Density = 2.202201 g / cm^3
# Si number density = 22.072249 Si / 1000 Ang^3
#
#
#
# Elastic Constant Matrix: (Units=GPa)
#
#
# Indices 1 2 3 4 5 6 
#
# 1 103.6832 55.6228 19.5603 0.0000 6.1588 0.0000
# 2 55.6228 149.7797 30.7347 0.0000 3.2819 0.0000
# 3 19.5603 30.7347 79.3088 0.0000 -0.4292 0.0000
# 4 0.0000 0.0000 0.0000 43.1934 0.0000 -0.4219
# 5 6.1588 3.2819 -0.4292 0.0000 41.4066 0.0000
# 6 0.0000 0.0000 0.0000 -0.4219 0.0000 29.7182
#
#
#
# Elastic Compliance Matrix: (Units=1/GPa)
#
#
# Indices 1 2 3 4 5 6 
#
# 1 0.012270 -0.004238 -0.001392 0.000000 -0.001504 0.000000
# 2 -0.004238 0.008732 -0.002339 0.000000 -0.000086 0.000000
# 3 -0.001392 -0.002339 0.013862 0.000000 0.000536 0.000000
# 4 0.000000 0.000000 0.000000 0.023155 0.000000 0.000329
# 5 -0.001504 -0.000086 0.000536 0.000000 0.024387 0.000000
# 6 0.000000 0.000000 0.000000 0.000329 0.000000 0.033654
#
#
# Mechanical properties :
#
#
# Convention : Reuss Voigt Hill
#
# Bulk Modulus (GPa) = 52.83877 60.51193 56.67535
# Shear Modulus (GPa) = 36.15136 37.98721 37.06929
#
# Velocity S-wave (km/s) = 4.05144 4.15304 4.10256
# Velocity P-wave (km/s) = 6.77323 7.10436 6.94077
#
# Compressibility (1/GPa) = 0.01892550
#
# Stress axis : x y z
#
# Youngs Moduli (GPa) = 81.49737 114.51773 72.14128
#
# Poissons Ratio (x) = 0.48535 0.10042
# Poissons Ratio (y) = 0.34540 0.16875
# Poissons Ratio (z) = 0.11344 0.26788
#
# Static dielectric constant tensor:
#      x y z
#    x 4.218210 0.000000 -0.095770 
#    y 0.000000 4.399220 0.000000 
#    z -0.095770 0.000000 3.987670 
# 
# 
# High freq. dielectric constant tensor:
#      x y z
#    x 1.879490 0.000000 -0.009770 
#    y 0.000000 1.891520 0.000000 
#    z -0.009770 0.000000 1.871750 
# 
# From -- ./inp_files/13266.got.cif
#   From: 2010.06.25/outbox.cif.g09.slc.cpg/sg9_7_cif.got.tgz:13266.got - 2010.06.27 21:40:51.
