data_PCOD8056976
_publ_section_title
;
Structure prediction by ZEFSAII (Michael W. Deem and Ramdas Pophale) SiO2 
 PCOD8056976
Probable space group: P 2/M
;
_chemical_formula_sum "Si O2"
_cell_formula_units_Z 32
_cell_length_a 16.531227
_cell_length_b 9.161742
_cell_length_c 23.121065
_cell_angle_alpha 90.000000
_cell_angle_beta 36.799849
_cell_angle_gamma 90.000000
_cell_volume 2097.651725
_symmetry_space_group_name_H-M "P 2/M"
_symmetry_group_IT_number 10
_symmetry_cell_setting 'monoclinic'
loop_
_space_group_symop_operation_xyz
x,y,z
-x,y,-z
-x,-y,-z
x,-y,z
loop_
_atom_site_type_symbol
_atom_site_label
_atom_site_fract_x
_atom_site_fract_y
_atom_site_fract_z
Si Si1 0.973705 0.665097 0.947304
Si Si2 0.289342 0.171221 0.882849
Si Si3 0.560541 0.671292 0.743498
Si Si4 0.693173 0.331182 0.545893
Si Si5 0.763156 0.829266 0.220577
Si Si6 0.930688 0.836204 0.451482
Si Si7 0.798847 0.165676 0.652301
Si Si8 0.528020 0.669004 0.417197
O O1 0.961243 0.500000 0.930428
O O2 0.096954 0.747302 0.845498
O O3 0.000000 0.663207 0.000000
O O4 0.837283 0.754287 0.012627
O O5 0.422078 0.243720 0.833819
O O6 0.285297 0.202570 0.816776
O O7 0.287853 0.000000 0.897157
O O8 0.537139 0.500000 0.765268
O O9 0.611029 0.711019 0.650438
O O10 0.669553 0.727763 0.728306
O O11 0.725069 0.500000 0.525962
O O12 0.840425 0.256264 0.458635
O O13 0.604812 0.280734 0.541804
O O14 0.653143 0.768168 0.327643
O O15 0.784848 0.000000 0.218833
O O16 0.863249 0.828594 0.552449
O O17 0.086284 0.780162 0.367784
O O18 0.932254 0.000000 0.426878
O O19 0.753966 0.000000 0.692275
O O20 0.500000 0.695355 0.500000
O O21 0.561498 0.500000 0.384030
#
# Coordination Sequence:
#
# PCOD8056976 Si02
#       8
#     4   4   4   4   4   4   4   4
#     4   9  17  28  43  60  79 103 132 166 202 244
#     4  10  18  27  40  59  82 108 136 167 203 243
#     4  10  17  24  37  56  79 106 136 168 201 237
#     4   9  17  27  39  55  74  99 134 173 208 242
#     4  10  19  30  44  60  79 103 134 173 211 248
#     4   8  14  24  38  52  70  98 130 162 198 241
#     4   8  14  24  35  51  74 100 130 161 195 237
#     4  10  20  33  46  59  79 108 141 177 216 252
#
# _framework density 15.255153999999999
#
# number of rings (size 3 to 8) (size 9 to 14) (size 15 to 20)
#    0.000    2.750    1.250    2.250    0.000    4.250 
#    0.000    2.500    0.000    0.000    0.000    0.000 
#    0.000    0.000    0.000    1.125    0.000   21.750 
#
# Total GULP energy -396688.193395 kJ/mol
# GULP energy per Si atom -12396.506044 kJ/mol
# Density = 1.522043 g / cm^3
# Si number density = 15.255154 Si / 1000 Ang^3
#
#
#
# Elastic Constant Matrix: (Units=GPa)
#
#
# Indices 1 2 3 4 5 6 
#
# 1 81.6025 45.7641 51.0847 0.0000 -32.9484 0.0000
# 2 45.7641 91.2685 50.4831 0.0000 -25.6615 0.0000
# 3 51.0847 50.4831 66.9758 0.0000 -28.7834 0.0000
# 4 0.0000 0.0000 0.0000 24.5734 0.0000 -11.7749
# 5 -32.9484 -25.6615 -28.7834 0.0000 29.4362 0.0000
# 6 0.0000 0.0000 0.0000 -11.7749 0.0000 22.8527
#
#
#
# Elastic Compliance Matrix: (Units=1/GPa)
#
#
# Indices 1 2 3 4 5 6 
#
# 1 0.028464 -0.002560 -0.012156 0.000000 0.017742 0.000000
# 2 -0.002560 0.019353 -0.011410 0.000000 0.002848 0.000000
# 3 -0.012156 -0.011410 0.039120 0.000000 0.014699 0.000000
# 4 0.000000 0.000000 0.000000 0.054036 0.000000 0.027842
# 5 0.017742 0.002848 0.014699 0.000000 0.070686 0.000000
# 6 0.000000 0.000000 0.000000 0.027842 0.000000 0.058104
#
#
# Mechanical properties :
#
#
# Convention : Reuss Voigt Hill
#
# Bulk Modulus (GPa) = 28.83205 59.39004 44.11105
# Shear Modulus (GPa) = 14.98910 21.54011 18.26460
#
# Velocity S-wave (km/s) = 3.13798 3.76172 3.46392
# Velocity P-wave (km/s) = 5.66305 7.60809 6.70646
#
# Compressibility (1/GPa) = 0.03468362
#
# Stress axis : x y z
#
# Youngs Moduli (GPa) = 35.13264 51.67282 25.56248
#
# Poissons Ratio (x) = 0.13230 0.31073
# Poissons Ratio (y) = 0.08995 0.29167
# Poissons Ratio (z) = 0.42706 0.58960
#
# Static dielectric constant tensor:
#      x y z
#    x 2.945490 0.000000 -0.437990 
#    y 0.000000 3.031930 0.000000 
#    z -0.437990 0.000000 2.694280 
# 
# 
# High freq. dielectric constant tensor:
#      x y z
#    x 1.555850 0.000000 -0.047820 
#    y 0.000000 1.594680 0.000000 
#    z -0.047820 0.000000 1.547510 
# 
# From -- ./inp_files/54906.got.cif
#   From: 2010.06.25/outbox.cif.g09.slc.cpg/sg10_28_cif.got.tgz:54906.got - 2010.06.27 22:07:45.
