data_PCOD8056106
_publ_section_title
;
Structure prediction by ZEFSAII (Michael W. Deem and Ramdas Pophale) SiO2 
 PCOD8056106
Probable space group: C C
;
_chemical_formula_sum "Si O2"
_cell_formula_units_Z 32
_cell_length_a 11.472025
_cell_length_b 16.614782
_cell_length_c 8.974744
_cell_angle_alpha 90.000000
_cell_angle_beta 125.060361
_cell_angle_gamma 90.000000
_cell_volume 1400.233929
_symmetry_space_group_name_H-M "C C"
_symmetry_group_IT_number 9
_symmetry_cell_setting 'monoclinic'
loop_
_space_group_symop_operation_xyz
x,y,z
x,-y,1/2+z
1/2+x,1/2+y,z
1/2+x,1/2-y,1/2+z
loop_
_atom_site_type_symbol
_atom_site_label
_atom_site_fract_x
_atom_site_fract_y
_atom_site_fract_z
Si Si1 0.224590 0.993302 0.737790
Si Si2 0.760585 0.955947 0.201153
Si Si3 0.217598 0.177380 0.139227
Si Si4 0.373410 0.292727 0.773116
Si Si5 0.159537 0.597558 0.301514
Si Si6 0.039195 0.056994 0.354234
Si Si7 0.880293 0.805259 0.443596
Si Si8 0.369963 0.856253 0.474441
O O1 0.289310 0.905962 0.749749
O O2 0.080605 0.972852 0.721285
O O3 0.174629 0.035490 0.551197
O O4 0.337097 0.053645 0.893421
O O5 0.808196 0.889901 0.354831
O O6 0.646991 0.013491 0.200566
O O7 0.703118 0.917784 0.005366
O O8 0.894428 0.012224 0.276241
O O9 0.318966 0.244574 0.279030
O O10 0.236324 0.177380 0.972889
O O11 0.052007 0.190285 0.056883
O O12 0.265658 0.339861 0.800803
O O13 0.516591 0.347063 0.859578
O O14 0.323235 0.279970 0.565430
O O15 0.405094 0.205124 0.865539
O O16 0.005222 0.638443 0.183012
#
# Coordination Sequence:
#
# PCOD8056106 Si02
#       8
#     4   4   4   4   4   4   4   4
#     4  12  24  45  73 104 142 190 250 308 373 452
#     4  11  22  48  73 107 143 194 249 312 376 460
#     4  12  29  48  72 109 150 199 252 309 392 455
#     4  11  26  47  75 108 145 197 251 314 379 459
#     4  11  27  44  74 108 150 198 250 311 385 464
#     4  11  21  45  77 101 136 186 254 301 368 451
#     4  12  27  48  78 108 147 199 256 320 381 458
#     4  12  30  45  72 109 157 195 248 317 392 451
#
# _framework density 22.853321999999999
#
# number of rings (size 3 to 8) (size 9 to 14) (size 15 to 20)
#    0.000    0.500    3.750    3.750   10.500    0.000 
#    0.000    0.000    0.000    0.000    0.000    0.000 
#    0.000    0.000    0.000    0.000    0.000    0.000 
#
# Total GULP energy -198311.271120 kJ/mol
# GULP energy per Si atom -12394.454445 kJ/mol
# Density = 2.280131 g / cm^3
# Si number density = 22.853322 Si / 1000 Ang^3
#
#
#
# Elastic Constant Matrix: (Units=GPa)
#
#
# Indices 1 2 3 4 5 6 
#
# 1 56.2379 38.1891 35.8937 0.0000 -5.1382 0.0000
# 2 38.1891 126.4562 27.6739 0.0000 3.5702 0.0000
# 3 35.8937 27.6739 102.4978 0.0000 -2.9955 0.0000
# 4 0.0000 0.0000 0.0000 42.7927 0.0000 -9.6421
# 5 -5.1382 3.5702 -2.9955 0.0000 35.9391 0.0000
# 6 0.0000 0.0000 0.0000 -9.6421 0.0000 19.0236
#
#
#
# Elastic Compliance Matrix: (Units=1/GPa)
#
#
# Indices 1 2 3 4 5 6 
#
# 1 0.027698 -0.006781 -0.007752 0.000000 0.003987 0.000000
# 2 -0.006781 0.010102 -0.000412 0.000000 -0.002007 0.000000
# 3 -0.007752 -0.000412 0.012582 0.000000 -0.000019 0.000000
# 4 0.000000 0.000000 0.000000 0.026381 0.000000 0.013371
# 5 0.003987 -0.002007 -0.000019 0.000000 0.028593 0.000000
# 6 0.000000 0.000000 0.000000 0.013371 0.000000 0.059344
#
#
# Mechanical properties :
#
#
# Convention : Reuss Voigt Hill
#
# Bulk Modulus (GPa) = 48.79767 54.30059 51.54913
# Shear Modulus (GPa) = 24.82360 31.78008 28.30184
#
# Velocity S-wave (km/s) = 3.29935 3.73313 3.52293
# Velocity P-wave (km/s) = 5.99276 6.51105 6.25728
#
# Compressibility (1/GPa) = 0.02049278
#
# Stress axis : x y z
#
# Youngs Moduli (GPa) = 36.10307 98.98621 79.48034
#
# Poissons Ratio (x) = 0.67121 0.61616
# Poissons Ratio (y) = 0.24481 0.03272
# Poissons Ratio (z) = 0.27989 0.04075
#
# Static dielectric constant tensor:
#      x y z
#    x 4.130080 0.000000 -0.256160 
#    y 0.000000 4.472950 0.000000 
#    z -0.256160 0.000000 4.150670 
# 
# 
# High freq. dielectric constant tensor:
#      x y z
#    x 1.899450 0.000000 -0.017190 
#    y 0.000000 1.917870 0.000000 
#    z -0.017190 0.000000 1.903830 
# 
# From -- ./inp_files/7548.got.cif
#   From: 2010.06.25/outbox.cif.g09.slc.cpg/sg9_4_cif.got.tgz:7548.got - 2010.06.27 21:40:51.
