data_PCOD8056603
_publ_section_title
;
Structure prediction by ZEFSAII (Michael W. Deem and Ramdas Pophale) SiO2 
 PCOD8056603
Probable space group: C C
;
_chemical_formula_sum "Si O2"
_cell_formula_units_Z 20
_cell_length_a 5.006319
_cell_length_b 17.319602
_cell_length_c 9.791312
_cell_angle_alpha 90.000000
_cell_angle_beta 79.684609
_cell_angle_gamma 90.000000
_cell_volume 835.257638
_symmetry_space_group_name_H-M "C C"
_symmetry_group_IT_number 9
_symmetry_cell_setting 'monoclinic'
loop_
_space_group_symop_operation_xyz
x,y,z
x,-y,1/2+z
1/2+x,1/2+y,z
1/2+x,1/2-y,1/2+z
loop_
_atom_site_type_symbol
_atom_site_label
_atom_site_fract_x
_atom_site_fract_y
_atom_site_fract_z
Si Si1 0.993630 0.104743 0.654160
Si Si2 0.085245 0.411528 0.793874
Si Si3 0.879970 0.522289 0.041583
Si Si4 0.551517 0.321679 0.866519
Si Si5 0.439496 0.854841 0.324131
O O1 0.946975 0.157186 0.526292
O O2 0.708323 0.097647 0.757251
O O3 0.219557 0.146831 0.725163
O O4 0.095426 0.017998 0.609793
O O5 0.058500 0.461881 0.659499
O O6 0.862781 0.343514 0.815294
O O7 0.376832 0.369944 0.771783
O O8 0.050317 0.463816 0.931576
O O9 0.814032 0.601285 0.966939
O O10 0.521015 0.231074 0.853975
#
# Coordination Sequence:
#
# PCOD8056603 Si02
#       5
#     4   4   4   4   4
#     4  11  26  50  71 109 150 189 254 306 359 447
#     4  11  26  48  73 105 151 189 249 303 369 434
#     4  11  26  49  74 110 142 201 246 308 362 440
#     4  11  27  46  73 106 149 193 242 310 364 443
#     4  12  27  45  79 104 148 198 247 303 378 430
#
# _framework density 23.944710000000001
#
# number of rings (size 3 to 8) (size 9 to 14) (size 15 to 20)
#    0.000    0.800    2.000    3.600    8.400    4.800 
#    0.000    0.000    0.000    0.000    0.000    0.000 
#    0.000    0.000    0.000    0.000    0.000    0.000 
#
# Total GULP energy -124070.164415 kJ/mol
# GULP energy per Si atom -12407.016441 kJ/mol
# Density = 2.389021 g / cm^3
# Si number density = 23.944710 Si / 1000 Ang^3
#
#
#
# Elastic Constant Matrix: (Units=GPa)
#
#
# Indices 1 2 3 4 5 6 
#
# 1 83.1787 0.9744 39.3083 0.0000 18.1453 0.0000
# 2 0.9744 122.7814 64.1447 0.0000 13.2524 0.0000
# 3 39.3083 64.1447 131.7515 0.0000 21.3601 0.0000
# 4 0.0000 0.0000 0.0000 5.4817 0.0000 12.6668
# 5 18.1453 13.2524 21.3601 0.0000 22.4967 0.0000
# 6 0.0000 0.0000 0.0000 12.6668 0.0000 37.7169
#
#
#
# Elastic Compliance Matrix: (Units=1/GPa)
#
#
# Indices 1 2 3 4 5 6 
#
# 1 0.016719 0.003656 -0.005003 0.000000 -0.010889 0.000000
# 2 0.003656 0.011774 -0.006170 0.000000 -0.004026 0.000000
# 3 -0.005003 -0.006170 0.012816 0.000000 -0.004498 0.000000
# 4 0.000000 0.000000 0.000000 0.814535 0.000000 -0.273553
# 5 -0.010889 -0.004026 -0.004498 0.000000 0.059877 0.000000
# 6 0.000000 0.000000 0.000000 -0.273553 0.000000 0.118383
#
#
# Mechanical properties :
#
#
# Convention : Reuss Voigt Hill
#
# Bulk Modulus (GPa) = 38.05889 60.72961 49.39425
# Shear Modulus (GPa) = 4.72636 28.69133 16.70885
#
# Velocity S-wave (km/s) = 1.40647 3.46531 2.64447
# Velocity P-wave (km/s) = 4.30889 6.43651 5.47700
#
# Compressibility (1/GPa) = 0.02627507
#
# Stress axis : x y z
#
# Youngs Moduli (GPa) = 59.81160 84.93553 78.02709
#
# Poissons Ratio (x) = -0.31055 0.39037
# Poissons Ratio (y) = -0.21869 0.48145
# Poissons Ratio (z) = 0.29923 0.52407
#
# Static dielectric constant tensor:
#      x y z
#    x 4.266540 0.000000 0.070350 
#    y 0.000000 4.223710 0.000000 
#    z 0.070350 0.000000 4.465060 
# 
# 
# High freq. dielectric constant tensor:
#      x y z
#    x 1.955080 0.000000 0.009640 
#    y 0.000000 1.956710 0.000000 
#    z 0.009640 0.000000 1.955620 
# 
# From -- ./inp_files/3610.got.cif
#   From: 2010.06.25/outbox.cif.g09.slc.cpg/sg9_2_cif.got.tgz:3610.got - 2010.06.27 21:40:51.
