data_PCOD8056216
_publ_section_title
;
Structure prediction by ZEFSAII (Michael W. Deem and Ramdas Pophale) SiO2 
 PCOD8056216
Probable space group: C C
;
_chemical_formula_sum "Si O2"
_cell_formula_units_Z 32
_cell_length_a 9.997747
_cell_length_b 17.220402
_cell_length_c 9.226083
_cell_angle_alpha 90.000000
_cell_angle_beta 61.177814
_cell_angle_gamma 90.000000
_cell_volume 1391.638434
_symmetry_space_group_name_H-M "C C"
_symmetry_group_IT_number 9
_symmetry_cell_setting 'monoclinic'
loop_
_space_group_symop_operation_xyz
x,y,z
x,-y,1/2+z
1/2+x,1/2+y,z
1/2+x,1/2-y,1/2+z
loop_
_atom_site_type_symbol
_atom_site_label
_atom_site_fract_x
_atom_site_fract_y
_atom_site_fract_z
Si Si1 0.111400 0.325501 0.132410
Si Si2 0.951258 0.808723 0.890082
Si Si3 0.001034 0.382402 0.893570
Si Si4 0.481814 0.454014 0.673648
Si Si5 0.049550 0.912650 0.341422
Si Si6 0.682549 0.324458 0.020788
Si Si7 0.217451 0.649681 0.026090
Si Si8 0.660089 0.037737 0.807926
O O1 0.130438 0.414199 0.176806
O O2 0.021780 0.270047 0.289633
O O3 0.279654 0.288333 0.028021
O O4 0.016752 0.332157 0.032686
O O5 0.940126 0.874473 0.774466
O O6 0.046271 0.842380 0.978590
O O7 0.123171 0.346740 0.721508
O O8 0.031665 0.473253 0.899544
O O9 0.832080 0.376035 0.914266
O O10 0.600382 0.434716 0.478831
O O11 0.573355 0.511652 0.730452
O O12 0.327128 0.499030 0.707595
O O13 0.877508 0.890134 0.469358
O O14 0.129372 0.841185 0.215517
O O15 0.736612 0.237199 0.963774
O O16 0.133123 0.598545 0.950548
#
# Coordination Sequence:
#
# PCOD8056216 Si02
#       8
#     4   4   4   4   4   4   4   4
#     4  12  27  49  76 110 149 195 252 307 372 445
#     4  12  27  49  75 111 150 198 250 309 374 445
#     4  12  27  44  76 113 145 191 254 306 369 443
#     4  11  23  45  80 107 137 199 253 297 359 453
#     4  11  23  45  75 104 144 193 249 298 364 443
#     4  12  28  46  69 112 157 191 242 313 383 431
#     4  11  23  44  77 100 144 202 243 290 372 455
#     4  11  22  50  78 105 142 201 253 290 365 457
#
# _framework density 22.994478999999998
#
# number of rings (size 3 to 8) (size 9 to 14) (size 15 to 20)
#    0.000    0.500    3.750    4.500    7.000    0.000 
#   11.250    0.000    0.000    0.000    0.000    0.000 
#    0.000    0.000    0.000    0.000    0.000    0.000 
#
# Total GULP energy -198388.279894 kJ/mol
# GULP energy per Si atom -12399.267493 kJ/mol
# Density = 2.294214 g / cm^3
# Si number density = 22.994479 Si / 1000 Ang^3
#
#
#
# Elastic Constant Matrix: (Units=GPa)
#
#
# Indices 1 2 3 4 5 6 
#
# 1 70.5953 14.0950 34.2205 0.0000 -2.5251 0.0000
# 2 14.0950 105.1298 45.8231 0.0000 1.0763 0.0000
# 3 34.2205 45.8231 121.7471 0.0000 -0.0094 0.0000
# 4 0.0000 0.0000 0.0000 50.6995 0.0000 0.9717
# 5 -2.5251 1.0763 -0.0094 0.0000 30.6301 0.0000
# 6 0.0000 0.0000 0.0000 0.9717 0.0000 1.9083
#
#
#
# Elastic Compliance Matrix: (Units=1/GPa)
#
#
# Indices 1 2 3 4 5 6 
#
# 1 0.016461 -0.000244 -0.004535 0.000000 0.001364 0.000000
# 2 -0.000244 0.011387 -0.004217 0.000000 -0.000422 0.000000
# 3 -0.004535 -0.004217 0.011076 0.000000 -0.000222 0.000000
# 4 0.000000 0.000000 0.000000 0.019918 0.000000 -0.010142
# 5 0.001364 -0.000422 -0.000222 0.000000 0.032775 0.000000
# 6 0.000000 0.000000 0.000000 -0.010142 0.000000 0.529189
#
#
# Mechanical properties :
#
#
# Convention : Reuss Voigt Hill
#
# Bulk Modulus (GPa) = 47.77568 53.97217 50.87392
# Shear Modulus (GPa) = 7.74262 30.20315 18.97288
#
# Velocity S-wave (km/s) = 1.83697 3.62815 2.87558
# Velocity P-wave (km/s) = 5.03204 6.40890 5.76175
#
# Compressibility (1/GPa) = 0.02093115
#
# Stress axis : x y z
#
# Youngs Moduli (GPa) = 60.74961 87.81683 90.28808
#
# Poissons Ratio (x) = 0.02146 0.40943
# Poissons Ratio (y) = 0.01485 0.38077
# Poissons Ratio (z) = 0.27548 0.37035
#
# Static dielectric constant tensor:
#      x y z
#    x 4.111620 0.000000 0.193650 
#    y 0.000000 4.343420 0.000000 
#    z 0.193650 0.000000 4.352830 
# 
# 
# High freq. dielectric constant tensor:
#      x y z
#    x 1.888510 0.000000 0.012020 
#    y 0.000000 1.921170 0.000000 
#    z 0.012020 0.000000 1.919830 
# 
# From -- ./inp_files/8028.got.cif
#   From: 2010.06.25/outbox.cif.g09.slc.cpg/sg9_5_cif.got.tgz:8028.got - 2010.06.27 21:40:51.
