data_PCOD8056394
_publ_section_title
;
Structure prediction by ZEFSAII (Michael W. Deem and Ramdas Pophale) SiO2 
 PCOD8056394
Probable space group: C C
;
_chemical_formula_sum "Si O2"
_cell_formula_units_Z 32
_cell_length_a 9.429337
_cell_length_b 9.381639
_cell_length_c 17.948492
_cell_angle_alpha 90.000000
_cell_angle_beta 75.865689
_cell_angle_gamma 90.000000
_cell_volume 1539.702662
_symmetry_space_group_name_H-M "C C"
_symmetry_group_IT_number 9
_symmetry_cell_setting 'monoclinic'
loop_
_space_group_symop_operation_xyz
x,y,z
x,-y,1/2+z
1/2+x,1/2+y,z
1/2+x,1/2-y,1/2+z
loop_
_atom_site_type_symbol
_atom_site_label
_atom_site_fract_x
_atom_site_fract_y
_atom_site_fract_z
Si Si1 0.725170 0.784303 0.857340
Si Si2 0.961647 0.349200 0.603890
Si Si3 0.489285 0.457180 0.763559
Si Si4 0.479015 0.783121 0.769372
Si Si5 0.677629 0.926157 0.015172
Si Si6 0.003756 0.066338 0.511356
Si Si7 0.136755 0.852759 0.603206
Si Si8 0.216742 0.957904 0.856899
O O1 0.629048 0.797036 0.795244
O O2 0.757655 0.620003 0.873777
O O3 0.876373 0.863225 0.823815
O O4 0.647421 0.858364 0.937966
O O5 0.997204 0.359857 0.687162
O O6 0.797602 0.403819 0.608569
O O7 0.071543 0.441847 0.540679
O O8 0.986667 0.188146 0.574832
O O9 0.431042 0.619094 0.763061
O O10 0.514865 0.384236 0.680754
O O11 0.643923 0.457594 0.785197
O O12 0.359430 0.860679 0.835536
O O13 0.640854 0.814405 0.085285
O O14 0.845346 0.978626 0.000047
O O15 0.105097 0.114103 0.429571
O O16 0.086508 0.932527 0.535643
#
# Coordination Sequence:
#
# PCOD8056394 Si02
#       8
#     4   4   4   4   4   4   4   4
#     4  11  26  42  65  97 128 170 217 264 327 383
#     4  11  26  43  65 100 130 169 221 263 323 388
#     4  11  24  45  65  93 134 170 218 268 318 385
#     4  11  26  42  65  97 128 170 217 264 327 383
#     4  11  26  43  65 100 130 169 221 263 323 388
#     4  11  24  44  67  92 133 173 211 267 324 382
#     4  11  24  44  67  92 133 173 211 267 324 382
#     4  11  24  45  65  93 134 170 218 268 318 385
#
# _framework density 20.783234
#
# number of rings (size 3 to 8) (size 9 to 14) (size 15 to 20)
#    0.000    1.000    5.000    0.000    7.000    2.000 
#    0.000    0.000    0.000    0.000    0.000    0.000 
#    0.000    0.000    0.000    0.000    0.000    0.000 
#
# Total GULP energy -198469.979036 kJ/mol
# GULP energy per Si atom -12404.373690 kJ/mol
# Density = 2.073593 g / cm^3
# Si number density = 20.783234 Si / 1000 Ang^3
#
#
#
# Elastic Constant Matrix: (Units=GPa)
#
#
# Indices 1 2 3 4 5 6 
#
# 1 72.5814 39.8218 18.7992 0.0000 -2.0446 0.0000
# 2 39.8218 71.3869 19.6721 0.0000 -8.7046 0.0000
# 3 18.7992 19.6721 95.4515 0.0000 -4.7523 0.0000
# 4 0.0000 0.0000 0.0000 38.4330 0.0000 -6.4023
# 5 -2.0446 -8.7046 -4.7523 0.0000 39.3659 0.0000
# 6 0.0000 0.0000 0.0000 -6.4023 0.0000 30.8599
#
#
#
# Elastic Compliance Matrix: (Units=1/GPa)
#
#
# Indices 1 2 3 4 5 6 
#
# 1 0.020223 -0.010979 -0.001799 0.000000 -0.001595 0.000000
# 2 -0.010979 0.021157 -0.002005 0.000000 0.003866 0.000000
# 3 -0.001799 -0.002005 0.011285 0.000000 0.000825 0.000000
# 4 0.000000 0.000000 0.000000 0.026951 0.000000 0.005591
# 5 -0.001595 0.003866 0.000825 0.000000 0.026274 0.000000
# 6 0.000000 0.000000 0.000000 0.005591 0.000000 0.033565
#
#
# Mechanical properties :
#
#
# Convention : Reuss Voigt Hill
#
# Bulk Modulus (GPa) = 43.29710 44.00067 43.64889
# Shear Modulus (GPa) = 28.29309 32.47356 30.38333
#
# Velocity S-wave (km/s) = 3.69364 3.95712 3.82765
# Velocity P-wave (km/s) = 6.25049 6.48811 6.37041
#
# Compressibility (1/GPa) = 0.02309623
#
# Stress axis : x y z
#
# Youngs Moduli (GPa) = 49.44960 47.26608 88.61053
#
# Poissons Ratio (x) = 0.51895 0.15945
# Poissons Ratio (y) = 0.54292 0.17770
# Poissons Ratio (z) = 0.08898 0.09479
#
# Static dielectric constant tensor:
#      x y z
#    x 3.654910 0.000000 0.056450 
#    y 0.000000 3.672210 0.000000 
#    z 0.056450 0.000000 3.763320 
# 
# 
# High freq. dielectric constant tensor:
#      x y z
#    x 1.811010 0.000000 0.001320 
#    y 0.000000 1.809590 0.000000 
#    z 0.001320 0.000000 1.830140 
# 
# From -- ./inp_files/28999.got.cif
#   From: 2010.06.25/outbox.cif.g09.slc.cpg/sg9_15_cif.got.tgz:28999.got - 2010.06.27 21:40:51.
