data_PCOD8056483
_publ_section_title
;
Structure prediction by ZEFSAII (Michael W. Deem and Ramdas Pophale) SiO2 
 PCOD8056483
Probable space group: C C
;
_chemical_formula_sum "Si O2"
_cell_formula_units_Z 32
_cell_length_a 13.062357
_cell_length_b 18.539506
_cell_length_c 8.959737
_cell_angle_alpha 90.000000
_cell_angle_beta 40.132242
_cell_angle_gamma 90.000000
_cell_volume 1398.537955
_symmetry_space_group_name_H-M "C C"
_symmetry_group_IT_number 9
_symmetry_cell_setting 'monoclinic'
loop_
_space_group_symop_operation_xyz
x,y,z
x,-y,1/2+z
1/2+x,1/2+y,z
1/2+x,1/2-y,1/2+z
loop_
_atom_site_type_symbol
_atom_site_label
_atom_site_fract_x
_atom_site_fract_y
_atom_site_fract_z
Si Si1 0.892360 0.162853 0.920770
Si Si2 0.797460 0.839255 0.086036
Si Si3 0.662814 0.309945 0.716813
Si Si4 0.733014 0.438385 0.419561
Si Si5 0.744925 0.694746 0.461307
Si Si6 0.216737 0.439190 0.425148
Si Si7 0.386155 0.059549 0.439064
Si Si8 0.382811 0.578197 0.210481
O O1 0.788554 0.224334 0.958448
O O2 0.857254 0.087527 0.877637
O O3 0.074089 0.182015 0.717923
O O4 0.853272 0.147319 0.137522
O O5 0.815684 0.900899 0.944847
O O6 0.973506 0.817688 0.949427
O O7 0.704565 0.771277 0.119202
O O8 0.688623 0.874923 0.336614
O O9 0.736480 0.365025 0.513859
O O10 0.749305 0.319364 0.779580
O O11 0.761051 0.505151 0.500436
O O12 0.567271 0.444451 0.516964
O O13 0.867914 0.440782 0.139616
O O14 0.865231 0.640740 0.405720
O O15 0.283081 0.509317 0.265650
O O16 0.063629 0.460914 0.693102
#
# Coordination Sequence:
#
# PCOD8056483 Si02
#       8
#     4   4   4   4   4   4   4   4
#     4  12  25  45  73 107 143 195 241 297 366 433
#     4  11  26  44  73 103 139 190 235 296 360 423
#     4  11  24  48  71 103 139 189 239 294 359 431
#     4  11  27  49  74 108 142 192 241 304 370 432
#     4  12  23  46  73 103 148 187 243 294 362 440
#     4  12  26  47  71 106 145 191 246 295 365 432
#     4  12  28  45  74 109 142 189 241 304 370 431
#     4  11  27  46  73 105 148 189 240 300 362 442
#
# _framework density 22.881038
#
# number of rings (size 3 to 8) (size 9 to 14) (size 15 to 20)
#    0.000    0.500    3.750    3.000   10.500    1.000 
#    0.000    0.000    0.000    0.000    0.000    0.000 
#    0.000    0.000    0.000    0.000    0.000    0.000 
#
# Total GULP energy -198408.769985 kJ/mol
# GULP energy per Si atom -12400.548124 kJ/mol
# Density = 2.282896 g / cm^3
# Si number density = 22.881038 Si / 1000 Ang^3
#
#
#
# Elastic Constant Matrix: (Units=GPa)
#
#
# Indices 1 2 3 4 5 6 
#
# 1 74.5730 40.8449 34.4690 -0.0001 13.9768 0.0000
# 2 40.8449 123.1127 50.4054 0.0000 5.2194 0.0000
# 3 34.4690 50.4054 137.8093 0.0000 12.3588 0.0002
# 4 -0.0001 0.0000 0.0000 43.8347 0.0000 16.9771
# 5 13.9768 5.2194 12.3588 0.0000 28.3277 -0.0001
# 6 0.0000 0.0000 0.0002 16.9771 -0.0001 76.1219
#
#
#
# Elastic Compliance Matrix: (Units=1/GPa)
#
#
# Indices 1 2 3 4 5 6 
#
# 1 0.018474 -0.004935 -0.002164 0.000000 -0.007261 0.000000
# 2 -0.004935 0.010873 -0.002895 0.000000 0.001694 0.000000
# 3 -0.002164 -0.002895 0.009068 0.000000 -0.002355 0.000000
# 4 0.000000 0.000000 0.000000 0.024970 0.000000 -0.005569
# 5 -0.007261 0.001694 -0.002355 0.000000 0.039599 0.000000
# 6 0.000000 0.000000 0.000000 -0.005569 0.000000 0.014379
#
#
# Mechanical properties :
#
#
# Convention : Reuss Voigt Hill
#
# Bulk Modulus (GPa) = 54.26900 65.21484 59.74192
# Shear Modulus (GPa) = 34.84479 43.64189 39.24334
#
# Velocity S-wave (km/s) = 3.90663 4.37205 4.14587
# Velocity P-wave (km/s) = 6.64217 7.35187 7.00601
#
# Compressibility (1/GPa) = 0.01842672
#
# Stress axis : x y z
#
# Youngs Moduli (GPa) = 54.12968 91.96896 110.28151
#
# Poissons Ratio (x) = 0.45388 0.23870
# Poissons Ratio (y) = 0.26714 0.31922
# Poissons Ratio (z) = 0.11716 0.26621
#
# Static dielectric constant tensor:
#      x y z
#    x 4.050500 0.000000 0.053920 
#    y 0.000000 3.156230 0.000000 
#    z 0.053920 0.000000 4.121790 
# 
# 
# High freq. dielectric constant tensor:
#      x y z
#    x 1.899420 0.000000 0.007980 
#    y 0.000000 1.913850 0.000000 
#    z 0.007980 0.000000 1.909630 
# 
# From -- ./inp_files/9926.got.cif
#   From: 2010.06.25/outbox.cif.g09.slc.cpg/sg9_5_cif.got.tgz:9926.got - 2010.06.27 21:40:51.
