data_PCOD8056581
_publ_section_title
;
Structure prediction by ZEFSAII (Michael W. Deem and Ramdas Pophale) SiO2 
 PCOD8056581
Probable space group: C C
;
_chemical_formula_sum "Si O2"
_cell_formula_units_Z 20
_cell_length_a 8.317366
_cell_length_b 23.356788
_cell_length_c 5.079225
_cell_angle_alpha 90.000000
_cell_angle_beta 120.944446
_cell_angle_gamma 90.000000
_cell_volume 846.281249
_symmetry_space_group_name_H-M "C C"
_symmetry_group_IT_number 9
_symmetry_cell_setting 'monoclinic'
loop_
_space_group_symop_operation_xyz
x,y,z
x,-y,1/2+z
1/2+x,1/2+y,z
1/2+x,1/2-y,1/2+z
loop_
_atom_site_type_symbol
_atom_site_label
_atom_site_fract_x
_atom_site_fract_y
_atom_site_fract_z
Si Si1 0.430410 0.133918 0.036060
Si Si2 0.222761 0.537655 0.197834
Si Si3 0.225645 0.276041 0.740888
Si Si4 0.520659 0.633732 0.445467
Si Si5 0.225481 0.800669 0.740870
O O1 0.538681 0.074391 0.109044
O O2 0.551707 0.184438 0.001472
O O3 0.398704 0.156502 0.309631
O O4 0.225315 0.126395 0.741160
O O5 0.220642 0.485529 0.399613
O O6 0.412874 0.574099 0.377789
O O7 0.399603 0.315580 0.979166
O O8 0.283446 0.236848 0.542101
O O9 0.167854 0.236981 0.940146
O O10 0.552578 0.656438 0.172137
#
# Coordination Sequence:
#
# PCOD8056581 Si02
#       5
#     4   4   4   4   4
#     4  11  27  44  73 104 138 181 234 275 337 416
#     4  11  30  53  72  96 134 177 234 305 354 386
#     4  11  26  42  66 106 154 184 212 267 338 408
#     4  11  27  44  73 104 138 181 234 275 337 416
#     4  12  24  43  68 108 146 185 220 270 330 418
#
# _framework density 23.632804
#
# number of rings (size 3 to 8) (size 9 to 14) (size 15 to 20)
#    0.000    0.800    2.000    2.400   11.200    4.800 
#    0.000    0.000    0.000    0.000    0.000    0.000 
#    0.000    0.000    0.000    0.000    0.000    0.000 
#
# Total GULP energy -123908.858138 kJ/mol
# GULP energy per Si atom -12390.885814 kJ/mol
# Density = 2.357901 g / cm^3
# Si number density = 23.632804 Si / 1000 Ang^3
#
#
#
# Elastic Constant Matrix: (Units=GPa)
#
#
# Indices 1 2 3 4 5 6 
#
# 1 149.5521 69.2349 54.2324 0.0000 21.8753 0.0000
# 2 69.2349 136.9036 46.1519 0.0000 9.0819 0.0000
# 3 54.2324 46.1519 107.0227 0.0000 11.1093 0.0000
# 4 0.0000 0.0000 0.0000 5.9005 0.0000 -4.4954
# 5 21.8753 9.0819 11.1093 0.0000 52.9015 0.0000
# 6 0.0000 0.0000 0.0000 -4.4954 0.0000 48.6639
#
#
#
# Elastic Compliance Matrix: (Units=1/GPa)
#
#
# Indices 1 2 3 4 5 6 
#
# 1 0.010001 -0.003815 -0.003129 0.000000 -0.002823 0.000000
# 2 -0.003815 0.010029 -0.002429 0.000000 0.000366 0.000000
# 3 -0.003129 -0.002429 0.012063 0.000000 -0.000822 0.000000
# 4 0.000000 0.000000 0.000000 0.182308 0.000000 0.016841
# 5 -0.002823 0.000366 -0.000822 0.000000 0.020180 0.000000
# 6 0.000000 0.000000 0.000000 0.016841 0.000000 0.022105
#
#
# Mechanical properties :
#
#
# Convention : Reuss Voigt Hill
#
# Bulk Modulus (GPa) = 74.94129 81.41299 78.17714
# Shear Modulus (GPa) = 17.86478 36.41712 27.14095
#
# Velocity S-wave (km/s) = 2.75240 3.92976 3.39255
# Velocity P-wave (km/s) = 6.47152 7.42392 6.96402
#
# Compressibility (1/GPa) = 0.01334378
#
# Stress axis : x y z
#
# Youngs Moduli (GPa) = 99.99302 99.71534 82.90150
#
# Poissons Ratio (x) = 0.38045 0.25943
# Poissons Ratio (y) = 0.38151 0.20139
# Poissons Ratio (z) = 0.31291 0.24224
#
# Static dielectric constant tensor:
#      x y z
#    x 5.058630 0.000000 -0.057060 
#    y 0.000000 4.339320 0.000000 
#    z -0.057060 0.000000 4.216700 
# 
# 
# High freq. dielectric constant tensor:
#      x y z
#    x 1.966390 0.000000 0.002630 
#    y 0.000000 1.931410 0.000000 
#    z 0.002630 0.000000 1.925510 
# 
# From -- ./inp_files/794.got.cif
#   From: 2010.06.25/outbox.cif.g09.slc.cpg/sg9_1_cif.got.tgz:794.got - 2010.06.27 21:40:51.
