data_PCOD8056848
_publ_section_title
;
Structure prediction by ZEFSAII (Michael W. Deem and Ramdas Pophale) SiO2 
 PCOD8056848
Probable space group: P 2/M
;
_chemical_formula_sum "Si O2"
_cell_formula_units_Z 32
_cell_length_a 13.833593
_cell_length_b 9.055667
_cell_length_c 17.107217
_cell_angle_alpha 90.000000
_cell_angle_beta 78.611322
_cell_angle_gamma 90.000000
_cell_volume 2100.865891
_symmetry_space_group_name_H-M "P 2/M"
_symmetry_group_IT_number 10
_symmetry_cell_setting 'monoclinic'
loop_
_space_group_symop_operation_xyz
x,y,z
-x,y,-z
-x,-y,-z
x,-y,z
loop_
_atom_site_type_symbol
_atom_site_label
_atom_site_fract_x
_atom_site_fract_y
_atom_site_fract_z
Si Si1 0.941210 0.327315 0.334278
Si Si2 0.253963 0.165562 0.176997
Si Si3 0.612588 0.176094 0.979613
Si Si4 0.100718 0.668996 0.831613
Si Si5 0.116561 0.336141 0.494051
Si Si6 0.144744 0.175686 0.339066
Si Si7 0.086950 0.832898 0.082105
Si Si8 0.768475 0.330009 0.051745
O O1 0.968687 0.500000 0.337208
O O2 0.885427 0.290817 0.262103
O O3 0.867649 0.284372 0.418187
O O4 0.042012 0.237401 0.323638
O O5 0.232863 0.233461 0.266683
O O6 0.148547 0.171604 0.151801
O O7 0.291632 0.000000 0.182939
O O8 0.337118 0.241775 0.108312
O O9 0.669445 0.240516 0.045866
O O10 0.623632 0.000000 0.981441
O O11 0.500000 0.228251 0.000000
O O12 0.063714 0.500000 0.845794
O O13 0.205070 0.689329 0.860313
O O14 0.021833 0.775590 0.883859
O O15 0.159477 0.500000 0.473644
O O16 0.169256 0.228869 0.423227
O O17 0.000000 0.333854 0.500000
O O18 0.138716 0.000000 0.338484
O O19 0.081170 0.000000 0.050627
O O20 0.137407 0.729400 0.010135
O O21 0.750887 0.500000 0.032714
#
# Coordination Sequence:
#
# PCOD8056848 Si02
#       8
#     4   4   4   4   4   4   4   4
#     4   9  17  28  39  52  77 113 147 172 200 239
#     4   8  15  26  40  61  83 104 134 170 206 244
#     4   9  18  34  52  65  81 107 138 172 212 257
#     4  10  19  29  41  58  83 114 145 175 207 245
#     4   8  15  26  37  51  74 107 143 174 202 238
#     4  10  16  24  38  57  81 106 137 174 207 240
#     4  10  18  29  42  58  83 114 146 176 206 241
#     4  10  20  31  43  62  85 108 138 174 212 252
#
# _framework density 15.231814999999999
#
# number of rings (size 3 to 8) (size 9 to 14) (size 15 to 20)
#    0.000    2.750    1.250    3.000    0.000    5.000 
#    0.000    0.625    0.000    0.000    0.000    0.000 
#    0.000    1.000    0.000   12.500    0.000    0.000 
#
# Total GULP energy -396455.387606 kJ/mol
# GULP energy per Si atom -12389.230863 kJ/mol
# Density = 1.519715 g / cm^3
# Si number density = 15.231815 Si / 1000 Ang^3
#
#
#
# Elastic Constant Matrix: (Units=GPa)
#
#
# Indices 1 2 3 4 5 6 
#
# 1 70.0407 24.9788 54.5764 0.0000 0.1550 0.0000
# 2 24.9788 48.9616 33.9356 0.0000 0.8277 0.0000
# 3 54.5764 33.9356 115.8533 0.0000 8.5001 0.0000
# 4 0.0000 0.0000 0.0000 19.8126 0.0000 1.7042
# 5 0.1550 0.8277 8.5001 0.0000 15.9720 0.0000
# 6 0.0000 0.0000 0.0000 1.7042 0.0000 12.6495
#
#
#
# Elastic Compliance Matrix: (Units=1/GPa)
#
#
# Indices 1 2 3 4 5 6 
#
# 1 0.024113 -0.005324 -0.010201 0.000000 0.005471 0.000000
# 2 -0.005324 0.026921 -0.005494 0.000000 0.001580 0.000000
# 3 -0.010201 -0.005494 0.015628 0.000000 -0.007933 0.000000
# 4 0.000000 0.000000 0.000000 0.051065 0.000000 -0.006880
# 5 0.005471 0.001580 -0.007933 0.000000 0.066697 0.000000
# 6 0.000000 0.000000 0.000000 -0.006880 0.000000 0.079981
#
#
# Mechanical properties :
#
#
# Convention : Reuss Voigt Hill
#
# Bulk Modulus (GPa) = 40.60853 51.31524 45.96188
# Shear Modulus (GPa) = 15.89066 17.77781 16.83424
#
# Velocity S-wave (km/s) = 3.23345 3.42006 3.32806
# Velocity P-wave (km/s) = 6.37640 7.02556 6.70883
#
# Compressibility (1/GPa) = 0.02462537
#
# Stress axis : x y z
#
# Youngs Moduli (GPa) = 41.47212 37.14540 63.98602
#
# Poissons Ratio (x) = 0.19775 0.65272
# Poissons Ratio (y) = 0.22078 0.35153
# Poissons Ratio (z) = 0.42306 0.20407
#
# Static dielectric constant tensor:
#      x y z
#    x 2.580920 0.000000 0.158930 
#    y 0.000000 2.904320 0.000000 
#    z 0.158930 0.000000 3.398760 
# 
# 
# High freq. dielectric constant tensor:
#      x y z
#    x 1.524610 0.000000 0.014250 
#    y 0.000000 1.580850 0.000000 
#    z 0.014250 0.000000 1.591730 
# 
# From -- ./inp_files/77390.got.cif
#   From: 2010.06.25/outbox.cif.g09.slc.cpg/sg10_39_cif.got.tgz:77390.got - 2010.06.27 22:07:45.
