data_PCOD8056659
_publ_section_title
;
Structure prediction by ZEFSAII (Michael W. Deem and Ramdas Pophale) SiO2 
 PCOD8056659
Probable space group: C C
;
_chemical_formula_sum "Si O2"
_cell_formula_units_Z 32
_cell_length_a 17.954873
_cell_length_b 14.652951
_cell_length_c 11.450006
_cell_angle_alpha 90.000000
_cell_angle_beta 150.533880
_cell_angle_gamma 90.000000
_cell_volume 1481.827863
_symmetry_space_group_name_H-M "C C"
_symmetry_group_IT_number 9
_symmetry_cell_setting 'monoclinic'
loop_
_space_group_symop_operation_xyz
x,y,z
x,-y,1/2+z
1/2+x,1/2+y,z
1/2+x,1/2-y,1/2+z
loop_
_atom_site_type_symbol
_atom_site_label
_atom_site_fract_x
_atom_site_fract_y
_atom_site_fract_z
Si Si1 0.387740 0.602604 0.220460
Si Si2 0.203695 0.101417 0.527189
Si Si3 0.883984 0.736256 0.339058
Si Si4 0.793006 0.097902 0.554255
Si Si5 0.453589 0.326929 0.053444
Si Si6 0.223504 0.746844 0.856128
Si Si7 0.758208 0.411327 0.503760
Si Si8 0.448181 0.116975 0.052453
O O1 0.557575 0.622690 0.406699
O O2 0.351704 0.496389 0.189073
O O3 0.364047 0.649708 0.313500
O O4 0.266015 0.648492 0.967915
O O5 0.227466 0.177045 0.461152
O O6 0.177659 0.004054 0.432361
O O7 0.357485 0.093403 0.811543
O O8 0.807310 0.823203 0.171174
O O9 0.845203 0.730855 0.422532
O O10 0.834243 0.640762 0.215422
O O11 0.063768 0.743780 0.572697
O O12 0.896119 0.114386 0.583110
O O13 0.621677 0.088213 0.275020
O O14 0.630200 0.346787 0.272773
O O15 0.429771 0.223102 0.055863
O O16 0.880323 0.435865 0.571182
#
# Coordination Sequence:
#
# PCOD8056659 Si02
#       8
#     4   4   4   4   4   4   4   4
#     4  12  28  48  73 105 145 189 237 296 357 422
#     4  12  28  48  73 105 143 191 239 294 356 422
#     4  12  26  46  72 107 149 184 232 290 356 428
#     4  12  28  45  74 111 143 186 238 297 356 418
#     4  12  23  48  76 100 147 191 236 292 357 420
#     4  12  28  46  73 102 149 190 230 289 364 423
#     4  12  26  45  74 104 143 193 237 286 355 423
#     4  12  25  48  73 106 141 186 245 294 345 420
#
# _framework density 21.594950000000001
#
# number of rings (size 3 to 8) (size 9 to 14) (size 15 to 20)
#    0.000    0.000    7.500    1.500    7.000    2.000 
#    0.000    0.000    0.000    0.000    0.000    0.000 
#    0.000    0.000    0.000    0.000    0.000    0.000 
#
# Total GULP energy -198523.176857 kJ/mol
# GULP energy per Si atom -12407.698554 kJ/mol
# Density = 2.154580 g / cm^3
# Si number density = 21.594950 Si / 1000 Ang^3
#
#
#
# Elastic Constant Matrix: (Units=GPa)
#
#
# Indices 1 2 3 4 5 6 
#
# 1 98.0966 29.1272 12.5067 0.0000 -6.8828 0.0000
# 2 29.1272 71.7193 15.3486 0.0000 -1.0663 0.0000
# 3 12.5067 15.3486 107.1572 0.0000 1.8903 0.0000
# 4 0.0000 0.0000 0.0000 29.5681 0.0000 0.9634
# 5 -6.8828 -1.0663 1.8903 0.0000 32.5556 0.0000
# 6 0.0000 0.0000 0.0000 0.9634 0.0000 25.7386
#
#
#
# Elastic Compliance Matrix: (Units=1/GPa)
#
#
# Indices 1 2 3 4 5 6 
#
# 1 0.011826 -0.004604 -0.000763 0.000000 0.002394 0.000000
# 2 -0.004604 0.016188 -0.001775 0.000000 -0.000340 0.000000
# 3 -0.000763 -0.001775 0.009689 0.000000 -0.000782 0.000000
# 4 0.000000 0.000000 0.000000 0.033862 0.000000 -0.001267
# 5 0.002394 -0.000340 -0.000782 0.000000 0.031257 0.000000
# 6 0.000000 0.000000 0.000000 -0.001267 0.000000 0.038900
#
#
# Mechanical properties :
#
#
# Convention : Reuss Voigt Hill
#
# Bulk Modulus (GPa) = 42.70112 43.43756 43.06934
# Shear Modulus (GPa) = 30.52264 32.23851 31.38058
#
# Velocity S-wave (km/s) = 3.76362 3.86796 3.81615
# Velocity P-wave (km/s) = 6.22118 6.33297 6.27732
#
# Compressibility (1/GPa) = 0.02341859
#
# Stress axis : x y z
#
# Youngs Moduli (GPa) = 84.55701 61.77421 103.20744
#
# Poissons Ratio (x) = 0.28442 0.07875
# Poissons Ratio (y) = 0.38931 0.18323
# Poissons Ratio (z) = 0.06452 0.10967
#
# Static dielectric constant tensor:
#      x y z
#    x 3.828120 0.000000 0.014860 
#    y 0.000000 3.844790 0.000000 
#    z 0.014860 0.000000 3.936470 
# 
# 
# High freq. dielectric constant tensor:
#      x y z
#    x 1.858820 0.000000 -0.000590 
#    y 0.000000 1.849820 0.000000 
#    z -0.000590 0.000000 1.857780 
# 
# From -- ./inp_files/7356.got.cif
#   From: 2010.06.25/outbox.cif.g09.slc.cpg/sg9_4_cif.got.tgz:7356.got - 2010.06.27 21:40:51.
