data_PCOD8056171
_publ_section_title
;
Structure prediction by ZEFSAII (Michael W. Deem and Ramdas Pophale) SiO2 
 PCOD8056171
Probable space group: C C
;
_chemical_formula_sum "Si O2"
_cell_formula_units_Z 28
_cell_length_a 11.666905
_cell_length_b 8.991448
_cell_length_c 14.209981
_cell_angle_alpha 90.000000
_cell_angle_beta 122.536380
_cell_angle_gamma 90.000000
_cell_volume 1256.701660
_symmetry_space_group_name_H-M "C C"
_symmetry_group_IT_number 9
_symmetry_cell_setting 'monoclinic'
loop_
_space_group_symop_operation_xyz
x,y,z
x,-y,1/2+z
1/2+x,1/2+y,z
1/2+x,1/2-y,1/2+z
loop_
_atom_site_type_symbol
_atom_site_label
_atom_site_fract_x
_atom_site_fract_y
_atom_site_fract_z
Si Si1 0.262470 0.964550 0.173360
Si Si2 0.587181 0.174591 0.080354
Si Si3 0.559926 0.052495 0.728469
Si Si4 0.752118 0.973233 0.490912
Si Si5 0.677695 0.709118 0.996810
Si Si6 0.960404 0.259926 0.034070
Si Si7 0.311697 0.960490 0.408766
O O1 0.143794 0.842376 0.104521
O O2 0.409135 0.917237 0.201285
O O3 0.268652 0.996956 0.285829
O O4 0.227158 0.120507 0.110219
O O5 0.583945 0.105064 0.184929
O O6 0.687127 0.081778 0.058522
O O7 0.435764 0.158854 0.970052
O O8 0.662841 0.064944 0.859825
O O9 0.576825 0.186548 0.659957
O O10 0.898411 0.897358 0.538683
O O11 0.772143 0.148970 0.514429
O O12 0.681198 0.605336 0.906315
O O13 0.523845 0.755233 0.956097
O O14 0.846402 0.388206 0.980065
#
# Coordination Sequence:
#
# PCOD8056171 Si02
#       7
#     4   4   4   4   4   4   4
#     4  12  24  42  75 100 138 191 230 282 355 414
#     4  11  22  44  67  99 139 179 231 284 339 413
#     4  11  22  45  69  99 143 184 228 285 353 407
#     4  12  24  44  73  99 143 180 227 294 348 407
#     4  12  25  46  68 104 142 177 238 292 338 422
#     4  11  25  46  68 102 139 184 233 284 344 423
#     4  11  24  47  68  99 146 181 227 295 351 400
#
# _framework density 22.280549000000001
#
# number of rings (size 3 to 8) (size 9 to 14) (size 15 to 20)
#    0.000    0.571    8.571    0.857    4.000    0.000 
#    0.000    1.429    0.000    0.000    0.000    0.000 
#    0.000    0.000    0.000    0.000    0.000    0.000 
#
# Total GULP energy -173520.762812 kJ/mol
# GULP energy per Si atom -12394.340201 kJ/mol
# Density = 2.222984 g / cm^3
# Si number density = 22.280549 Si / 1000 Ang^3
#
#
#
# Elastic Constant Matrix: (Units=GPa)
#
#
# Indices 1 2 3 4 5 6 
#
# 1 97.8404 54.1263 11.2771 0.0000 -25.8413 0.0000
# 2 54.1263 130.5158 42.0594 0.0000 -4.8979 0.0000
# 3 11.2771 42.0594 108.7450 0.0000 -18.4890 0.0000
# 4 0.0000 0.0000 0.0000 22.5207 0.0000 -9.5531
# 5 -25.8413 -4.8979 -18.4890 0.0000 34.3835 0.0000
# 6 0.0000 0.0000 0.0000 -9.5531 0.0000 43.6893
#
#
#
# Elastic Compliance Matrix: (Units=1/GPa)
#
#
# Indices 1 2 3 4 5 6 
#
# 1 0.018145 -0.008189 0.003749 0.000000 0.014486 0.000000
# 2 -0.008189 0.012461 -0.005190 0.000000 -0.007170 0.000000
# 3 0.003749 -0.005190 0.012291 0.000000 0.008688 0.000000
# 4 0.000000 0.000000 0.000000 0.048943 0.000000 0.010702
# 5 0.014486 -0.007170 0.008688 0.000000 0.043621 0.000000
# 6 0.000000 0.000000 0.000000 0.010702 0.000000 0.025229
#
#
# Mechanical properties :
#
#
# Convention : Reuss Voigt Hill
#
# Bulk Modulus (GPa) = 42.30569 61.33630 51.82099
# Shear Modulus (GPa) = 26.61963 35.42792 31.02378
#
# Velocity S-wave (km/s) = 3.46026 3.99191 3.73556
# Velocity P-wave (km/s) = 5.91553 6.98827 6.47416
#
# Compressibility (1/GPa) = 0.02363748
#
# Stress axis : x y z
#
# Youngs Moduli (GPa) = 55.11083 80.24752 81.35825
#
# Poissons Ratio (x) = 0.65718 -0.30499
# Poissons Ratio (y) = 0.45133 0.42221
# Poissons Ratio (z) = -0.20660 0.41645
#
# Static dielectric constant tensor:
#      x y z
#    x 4.398700 0.000000 -0.269270 
#    y 0.000000 4.129070 0.000000 
#    z -0.269270 0.000000 3.935430 
# 
# 
# High freq. dielectric constant tensor:
#      x y z
#    x 1.890920 0.000000 -0.029620 
#    y 0.000000 1.880570 0.000000 
#    z -0.029620 0.000000 1.860560 
# 
# From -- ./inp_files/24038.got.cif
#   From: 2010.06.25/outbox.cif.g09.slc.cpg/sg9_13_cif.got.tgz:24038.got - 2010.06.27 21:40:51.
