data_PCOD8056339
_publ_section_title
;
Structure prediction by ZEFSAII (Michael W. Deem and Ramdas Pophale) SiO2 
 PCOD8056339
Probable space group: C C
;
_chemical_formula_sum "Si O2"
_cell_formula_units_Z 20
_cell_length_a 9.076273
_cell_length_b 15.784384
_cell_length_c 7.178974
_cell_angle_alpha 90.000000
_cell_angle_beta 126.257752
_cell_angle_gamma 90.000000
_cell_volume 829.333138
_symmetry_space_group_name_H-M "C C"
_symmetry_group_IT_number 9
_symmetry_cell_setting 'monoclinic'
loop_
_space_group_symop_operation_xyz
x,y,z
x,-y,1/2+z
1/2+x,1/2+y,z
1/2+x,1/2-y,1/2+z
loop_
_atom_site_type_symbol
_atom_site_label
_atom_site_fract_x
_atom_site_fract_y
_atom_site_fract_z
Si Si1 0.346770 0.838850 0.198370
Si Si2 0.520078 0.334881 0.686107
Si Si3 0.178179 0.437350 0.339197
Si Si4 0.078526 0.200256 0.803836
Si Si5 0.701059 0.876116 0.943929
O O1 0.440221 0.750814 0.211675
O O2 0.501445 0.911030 0.326765
O O3 0.257903 0.834732 0.335708
O O4 0.193608 0.865354 0.933410
O O5 0.363695 0.406792 0.579293
O O6 0.592003 0.322016 0.530720
O O7 0.157889 0.392560 0.126448
O O8 0.182104 0.538272 0.311223
O O9 0.905272 0.159525 0.573825
O O10 0.065880 0.302720 0.768849
#
# Coordination Sequence:
#
# PCOD8056339 Si02
#       5
#     4   4   4   4   4
#     4  12  23  45  79 105 147 200 246 296 379 437
#     4  11  23  47  71 109 148 197 241 309 362 448
#     4  11  27  48  72 110 155 185 258 316 360 439
#     4  11  25  47  76 106 147 200 246 297 379 444
#     4  11  26  49  72 108 153 192 245 318 366 438
#
# _framework density 24.115762
#
# number of rings (size 3 to 8) (size 9 to 14) (size 15 to 20)
#    0.000    0.800    4.000    2.400    5.600    0.000 
#    7.200    0.000    0.000    0.000    0.000    0.000 
#    0.000    0.000    0.000    0.000    0.000    0.000 
#
# Total GULP energy -124051.766142 kJ/mol
# GULP energy per Si atom -12405.176614 kJ/mol
# Density = 2.406087 g / cm^3
# Si number density = 24.115762 Si / 1000 Ang^3
#
#
#
# Elastic Constant Matrix: (Units=GPa)
#
#
# Indices 1 2 3 4 5 6 
#
# 1 178.6258 68.0313 52.1822 0.0000 13.0403 0.0000
# 2 68.0313 166.5931 40.1819 0.0000 24.5345 0.0000
# 3 52.1822 40.1819 69.0002 0.0000 20.1613 0.0000
# 4 0.0000 0.0000 0.0000 42.5598 0.0000 5.1298
# 5 13.0403 24.5345 20.1613 0.0000 24.1797 0.0000
# 6 0.0000 0.0000 0.0000 5.1298 0.0000 32.9380
#
#
#
# Elastic Compliance Matrix: (Units=1/GPa)
#
#
# Indices 1 2 3 4 5 6 
#
# 1 0.007846 -0.002290 -0.005344 0.000000 0.002549 0.000000
# 2 -0.002290 0.008118 -0.001255 0.000000 -0.005955 0.000000
# 3 -0.005344 -0.001255 0.023866 0.000000 -0.015743 0.000000
# 4 0.000000 0.000000 0.000000 0.023946 0.000000 -0.003729
# 5 0.002549 -0.005955 -0.015743 0.000000 0.059152 0.000000
# 6 0.000000 0.000000 0.000000 -0.003729 0.000000 0.030941
#
#
# Mechanical properties :
#
#
# Convention : Reuss Voigt Hill
#
# Bulk Modulus (GPa) = 45.35337 81.66775 63.51056
# Shear Modulus (GPa) = 27.93336 36.85707 32.39522
#
# Velocity S-wave (km/s) = 3.40708 3.91364 3.66911
# Velocity P-wave (km/s) = 5.85875 7.37296 6.65903
#
# Compressibility (1/GPa) = 0.02204908
#
# Stress axis : x y z
#
# Youngs Moduli (GPa) = 127.45703 123.18774 41.90124
#
# Poissons Ratio (x) = 0.28213 0.22394
# Poissons Ratio (y) = 0.29191 0.05260
# Poissons Ratio (z) = 0.68119 0.15463
#
# Static dielectric constant tensor:
#      x y z
#    x 4.660080 0.000000 0.117820 
#    y 0.000000 4.318470 0.000000 
#    z 0.117820 0.000000 4.355690 
# 
# 
# High freq. dielectric constant tensor:
#      x y z
#    x 1.979570 0.000000 -0.003420 
#    y 0.000000 1.940720 0.000000 
#    z -0.003420 0.000000 1.963640 
# 
# From -- ./inp_files/4822.got.cif
#   From: 2010.06.25/outbox.cif.g09.slc.cpg/sg9_3_cif.got.tgz:4822.got - 2010.06.27 21:40:51.
