data_PCOD8056975
_publ_section_title
;
Structure prediction by ZEFSAII (Michael W. Deem and Ramdas Pophale) SiO2 
 PCOD8056975
Probable space group: P 2/M
;
_chemical_formula_sum "Si O2"
_cell_formula_units_Z 32
_cell_length_a 14.120096
_cell_length_b 8.965204
_cell_length_c 16.550150
_cell_angle_alpha 90.000000
_cell_angle_beta 98.272062
_cell_angle_gamma 90.000000
_cell_volume 2073.278852
_symmetry_space_group_name_H-M "P 2/M"
_symmetry_group_IT_number 10
_symmetry_cell_setting 'monoclinic'
loop_
_space_group_symop_operation_xyz
x,y,z
-x,y,-z
-x,-y,-z
x,-y,z
loop_
_atom_site_type_symbol
_atom_site_label
_atom_site_fract_x
_atom_site_fract_y
_atom_site_fract_z
Si Si1 0.553985 0.331441 0.422050
Si Si2 0.130571 0.325773 0.038169
Si Si3 0.955248 0.673403 0.741035
Si Si4 0.615345 0.174556 0.671724
Si Si5 0.243497 0.671073 0.202329
Si Si6 0.079988 0.327136 0.444985
Si Si7 0.720406 0.175087 0.520824
Si Si8 0.954569 0.822803 0.108858
O O1 0.500000 0.322620 0.500000
O O2 0.572421 0.500000 0.396418
O O3 0.488617 0.250974 0.346955
O O4 0.655764 0.249567 0.443093
O O5 0.105412 0.500000 0.026349
O O6 0.226624 0.305846 0.103733
O O7 0.047248 0.241712 0.075891
O O8 0.137553 0.248139 0.950177
O O9 0.973387 0.500000 0.761420
O O10 0.850441 0.720802 0.759478
O O11 0.962977 0.712678 0.647808
O O12 0.038126 0.767499 0.797403
O O13 0.667277 0.228500 0.759700
O O14 0.681811 0.221733 0.604340
O O15 0.598282 0.000000 0.673202
O O16 0.267895 0.500000 0.225306
O O17 0.110093 0.500000 0.452310
O O18 0.171925 0.229363 0.476312
O O19 0.000000 0.286067 0.500000
O O20 0.715300 0.000000 0.507541
O O21 0.949776 0.000000 0.104325
#
# Coordination Sequence:
#
# PCOD8056975 Si02
#       8
#     4   4   4   4   4   4   4   4
#     4   9  17  28  43  59  77 104 137 170 202 243
#     4   9  16  26  37  52  75 104 134 165 200 237
#     4   9  17  29  42  55  75 104 136 172 211 248
#     4  10  18  26  39  60  84 108 135 169 206 246
#     4   9  16  25  39  56  77 108 139 167 200 242
#     4  10  20  33  48  63  79 105 144 183 216 252
#     4  10  19  30  43  60  82 106 133 171 216 255
#     4  10  17  24  37  55  74  98 132 169 202 242
#
# _framework density 15.434491
#
# number of rings (size 3 to 8) (size 9 to 14) (size 15 to 20)
#    0.000    2.500    1.250    4.125    0.000    5.750 
#    0.000    0.000    0.000    0.000    0.000    0.000 
#    0.000    0.000    0.000    1.125    0.000   22.500 
#
# Total GULP energy -396665.753686 kJ/mol
# GULP energy per Si atom -12395.804803 kJ/mol
# Density = 1.539936 g / cm^3
# Si number density = 15.434491 Si / 1000 Ang^3
#
#
#
# Elastic Constant Matrix: (Units=GPa)
#
#
# Indices 1 2 3 4 5 6 
#
# 1 64.3166 46.6492 47.1491 0.0000 26.4435 0.0000
# 2 46.6492 94.4182 43.1089 0.0000 22.8075 0.0000
# 3 47.1491 43.1089 81.7265 0.0000 29.7234 0.0000
# 4 0.0000 0.0000 0.0000 15.1553 0.0000 6.0858
# 5 26.4435 22.8075 29.7234 0.0000 27.1966 0.0000
# 6 0.0000 0.0000 0.0000 6.0858 0.0000 19.3148
#
#
#
# Elastic Compliance Matrix: (Units=1/GPa)
#
#
# Indices 1 2 3 4 5 6 
#
# 1 0.036689 -0.009488 -0.010093 0.000000 -0.016685 0.000000
# 2 -0.009488 0.017036 -0.002774 0.000000 -0.002029 0.000000
# 3 -0.010093 -0.002774 0.025073 0.000000 -0.015262 0.000000
# 4 0.000000 0.000000 0.000000 0.075542 0.000000 -0.023802
# 5 -0.016685 -0.002029 -0.015262 0.000000 0.071375 0.000000
# 6 0.000000 0.000000 0.000000 -0.023802 0.000000 0.059274
#
#
# Mechanical properties :
#
#
# Convention : Reuss Voigt Hill
#
# Bulk Modulus (GPa) = 29.33709 57.14175 43.23942
# Shear Modulus (GPa) = 14.66012 19.23693 16.94853
#
# Velocity S-wave (km/s) = 3.08527 3.53421 3.31735
# Velocity P-wave (km/s) = 5.63388 7.33190 6.53825
#
# Compressibility (1/GPa) = 0.03408654
#
# Stress axis : x y z
#
# Youngs Moduli (GPa) = 27.25590 58.70008 39.88352
#
# Poissons Ratio (x) = 0.55696 0.40256
# Poissons Ratio (y) = 0.25861 0.11064
# Poissons Ratio (z) = 0.27510 0.16284
#
# Static dielectric constant tensor:
#      x y z
#    x 2.748850 0.000000 0.538550 
#    y 0.000000 2.975020 0.000000 
#    z 0.538550 0.000000 3.154340 
# 
# 
# High freq. dielectric constant tensor:
#      x y z
#    x 1.550890 0.000000 0.053050 
#    y 0.000000 1.603270 0.000000 
#    z 0.053050 0.000000 1.565650 
# 
# From -- ./inp_files/65986.got.cif
#   From: 2010.06.25/outbox.cif.g09.slc.cpg/sg10_33_cif.got.tgz:65986.got - 2010.06.27 22:07:45.
