data_PCOD8056589
_publ_section_title
;
Structure prediction by ZEFSAII (Michael W. Deem and Ramdas Pophale) SiO2 
 PCOD8056589
Probable space group: C C
;
_chemical_formula_sum "Si O2"
_cell_formula_units_Z 32
_cell_length_a 29.289042
_cell_length_b 8.321716
_cell_length_c 9.555341
_cell_angle_alpha 90.000000
_cell_angle_beta 144.357389
_cell_angle_gamma 90.000000
_cell_volume 1357.156001
_symmetry_space_group_name_H-M "C C"
_symmetry_group_IT_number 9
_symmetry_cell_setting 'monoclinic'
loop_
_space_group_symop_operation_xyz
x,y,z
x,-y,1/2+z
1/2+x,1/2+y,z
1/2+x,1/2-y,1/2+z
loop_
_atom_site_type_symbol
_atom_site_label
_atom_site_fract_x
_atom_site_fract_y
_atom_site_fract_z
Si Si1 0.428040 0.843682 0.215170
Si Si2 0.900863 0.045676 0.960039
Si Si3 0.149027 0.616127 0.929424
Si Si4 0.035930 0.154489 0.692489
Si Si5 0.779547 0.513600 0.913960
Si Si6 0.176048 0.024396 0.413657
Si Si7 0.560986 0.050350 0.441056
Si Si8 0.311470 0.381086 0.968505
O O1 0.481241 0.756174 0.457870
O O2 0.353519 0.898882 0.122091
O O3 0.473371 0.001117 0.270444
O O4 0.402222 0.725550 0.025396
O O5 0.877959 0.913736 0.018962
O O6 0.837814 0.029624 0.676546
O O7 0.988911 0.000526 0.131363
O O8 0.125335 0.529978 0.725154
O O9 0.081998 0.576990 0.873838
O O10 0.230716 0.551400 0.199145
O O11 0.148813 0.804707 0.903242
O O12 0.063488 0.265846 0.891157
O O13 0.107512 0.102099 0.771773
O O14 0.703964 0.474189 0.822552
O O15 0.753207 0.473520 0.690877
O O16 0.805678 0.696236 0.994296
#
# Coordination Sequence:
#
# PCOD8056589 Si02
#       8
#     4   4   4   4   4   4   4   4
#     4  12  28  46  76 110 149 196 250 307 376 443
#     4  12  26  47  74 108 151 191 251 307 374 440
#     4  11  26  45  74 106 149 192 249 305 376 437
#     4  12  28  46  76 110 149 196 250 307 376 443
#     4  11  27  47  74 103 145 196 248 299 374 442
#     4  11  27  47  74 103 145 196 248 299 374 442
#     4  12  26  47  74 108 151 191 251 307 374 440
#     4  11  26  45  74 106 149 192 249 305 376 437
#
# _framework density 23.578721000000002
#
# number of rings (size 3 to 8) (size 9 to 14) (size 15 to 20)
#    0.000    0.500    2.500    3.750   14.000    5.000 
#    0.000    0.000    0.000    0.000    0.000    0.000 
#    0.000    0.000    0.000    0.000    0.000    0.000 
#
# Total GULP energy -198427.739489 kJ/mol
# GULP energy per Si atom -12401.733718 kJ/mol
# Density = 2.352505 g / cm^3
# Si number density = 23.578721 Si / 1000 Ang^3
#
#
#
# Elastic Constant Matrix: (Units=GPa)
#
#
# Indices 1 2 3 4 5 6 
#
# 1 134.9910 54.9221 39.6440 0.0000 8.1973 0.0000
# 2 54.9221 97.1499 37.3809 0.0000 11.9850 0.0000
# 3 39.6440 37.3809 105.6865 0.0000 -17.0385 0.0000
# 4 0.0000 0.0000 0.0000 41.9184 0.0000 7.0128
# 5 8.1973 11.9850 -17.0385 0.0000 46.6793 0.0000
# 6 0.0000 0.0000 0.0000 7.0128 0.0000 47.9249
#
#
#
# Elastic Compliance Matrix: (Units=1/GPa)
#
#
# Indices 1 2 3 4 5 6 
#
# 1 0.010066 -0.004592 -0.002387 0.000000 -0.001460 0.000000
# 2 -0.004592 0.015159 -0.004395 0.000000 -0.004690 0.000000
# 3 -0.002387 -0.004395 0.012922 0.000000 0.006264 0.000000
# 4 0.000000 0.000000 0.000000 0.024455 0.000000 -0.003578
# 5 -0.001460 -0.004690 0.006264 0.000000 0.025170 0.000000
# 6 0.000000 0.000000 0.000000 -0.003578 0.000000 0.021390
#
#
# Mechanical properties :
#
#
# Convention : Reuss Voigt Hill
#
# Bulk Modulus (GPa) = 64.94264 66.85792 65.90028
# Shear Modulus (GPa) = 36.48504 41.02989 38.75746
#
# Velocity S-wave (km/s) = 3.93793 4.17600 4.05871
# Velocity P-wave (km/s) = 6.94832 7.18810 7.06922
#
# Compressibility (1/GPa) = 0.01539820
#
# Stress axis : x y z
#
# Youngs Moduli (GPa) = 99.34579 65.96644 77.38819
#
# Poissons Ratio (x) = 0.30292 0.18472
# Poissons Ratio (y) = 0.45620 0.34015
# Poissons Ratio (z) = 0.23714 0.28995
#
# Static dielectric constant tensor:
#      x y z
#    x 4.380940 0.000000 -0.048960 
#    y 0.000000 4.149810 0.000000 
#    z -0.048960 0.000000 4.590890 
# 
# 
# High freq. dielectric constant tensor:
#      x y z
#    x 1.940000 0.000000 -0.005330 
#    y 0.000000 1.927230 0.000000 
#    z -0.005330 0.000000 1.950340 
# 
# From -- ./inp_files/12399.got.cif
#   From: 2010.06.25/outbox.cif.g09.slc.cpg/sg9_7_cif.got.tgz:12399.got - 2010.06.27 21:40:51.
