data_PCOD8056040
_publ_section_title
;
Structure prediction by ZEFSAII (Michael W. Deem and Ramdas Pophale) SiO2 
 PCOD8056040
Probable space group: C C
;
_chemical_formula_sum "Si O2"
_cell_formula_units_Z 32
_cell_length_a 14.664028
_cell_length_b 17.612299
_cell_length_c 11.384525
_cell_angle_alpha 90.000000
_cell_angle_beta 28.026220
_cell_angle_gamma 90.000000
_cell_volume 1381.551613
_symmetry_space_group_name_H-M "C C"
_symmetry_group_IT_number 9
_symmetry_cell_setting 'monoclinic'
loop_
_space_group_symop_operation_xyz
x,y,z
x,-y,1/2+z
1/2+x,1/2+y,z
1/2+x,1/2-y,1/2+z
loop_
_atom_site_type_symbol
_atom_site_label
_atom_site_fract_x
_atom_site_fract_y
_atom_site_fract_z
Si Si1 0.403550 0.160170 0.751710
Si Si2 0.841664 0.316719 0.583727
Si Si3 0.417784 0.352893 0.002724
Si Si4 0.318396 0.309180 0.715504
Si Si5 0.520448 0.695033 0.742892
Si Si6 0.942834 0.349352 0.725351
Si Si7 0.801105 0.070428 0.850582
Si Si8 0.520563 0.583919 0.146240
O O1 0.455500 0.166936 0.831705
O O2 0.297523 0.236274 0.824506
O O3 0.605979 0.150802 0.451264
O O4 0.255955 0.088640 0.896140
O O5 0.632758 0.352844 0.809293
O O6 0.811489 0.227215 0.637727
O O7 0.941241 0.354624 0.584236
O O8 0.412129 0.372895 0.873294
O O9 0.314738 0.418703 0.194545
O O10 0.400085 0.284593 0.496957
O O11 0.471635 0.371761 0.583283
O O12 0.559084 0.773073 0.629850
O O13 0.389092 0.642279 0.814139
O O14 0.728163 0.653627 0.526680
O O15 0.065141 0.422533 0.637990
O O16 0.921713 0.998385 0.756563
#
# Coordination Sequence:
#
# PCOD8056040 Si02
#       8
#     4   4   4   4   4   4   4   4
#     4  11  23  43  74 106 141 179 240 297 349 418
#     4  11  19  39  72 109 125 175 239 301 343 403
#     4  11  21  41  70  99 140 167 238 293 349 418
#     4  12  24  43  72 104 140 190 239 289 347 422
#     4  12  25  42  69 108 140 187 245 285 346 424
#     4  12  23  42  73 107 140 183 239 296 350 417
#     4  12  27  44  67 100 146 189 230 295 360 419
#     4  11  28  44  67 103 142 188 232 292 362 421
#
# _framework density 23.162362000000002
#
# number of rings (size 3 to 8) (size 9 to 14) (size 15 to 20)
#    0.000    0.500    6.250    2.250    3.500    1.000 
#    0.000    0.000    5.500    0.000    0.000    0.000 
#    0.000    0.000    0.000    0.000    0.000    0.000 
#
# Total GULP energy -198274.551437 kJ/mol
# GULP energy per Si atom -12392.159465 kJ/mol
# Density = 2.310964 g / cm^3
# Si number density = 23.162362 Si / 1000 Ang^3
#
#
#
# Elastic Constant Matrix: (Units=GPa)
#
#
# Indices 1 2 3 4 5 6 
#
# 1 86.5651 43.9522 55.2501 -0.0319 5.3590 0.0382
# 2 43.9522 70.7609 25.9304 0.0054 -8.1916 0.0400
# 3 55.2501 25.9304 147.9232 -0.0021 -15.2701 0.0502
# 4 -0.0319 0.0054 -0.0021 26.9272 0.0044 -16.4201
# 5 5.3590 -8.1916 -15.2701 0.0044 33.0236 -0.0512
# 6 0.0382 0.0400 0.0502 -16.4201 -0.0512 33.8927
#
#
#
# Elastic Compliance Matrix: (Units=1/GPa)
#
#
# Indices 1 2 3 4 5 6 
#
# 1 0.023840 -0.013229 -0.007691 0.000032 -0.010707 -0.000001
# 2 -0.013229 0.022667 0.001859 -0.000032 0.008629 -0.000017
# 3 -0.007691 0.001859 0.009959 -0.000013 0.006314 -0.000005
# 4 0.000032 -0.000032 -0.000013 0.052709 0.000014 0.025536
# 5 -0.010707 0.008629 0.006314 0.000014 0.037079 0.000055
# 6 -0.000001 -0.000017 -0.000005 0.025536 0.000055 0.041877
#
#
# Mechanical properties :
#
#
# Convention : Reuss Voigt Hill
#
# Bulk Modulus (GPa) = 54.51566 61.72384 58.11975
# Shear Modulus (GPa) = 21.51756 30.77646 26.14701
#
# Velocity S-wave (km/s) = 3.05124 3.64913 3.36349
# Velocity P-wave (km/s) = 6.00007 6.66791 6.34278
#
# Compressibility (1/GPa) = 0.01834335
#
# Stress axis : x y z
#
# Youngs Moduli (GPa) = 41.94558 44.11662 100.41386
#
# Poissons Ratio (x) = 0.58363 0.77225
# Poissons Ratio (y) = 0.55491 -0.18662
# Poissons Ratio (z) = 0.32259 -0.08199
#
# Static dielectric constant tensor:
#      x y z
#    x 4.489150 -0.000010 -0.005550 
#    y -0.000010 3.812570 0.000000 
#    z -0.005550 0.000000 4.405310 
# 
# 
# High freq. dielectric constant tensor:
#      x y z
#    x 1.931960 0.000000 -0.009840 
#    y 0.000000 1.866960 0.000000 
#    z -0.009840 0.000000 1.928760 
# 
# From -- ./inp_files/18545.got.cif
#   From: 2010.06.25/outbox.cif.g09.slc.cpg/sg9_10_cif.got.tgz:18545.got - 2010.06.27 21:40:51.
