data_PCOD8056529
_publ_section_title
;
Structure prediction by ZEFSAII (Michael W. Deem and Ramdas Pophale) SiO2 
 PCOD8056529
Probable space group: C C
;
_chemical_formula_sum "Si O2"
_cell_formula_units_Z 32
_cell_length_a 25.255430
_cell_length_b 8.959948
_cell_length_c 9.624956
_cell_angle_alpha 90.000000
_cell_angle_beta 140.757122
_cell_angle_gamma 90.000000
_cell_volume 1377.826140
_symmetry_space_group_name_H-M "C C"
_symmetry_group_IT_number 9
_symmetry_cell_setting 'monoclinic'
loop_
_space_group_symop_operation_xyz
x,y,z
x,-y,1/2+z
1/2+x,1/2+y,z
1/2+x,1/2-y,1/2+z
loop_
_atom_site_type_symbol
_atom_site_label
_atom_site_fract_x
_atom_site_fract_y
_atom_site_fract_z
Si Si1 0.202410 0.003179 0.038280
Si Si2 0.434619 0.336927 0.967589
Si Si3 0.365693 0.145618 0.458346
Si Si4 0.526955 0.044097 0.206684
Si Si5 0.136626 0.833145 0.158453
Si Si6 0.773948 0.246886 0.035835
Si Si7 0.459836 0.412307 0.718459
Si Si8 0.641820 0.989855 0.191311
O O1 0.185595 0.957450 0.164166
O O2 0.291047 0.091569 0.206777
O O3 0.202269 0.849436 0.953712
O O4 0.135828 0.106527 0.817867
O O5 0.337227 0.292517 0.791998
O O6 0.429780 0.433358 0.815582
O O7 0.496256 0.197416 0.074669
O O8 0.469150 0.427049 0.168874
O O9 0.329985 0.155486 0.542426
O O10 0.397170 0.314984 0.493683
O O11 0.446176 0.039659 0.605309
O O12 0.579427 0.960240 0.193917
O O13 0.592906 0.076975 0.461402
O O14 0.169912 0.663036 0.226726
O O15 0.046819 0.824329 0.903692
O O16 0.728258 0.102300 0.879128
#
# Coordination Sequence:
#
# PCOD8056529 Si02
#       8
#     4   4   4   4   4   4   4   4
#     4  12  26  44  75 102 150 192 248 299 379 430
#     4  11  25  46  73 102 152 185 245 294 367 433
#     4  11  25  49  72 101 150 192 245 297 365 445
#     4  12  25  51  75 105 145 201 239 303 363 449
#     4  12  26  46  72 112 145 193 246 306 364 439
#     4  11  26  48  70 112 144 192 244 312 366 442
#     4  11  25  47  70 107 142 188 242 301 356 437
#     4  12  28  45  79 109 150 189 255 300 372 433
#
# _framework density 23.224990999999999
#
# number of rings (size 3 to 8) (size 9 to 14) (size 15 to 20)
#    0.000    0.500    5.000    2.250    5.250    4.000 
#    0.000    0.000    0.000    0.000    0.000    0.000 
#    0.000    0.000    0.000    0.000    0.000    0.000 
#
# Total GULP energy -198269.476069 kJ/mol
# GULP energy per Si atom -12391.842254 kJ/mol
# Density = 2.317213 g / cm^3
# Si number density = 23.224991 Si / 1000 Ang^3
#
#
#
# Elastic Constant Matrix: (Units=GPa)
#
#
# Indices 1 2 3 4 5 6 
#
# 1 91.2467 33.5310 27.2604 0.0000 -7.8043 0.0000
# 2 33.5310 86.7015 46.1059 0.0000 -7.5750 0.0000
# 3 27.2604 46.1059 119.4673 0.0000 -3.7181 0.0000
# 4 0.0000 0.0000 0.0000 46.8364 0.0000 0.9611
# 5 -7.8043 -7.5750 -3.7181 0.0000 33.5317 0.0000
# 6 0.0000 0.0000 0.0000 0.9611 0.0000 36.5413
#
#
#
# Elastic Compliance Matrix: (Units=1/GPa)
#
#
# Indices 1 2 3 4 5 6 
#
# 1 0.013053 -0.004185 -0.001303 0.000000 0.001948 0.000000
# 2 -0.004185 0.016096 -0.005192 0.000000 0.002086 0.000000
# 3 -0.001303 -0.005192 0.010662 0.000000 -0.000294 0.000000
# 4 0.000000 0.000000 0.000000 0.021362 0.000000 -0.000562
# 5 0.001948 0.002086 -0.000294 0.000000 0.030715 0.000000
# 6 0.000000 0.000000 0.000000 -0.000562 0.000000 0.027381
#
#
# Mechanical properties :
#
#
# Convention : Reuss Voigt Hill
#
# Bulk Modulus (GPa) = 54.19611 56.80114 55.49862
# Shear Modulus (GPa) = 34.06482 36.08311 35.07396
#
# Velocity S-wave (km/s) = 3.83395 3.94589 3.89032
# Velocity P-wave (km/s) = 6.55628 6.72830 6.64285
#
# Compressibility (1/GPa) = 0.01845151
#
# Stress axis : x y z
#
# Youngs Moduli (GPa) = 76.61036 62.12876 93.78867
#
# Poissons Ratio (x) = 0.26002 0.12217
# Poissons Ratio (y) = 0.32063 0.48693
# Poissons Ratio (z) = 0.09980 0.32256
#
# Static dielectric constant tensor:
#      x y z
#    x 4.231050 0.000000 0.113100 
#    y 0.000000 4.229890 0.000000 
#    z 0.113100 0.000000 4.230410 
# 
# 
# High freq. dielectric constant tensor:
#      x y z
#    x 1.913810 0.000000 0.009060 
#    y 0.000000 1.915570 0.000000 
#    z 0.009060 0.000000 1.926930 
# 
# From -- ./inp_files/12420.got.cif
#   From: 2010.06.25/outbox.cif.g09.slc.cpg/sg9_7_cif.got.tgz:12420.got - 2010.06.27 21:40:51.
