data_PCOD8056955
_publ_section_title
;
Structure prediction by ZEFSAII (Michael W. Deem and Ramdas Pophale) SiO2 
 PCOD8056955
Probable space group: P 2/M
;
_chemical_formula_sum "Si O2"
_cell_formula_units_Z 32
_cell_length_a 20.952066
_cell_length_b 9.047592
_cell_length_c 11.313878
_cell_angle_alpha 90.000000
_cell_angle_beta 65.435216
_cell_angle_gamma 90.000000
_cell_volume 1950.608622
_symmetry_space_group_name_H-M "P 2/M"
_symmetry_group_IT_number 10
_symmetry_cell_setting 'monoclinic'
loop_
_space_group_symop_operation_xyz
x,y,z
-x,y,-z
-x,-y,-z
x,-y,z
loop_
_atom_site_type_symbol
_atom_site_label
_atom_site_fract_x
_atom_site_fract_y
_atom_site_fract_z
Si Si1 0.534906 0.829722 0.290529
Si Si2 0.731209 0.675099 0.505405
Si Si3 0.700442 0.671065 0.792724
Si Si4 0.434582 0.324497 0.973338
Si Si5 0.868663 0.826649 0.438464
Si Si6 0.852455 0.671319 0.694957
Si Si7 0.608161 0.170679 0.477138
Si Si8 0.997706 0.335564 0.643625
O O1 0.559907 0.730799 0.163711
O O2 0.456632 0.783244 0.389296
O O3 0.588181 0.801571 0.356837
O O4 0.536026 0.000000 0.251562
O O5 0.739438 0.500000 0.495133
O O6 0.707503 0.732935 0.653735
O O7 0.806332 0.747230 0.413574
O O8 0.674258 0.726896 0.454451
O O9 0.682429 0.500000 0.795805
O O10 0.774060 0.697228 0.807496
O O11 0.636039 0.744726 0.913217
O O12 0.432365 0.500000 0.970594
O O13 0.500000 0.267344 0.000000
O O14 0.861161 0.782890 0.580302
O O15 0.946526 0.773408 0.336658
O O16 0.862712 0.000000 0.424144
O O17 0.858125 0.500000 0.645089
O O18 0.915713 0.702437 0.740090
O O19 0.627641 0.000000 0.483302
O O20 0.016824 0.500000 0.671778
O O21 0.000000 0.324438 0.500000
#
# Coordination Sequence:
#
# PCOD8056955 Si02
#       8
#     4   4   4   4   4   4   4   4
#     4   9  19  34  49  65  87 114 142 175 217 261
#     4  10  18  29  45  63  85 114 147 179 213 254
#     4   8  15  27  41  59  85 115 145 179 217 253
#     4  10  19  30  45  66  91 116 145 181 215 248
#     4  10  17  23  34  55  83 111 139 173 213 256
#     4   8  14  25  38  51  74 111 149 180 212 251
#     4   9  18  33  49  64  85 112 142 178 218 256
#     4   8  13  22  35  50  72 106 145 179 210 248
#
# _framework density 16.405135000000001
#
# number of rings (size 3 to 8) (size 9 to 14) (size 15 to 20)
#    0.000    3.000    0.000    4.500    0.000    4.500 
#    0.000    4.375    0.000    0.000    0.000    0.000 
#    0.000    1.000    0.000   11.500    0.000    5.000 
#
# Total GULP energy -396495.729380 kJ/mol
# GULP energy per Si atom -12390.491543 kJ/mol
# Density = 1.636780 g / cm^3
# Si number density = 16.405135 Si / 1000 Ang^3
#
#
#
# Elastic Constant Matrix: (Units=GPa)
#
#
# Indices 1 2 3 4 5 6 
#
# 1 145.4296 51.6190 41.0501 0.0000 -27.4625 0.0000
# 2 51.6190 66.4198 15.5547 0.0000 -6.0789 0.0000
# 3 41.0501 15.5547 49.9918 0.0000 -9.3323 0.0000
# 4 0.0000 0.0000 0.0000 16.0269 0.0000 0.6640
# 5 -27.4625 -6.0789 -9.3323 0.0000 21.9942 0.0000
# 6 0.0000 0.0000 0.0000 0.6640 0.0000 27.6976
#
#
#
# Elastic Compliance Matrix: (Units=1/GPa)
#
#
# Indices 1 2 3 4 5 6 
#
# 1 0.013996 -0.008190 -0.006630 0.000000 0.012399 0.000000
# 2 -0.008190 0.021164 -0.000735 0.000000 -0.004688 0.000000
# 3 -0.006630 -0.000735 0.026165 0.000000 0.002621 0.000000
# 4 0.000000 0.000000 0.000000 0.062457 0.000000 -0.001497
# 5 0.012399 -0.004688 0.002621 0.000000 0.060764 0.000000
# 6 0.000000 0.000000 0.000000 -0.001497 0.000000 0.036140
#
#
# Mechanical properties :
#
#
# Convention : Reuss Voigt Hill
#
# Bulk Modulus (GPa) = 33.09592 53.14319 43.11956
# Shear Modulus (GPa) = 19.09367 23.38490 21.23929
#
# Velocity S-wave (km/s) = 3.41527 3.77963 3.60206
# Velocity P-wave (km/s) = 5.98081 7.17719 6.60614
#
# Compressibility (1/GPa) = 0.03021520
#
# Stress axis : x y z
#
# Youngs Moduli (GPa) = 71.45040 47.25111 38.21873
#
# Poissons Ratio (x) = 0.38697 0.25338
# Poissons Ratio (y) = 0.58515 0.02810
# Poissons Ratio (z) = 0.47369 0.03475
#
# Static dielectric constant tensor:
#      x y z
#    x 3.538970 0.000000 -0.432790 
#    y 0.000000 2.892490 0.000000 
#    z -0.432790 0.000000 2.794190 
# 
# 
# High freq. dielectric constant tensor:
#      x y z
#    x 1.647920 0.000000 -0.029890 
#    y 0.000000 1.618550 0.000000 
#    z -0.029890 0.000000 1.570960 
# 
# From -- ./inp_files/54820.got.cif
#   From: 2010.06.25/outbox.cif.g09.slc.cpg/sg10_28_cif.got.tgz:54820.got - 2010.06.27 22:07:45.
