data_PCOD8056487
_publ_section_title
;
Structure prediction by ZEFSAII (Michael W. Deem and Ramdas Pophale) SiO2 
 PCOD8056487
Probable space group: C C
;
_chemical_formula_sum "Si O2"
_cell_formula_units_Z 32
_cell_length_a 5.424733
_cell_length_b 28.189376
_cell_length_c 9.007904
_cell_angle_alpha 90.000000
_cell_angle_beta 69.418256
_cell_angle_gamma 90.000000
_cell_volume 1289.564410
_symmetry_space_group_name_H-M "C C"
_symmetry_group_IT_number 9
_symmetry_cell_setting 'monoclinic'
loop_
_space_group_symop_operation_xyz
x,y,z
x,-y,1/2+z
1/2+x,1/2+y,z
1/2+x,1/2-y,1/2+z
loop_
_atom_site_type_symbol
_atom_site_label
_atom_site_fract_x
_atom_site_fract_y
_atom_site_fract_z
Si Si1 0.967070 0.442686 0.759280
Si Si2 0.675772 0.431615 0.369174
Si Si3 0.877283 0.129868 0.135958
Si Si4 0.032484 0.646823 0.701027
Si Si5 0.636970 0.983423 0.424119
Si Si6 0.791581 0.801810 0.394182
Si Si7 0.023869 0.878778 0.925737
Si Si8 0.233403 0.796815 0.057187
O O1 0.665105 0.430451 0.871185
O O2 0.085483 0.392215 0.683909
O O3 0.004475 0.479260 0.613850
O O4 0.135147 0.461768 0.867993
O O5 0.581248 0.411673 0.547722
O O6 0.428406 0.459907 0.347249
O O7 0.771811 0.387075 0.247182
O O8 0.931135 0.463324 0.344671
O O9 0.931358 0.145301 0.291593
O O10 0.904849 0.173235 0.016726
O O11 0.064399 0.665687 0.864991
O O12 0.280601 0.615971 0.591665
O O13 0.993627 0.693156 0.602648
O O14 0.711984 0.749967 0.463922
O O15 0.995591 0.794962 0.220652
O O16 0.229212 0.841304 0.947895
#
# Coordination Sequence:
#
# PCOD8056487 Si02
#       8
#     4   4   4   4   4   4   4   4
#     4  11  26  50  74 115 149 206 258 328 404 471
#     4  11  24  50  80 109 151 210 258 328 399 477
#     4  11  24  48  76 105 152 205 254 322 396 476
#     4  11  25  49  72 112 156 210 264 324 403 486
#     4  11  27  47  81 111 155 197 271 327 397 474
#     4  11  27  45  76 107 159 206 265 330 394 478
#     4  11  26  46  75 111 154 206 258 326 398 486
#     4  11  27  45  72 116 148 206 264 325 401 468
#
# _framework density 24.814581
#
# number of rings (size 3 to 8) (size 9 to 14) (size 15 to 20)
#    0.000    1.000    2.500    2.250    8.750    3.000 
#    2.250    0.000    0.000    0.000    0.000    0.000 
#    0.000    0.000    0.000    0.000    0.000    0.000 
#
# Total GULP energy -198274.288887 kJ/mol
# GULP energy per Si atom -12392.143055 kJ/mol
# Density = 2.475810 g / cm^3
# Si number density = 24.814581 Si / 1000 Ang^3
#
#
#
# Elastic Constant Matrix: (Units=GPa)
#
#
# Indices 1 2 3 4 5 6 
#
# 1 126.2514 36.4067 37.3079 0.0000 2.2904 0.0000
# 2 36.4067 82.1771 56.9574 0.0000 -5.6272 0.0000
# 3 37.3079 56.9574 120.1681 0.0000 15.6764 0.0000
# 4 0.0000 0.0000 0.0000 44.6779 0.0000 5.9096
# 5 2.2904 -5.6272 15.6764 0.0000 40.1899 0.0000
# 6 0.0000 0.0000 0.0000 5.9096 0.0000 28.9240
#
#
#
# Elastic Compliance Matrix: (Units=1/GPa)
#
#
# Indices 1 2 3 4 5 6 
#
# 1 0.009241 -0.003251 -0.001264 0.000000 -0.000489 0.000000
# 2 -0.003251 0.020864 -0.009783 0.000000 0.006922 0.000000
# 3 -0.001264 -0.009783 0.014245 0.000000 -0.006854 0.000000
# 4 0.000000 0.000000 0.000000 0.023004 0.000000 -0.004700
# 5 -0.000489 0.006922 -0.006854 0.000000 0.028552 0.000000
# 6 0.000000 0.000000 0.000000 -0.004700 0.000000 0.035534
#
#
# Mechanical properties :
#
#
# Convention : Reuss Voigt Hill
#
# Bulk Modulus (GPa) = 63.47805 65.54897 64.51351
# Shear Modulus (GPa) = 30.25051 35.95334 33.10192
#
# Velocity S-wave (km/s) = 3.49529 3.81054 3.65632
# Velocity P-wave (km/s) = 6.47502 6.77002 6.62416
#
# Compressibility (1/GPa) = 0.01575348
#
# Stress axis : x y z
#
# Youngs Moduli (GPa) = 108.21744 47.93041 70.19971
#
# Poissons Ratio (x) = 0.15583 0.08874
# Poissons Ratio (y) = 0.35183 0.68674
# Poissons Ratio (z) = 0.13680 0.46889
#
# Static dielectric constant tensor:
#      x y z
#    x 4.574390 0.000000 0.106990 
#    y 0.000000 4.441260 0.000000 
#    z 0.106990 0.000000 4.617470 
# 
# 
# High freq. dielectric constant tensor:
#      x y z
#    x 1.987380 0.000000 0.000810 
#    y 0.000000 1.974220 0.000000 
#    z 0.000810 0.000000 2.001370 
# 
# From -- ./inp_files/4478.got.cif
#   From: 2010.06.25/outbox.cif.g09.slc.cpg/sg9_3_cif.got.tgz:4478.got - 2010.06.27 21:40:51.
