data_PCOD8056190
_publ_section_title
;
Structure prediction by ZEFSAII (Michael W. Deem and Ramdas Pophale) SiO2 
 PCOD8056190
Probable space group: C C
;
_chemical_formula_sum "Si O2"
_cell_formula_units_Z 20
_cell_length_a 10.974746
_cell_length_b 9.094789
_cell_length_c 9.396768
_cell_angle_alpha 90.000000
_cell_angle_beta 99.661231
_cell_angle_gamma 90.000000
_cell_volume 924.617319
_symmetry_space_group_name_H-M "C C"
_symmetry_group_IT_number 9
_symmetry_cell_setting 'monoclinic'
loop_
_space_group_symop_operation_xyz
x,y,z
x,-y,1/2+z
1/2+x,1/2+y,z
1/2+x,1/2-y,1/2+z
loop_
_atom_site_type_symbol
_atom_site_label
_atom_site_fract_x
_atom_site_fract_y
_atom_site_fract_z
Si Si1 0.270970 0.008935 0.776460
Si Si2 0.376199 0.578528 0.582830
Si Si3 0.109308 0.928650 0.503990
Si Si4 0.489975 0.813058 0.803238
Si Si5 0.251514 0.653844 0.264297
O O1 0.218401 0.907180 0.639088
O O2 0.406316 0.947181 0.845480
O O3 0.170634 0.992784 0.880745
O O4 0.285945 0.178502 0.733038
O O5 0.509149 0.537345 0.548383
O O6 0.397768 0.711853 0.694236
O O7 0.290392 0.621673 0.434332
O O8 0.315737 0.446016 0.659366
O O9 0.046782 0.774256 0.449136
O O10 0.603328 0.871840 0.728742
#
# Coordination Sequence:
#
# PCOD8056190 Si02
#       5
#     4   4   4   4   4
#     4  11  25  46  70 101 137 180 226 279 338 402
#     4  12  23  47  69  99 139 180 225 283 337 399
#     4  11  22  45  71  95 139 178 220 279 341 393
#     4  11  24  45  70 101 135 176 232 277 336 406
#     4  11  26  45  68 102 136 178 231 276 338 400
#
# _framework density 21.630569000000001
#
# number of rings (size 3 to 8) (size 9 to 14) (size 15 to 20)
#    0.000    0.800    6.000    2.400    2.800    3.200 
#   10.800    0.000    0.000    0.000    0.000    0.000 
#    0.000    0.000    0.000    0.000    0.000    0.000 
#
# Total GULP energy -124000.374671 kJ/mol
# GULP energy per Si atom -12400.037467 kJ/mol
# Density = 2.158134 g / cm^3
# Si number density = 21.630569 Si / 1000 Ang^3
#
#
#
# Elastic Constant Matrix: (Units=GPa)
#
#
# Indices 1 2 3 4 5 6 
#
# 1 118.6375 89.8742 35.1795 0.0000 2.1739 0.0000
# 2 89.8742 86.1629 38.8696 0.0000 0.4485 0.0000
# 3 35.1795 38.8696 113.1187 0.0000 11.7903 0.0000
# 4 0.0000 0.0000 0.0000 20.4241 0.0000 7.3994
# 5 2.1739 0.4485 11.7903 0.0000 34.0586 0.0000
# 6 0.0000 0.0000 0.0000 7.3994 0.0000 50.7807
#
#
#
# Elastic Compliance Matrix: (Units=1/GPa)
#
#
# Indices 1 2 3 4 5 6 
#
# 1 0.040948 -0.043895 0.002656 0.000000 -0.002955 0.000000
# 2 -0.043895 0.060864 -0.007751 0.000000 0.004683 0.000000
# 3 0.002656 -0.007751 0.011084 0.000000 -0.003905 0.000000
# 4 0.000000 0.000000 0.000000 0.051691 0.000000 -0.007532
# 5 -0.002955 0.004683 -0.003905 0.000000 0.030840 0.000000
# 6 0.000000 0.000000 0.000000 -0.007532 0.000000 0.020790
#
#
# Mechanical properties :
#
#
# Convention : Reuss Voigt Hill
#
# Bulk Modulus (GPa) = 67.03512 71.75174 69.39343
# Shear Modulus (GPa) = 15.66572 31.31908 23.49240
#
# Velocity S-wave (km/s) = 2.69409 3.80927 3.29914
# Velocity P-wave (km/s) = 6.38245 7.25195 6.83105
#
# Compressibility (1/GPa) = 0.01491755
#
# Stress axis : x y z
#
# Youngs Moduli (GPa) = 24.42107 16.43016 90.21636
#
# Poissons Ratio (x) = 0.72120 -0.23965
# Poissons Ratio (y) = 1.07196 0.69925
# Poissons Ratio (z) = -0.06487 0.12735
#
# Static dielectric constant tensor:
#      x y z
#    x 4.174650 0.000000 0.145520 
#    y 0.000000 3.761290 0.000000 
#    z 0.145520 0.000000 4.013470 
# 
# 
# High freq. dielectric constant tensor:
#      x y z
#    x 1.871370 0.000000 0.003890 
#    y 0.000000 1.839870 0.000000 
#    z 0.003890 0.000000 1.850660 
# 
# From -- ./inp_files/4614.got.cif
#   From: 2010.06.25/outbox.cif.g09.slc.cpg/sg9_3_cif.got.tgz:4614.got - 2010.06.27 21:40:51.
