data_PCOD8056335
_publ_section_title
;
Structure prediction by ZEFSAII (Michael W. Deem and Ramdas Pophale) SiO2 
 PCOD8056335
Probable space group: C C
;
_chemical_formula_sum "Si O2"
_cell_formula_units_Z 32
_cell_length_a 8.519802
_cell_length_b 12.406252
_cell_length_c 13.600429
_cell_angle_alpha 90.000000
_cell_angle_beta 84.594917
_cell_angle_gamma 90.000000
_cell_volume 1431.157267
_symmetry_space_group_name_H-M "C C"
_symmetry_group_IT_number 9
_symmetry_cell_setting 'monoclinic'
loop_
_space_group_symop_operation_xyz
x,y,z
x,-y,1/2+z
1/2+x,1/2+y,z
1/2+x,1/2-y,1/2+z
loop_
_atom_site_type_symbol
_atom_site_label
_atom_site_fract_x
_atom_site_fract_y
_atom_site_fract_z
Si Si1 0.402600 0.693172 0.343130
Si Si2 0.118123 0.206923 0.493895
Si Si3 0.005535 0.702653 0.199779
Si Si4 0.369352 0.349484 0.365379
Si Si5 0.181052 0.907728 0.704709
Si Si6 0.657857 0.971240 0.807156
Si Si7 0.602629 0.543101 0.992969
Si Si8 0.341063 0.919909 0.325393
O O1 0.454330 0.732483 0.448222
O O2 0.547065 0.627788 0.287843
O O3 0.246649 0.620065 0.365949
O O4 0.378512 0.801194 0.278979
O O5 0.259825 0.267045 0.430715
O O6 0.097502 0.239405 0.607506
O O7 0.150467 0.080912 0.484098
O O8 0.999912 0.782160 0.295697
O O9 0.823106 0.677400 0.185655
O O10 0.107985 0.592771 0.210521
O O11 0.273169 0.424735 0.292396
O O12 0.442039 0.428014 0.444478
O O13 0.093491 0.921449 0.606307
O O14 0.250148 0.018768 0.743792
O O15 0.492598 0.014860 0.858828
O O16 0.739796 0.605311 0.928042
#
# Coordination Sequence:
#
# PCOD8056335 Si02
#       8
#     4   4   4   4   4   4   4   4
#     4  12  23  46  71 102 142 187 234 294 360 423
#     4  12  25  44  72 106 142 185 246 298 358 438
#     4  11  26  45  72 104 141 188 238 296 362 429
#     4  12  25  50  69 104 149 183 242 302 350 440
#     4  11  25  46  67 105 144 186 241 292 362 430
#     4  11  24  42  74 100 135 190 232 287 361 416
#     4  12  27  44  73 103 146 193 237 297 371 429
#     4  11  23  47  70 100 143 184 236 304 350 429
#
# _framework density 22.359528999999998
#
# number of rings (size 3 to 8) (size 9 to 14) (size 15 to 20)
#    0.000    0.500    5.000    2.250    7.000    0.000 
#    0.000    1.250    0.000    0.000    0.000    0.000 
#    0.000    0.000    0.000    0.000    0.000    0.000 
#
# Total GULP energy -198274.125766 kJ/mol
# GULP energy per Si atom -12392.132860 kJ/mol
# Density = 2.230864 g / cm^3
# Si number density = 22.359529 Si / 1000 Ang^3
#
#
#
# Elastic Constant Matrix: (Units=GPa)
#
#
# Indices 1 2 3 4 5 6 
#
# 1 89.6626 36.1025 28.7625 0.0000 14.1331 0.0000
# 2 36.1025 125.5998 32.2631 0.0000 8.5441 0.0000
# 3 28.7625 32.2631 107.4018 0.0000 3.7570 0.0000
# 4 0.0000 0.0000 0.0000 29.0932 0.0000 7.8363
# 5 14.1331 8.5441 3.7570 0.0000 26.6627 0.0000
# 6 0.0000 0.0000 0.0000 7.8363 0.0000 43.9277
#
#
#
# Elastic Compliance Matrix: (Units=1/GPa)
#
#
# Indices 1 2 3 4 5 6 
#
# 1 0.014186 -0.002965 -0.002692 0.000000 -0.006190 0.000000
# 2 -0.002965 0.009404 -0.001990 0.000000 -0.001161 0.000000
# 3 -0.002692 -0.001990 0.010610 0.000000 0.000570 0.000000
# 4 0.000000 0.000000 0.000000 0.036107 0.000000 -0.006441
# 5 -0.006190 -0.001161 0.000570 0.000000 0.041079 0.000000
# 6 0.000000 0.000000 0.000000 -0.006441 0.000000 0.023914
#
#
# Mechanical properties :
#
#
# Convention : Reuss Voigt Hill
#
# Bulk Modulus (GPa) = 52.89457 57.43561 55.16509
# Shear Modulus (GPa) = 31.86824 34.97246 33.42035
#
# Velocity S-wave (km/s) = 3.77936 3.95916 3.87030
# Velocity P-wave (km/s) = 6.53854 6.82957 6.68564
#
# Compressibility (1/GPa) = 0.01890553
#
# Stress axis : x y z
#
# Youngs Moduli (GPa) = 70.49190 106.33367 94.25357
#
# Poissons Ratio (x) = 0.31529 0.25371
# Poissons Ratio (y) = 0.20902 0.18760
# Poissons Ratio (z) = 0.18975 0.21164
#
# Static dielectric constant tensor:
#      x y z
#    x 4.244510 0.000000 0.251280 
#    y 0.000000 4.363300 0.000000 
#    z 0.251280 0.000000 3.833920 
# 
# 
# High freq. dielectric constant tensor:
#      x y z
#    x 1.893950 0.000000 0.014040 
#    y 0.000000 1.904490 0.000000 
#    z 0.014040 0.000000 1.850360 
# 
# From -- ./inp_files/22733.got.cif
#   From: 2010.06.25/outbox.cif.g09.slc.cpg/sg9_12_cif.got.tgz:22733.got - 2010.06.27 21:40:51.
