data_PCOD8056697
_publ_section_title
;
Structure prediction by ZEFSAII (Michael W. Deem and Ramdas Pophale) SiO2 
 PCOD8056697
Probable space group: C C
;
_chemical_formula_sum "Si O2"
_cell_formula_units_Z 24
_cell_length_a 19.513401
_cell_length_b 8.888776
_cell_length_c 8.821526
_cell_angle_alpha 90.000000
_cell_angle_beta 141.945716
_cell_angle_gamma 90.000000
_cell_volume 943.163025
_symmetry_space_group_name_H-M "C C"
_symmetry_group_IT_number 9
_symmetry_cell_setting 'monoclinic'
loop_
_space_group_symop_operation_xyz
x,y,z
x,-y,1/2+z
1/2+x,1/2+y,z
1/2+x,1/2-y,1/2+z
loop_
_atom_site_type_symbol
_atom_site_label
_atom_site_fract_x
_atom_site_fract_y
_atom_site_fract_z
Si Si1 0.489680 0.617661 0.186550
Si Si2 0.188658 0.069068 0.888102
Si Si3 0.358126 0.563738 0.241439
Si Si4 0.815673 0.613599 0.820968
Si Si5 0.508993 0.052629 0.809996
Si Si6 0.147954 0.595497 0.334925
O O1 0.595501 0.547021 0.284831
O O2 0.468593 0.577762 0.327866
O O3 0.488507 0.797119 0.177221
O O4 0.381839 0.559677 0.910299
O O5 0.203202 0.094820 0.730724
O O6 0.166979 0.233067 0.915434
O O7 0.303324 0.000246 0.157556
O O8 0.328972 0.720967 0.273750
O O9 0.256999 0.493639 0.964656
O O10 0.913981 0.569652 0.107521
O O11 0.624120 0.984651 0.952007
O O12 0.536100 0.082607 0.034476
#
# Coordination Sequence:
#
# PCOD8056697 Si02
#       6
#     4   4   4   4   4   4
#     4  12  25  45  73 107 143 187 240 298 357 428
#     4  12  25  45  73 107 143 187 240 298 357 428
#     4  12  26  48  74 105 144 189 241 297 360 429
#     4  12  26  48  74 105 144 189 241 297 360 429
#     4  12  26  45  69 102 141 186 236 293 356 425
#     4  12  26  45  69 102 141 186 236 293 356 425
#
# _framework density 25.446287999999999
#
# number of rings (size 3 to 8) (size 9 to 14) (size 15 to 20)
#    0.000    0.000    0.000   12.000    0.000    5.333 
#    0.000    1.667    0.000    0.000    0.000    0.000 
#    0.000    0.000    0.000    0.000    0.000    0.000 
#
# Total GULP energy -148698.317580 kJ/mol
# GULP energy per Si atom -12391.526465 kJ/mol
# Density = 2.538837 g / cm^3
# Si number density = 25.446288 Si / 1000 Ang^3
#
#
#
# Elastic Constant Matrix: (Units=GPa)
#
#
# Indices 1 2 3 4 5 6 
#
# 1 101.8439 5.0562 -7.2879 0.0000 -11.9617 0.0000
# 2 5.0562 153.5650 51.2911 0.0000 -5.4684 0.0000
# 3 -7.2879 51.2911 102.1225 0.0000 -5.1743 0.0000
# 4 0.0000 0.0000 0.0000 42.3197 0.0000 5.0746
# 5 -11.9617 -5.4684 -5.1743 0.0000 31.7539 0.0000
# 6 0.0000 0.0000 0.0000 5.0746 0.0000 42.6949
#
#
#
# Elastic Compliance Matrix: (Units=1/GPa)
#
#
# Indices 1 2 3 4 5 6 
#
# 1 0.010412 -0.000620 0.001258 0.000000 0.004020 0.000000
# 2 -0.000620 0.007877 -0.003977 0.000000 0.000475 0.000000
# 3 0.001258 -0.003977 0.011967 0.000000 0.001739 0.000000
# 4 0.000000 0.000000 0.000000 0.023971 0.000000 -0.002849
# 5 0.004020 0.000475 0.001739 0.000000 0.033372 0.000000
# 6 0.000000 0.000000 0.000000 -0.002849 0.000000 0.023761
#
#
# Mechanical properties :
#
#
# Convention : Reuss Voigt Hill
#
# Bulk Modulus (GPa) = 42.40897 50.62782 46.51840
# Shear Modulus (GPa) = 39.71488 43.91848 41.81668
#
# Velocity S-wave (km/s) = 3.95490 4.15894 4.05820
# Velocity P-wave (km/s) = 6.12839 6.55755 6.34660
#
# Compressibility (1/GPa) = 0.02357992
#
# Stress axis : x y z
#
# Youngs Moduli (GPa) = 96.04345 126.94504 83.56086
#
# Poissons Ratio (x) = 0.07869 -0.10513
# Poissons Ratio (y) = 0.05953 0.33229
# Poissons Ratio (z) = -0.12083 0.50481
#
# Static dielectric constant tensor:
#      x y z
#    x 4.767000 0.000000 0.025770 
#    y 0.000000 4.468930 0.000000 
#    z 0.025770 0.000000 4.590880 
# 
# 
# High freq. dielectric constant tensor:
#      x y z
#    x 2.035850 0.000000 0.006880 
#    y 0.000000 2.017610 0.000000 
#    z 0.006880 0.000000 2.023510 
# 
# From -- ./inp_files/6734.got.cif
#   From: 2010.06.25/outbox.cif.g09.slc.cpg/sg9_4_cif.got.tgz:6734.got - 2010.06.27 21:40:51.
