data_PCOD8056606
_publ_section_title
;
Structure prediction by ZEFSAII (Michael W. Deem and Ramdas Pophale) SiO2 
 PCOD8056606
Probable space group: C C
;
_chemical_formula_sum "Si O2"
_cell_formula_units_Z 32
_cell_length_a 14.470477
_cell_length_b 18.594658
_cell_length_c 5.376128
_cell_angle_alpha 90.000000
_cell_angle_beta 66.366416
_cell_angle_gamma 90.000000
_cell_volume 1325.246773
_symmetry_space_group_name_H-M "C C"
_symmetry_group_IT_number 9
_symmetry_cell_setting 'monoclinic'
loop_
_space_group_symop_operation_xyz
x,y,z
x,-y,1/2+z
1/2+x,1/2+y,z
1/2+x,1/2-y,1/2+z
loop_
_atom_site_type_symbol
_atom_site_label
_atom_site_fract_x
_atom_site_fract_y
_atom_site_fract_z
Si Si1 0.055280 0.846545 0.737250
Si Si2 0.433115 0.456046 0.122962
Si Si3 0.925128 0.226618 0.011420
Si Si4 0.110836 0.545726 0.400685
Si Si5 0.428530 0.129799 0.756330
Si Si6 0.757934 0.132368 0.971192
Si Si7 0.063767 0.297602 0.476255
Si Si8 0.226850 0.044518 0.991882
O O1 0.088492 0.764565 0.749719
O O2 0.152064 0.888793 0.534814
O O3 0.964872 0.840869 0.631518
O O4 0.006908 0.886404 0.031169
O O5 0.458533 0.498927 0.347087
O O6 0.317335 0.429493 0.253989
O O7 0.831901 0.198307 0.950651
O O8 0.020817 0.256733 0.759600
O O9 0.882889 0.294497 0.211825
O O10 0.109782 0.507650 0.667236
O O11 0.012486 0.596774 0.479014
O O12 0.210739 0.595941 0.270645
O O13 0.481796 0.145128 0.964053
O O14 0.340957 0.071894 0.878891
O O15 0.667277 0.160369 0.901155
O O16 0.206445 0.993752 0.777474
#
# Coordination Sequence:
#
# PCOD8056606 Si02
#       8
#     4   4   4   4   4   4   4   4
#     4  11  27  48  75 109 154 195 263 309 390 446
#     4  12  26  47  74 108 149 194 242 309 369 449
#     4  11  26  48  75 110 146 203 246 332 375 453
#     4  12  26  47  74 108 149 194 242 309 369 449
#     4  11  27  48  75 109 154 195 263 309 390 446
#     4  12  26  47  80 107 152 188 266 300 400 448
#     4  11  26  48  75 110 146 203 246 332 375 453
#     4  12  30  49  80 115 156 214 256 310 382 464
#
# _framework density 24.146443999999999
#
# number of rings (size 3 to 8) (size 9 to 14) (size 15 to 20)
#    0.000    0.500    2.500    3.750    7.000    3.000 
#    0.000    0.000    0.000    0.000    0.000    0.000 
#    0.000    0.000    0.000    0.000    0.000    0.000 
#
# Total GULP energy -198416.651085 kJ/mol
# GULP energy per Si atom -12401.040693 kJ/mol
# Density = 2.409149 g / cm^3
# Si number density = 24.146444 Si / 1000 Ang^3
#
#
#
# Elastic Constant Matrix: (Units=GPa)
#
#
# Indices 1 2 3 4 5 6 
#
# 1 67.8782 18.8443 6.8662 0.0000 5.8236 0.0000
# 2 18.8443 84.3252 21.4439 0.0000 5.5499 0.0000
# 3 6.8662 21.4439 94.7669 0.0000 3.1369 0.0000
# 4 0.0000 0.0000 0.0000 43.0525 0.0000 -16.1069
# 5 5.8236 5.5499 3.1369 0.0000 44.4857 0.0000
# 6 0.0000 0.0000 0.0000 -16.1069 0.0000 51.3794
#
#
#
# Elastic Compliance Matrix: (Units=1/GPa)
#
#
# Indices 1 2 3 4 5 6 
#
# 1 0.015835 -0.003346 -0.000336 0.000000 -0.001632 0.000000
# 2 -0.003346 0.013374 -0.002750 0.000000 -0.001037 0.000000
# 3 -0.000336 -0.002750 0.011212 0.000000 -0.000404 0.000000
# 4 0.000000 0.000000 0.000000 0.026314 0.000000 0.008249
# 5 -0.001632 -0.001037 -0.000404 0.000000 0.022851 0.000000
# 6 0.000000 0.000000 0.000000 0.008249 0.000000 0.022049
#
#
# Mechanical properties :
#
#
# Convention : Reuss Voigt Hill
#
# Bulk Modulus (GPa) = 36.28698 37.91991 37.10345
# Shear Modulus (GPa) = 37.40178 41.10459 39.25318
#
# Velocity S-wave (km/s) = 3.93995 4.13037 4.03628
# Velocity P-wave (km/s) = 5.97981 6.20362 6.09274
#
# Compressibility (1/GPa) = 0.02755809
#
# Stress axis : x y z
#
# Youngs Moduli (GPa) = 63.15071 74.77207 89.18941
#
# Poissons Ratio (x) = 0.25017 0.02999
# Poissons Ratio (y) = 0.21129 0.24523
# Poissons Ratio (z) = 0.02123 0.20559
#
# Static dielectric constant tensor:
#      x y z
#    x 4.176550 0.000000 -0.124540 
#    y 0.000000 4.729340 0.000000 
#    z -0.124540 0.000000 4.385040 
# 
# 
# High freq. dielectric constant tensor:
#      x y z
#    x 1.953400 0.000000 -0.005660 
#    y 0.000000 1.982720 0.000000 
#    z -0.005660 0.000000 1.961890 
# 
# From -- ./inp_files/2567.got.cif
#   From: 2010.06.25/outbox.cif.g09.slc.cpg/sg9_2_cif.got.tgz:2567.got - 2010.06.27 21:40:51.
