data_PCOD8056286
_publ_section_title
;
Structure prediction by ZEFSAII (Michael W. Deem and Ramdas Pophale) SiO2 
 PCOD8056286
Probable space group: C C
;
_chemical_formula_sum "Si O2"
_cell_formula_units_Z 28
_cell_length_a 7.497025
_cell_length_b 13.642898
_cell_length_c 17.529092
_cell_angle_alpha 90.000000
_cell_angle_beta 41.773800
_cell_angle_gamma 90.000000
_cell_volume 1194.411859
_symmetry_space_group_name_H-M "C C"
_symmetry_group_IT_number 9
_symmetry_cell_setting 'monoclinic'
loop_
_space_group_symop_operation_xyz
x,y,z
x,-y,1/2+z
1/2+x,1/2+y,z
1/2+x,1/2-y,1/2+z
loop_
_atom_site_type_symbol
_atom_site_label
_atom_site_fract_x
_atom_site_fract_y
_atom_site_fract_z
Si Si1 0.176540 0.687637 0.490230
Si Si2 0.775494 0.489833 0.982421
Si Si3 0.848396 0.919579 0.803318
Si Si4 0.288140 0.828010 0.581451
Si Si5 0.375069 0.321822 0.169237
Si Si6 0.629601 0.380885 0.228418
Si Si7 0.242792 0.859682 0.365383
O O1 0.370654 0.611839 0.385128
O O2 0.332221 0.740717 0.507736
O O3 0.095411 0.767604 0.451785
O O4 0.927640 0.628492 0.601987
O O5 0.670838 0.545664 0.940314
O O6 0.043185 0.431771 0.874852
O O7 0.876116 0.569051 0.015457
O O8 0.550422 0.413755 0.081837
O O9 0.974212 0.837801 0.706229
O O10 0.037376 0.011892 0.733751
O O11 0.444397 0.782988 0.605478
O O12 0.439530 0.307647 0.239170
O O13 0.063759 0.348155 0.257021
O O14 0.606560 0.366400 0.325899
#
# Coordination Sequence:
#
# PCOD8056286 Si02
#       7
#     4   4   4   4   4   4   4
#     4  11  23  45  69 100 144 185 240 312 357 441
#     4  11  24  46  77 106 145 200 242 314 386 437
#     4  12  22  45  71 102 149 186 242 321 362 452
#     4  11  24  45  71 104 148 186 253 309 364 457
#     4  12  23  46  75 102 147 190 245 307 375 448
#     4  12  25  43  72 108 141 190 252 294 375 455
#     4  11  25  46  71 102 146 189 244 309 369 444
#
# _framework density 23.442501
#
# number of rings (size 3 to 8) (size 9 to 14) (size 15 to 20)
#    0.000    0.571    7.143    0.000    2.000    1.143 
#    2.571    5.714    0.000    0.000    0.000    0.000 
#    0.000    0.000    0.000    0.000    0.000    0.000 
#
# Total GULP energy -173438.102072 kJ/mol
# GULP energy per Si atom -12388.435862 kJ/mol
# Density = 2.338914 g / cm^3
# Si number density = 23.442501 Si / 1000 Ang^3
#
#
#
# Elastic Constant Matrix: (Units=GPa)
#
#
# Indices 1 2 3 4 5 6 
#
# 1 119.5690 26.8396 18.1764 0.0024 39.4026 -0.0016
# 2 26.8396 75.6714 31.1334 0.0112 7.8341 -0.0055
# 3 18.1764 31.1334 86.2832 0.0306 21.6021 -0.0063
# 4 0.0024 0.0112 0.0306 49.9313 -0.0091 9.6238
# 5 39.4026 7.8341 21.6021 -0.0091 40.6078 0.0018
# 6 -0.0016 -0.0055 -0.0063 9.6238 0.0018 22.1834
#
#
#
# Elastic Compliance Matrix: (Units=1/GPa)
#
#
# Indices 1 2 3 4 5 6 
#
# 1 0.013356 -0.004196 0.002010 -0.000004 -0.013219 0.000003
# 2 -0.004196 0.016837 -0.006227 0.000001 0.004135 0.000001
# 3 0.002010 -0.006227 0.015690 -0.000012 -0.009096 0.000009
# 4 -0.000004 0.000001 -0.000012 0.021855 0.000015 -0.009481
# 5 -0.013219 0.004135 -0.009096 0.000015 0.041494 -0.000013
# 6 0.000003 0.000001 0.000009 -0.009481 -0.000013 0.049192
#
#
# Mechanical properties :
#
#
# Convention : Reuss Voigt Hill
#
# Bulk Modulus (GPa) = 34.41329 48.20248 41.30789
# Shear Modulus (GPa) = 27.03661 36.23612 31.63636
#
# Velocity S-wave (km/s) = 3.39973 3.93586 3.67758
# Velocity P-wave (km/s) = 5.48841 6.42350 5.97428
#
# Compressibility (1/GPa) = 0.02905854
#
# Stress axis : x y z
#
# Youngs Moduli (GPa) = 74.87355 59.39348 63.73339
#
# Poissons Ratio (x) = 0.24919 -0.12810
# Poissons Ratio (y) = 0.31413 0.39685
# Poissons Ratio (z) = -0.15049 0.36983
#
# Static dielectric constant tensor:
#      x y z
#    x 4.249320 0.000000 0.480620 
#    y 0.000000 4.509660 -0.000010 
#    z 0.480620 -0.000010 4.571900 
# 
# 
# High freq. dielectric constant tensor:
#      x y z
#    x 1.897890 0.000000 0.025650 
#    y 0.000000 1.932970 0.000000 
#    z 0.025650 0.000000 1.949830 
# 
# From -- ./inp_files/32537.got.cif
#   From: 2010.06.25/outbox.cif.g09.slc.cpg/sg9_17_cif.got.tgz:32537.got - 2010.06.27 21:40:51.
