data_PCOD8056250
_publ_section_title
;
Structure prediction by ZEFSAII (Michael W. Deem and Ramdas Pophale) SiO2 
 PCOD8056250
Probable space group: C C
;
_chemical_formula_sum "Si O2"
_cell_formula_units_Z 24
_cell_length_a 6.694844
_cell_length_b 30.504332
_cell_length_c 5.039422
_cell_angle_alpha 90.000000
_cell_angle_beta 97.843558
_cell_angle_gamma 90.000000
_cell_volume 1019.531123
_symmetry_space_group_name_H-M "C C"
_symmetry_group_IT_number 9
_symmetry_cell_setting 'monoclinic'
loop_
_space_group_symop_operation_xyz
x,y,z
x,-y,1/2+z
1/2+x,1/2+y,z
1/2+x,1/2-y,1/2+z
loop_
_atom_site_type_symbol
_atom_site_label
_atom_site_fract_x
_atom_site_fract_y
_atom_site_fract_z
Si Si1 0.731440 0.286557 0.181220
Si Si2 0.967277 0.799558 0.647437
Si Si3 0.106725 0.472298 0.807520
Si Si4 0.817528 0.104707 0.087759
Si Si5 0.259531 0.084616 0.222741
Si Si6 0.438002 0.127804 0.761372
O O1 0.553093 0.294502 0.363858
O O2 0.805994 0.236933 0.203134
O O3 0.922584 0.319430 0.244740
O O4 0.655264 0.296548 0.874425
O O5 0.859259 0.845762 0.686634
O O6 0.171616 0.507563 0.599026
O O7 0.209084 0.424578 0.793840
O O8 0.865727 0.463302 0.736273
O O9 0.028895 0.079628 0.084385
O O10 0.670168 0.109296 0.800303
O O11 0.293293 0.104008 0.524185
O O12 0.359716 0.118443 0.041173
#
# Coordination Sequence:
#
# PCOD8056250 Si02
#       6
#     4   4   4   4   4   4
#     4  12  24  45  67 106 154 190 245 297 343 426
#     4  12  26  43  70 106 148 196 245 293 359 416
#     4  11  26  46  70 106 140 180 236 301 366 435
#     4  11  25  46  76 104 140 190 238 294 363 428
#     4  11  24  45  72 100 141 183 235 291 354 432
#     4  11  23  43  69 104 143 183 239 290 341 419
#
# _framework density 23.540232
#
# number of rings (size 3 to 8) (size 9 to 14) (size 15 to 20)
#    0.000    0.667    3.333    4.000    0.000   12.000 
#    0.000    0.000    0.000    0.000    0.000    0.000 
#    0.000    0.000    0.000    0.000    0.000    0.000 
#
# Total GULP energy -148706.089353 kJ/mol
# GULP energy per Si atom -12392.174113 kJ/mol
# Density = 2.348665 g / cm^3
# Si number density = 23.540232 Si / 1000 Ang^3
#
#
#
# Elastic Constant Matrix: (Units=GPa)
#
#
# Indices 1 2 3 4 5 6 
#
# 1 112.7569 35.2053 23.0499 0.0000 18.5486 0.0000
# 2 35.2053 98.9027 13.8559 0.0000 -17.2788 0.0000
# 3 23.0499 13.8559 79.4690 0.0000 -0.4444 0.0000
# 4 0.0000 0.0000 0.0000 23.7323 0.0000 6.2965
# 5 18.5486 -17.2788 -0.4444 0.0000 32.4658 0.0000
# 6 0.0000 0.0000 0.0000 6.2965 0.0000 47.1538
#
#
#
# Elastic Compliance Matrix: (Units=1/GPa)
#
#
# Indices 1 2 3 4 5 6 
#
# 1 0.013157 -0.006186 -0.002798 0.000000 -0.010847 0.000000
# 2 -0.006186 0.014354 -0.000646 0.000000 0.011165 0.000000
# 3 -0.002798 -0.000646 0.013516 0.000000 0.001440 0.000000
# 4 0.000000 0.000000 0.000000 0.043684 0.000000 -0.005833
# 5 -0.010847 0.011165 0.001440 0.000000 0.042961 0.000000
# 6 0.000000 0.000000 0.000000 -0.005833 0.000000 0.021986
#
#
# Mechanical properties :
#
#
# Convention : Reuss Voigt Hill
#
# Bulk Modulus (GPa) = 45.94373 48.37231 47.15802
# Shear Modulus (GPa) = 28.38107 35.27154 31.82630
#
# Velocity S-wave (km/s) = 3.47600 3.87505 3.68094
# Velocity P-wave (km/s) = 5.97240 6.37297 6.17594
#
# Compressibility (1/GPa) = 0.02176576
#
# Stress axis : x y z
#
# Youngs Moduli (GPa) = 76.00778 69.66654 73.98753
#
# Poissons Ratio (x) = 0.43098 0.20702
# Poissons Ratio (y) = 0.47021 0.04779
# Poissons Ratio (z) = 0.21268 0.04500
#
# Static dielectric constant tensor:
#      x y z
#    x 4.663220 0.000000 0.301910 
#    y 0.000000 4.495820 0.000000 
#    z 0.301910 0.000000 4.188210 
# 
# 
# High freq. dielectric constant tensor:
#      x y z
#    x 1.924420 0.000000 0.010770 
#    y 0.000000 1.940760 0.000000 
#    z 0.010770 0.000000 1.934500 
# 
# From -- ./inp_files/381.got.cif
#   From: 2010.06.25/outbox.cif.g09.slc.cpg/sg9_1_cif.got.tgz:381.got - 2010.06.27 21:40:51.
