data_PCOD8056896
_publ_section_title
;
Structure prediction by ZEFSAII (Michael W. Deem and Ramdas Pophale) SiO2 
 PCOD8056896
Probable space group: P 2/M
;
_chemical_formula_sum "Si O2"
_cell_formula_units_Z 32
_cell_length_a 9.471548
_cell_length_b 19.350613
_cell_length_c 12.132441
_cell_angle_alpha 90.000000
_cell_angle_beta 129.948167
_cell_angle_gamma 90.000000
_cell_volume 1704.697073
_symmetry_space_group_name_H-M "P 2/M"
_symmetry_group_IT_number 10
_symmetry_cell_setting 'monoclinic'
loop_
_space_group_symop_operation_xyz
x,y,z
-x,y,-z
-x,-y,-z
x,-y,z
loop_
_atom_site_type_symbol
_atom_site_label
_atom_site_fract_x
_atom_site_fract_y
_atom_site_fract_z
Si Si1 0.594933 0.578739 0.213778
Si Si2 0.661038 0.578566 0.505523
Si Si3 0.560956 0.283268 0.910205
Si Si4 0.890222 0.814278 0.056250
Si Si5 0.970831 0.362974 0.361360
Si Si6 0.577359 0.079448 0.916498
Si Si7 0.694381 0.821863 0.325986
Si Si8 0.027476 0.204172 0.355334
O O1 0.541623 0.500000 0.154775
O O2 0.615901 0.586145 0.354816
O O3 0.435719 0.633273 0.099831
O O4 0.774971 0.602089 0.232674
O O5 0.500000 0.613571 0.500000
O O6 0.679425 0.500000 0.552136
O O7 0.859982 0.612398 0.630894
O O8 0.413277 0.249912 0.751797
O O9 0.500000 0.257969 0.000000
O O10 0.764829 0.254489 0.991462
O O11 0.036993 0.809711 0.229912
O O12 0.774378 0.884059 0.010877
O O13 0.000000 0.817972 0.000000
O O14 0.000000 0.389015 0.500000
O O15 0.962398 0.281311 0.350324
O O16 0.445253 0.114227 0.758395
O O17 0.601548 0.000000 0.896335
O O18 0.500000 0.089500 0.000000
O O19 0.775732 0.815117 0.491148
O O20 0.862158 0.839263 0.327178
#
# Coordination Sequence:
#
# PCOD8056896 Si02
#       8
#     4   4   4   4   4   4   4   4
#     4  10  19  30  48  75 101 136 187 235 281 331
#     4   9  18  30  43  65 103 144 178 222 285 348
#     4  11  19  37  56  76 108 148 185 229 285 338
#     4  11  23  38  58  84 116 150 186 225 275 339
#     4  10  16  28  50  76 102 135 181 240 288 322
#     4  10  20  38  62  87 116 152 187 218 268 334
#     4  10  17  33  60  84 109 139 184 232 268 320
#     4  11  18  33  56  86 111 141 183 233 278 315
#
# _framework density 18.771664000000001
#
# number of rings (size 3 to 8) (size 9 to 14) (size 15 to 20)
#    0.000    1.750    5.000    1.875    0.000    3.000 
#    0.000    4.375    0.000    1.125    0.000    0.000 
#    0.000    0.000    0.000    0.000    0.000    0.000 
#
# Total GULP energy -396655.947339 kJ/mol
# GULP energy per Si atom -12395.498354 kJ/mol
# Density = 1.872894 g / cm^3
# Si number density = 18.771664 Si / 1000 Ang^3
#
#
#
# Elastic Constant Matrix: (Units=GPa)
#
#
# Indices 1 2 3 4 5 6 
#
# 1 115.2181 33.1509 35.7742 0.0000 -3.6284 0.0000
# 2 33.1509 130.1596 42.1231 0.0000 9.3114 0.0000
# 3 35.7742 42.1231 125.5047 0.0000 -3.4580 0.0000
# 4 0.0000 0.0000 0.0000 5.7389 0.0000 -4.7465
# 5 -3.6284 9.3114 -3.4580 0.0000 19.6907 0.0000
# 6 0.0000 0.0000 0.0000 -4.7465 0.0000 5.7227
#
#
#
# Elastic Compliance Matrix: (Units=1/GPa)
#
#
# Indices 1 2 3 4 5 6 
#
# 1 0.009994 -0.002042 -0.002096 0.000000 0.002439 0.000000
# 2 -0.002042 0.009473 -0.002745 0.000000 -0.005338 0.000000
# 3 -0.002096 -0.002745 0.009558 0.000000 0.002590 0.000000
# 4 0.000000 0.000000 0.000000 0.554897 0.000000 0.460240
# 5 0.002439 -0.005338 0.002590 0.000000 0.054214 0.000000
# 6 0.000000 0.000000 0.000000 0.460240 0.000000 0.556474
#
#
# Mechanical properties :
#
#
# Convention : Reuss Voigt Hill
#
# Bulk Modulus (GPa) = 65.53000 65.88653 65.70826
# Shear Modulus (GPa) = 4.12045 23.55274 13.83659
#
# Velocity S-wave (km/s) = 1.48317 3.54601 2.71790
# Velocity P-wave (km/s) = 6.15775 7.20699 6.70293
#
# Compressibility (1/GPa) = 0.01526019
#
# Stress axis : x y z
#
# Youngs Moduli (GPa) = 100.05704 105.56435 104.62534
#
# Poissons Ratio (x) = 0.21551 0.21934
# Poissons Ratio (y) = 0.20427 0.28715
# Poissons Ratio (z) = 0.20976 0.28973
#
# Static dielectric constant tensor:
#      x y z
#    x 3.429230 0.000000 0.099130 
#    y 0.000000 3.374920 0.000000 
#    z 0.099130 0.000000 3.490420 
# 
# 
# High freq. dielectric constant tensor:
#      x y z
#    x 1.704530 0.000000 0.009010 
#    y 0.000000 1.717300 0.000000 
#    z 0.009010 0.000000 1.724370 
# 
# From -- ./inp_files/43621.got.cif
#   From: 2010.06.25/outbox.cif.g09.slc.cpg/sg10_22_cif.got.tgz:43621.got - 2010.06.27 22:07:45.
