data_PCOD8056395
_publ_section_title
;
Structure prediction by ZEFSAII (Michael W. Deem and Ramdas Pophale) SiO2 
 PCOD8056395
Probable space group: C C
;
_chemical_formula_sum "Si O2"
_cell_formula_units_Z 32
_cell_length_a 28.236506
_cell_length_b 8.899745
_cell_length_c 8.844933
_cell_angle_alpha 90.000000
_cell_angle_beta 38.609628
_cell_angle_gamma 90.000000
_cell_volume 1386.996141
_symmetry_space_group_name_H-M "C C"
_symmetry_group_IT_number 9
_symmetry_cell_setting 'monoclinic'
loop_
_space_group_symop_operation_xyz
x,y,z
x,-y,1/2+z
1/2+x,1/2+y,z
1/2+x,1/2-y,1/2+z
loop_
_atom_site_type_symbol
_atom_site_label
_atom_site_fract_x
_atom_site_fract_y
_atom_site_fract_z
Si Si1 0.252980 0.642988 0.288330
Si Si2 0.587991 0.859279 0.260559
Si Si3 0.092288 0.921808 0.959105
Si Si4 0.347032 0.464843 0.277200
Si Si5 0.251439 0.968863 0.184071
Si Si6 0.499942 0.094582 0.677393
Si Si7 0.999180 0.875714 0.487990
Si Si8 0.843651 0.637998 0.178957
O O1 0.171558 0.567674 0.529505
O O2 0.314872 0.602862 0.260314
O O3 0.239461 0.822039 0.318123
O O4 0.282627 0.577126 0.057504
O O5 0.596216 0.696328 0.313643
O O6 0.550407 0.841503 0.189508
O O7 0.540118 0.955197 0.498405
O O8 0.047672 0.858105 0.214638
O O9 0.175480 0.978907 0.792854
O O10 0.048603 0.063010 0.002251
O O11 0.361825 0.316580 0.138352
O O12 0.425636 0.518744 0.153424
O O13 0.278493 0.108878 0.217783
O O14 0.317556 0.926124 0.903592
O O15 0.479527 0.210104 0.594019
O O16 0.419334 0.045227 0.948401
#
# Coordination Sequence:
#
# PCOD8056395 Si02
#       8
#     4   4   4   4   4   4   4   4
#     4  11  24  44  67  98 135 174 227 278 341 404
#     4  12  26  44  68 100 136 176 223 280 339 404
#     4  12  25  45  70  98 136 180 228 279 340 405
#     4  11  25  43  69  98 133 179 224 282 339 403
#     4  11  25  43  69  98 133 179 224 282 339 403
#     4  12  26  44  68 100 136 176 223 280 339 404
#     4  12  25  45  70  98 136 180 228 279 340 405
#     4  11  24  44  67  98 135 174 227 278 341 404
#
# _framework density 23.071439999999999
#
# number of rings (size 3 to 8) (size 9 to 14) (size 15 to 20)
#    0.000    0.500    0.000    9.000    0.000   12.000 
#    0.000    0.000    0.000    0.000    0.000    0.000 
#    0.000    0.000    0.000    0.000    0.000    0.000 
#
# Total GULP energy -198472.308069 kJ/mol
# GULP energy per Si atom -12404.519254 kJ/mol
# Density = 2.301893 g / cm^3
# Si number density = 23.071440 Si / 1000 Ang^3
#
#
#
# Elastic Constant Matrix: (Units=GPa)
#
#
# Indices 1 2 3 4 5 6 
#
# 1 126.0749 36.7212 18.6630 0.0000 -7.9382 0.0000
# 2 36.7212 92.8448 21.2768 0.0000 -3.6703 0.0000
# 3 18.6630 21.2768 139.5421 0.0000 -9.2185 0.0000
# 4 0.0000 0.0000 0.0000 32.2772 0.0000 3.0361
# 5 -7.9382 -3.6703 -9.2185 0.0000 38.9419 0.0000
# 6 0.0000 0.0000 0.0000 3.0361 0.0000 46.5761
#
#
#
# Elastic Compliance Matrix: (Units=1/GPa)
#
#
# Indices 1 2 3 4 5 6 
#
# 1 0.009101 -0.003406 -0.000606 0.000000 0.001391 0.000000
# 2 -0.003406 0.012452 -0.001434 0.000000 0.000140 0.000000
# 3 -0.000606 -0.001434 0.007567 0.000000 0.001533 0.000000
# 4 0.000000 0.000000 0.000000 0.031173 0.000000 -0.002032
# 5 0.001391 0.000140 0.001533 0.000000 0.026339 0.000000
# 6 0.000000 0.000000 0.000000 -0.002032 0.000000 0.021603
#
#
# Mechanical properties :
#
#
# Convention : Reuss Voigt Hill
#
# Bulk Modulus (GPa) = 54.85816 56.86486 55.86151
# Shear Modulus (GPa) = 39.93553 42.34576 41.14064
#
# Velocity S-wave (km/s) = 4.16498 4.28883 4.22736
# Velocity P-wave (km/s) = 6.85263 7.01614 6.93487
#
# Compressibility (1/GPa) = 0.01822883
#
# Stress axis : x y z
#
# Youngs Moduli (GPa) = 109.87762 80.30985 132.14868
#
# Poissons Ratio (x) = 0.27351 0.08009
# Poissons Ratio (y) = 0.37421 0.18948
# Poissons Ratio (z) = 0.06659 0.11515
#
# Static dielectric constant tensor:
#      x y z
#    x 4.149970 0.000000 0.030330 
#    y 0.000000 4.031210 0.000000 
#    z 0.030330 0.000000 4.438350 
# 
# 
# High freq. dielectric constant tensor:
#      x y z
#    x 1.921310 0.000000 0.003570 
#    y 0.000000 1.903660 0.000000 
#    z 0.003570 0.000000 1.938860 
# 
# From -- ./inp_files/12401.got.cif
#   From: 2010.06.25/outbox.cif.g09.slc.cpg/sg9_7_cif.got.tgz:12401.got - 2010.06.27 21:40:51.
