data_PCOD8056809
_publ_section_title
;
Structure prediction by ZEFSAII (Michael W. Deem and Ramdas Pophale) SiO2 
 PCOD8056809
Probable space group: P 2/M
;
_chemical_formula_sum "Si O2"
_cell_formula_units_Z 32
_cell_length_a 22.375253
_cell_length_b 22.125925
_cell_length_c 5.216047
_cell_angle_alpha 90.000000
_cell_angle_beta 96.422892
_cell_angle_gamma 90.000000
_cell_volume 2566.116452
_symmetry_space_group_name_H-M "P 2/M"
_symmetry_group_IT_number 10
_symmetry_cell_setting 'monoclinic'
loop_
_space_group_symop_operation_xyz
x,y,z
-x,y,-z
-x,-y,-z
x,-y,z
loop_
_atom_site_type_symbol
_atom_site_label
_atom_site_fract_x
_atom_site_fract_y
_atom_site_fract_z
Si Si1 0.126618 0.070114 0.138048
Si Si2 0.068340 0.880185 0.614512
Si Si3 0.070386 0.377635 0.797126
Si Si4 0.670257 0.927854 0.335411
Si Si5 0.262290 0.071760 0.131633
Si Si6 0.063300 0.429239 0.292379
Si Si7 0.038922 0.752775 0.765713
Si Si8 0.534202 0.927959 0.266409
O O1 0.107459 0.107289 0.380583
O O2 0.193228 0.092828 0.098604
O O3 0.125388 0.000000 0.215246
O O4 0.085026 0.078619 0.866933
O O5 0.078569 0.811176 0.711983
O O6 0.000000 0.892823 0.500000
O O7 0.100817 0.403939 0.553667
O O8 0.080436 0.305722 0.837041
O O9 0.999740 0.394011 0.752202
O O10 0.100294 0.411981 0.053968
O O11 0.703491 0.902543 0.603160
O O12 0.602207 0.903262 0.298857
O O13 0.670663 0.000000 0.334357
O O14 0.705355 0.902120 0.105293
O O15 0.265948 0.000000 0.131816
O O16 0.051207 0.500000 0.309933
O O17 0.000000 0.735348 0.500000
O O18 0.000000 0.768252 0.000000
O O19 0.500000 0.903051 0.500000
O O20 0.534245 0.000000 0.266493
O O21 0.500000 0.903045 0.000000
#
# Coordination Sequence:
#
# PCOD8056809 Si02
#       8
#     4   4   4   4   4   4   4   4
#     4  11  22  36  48  59  71  81  98 130 178 222
#     4  11  23  34  47  61  69  83 100 129 166 222
#     4  10  15  24  35  49  66  93 107 125 143 165
#     4   9  15  24  37  53  69  88 112 128 143 172
#     4   9  17  28  42  54  65  82 103 129 156 192
#     4  10  16  22  33  53  74  90 108 126 144 162
#     4  11  18  31  43  53  69  84 109 125 147 187
#     4   9  15  21  30  47  72  96 112 127 143 159
#
# _framework density 12.470205999999999
#
# number of rings (size 3 to 8) (size 9 to 14) (size 15 to 20)
#    0.000    2.000    2.500    5.625    0.000    6.500 
#    0.000    0.000    0.000    0.000    0.000    0.000 
#    0.000    0.000    0.000    0.000    0.000    0.000 
#
# Total GULP energy -396601.357729 kJ/mol
# GULP energy per Si atom -12393.792429 kJ/mol
# Density = 1.244182 g / cm^3
# Si number density = 12.470206 Si / 1000 Ang^3
#
#
#
# Elastic Constant Matrix: (Units=GPa)
#
#
# Indices 1 2 3 4 5 6 
#
# 1 62.3430 22.7406 37.7838 0.0000 -7.3657 0.0000
# 2 22.7406 45.4692 22.3524 0.0000 -5.1837 0.0000
# 3 37.7838 22.3524 125.2349 0.0000 -15.5119 0.0000
# 4 0.0000 0.0000 0.0000 16.4933 0.0000 -3.6800
# 5 -7.3657 -5.1837 -15.5119 0.0000 22.4879 0.0000
# 6 0.0000 0.0000 0.0000 -3.6800 0.0000 0.8927
#
#
#
# Elastic Compliance Matrix: (Units=1/GPa)
#
#
# Indices 1 2 3 4 5 6 
#
# 1 0.022410 -0.008530 -0.005000 0.000000 0.001925 0.000000
# 2 -0.008530 0.027521 -0.002076 0.000000 0.002118 0.000000
# 3 -0.005000 -0.002076 0.010499 0.000000 0.005126 0.000000
# 4 0.000000 0.000000 0.000000 0.755894 0.000000 3.116113
# 5 0.001925 0.002118 0.005126 0.000000 0.049123 0.000000
# 6 0.000000 0.000000 0.000000 3.116113 0.000000 13.966159
#
#
# Mechanical properties :
#
#
# Convention : Reuss Voigt Hill
#
# Bulk Modulus (GPa) = 34.22697 44.31119 39.26908
# Shear Modulus (GPa) = 0.33619 17.98611 9.16115
#
# Velocity S-wave (km/s) = 0.51979 3.80192 2.71337
# Velocity P-wave (km/s) = 5.27890 7.40834 6.43236
#
# Compressibility (1/GPa) = 0.02921672
#
# Stress axis : x y z
#
# Youngs Moduli (GPa) = 44.62353 36.33551 95.24710
#
# Poissons Ratio (x) = 0.30995 0.47625
# Poissons Ratio (y) = 0.38065 0.19775
# Poissons Ratio (z) = 0.22312 0.07544
#
# Static dielectric constant tensor:
#      x y z
#    x 2.363270 0.000000 -0.251150 
#    y 0.000000 2.289570 0.000000 
#    z -0.251150 0.000000 3.957270 
# 
# 
# High freq. dielectric constant tensor:
#      x y z
#    x 1.426730 0.000000 -0.014820 
#    y 0.000000 1.428840 0.000000 
#    z -0.014820 0.000000 1.506890 
# 
# From -- ./inp_files/12876.got.cif
#   From: 2010.06.25/outbox.cif.g09.slc.cpg/sg10_7_cif.got.tgz:12876.got - 2010.06.27 22:07:45.
