data_PCOD8056397
_publ_section_title
;
Structure prediction by ZEFSAII (Michael W. Deem and Ramdas Pophale) SiO2 
 PCOD8056397
Probable space group: C C
;
_chemical_formula_sum "Si O2"
_cell_formula_units_Z 32
_cell_length_a 23.158608
_cell_length_b 5.012386
_cell_length_c 10.452831
_cell_angle_alpha 90.000000
_cell_angle_beta 105.785869
_cell_angle_gamma 90.000000
_cell_volume 1167.601537
_symmetry_space_group_name_H-M "C C"
_symmetry_group_IT_number 9
_symmetry_cell_setting 'monoclinic'
loop_
_space_group_symop_operation_xyz
x,y,z
x,-y,1/2+z
1/2+x,1/2+y,z
1/2+x,1/2-y,1/2+z
loop_
_atom_site_type_symbol
_atom_site_label
_atom_site_fract_x
_atom_site_fract_y
_atom_site_fract_z
Si Si1 0.836400 0.004372 0.662500
Si Si2 0.022815 0.483733 0.797624
Si Si3 0.149398 0.449122 0.781421
Si Si4 0.168613 0.231904 0.540454
Si Si5 0.041493 0.013226 0.469193
Si Si6 0.247923 0.854565 0.475439
Si Si7 0.347812 0.992466 0.338402
Si Si8 0.938614 0.225705 0.566276
O O1 0.773742 0.083203 0.555191
O O2 0.851665 0.208499 0.787085
O O3 0.889007 0.019715 0.588970
O O4 0.830255 0.707167 0.712515
O O5 0.077643 0.413209 0.734187
O O6 0.023271 0.790680 0.841517
O O7 0.959431 0.426718 0.691323
O O8 0.032892 0.294928 0.926647
O O9 0.172296 0.476259 0.646705
O O10 0.162909 0.686660 0.888022
O O11 0.187459 0.198105 0.857959
O O12 0.110510 0.060223 0.550754
O O13 0.228307 0.049932 0.580222
O O14 0.996280 0.056167 0.559338
O O15 0.298932 0.994252 0.421655
O O16 0.412107 0.902331 0.433971
#
# Coordination Sequence:
#
# PCOD8056397 Si02
#       8
#     4   4   4   4   4   4   4   4
#     4  11  27  47  71 107 145 197 259 321 385 456
#     4  11  24  44  68 106 146 193 241 312 377 468
#     4  11  25  45  73 111 156 202 258 316 390 468
#     4  11  25  47  71 115 152 208 255 320 386 473
#     4  11  24  44  68 105 147 191 245 305 384 460
#     4  11  26  44  75 102 152 204 256 320 391 459
#     4  11  27  47  73 106 148 193 264 319 387 458
#     4  11  24  46  75 104 144 200 246 321 386 464
#
# _framework density 27.406611000000002
#
# number of rings (size 3 to 8) (size 9 to 14) (size 15 to 20)
#    0.000    1.000    2.500    2.250    5.250    7.000 
#    2.250    0.000    0.000    0.000    0.000    0.000 
#    0.000    0.000    0.000    0.000    0.000    0.000 
#
# Total GULP energy -198411.555039 kJ/mol
# GULP energy per Si atom -12400.722190 kJ/mol
# Density = 2.734423 g / cm^3
# Si number density = 27.406611 Si / 1000 Ang^3
#
#
#
# Elastic Constant Matrix: (Units=GPa)
#
#
# Indices 1 2 3 4 5 6 
#
# 1 130.3245 9.1831 26.1491 0.0000 -13.2413 0.0000
# 2 9.1831 52.4388 0.2078 0.0000 -11.9920 0.0000
# 3 26.1491 0.2078 94.3420 0.0000 -2.5247 0.0000
# 4 0.0000 0.0000 0.0000 30.7508 0.0000 -6.6650
# 5 -13.2413 -11.9920 -2.5247 0.0000 40.5307 0.0000
# 6 0.0000 0.0000 0.0000 -6.6650 0.0000 30.2215
#
#
#
# Elastic Compliance Matrix: (Units=1/GPa)
#
#
# Indices 1 2 3 4 5 6 
#
# 1 0.008432 -0.000933 -0.002273 0.000000 0.002337 0.000000
# 2 -0.000933 0.020558 0.000369 0.000000 0.005801 0.000000
# 3 -0.002273 0.000369 0.011231 0.000000 0.000066 0.000000
# 4 0.000000 0.000000 0.000000 0.034152 0.000000 0.007532
# 5 0.002337 0.005801 0.000066 0.000000 0.027157 0.000000
# 6 0.000000 0.000000 0.000000 0.007532 0.000000 0.034750
#
#
# Mechanical properties :
#
#
# Convention : Reuss Voigt Hill
#
# Bulk Modulus (GPa) = 28.94614 38.68724 33.81669
# Shear Modulus (GPa) = 32.57961 36.40493 34.49227
#
# Velocity S-wave (km/s) = 3.45157 3.64858 3.55144
# Velocity P-wave (km/s) = 5.14481 5.64767 5.40209
#
# Compressibility (1/GPa) = 0.03454692
#
# Stress axis : x y z
#
# Youngs Moduli (GPa) = 118.59067 48.64195 89.04239
#
# Poissons Ratio (x) = 0.04539 0.20236
# Poissons Ratio (y) = 0.11067 -0.03282
# Poissons Ratio (z) = 0.26951 -0.01793
#
# Static dielectric constant tensor:
#      x y z
#    x 5.282220 0.000000 -0.011350 
#    y 0.000000 4.432380 0.000000 
#    z -0.011350 0.000000 4.826980 
# 
# 
# High freq. dielectric constant tensor:
#      x y z
#    x 2.129550 0.000000 -0.000460 
#    y 0.000000 2.082600 0.000000 
#    z -0.000460 0.000000 2.103950 
# 
# From -- ./inp_files/20492.got.cif
#   From: 2010.06.25/outbox.cif.g09.slc.cpg/sg9_11_cif.got.tgz:20492.got - 2010.06.27 21:40:51.
