data_PCOD8056401
_publ_section_title
;
Structure prediction by ZEFSAII (Michael W. Deem and Ramdas Pophale) SiO2 
 PCOD8056401
Probable space group: C C
;
_chemical_formula_sum "Si O2"
_cell_formula_units_Z 32
_cell_length_a 21.446395
_cell_length_b 12.634149
_cell_length_c 15.504986
_cell_angle_alpha 90.000000
_cell_angle_beta 18.574117
_cell_angle_gamma 90.000000
_cell_volume 1338.207790
_symmetry_space_group_name_H-M "C C"
_symmetry_group_IT_number 9
_symmetry_cell_setting 'monoclinic'
loop_
_space_group_symop_operation_xyz
x,y,z
x,-y,1/2+z
1/2+x,1/2+y,z
1/2+x,1/2-y,1/2+z
loop_
_atom_site_type_symbol
_atom_site_label
_atom_site_fract_x
_atom_site_fract_y
_atom_site_fract_z
Si Si1 0.949470 0.180739 0.500000
Si Si2 0.826065 0.683988 0.442843
Si Si3 0.383269 0.304108 0.522570
Si Si4 0.749414 0.023677 0.640168
Si Si5 0.519801 0.815501 0.114164
Si Si6 0.092102 0.164544 0.496890
Si Si7 0.692176 0.163486 0.566885
Si Si8 0.368527 0.026046 0.242041
O O1 0.914563 0.086419 0.477703
O O2 0.755919 0.243906 0.781417
O O3 0.044206 0.128348 0.462048
O O4 0.105974 0.257880 0.251571
O O5 0.914242 0.699249 0.422679
O O6 0.890389 0.579578 0.307523
O O7 0.600527 0.672866 0.766913
O O8 0.894768 0.786077 0.296628
O O9 0.292179 0.399754 0.585946
O O10 0.236610 0.289735 0.794578
O O11 0.739965 0.053249 0.551608
O O12 0.545405 0.060550 0.949433
O O13 0.546565 0.854585 0.177800
O O14 0.400740 0.707723 0.262832
O O15 0.389949 0.900837 0.231108
O O16 0.169125 0.065460 0.455314
#
# Coordination Sequence:
#
# PCOD8056401 Si02
#       8
#     4   4   4   4   4   4   4   4
#     4  12  20  38  71 109 139 169 231 307 369 403
#     4  12  22  43  71  95 139 186 229 288 357 414
#     4  11  27  46  64  98 144 188 235 286 348 435
#     4  11  24  45  69 108 141 175 241 299 360 428
#     4  11  27  46  69 101 149 191 242 282 356 436
#     4  12  20  40  73 106 141 173 230 307 364 409
#     4  12  22  44  75  99 144 193 229 298 360 427
#     4  11  24  44  70 108 137 179 241 303 352 428
#
# _framework density 23.912580999999999
#
# number of rings (size 3 to 8) (size 9 to 14) (size 15 to 20)
#    0.000    0.500    7.500    0.750    1.750    1.000 
#    2.250    3.750    0.000    0.000    0.000    0.000 
#    0.000    0.000    0.000    0.000    0.000    0.000 
#
# Total GULP energy -198305.456665 kJ/mol
# GULP energy per Si atom -12394.091042 kJ/mol
# Density = 2.385815 g / cm^3
# Si number density = 23.912581 Si / 1000 Ang^3
#
#
#
# Elastic Constant Matrix: (Units=GPa)
#
#
# Indices 1 2 3 4 5 6 
#
# 1 114.5886 15.0114 -10.1722 0.0023 3.0976 -0.0016
# 2 15.0114 30.1849 26.2481 -0.0020 5.0138 -0.0001
# 3 -10.1722 26.2481 117.8445 0.0041 4.6109 -0.0036
# 4 0.0023 -0.0020 0.0041 26.4797 -0.0015 -2.9027
# 5 3.0976 5.0138 4.6109 -0.0015 32.0667 0.0011
# 6 -0.0016 -0.0001 -0.0036 -2.9027 0.0011 33.9545
#
#
#
# Elastic Compliance Matrix: (Units=1/GPa)
#
#
# Indices 1 2 3 4 5 6 
#
# 1 0.009859 -0.006964 0.002410 -0.000002 -0.000210 0.000001
# 2 -0.006964 0.046866 -0.010840 0.000005 -0.005096 -0.000001
# 3 0.002410 -0.010840 0.011114 -0.000003 -0.000136 0.000001
# 4 -0.000002 0.000005 -0.000003 0.038122 0.000001 0.003259
# 5 -0.000210 -0.005096 -0.000136 0.000001 0.032022 -0.000001
# 6 0.000001 -0.000001 0.000001 0.003259 -0.000001 0.029730
#
#
# Mechanical properties :
#
#
# Convention : Reuss Voigt Hill
#
# Bulk Modulus (GPa) = 26.99056 36.08806 31.53931
# Shear Modulus (GPa) = 23.71359 33.93554 28.82456
#
# Velocity S-wave (km/s) = 3.15251 3.77125 3.47567
# Velocity P-wave (km/s) = 4.95608 5.83845 5.41527
#
# Compressibility (1/GPa) = 0.03704999
#
# Stress axis : x y z
#
# Youngs Moduli (GPa) = 101.43191 21.33764 89.97940
#
# Poissons Ratio (x) = 0.14860 -0.21688
# Poissons Ratio (y) = 0.70638 0.97541
# Poissons Ratio (z) = -0.24449 0.23131
#
# Static dielectric constant tensor:
#      x y z
#    x 4.364020 0.000000 0.117490 
#    y 0.000000 4.017470 0.000000 
#    z 0.117490 0.000000 4.489140 
# 
# 
# High freq. dielectric constant tensor:
#      x y z
#    x 1.951000 0.000000 0.008820 
#    y 0.000000 1.920020 0.000000 
#    z 0.008820 0.000000 1.962490 
# 
# From -- ./inp_files/27452.got.cif
#   From: 2010.06.25/outbox.cif.g09.slc.cpg/sg9_14_cif.got.tgz:27452.got - 2010.06.27 21:40:51.
