data_PCOD8056575
_publ_section_title
;
Structure prediction by ZEFSAII (Michael W. Deem and Ramdas Pophale) SiO2 
 PCOD8056575
Probable space group: C C
;
_chemical_formula_sum "Si O2"
_cell_formula_units_Z 28
_cell_length_a 9.225038
_cell_length_b 14.208280
_cell_length_c 14.473625
_cell_angle_alpha 90.000000
_cell_angle_beta 142.939149
_cell_angle_gamma 90.000000
_cell_volume 1143.303218
_symmetry_space_group_name_H-M "C C"
_symmetry_group_IT_number 9
_symmetry_cell_setting 'monoclinic'
loop_
_space_group_symop_operation_xyz
x,y,z
x,-y,1/2+z
1/2+x,1/2+y,z
1/2+x,1/2-y,1/2+z
loop_
_atom_site_type_symbol
_atom_site_label
_atom_site_fract_x
_atom_site_fract_y
_atom_site_fract_z
Si Si1 0.023600 0.611340 0.165420
Si Si2 0.794101 0.265793 0.878469
Si Si3 0.959127 0.453044 0.429036
Si Si4 0.033255 0.878113 0.893428
Si Si5 0.949876 0.042824 0.727904
Si Si6 0.989150 0.406860 0.238840
Si Si7 0.809794 0.752775 0.188977
O O1 0.286194 0.659234 0.312713
O O2 0.019280 0.510767 0.214013
O O3 0.835767 0.680994 0.117427
O O4 0.967367 0.607586 0.027566
O O5 0.585711 0.324415 0.823551
O O6 0.711399 0.157681 0.820388
O O7 0.872125 0.301942 0.816052
O O8 0.029281 0.277722 0.060250
O O9 0.186417 0.525076 0.547642
O O10 0.683586 0.493923 0.286733
O O11 0.987976 0.396126 0.349224
O O12 0.239570 0.865288 0.073467
O O13 0.975770 0.987362 0.838151
O O14 0.970104 0.154198 0.755284
#
# Coordination Sequence:
#
# PCOD8056575 Si02
#       7
#     4   4   4   4   4   4   4
#     4  11  28  48  78 114 150 200 253 316 389 449
#     4  12  27  50  77 111 152 203 255 314 381 460
#     4  11  26  46  80 109 154 201 253 322 379 457
#     4  11  26  50  77 110 155 198 257 313 386 457
#     4  11  25  51  74 112 160 196 258 313 385 454
#     4  12  28  49  78 110 153 200 255 319 382 457
#     4  12  28  48  80 112 156 196 257 317 382 456
#
# _framework density 24.49044
#
# number of rings (size 3 to 8) (size 9 to 14) (size 15 to 20)
#    0.000    0.571    2.857    3.429   14.000    0.000 
#    0.000    0.000    0.000    0.000    0.000    0.000 
#    0.000    0.000    0.000    0.000    0.000    0.000 
#
# Total GULP energy -173506.964279 kJ/mol
# GULP energy per Si atom -12393.354591 kJ/mol
# Density = 2.443470 g / cm^3
# Si number density = 24.490440 Si / 1000 Ang^3
#
#
#
# Elastic Constant Matrix: (Units=GPa)
#
#
# Indices 1 2 3 4 5 6 
#
# 1 136.3966 25.9891 58.7219 0.0005 -4.3439 0.0003
# 2 25.9891 80.9701 27.3339 0.0004 -8.0975 0.0002
# 3 58.7219 27.3339 121.5482 0.0005 4.8289 0.0006
# 4 0.0005 0.0004 0.0005 24.1497 0.0006 4.0416
# 5 -4.3439 -8.0975 4.8289 0.0006 65.2722 0.0004
# 6 0.0003 0.0002 0.0006 4.0416 0.0004 32.0158
#
#
#
# Elastic Compliance Matrix: (Units=1/GPa)
#
#
# Indices 1 2 3 4 5 6 
#
# 1 0.009485 -0.001527 -0.004269 0.000000 0.000758 0.000000
# 2 -0.001527 0.013846 -0.002447 0.000000 0.001797 0.000000
# 3 -0.004269 -0.002447 0.010895 0.000000 -0.001394 0.000000
# 4 0.000000 0.000000 0.000000 0.042302 0.000000 -0.005340
# 5 0.000758 0.001797 -0.001394 0.000000 0.015697 0.000000
# 6 0.000000 0.000000 0.000000 -0.005340 0.000000 0.031909
#
#
# Mechanical properties :
#
#
# Convention : Reuss Voigt Hill
#
# Bulk Modulus (GPa) = 56.37228 62.55610 59.46419
# Shear Modulus (GPa) = 34.12186 39.41223 36.76704
#
# Velocity S-wave (km/s) = 3.73671 4.01595 3.87884
# Velocity P-wave (km/s) = 6.45642 6.86311 6.66287
#
# Compressibility (1/GPa) = 0.01773922
#
# Stress axis : x y z
#
# Youngs Moduli (GPa) = 105.43503 72.22102 91.78365
#
# Poissons Ratio (x) = 0.11032 0.39180
# Poissons Ratio (y) = 0.16105 0.22462
# Poissons Ratio (z) = 0.45007 0.17674
#
# Static dielectric constant tensor:
#      x y z
#    x 4.627200 0.000000 0.308550 
#    y 0.000000 4.014070 0.000000 
#    z 0.308550 0.000000 4.502990 
# 
# 
# High freq. dielectric constant tensor:
#      x y z
#    x 1.986230 0.000000 0.013070 
#    y 0.000000 1.951840 0.000000 
#    z 0.013070 0.000000 1.984830 
# 
# From -- ./inp_files/23315.got.cif
#   From: 2010.06.25/outbox.cif.g09.slc.cpg/sg9_12_cif.got.tgz:23315.got - 2010.06.27 21:40:51.
