data_PCOD8056877
_publ_section_title
;
Structure prediction by ZEFSAII (Michael W. Deem and Ramdas Pophale) SiO2 
 PCOD8056877
Probable space group: P 2/M
;
_chemical_formula_sum "Si O2"
_cell_formula_units_Z 20
_cell_length_a 14.301580
_cell_length_b 18.727207
_cell_length_c 12.239759
_cell_angle_alpha 90.000000
_cell_angle_beta 159.917834
_cell_angle_gamma 90.000000
_cell_volume 1125.612543
_symmetry_space_group_name_H-M "P 2/M"
_symmetry_group_IT_number 10
_symmetry_cell_setting 'monoclinic'
loop_
_space_group_symop_operation_xyz
x,y,z
-x,y,-z
-x,-y,-z
x,-y,z
loop_
_atom_site_type_symbol
_atom_site_label
_atom_site_fract_x
_atom_site_fract_y
_atom_site_fract_z
Si Si1 0.707279 0.374772 0.963324
Si Si2 0.148963 0.416193 0.273220
Si Si3 0.116834 0.224862 0.751010
Si Si4 0.294581 0.500000 0.872612
Si Si5 0.378795 0.853407 0.747393
Si Si6 0.213601 0.000000 0.632179
O O1 0.431799 0.372582 0.589208
O O2 0.762639 0.299313 0.079130
O O3 0.652383 0.429795 0.999537
O O4 0.962537 0.399399 0.172304
O O5 0.217088 0.500000 0.343654
O O6 0.000000 0.390744 0.000000
O O7 0.000000 0.228454 0.500000
O O8 0.856839 0.203939 0.539434
O O9 0.354151 0.164320 0.032051
O O10 0.000000 0.500000 0.500000
O O11 0.500000 0.500000 0.000000
O O12 0.218664 0.929590 0.560729
O O13 0.500000 0.843605 0.000000
O O14 0.000000 0.000000 0.500000
O O15 0.500000 0.000000 0.000000
#
# Coordination Sequence:
#
# PCOD8056877 Si02
#       6
#     4   4   4   2   4   2
#     4  12  22  38  54  75 101 135 169 214 258 304
#     4  11  22  39  59  77  94 121 168 225 275 318
#     4  10  20  32  47  69 102 140 169 198 242 299
#     4  12  24  36  49  72 101 134 174 206 234 284
#     4   9  17  29  44  66  95 133 175 205 237 281
#     4  10  16  26  44  66  92 130 177 218 237 268
#
# _framework density 17.768103
#
# number of rings (size 3 to 8) (size 9 to 14) (size 15 to 20)
#    0.000    1.400    2.000    6.600    0.000    4.000 
#    0.000    0.000    0.000    0.000    0.000    0.000 
#    0.000    0.000    0.000   63.000    0.000    7.000 
#
# Total GULP energy -247773.479121 kJ/mol
# GULP energy per Si atom -12388.673956 kJ/mol
# Density = 1.772766 g / cm^3
# Si number density = 17.768103 Si / 1000 Ang^3
#
#
#
# Elastic Constant Matrix: (Units=GPa)
#
#
# Indices 1 2 3 4 5 6 
#
# 1 47.5678 19.3160 19.8549 0.0000 12.2400 0.0000
# 2 19.3160 115.0297 47.3841 0.0000 3.6475 0.0000
# 3 19.8549 47.3841 112.9382 0.0000 18.8988 0.0000
# 4 0.0000 0.0000 0.0000 139.5139 0.0000 -13.2599
# 5 12.2400 3.6475 18.8988 0.0000 27.1739 0.0000
# 6 0.0000 0.0000 0.0000 -13.2599 0.0000 22.1173
#
#
#
# Elastic Compliance Matrix: (Units=1/GPa)
#
#
# Indices 1 2 3 4 5 6 
#
# 1 0.025582 -0.003409 -0.001376 0.000000 -0.010109 0.000000
# 2 -0.003409 0.011049 -0.004578 0.000000 0.003236 0.000000
# 3 -0.001376 -0.004578 0.012234 0.000000 -0.007274 0.000000
# 4 0.000000 0.000000 0.000000 0.007601 0.000000 0.004557
# 5 -0.010109 0.003236 -0.007274 0.000000 0.045978 0.000000
# 6 0.000000 0.000000 0.000000 0.004557 0.000000 0.047946
#
#
# Mechanical properties :
#
#
# Convention : Reuss Voigt Hill
#
# Bulk Modulus (GPa) = 33.17765 49.84953 41.51359
# Shear Modulus (GPa) = 27.90780 50.35972 39.13376
#
# Velocity S-wave (km/s) = 3.96747 5.32957 4.69814
# Velocity P-wave (km/s) = 6.30086 8.12336 7.26945
#
# Compressibility (1/GPa) = 0.03014077
#
# Stress axis : x y z
#
# Youngs Moduli (GPa) = 39.08982 90.50625 81.73755
#
# Poissons Ratio (x) = 0.30849 0.11245
# Poissons Ratio (y) = 0.13324 0.37419
# Poissons Ratio (z) = 0.05378 0.41433
#
# Static dielectric constant tensor:
#      x y z
#    x 3.189220 0.000000 0.362460 
#    y 0.000000 4.744680 0.000000 
#    z 0.362460 0.000000 3.597830 
# 
# 
# High freq. dielectric constant tensor:
#      x y z
#    x 1.654250 0.000000 0.043840 
#    y 0.000000 1.684580 0.000000 
#    z 0.043840 0.000000 1.695500 
# 
# From -- ./inp_files/51905.got.cif
#   From: 2010.06.25/outbox.cif.g09.slc.cpg/sg10_26_cif.got.tgz:51905.got - 2010.06.27 22:07:45.
