data_PCOD8056308
_publ_section_title
;
Structure prediction by ZEFSAII (Michael W. Deem and Ramdas Pophale) SiO2 
 PCOD8056308
Probable space group: C C
;
_chemical_formula_sum "Si O2"
_cell_formula_units_Z 32
_cell_length_a 10.918142
_cell_length_b 15.814502
_cell_length_c 8.920395
_cell_angle_alpha 90.000000
_cell_angle_beta 63.925793
_cell_angle_gamma 90.000000
_cell_volume 1383.482726
_symmetry_space_group_name_H-M "C C"
_symmetry_group_IT_number 9
_symmetry_cell_setting 'monoclinic'
loop_
_space_group_symop_operation_xyz
x,y,z
x,-y,1/2+z
1/2+x,1/2+y,z
1/2+x,1/2-y,1/2+z
loop_
_atom_site_type_symbol
_atom_site_label
_atom_site_fract_x
_atom_site_fract_y
_atom_site_fract_z
Si Si1 0.988310 0.616094 0.580490
Si Si2 0.222992 0.925619 0.619136
Si Si3 0.326134 0.613279 0.111621
Si Si4 0.015775 0.458482 0.387604
Si Si5 0.809067 0.953346 0.297848
Si Si6 0.089640 0.208158 0.014540
Si Si7 0.593994 0.420675 0.006685
Si Si8 0.212208 0.789630 0.144132
O O1 0.848247 0.663301 0.621920
O O2 0.030061 0.558997 0.415364
O O3 0.981808 0.556679 0.731290
O O4 0.095423 0.692205 0.550357
O O5 0.385887 0.930686 0.560124
O O6 0.209316 0.835660 0.543641
O O7 0.128054 0.929381 0.814998
O O8 0.170750 0.002873 0.546727
O O9 0.354443 0.557588 0.946281
O O10 0.452886 0.657634 0.125197
O O11 0.276219 0.550678 0.269561
O O12 0.225438 0.688737 0.116640
O O13 0.158486 0.410598 0.353213
O O14 0.930820 0.920638 0.124469
O O15 0.101357 0.194251 0.830983
O O16 0.654323 0.330287 0.024025
#
# Coordination Sequence:
#
# PCOD8056308 Si02
#       8
#     4   4   4   4   4   4   4   4
#     4  11  25  43  73 103 143 190 236 301 357 429
#     4  12  24  44  74 105 143 193 243 289 351 437
#     4  11  25  43  73 103 143 190 236 301 357 429
#     4  12  25  45  70 107 142 186 242 291 364 421
#     4  12  25  45  70 107 142 186 242 291 364 421
#     4  11  23  46  70 104 144 189 241 294 359 425
#     4  12  24  44  74 105 143 193 243 289 351 437
#     4  11  23  46  70 104 144 189 241 294 359 425
#
# _framework density 23.130030999999999
#
# number of rings (size 3 to 8) (size 9 to 14) (size 15 to 20)
#    0.000    0.500    5.000    3.750    0.000    1.000 
#    4.500    2.500    0.000    0.000    0.000    0.000 
#    0.000    0.000    0.000    0.000    0.000    0.000 
#
# Total GULP energy -198265.646427 kJ/mol
# GULP energy per Si atom -12391.602902 kJ/mol
# Density = 2.307739 g / cm^3
# Si number density = 23.130031 Si / 1000 Ang^3
#
#
#
# Elastic Constant Matrix: (Units=GPa)
#
#
# Indices 1 2 3 4 5 6 
#
# 1 99.8899 44.3471 29.9783 0.0000 -22.5274 0.0000
# 2 44.3471 151.4643 50.0114 0.0000 11.9524 0.0000
# 3 29.9783 50.0114 94.4742 0.0000 7.7977 0.0000
# 4 0.0000 0.0000 0.0000 33.9685 0.0000 6.5058
# 5 -22.5274 11.9524 7.7977 0.0000 41.6043 0.0000
# 6 0.0000 0.0000 0.0000 6.5058 0.0000 33.9518
#
#
#
# Elastic Compliance Matrix: (Units=1/GPa)
#
#
# Indices 1 2 3 4 5 6 
#
# 1 0.015114 -0.004070 -0.003467 0.000000 0.010003 0.000000
# 2 -0.004070 0.009193 -0.003225 0.000000 -0.004240 0.000000
# 3 -0.003467 -0.003225 0.013683 0.000000 -0.003515 0.000000
# 4 0.000000 0.000000 0.000000 0.030561 0.000000 -0.005856
# 5 0.010003 -0.004240 -0.003515 0.000000 0.031329 0.000000
# 6 0.000000 0.000000 0.000000 -0.005856 0.000000 0.030576
#
#
# Mechanical properties :
#
#
# Convention : Reuss Voigt Hill
#
# Bulk Modulus (GPa) = 60.73243 66.05580 63.39411
# Shear Modulus (GPa) = 31.75224 36.67100 34.21162
#
# Velocity S-wave (km/s) = 3.70911 3.98606 3.85008
# Velocity P-wave (km/s) = 6.68261 7.05729 6.87251
#
# Compressibility (1/GPa) = 0.01646567
#
# Stress axis : x y z
#
# Youngs Moduli (GPa) = 66.16231 108.77416 73.08562
#
# Poissons Ratio (x) = 0.44269 0.25341
# Poissons Ratio (y) = 0.26927 0.23572
# Poissons Ratio (z) = 0.22940 0.35082
#
# Static dielectric constant tensor:
#      x y z
#    x 4.259900 0.000000 -0.308660 
#    y 0.000000 4.400160 0.000000 
#    z -0.308660 0.000000 4.164080 
# 
# 
# High freq. dielectric constant tensor:
#      x y z
#    x 1.913870 0.000000 -0.017090 
#    y 0.000000 1.911210 0.000000 
#    z -0.017090 0.000000 1.914980 
# 
# From -- ./inp_files/7551.got.cif
#   From: 2010.06.25/outbox.cif.g09.slc.cpg/sg9_4_cif.got.tgz:7551.got - 2010.06.27 21:40:51.
