data_PCOD8056564
_publ_section_title
;
Structure prediction by ZEFSAII (Michael W. Deem and Ramdas Pophale) SiO2 
 PCOD8056564
Probable space group: C C
;
_chemical_formula_sum "Si O2"
_cell_formula_units_Z 24
_cell_length_a 8.936030
_cell_length_b 10.995709
_cell_length_c 13.828497
_cell_angle_alpha 90.000000
_cell_angle_beta 43.289494
_cell_angle_gamma 90.000000
_cell_volume 931.681383
_symmetry_space_group_name_H-M "C C"
_symmetry_group_IT_number 9
_symmetry_cell_setting 'monoclinic'
loop_
_space_group_symop_operation_xyz
x,y,z
x,-y,1/2+z
1/2+x,1/2+y,z
1/2+x,1/2-y,1/2+z
loop_
_atom_site_type_symbol
_atom_site_label
_atom_site_fract_x
_atom_site_fract_y
_atom_site_fract_z
Si Si1 0.610860 0.789484 0.782310
Si Si2 0.314719 0.874915 0.652578
Si Si3 0.194534 0.444203 0.573589
Si Si4 0.716630 0.607316 0.576331
Si Si5 0.998750 0.315655 0.211142
Si Si6 0.152186 0.995205 0.414436
O O1 0.614547 0.915016 0.720770
O O2 0.570678 0.679905 0.723085
O O3 0.852792 0.773844 0.714443
O O4 0.420455 0.804611 0.951620
O O5 0.578583 0.856131 0.546901
O O6 0.180867 0.755930 0.686154
O O7 0.292049 0.980963 0.586252
O O8 0.246000 0.911152 0.792905
O O9 0.454690 0.428885 0.449953
O O10 0.127033 0.585368 0.584531
O O11 0.580993 0.570028 0.543452
O O12 0.826170 0.389178 0.359927
#
# Coordination Sequence:
#
# PCOD8056564 Si02
#       6
#     4   4   4   4   4   4
#     4  12  25  48  82 112 167 213 271 338 412 489
#     4  11  26  49  77 118 158 214 275 334 411 489
#     4  11  25  49  74 118 155 205 278 327 408 491
#     4  12  26  50  81 117 164 221 267 341 414 489
#     4  11  25  52  74 116 158 214 267 343 404 485
#     4  11  25  50  74 117 164 209 274 333 411 491
#
# _framework density 25.759878
#
# number of rings (size 3 to 8) (size 9 to 14) (size 15 to 20)
#    0.000    0.667    6.667    2.000    4.667    2.667 
#    0.000    0.000    0.000    0.000    0.000    0.000 
#    0.000    0.000    0.000    0.000    0.000    0.000 
#
# Total GULP energy -148678.440961 kJ/mol
# GULP energy per Si atom -12389.870080 kJ/mol
# Density = 2.570125 g / cm^3
# Si number density = 25.759878 Si / 1000 Ang^3
#
#
#
# Elastic Constant Matrix: (Units=GPa)
#
#
# Indices 1 2 3 4 5 6 
#
# 1 187.7535 72.9383 34.9803 -0.0002 -21.7397 0.0001
# 2 72.9383 112.2825 22.3324 -0.0001 -19.5816 0.0000
# 3 34.9803 22.3324 71.6421 -0.0006 -2.1853 0.0003
# 4 -0.0002 -0.0001 -0.0006 31.7326 0.0003 -2.5421
# 5 -21.7397 -19.5816 -2.1853 0.0003 46.9709 -0.0002
# 6 0.0001 0.0000 0.0003 -2.5421 -0.0002 58.4051
#
#
#
# Elastic Compliance Matrix: (Units=1/GPa)
#
#
# Indices 1 2 3 4 5 6 
#
# 1 0.007573 -0.004163 -0.002350 0.000000 0.001660 0.000000
# 2 -0.004163 0.012523 -0.001773 0.000000 0.003212 0.000000
# 3 -0.002350 -0.001773 0.015625 0.000000 -0.001100 0.000000
# 4 0.000000 0.000000 0.000000 0.031624 0.000000 0.001376
# 5 0.001660 0.003212 -0.001100 0.000000 0.023346 0.000000
# 6 0.000000 0.000000 0.000000 0.001376 0.000000 0.017182
#
#
# Mechanical properties :
#
#
# Convention : Reuss Voigt Hill
#
# Bulk Modulus (GPa) = 52.21920 70.24223 61.23071
# Shear Modulus (GPa) = 38.21864 43.51687 40.86775
#
# Velocity S-wave (km/s) = 3.85600 4.11460 3.98740
# Velocity P-wave (km/s) = 6.33565 7.06403 6.70973
#
# Compressibility (1/GPa) = 0.01915004
#
# Stress axis : x y z
#
# Youngs Moduli (GPa) = 132.04397 79.85362 64.00136
#
# Poissons Ratio (x) = 0.33240 0.15037
# Poissons Ratio (y) = 0.54965 0.11349
# Poissons Ratio (z) = 0.31024 0.14160
#
# Static dielectric constant tensor:
#      x y z
#    x 5.149860 0.000000 -0.309980 
#    y 0.000000 4.683640 0.000000 
#    z -0.309980 0.000000 4.482240 
# 
# 
# High freq. dielectric constant tensor:
#      x y z
#    x 2.043950 0.000000 -0.005840 
#    y 0.000000 2.040760 0.000000 
#    z -0.005840 0.000000 2.004820 
# 
# From -- ./inp_files/22517.got.cif
#   From: 2010.06.25/outbox.cif.g09.slc.cpg/sg9_12_cif.got.tgz:22517.got - 2010.06.27 21:40:51.
