data_PCOD8056284
_publ_section_title
;
Structure prediction by ZEFSAII (Michael W. Deem and Ramdas Pophale) SiO2 
 PCOD8056284
Probable space group: C C
;
_chemical_formula_sum "Si O2"
_cell_formula_units_Z 28
_cell_length_a 13.857314
_cell_length_b 11.798989
_cell_length_c 8.195843
_cell_angle_alpha 90.000000
_cell_angle_beta 114.271926
_cell_angle_gamma 90.000000
_cell_volume 1221.586119
_symmetry_space_group_name_H-M "C C"
_symmetry_group_IT_number 9
_symmetry_cell_setting 'monoclinic'
loop_
_space_group_symop_operation_xyz
x,y,z
x,-y,1/2+z
1/2+x,1/2+y,z
1/2+x,1/2-y,1/2+z
loop_
_atom_site_type_symbol
_atom_site_label
_atom_site_fract_x
_atom_site_fract_y
_atom_site_fract_z
Si Si1 0.578760 0.356690 0.280140
Si Si2 0.165304 0.734834 0.633768
Si Si3 0.583280 0.055210 0.807800
Si Si4 0.170708 0.355469 0.692028
Si Si5 0.227250 0.926167 0.910243
Si Si6 0.352689 0.697955 0.517249
Si Si7 0.358952 0.084055 0.808741
O O1 0.582240 0.297277 0.458596
O O2 0.638826 0.276878 0.189779
O O3 0.636439 0.477360 0.337708
O O4 0.457201 0.371051 0.140550
O O5 0.110895 0.619998 0.658832
O O6 0.183501 0.811665 0.804437
O O7 0.276076 0.711729 0.619659
O O8 0.463850 0.072315 0.777136
O O9 0.599199 0.923751 0.774318
O O10 0.661705 0.099103 0.003197
O O11 0.292938 0.372082 0.832661
O O12 0.331615 0.968997 0.886336
O O13 0.260790 0.894216 0.117599
O O14 0.378709 0.820781 0.459634
#
# Coordination Sequence:
#
# PCOD8056284 Si02
#       7
#     4   4   4   4   4   4   4
#     4  11  24  46  68 103 145 184 228 300 356 417
#     4  11  26  45  69 104 145 180 242 292 350 428
#     4  12  26  44  71 104 137 187 239 296 350 417
#     4  11  23  45  68  99 142 178 240 289 348 420
#     4  12  24  44  72 108 143 180 236 303 350 427
#     4  11  24  47  72  99 143 191 231 288 359 426
#     4  12  23  43  74 107 133 190 240 290 353 417
#
# _framework density 22.921019999999999
#
# number of rings (size 3 to 8) (size 9 to 14) (size 15 to 20)
#    0.000    0.571    5.714    3.429    4.000    0.000 
#    5.143    0.000    0.000    0.000    0.000    0.000 
#    0.000    0.000    0.000    0.000    0.000    0.000 
#
# Total GULP energy -173595.086929 kJ/mol
# GULP energy per Si atom -12399.649066 kJ/mol
# Density = 2.286885 g / cm^3
# Si number density = 22.921020 Si / 1000 Ang^3
#
#
#
# Elastic Constant Matrix: (Units=GPa)
#
#
# Indices 1 2 3 4 5 6 
#
# 1 124.1538 22.1466 31.9138 0.0000 23.3252 0.0000
# 2 22.1466 52.5742 3.6036 0.0000 16.0116 0.0000
# 3 31.9138 3.6036 107.6066 0.0000 19.5847 0.0000
# 4 0.0000 0.0000 0.0000 38.8276 0.0000 -1.8615
# 5 23.3252 16.0116 19.5847 0.0000 38.7558 0.0000
# 6 0.0000 0.0000 0.0000 -1.8615 0.0000 21.6445
#
#
#
# Elastic Compliance Matrix: (Units=1/GPa)
#
#
# Indices 1 2 3 4 5 6 
#
# 1 0.009802 -0.002878 -0.002151 0.000000 -0.003623 0.000000
# 2 -0.002878 0.022702 0.001635 0.000000 -0.008473 0.000000
# 3 -0.002151 0.001635 0.010753 0.000000 -0.004815 0.000000
# 4 0.000000 0.000000 0.000000 0.025862 0.000000 0.002224
# 5 -0.003623 -0.008473 -0.004815 0.000000 0.033917 0.000000
# 6 0.000000 0.000000 0.000000 0.002224 0.000000 0.046392
#
#
# Mechanical properties :
#
#
# Convention : Reuss Voigt Hill
#
# Bulk Modulus (GPa) = 27.42111 44.40697 35.91404
# Shear Modulus (GPa) = 29.69654 34.95694 32.32674
#
# Velocity S-wave (km/s) = 3.60335 3.90949 3.75954
# Velocity P-wave (km/s) = 5.41308 6.30831 5.87777
#
# Compressibility (1/GPa) = 0.03646825
#
# Stress axis : x y z
#
# Youngs Moduli (GPa) = 102.02507 44.04994 93.00068
#
# Poissons Ratio (x) = 0.12678 0.20006
# Poissons Ratio (y) = 0.29363 -0.15210
# Poissons Ratio (z) = 0.21947 -0.07204
#
# Static dielectric constant tensor:
#      x y z
#    x 3.949400 0.000000 0.031000 
#    y 0.000000 4.105820 0.000000 
#    z 0.031000 0.000000 4.407780 
# 
# 
# High freq. dielectric constant tensor:
#      x y z
#    x 1.893990 0.000000 -0.005360 
#    y 0.000000 1.899970 0.000000 
#    z -0.005360 0.000000 1.926250 
# 
# From -- ./inp_files/9002.got.cif
#   From: 2010.06.25/outbox.cif.g09.slc.cpg/sg9_5_cif.got.tgz:9002.got - 2010.06.27 21:40:51.
