data_PCOD8056693
_publ_section_title
;
Structure prediction by ZEFSAII (Michael W. Deem and Ramdas Pophale) SiO2 
 PCOD8056693
Probable space group: C C
;
_chemical_formula_sum "Si O2"
_cell_formula_units_Z 32
_cell_length_a 11.051094
_cell_length_b 9.096259
_cell_length_c 28.385692
_cell_angle_alpha 90.000000
_cell_angle_beta 29.657187
_cell_angle_gamma 90.000000
_cell_volume 1411.905321
_symmetry_space_group_name_H-M "C C"
_symmetry_group_IT_number 9
_symmetry_cell_setting 'monoclinic'
loop_
_space_group_symop_operation_xyz
x,y,z
x,-y,1/2+z
1/2+x,1/2+y,z
1/2+x,1/2-y,1/2+z
loop_
_atom_site_type_symbol
_atom_site_label
_atom_site_fract_x
_atom_site_fract_y
_atom_site_fract_z
Si Si1 0.607400 0.321981 0.936130
Si Si2 0.524662 0.599185 0.627489
Si Si3 0.956483 0.562067 0.926655
Si Si4 0.675232 0.166457 0.245087
Si Si5 0.908333 0.665620 0.094014
Si Si6 0.854935 0.654564 0.597789
Si Si7 0.185852 0.868801 0.426723
Si Si8 0.837868 0.819161 0.789519
O O1 0.516569 0.492025 0.968188
O O2 0.893051 0.332437 0.827618
O O3 0.478847 0.227922 0.938751
O O4 0.552944 0.251352 0.004871
O O5 0.745594 0.520124 0.526153
O O6 0.283842 0.498661 0.707446
O O7 0.467419 0.756791 0.623437
O O8 0.600133 0.627212 0.656170
O O9 0.892289 0.570149 0.893029
O O10 0.208229 0.472189 0.848933
O O11 0.818430 0.261600 0.158553
O O12 0.712107 0.239182 0.284084
O O13 0.995121 0.496492 0.063648
O O14 0.619846 0.657992 0.182224
O O15 0.023983 0.746658 0.505868
O O16 0.314851 0.802849 0.337366
#
# Coordination Sequence:
#
# PCOD8056693 Si02
#       8
#     4   4   4   4   4   4   4   4
#     4  12  25  45  75 107 147 198 242 301 379 439
#     4  12  24  51  75 101 154 194 240 318 372 435
#     4  12  24  51  75 101 154 194 240 318 372 435
#     4  12  25  48  74 106 149 192 247 307 373 443
#     4  12  25  45  75 107 147 198 242 301 379 439
#     4  12  26  47  76 111 144 194 252 306 377 448
#     4  12  26  47  76 111 144 194 252 306 377 448
#     4  12  25  48  74 106 149 192 247 307 373 443
#
# _framework density 22.664408000000002
#
# number of rings (size 3 to 8) (size 9 to 14) (size 15 to 20)
#    0.000    0.000    7.500    1.500    0.000    1.000 
#    9.000    0.000    0.000    0.000    0.000    0.000 
#    0.000    0.000    0.000    0.000    0.000    0.000 
#
# Total GULP energy -198441.631665 kJ/mol
# GULP energy per Si atom -12402.601979 kJ/mol
# Density = 2.261282 g / cm^3
# Si number density = 22.664408 Si / 1000 Ang^3
#
#
#
# Elastic Constant Matrix: (Units=GPa)
#
#
# Indices 1 2 3 4 5 6 
#
# 1 91.1753 40.3723 5.0061 -0.0044 15.5323 -0.0015
# 2 40.3723 145.0812 19.2659 -0.0056 0.1139 0.0058
# 3 5.0061 19.2659 86.7450 0.0208 -0.8209 -0.0223
# 4 -0.0044 -0.0056 0.0208 38.7926 -0.0026 4.5001
# 5 15.5323 0.1139 -0.8209 -0.0026 42.4239 0.0070
# 6 -0.0015 0.0058 -0.0223 4.5001 0.0070 46.3651
#
#
#
# Elastic Compliance Matrix: (Units=1/GPa)
#
#
# Indices 1 2 3 4 5 6 
#
# 1 0.013463 -0.003744 0.000008 0.000000 -0.004919 0.000002
# 2 -0.003744 0.008143 -0.001580 0.000002 0.001318 -0.000002
# 3 0.000008 -0.001580 0.011881 -0.000007 0.000231 0.000007
# 4 0.000000 0.000002 -0.000007 0.026072 0.000002 -0.002530
# 5 -0.004919 0.001318 0.000231 0.000002 0.025374 -0.000004
# 6 0.000002 -0.000002 0.000007 -0.002530 -0.000004 0.021814
#
#
# Mechanical properties :
#
#
# Convention : Reuss Voigt Hill
#
# Bulk Modulus (GPa) = 43.75313 50.25447 47.00380
# Shear Modulus (GPa) = 40.00133 42.74010 41.37072
#
# Velocity S-wave (km/s) = 4.20568 4.34727 4.27706
# Velocity P-wave (km/s) = 6.55212 6.88620 6.72124
#
# Compressibility (1/GPa) = 0.02285551
#
# Stress axis : x y z
#
# Youngs Moduli (GPa) = 74.27710 122.80130 84.17007
#
# Poissons Ratio (x) = 0.45972 -0.00067
# Poissons Ratio (y) = 0.27807 0.13300
# Poissons Ratio (z) = -0.00059 0.19404
#
# Static dielectric constant tensor:
#      x y z
#    x 4.212550 0.000000 0.113850 
#    y 0.000000 4.509420 -0.000040 
#    z 0.113850 -0.000040 4.135740 
# 
# 
# High freq. dielectric constant tensor:
#      x y z
#    x 1.889390 0.000000 0.010970 
#    y 0.000000 1.903290 0.000000 
#    z 0.010970 0.000000 1.908200 
# 
# From -- ./inp_files/37280.got.cif
#   From: 2010.06.25/outbox.cif.g09.slc.cpg/sg9_19_cif.got.tgz:37280.got - 2010.06.27 21:40:51.
