data_PCOD8056862
_publ_section_title
;
Structure prediction by ZEFSAII (Michael W. Deem and Ramdas Pophale) SiO2 
 PCOD8056862
Probable space group: P 2/M
;
_chemical_formula_sum "Si O2"
_cell_formula_units_Z 28
_cell_length_a 22.089163
_cell_length_b 18.097345
_cell_length_c 5.278552
_cell_angle_alpha 90.000000
_cell_angle_beta 83.137721
_cell_angle_gamma 90.000000
_cell_volume 2095.012131
_symmetry_space_group_name_H-M "P 2/M"
_symmetry_group_IT_number 10
_symmetry_cell_setting 'monoclinic'
loop_
_space_group_symop_operation_xyz
x,y,z
-x,y,-z
-x,-y,-z
x,-y,z
loop_
_atom_site_type_symbol
_atom_site_label
_atom_site_fract_x
_atom_site_fract_y
_atom_site_fract_z
Si Si1 0.040310 0.184998 0.729845
Si Si2 0.156066 0.087829 0.671964
Si Si3 0.225460 0.912191 0.137267
Si Si4 0.568988 0.088055 0.465506
Si Si5 0.065998 0.587120 0.217001
Si Si6 0.069852 0.649948 0.715074
Si Si7 0.636942 0.088130 0.931529
O O1 0.088080 0.118763 0.705961
O O2 0.076735 0.262131 0.711632
O O3 0.000000 0.178093 0.500000
O O4 0.000000 0.178094 0.000000
O O5 0.191343 0.116798 0.405311
O O6 0.151149 0.000000 0.674423
O O7 0.191344 0.116798 0.903336
O O8 0.294208 0.881098 0.102896
O O9 0.226985 0.000000 0.136506
O O10 0.500000 0.118092 0.500000
O O11 0.602911 0.118303 0.698593
O O12 0.569486 0.000000 0.465257
O O13 0.602911 0.118303 0.198495
O O14 0.056892 0.500000 0.221554
O O15 0.101883 0.614747 0.449695
O O16 0.000860 0.627080 0.249570
O O17 0.101883 0.614747 0.948421
O O18 0.636729 0.000000 0.931635
#
# Coordination Sequence:
#
# PCOD8056862 Si02
#       7
#     4   4   4   4   4   4   4
#     4  12  21  33  45  55  74  93 109 139 187 241
#     4  10  21  33  45  57  67  84 115 157 191 223
#     4   9  17  31  44  55  67  81 114 153 183 213
#     4   9  15  21  30  50  75  93 109 125 150 199
#     4  10  16  25  41  58  76  94 112 130 146 182
#     4  10  16  27  37  56  75  93 111 127 157 205
#     4   9  15  23  37  50  65  91 110 132 168 199
#
# _framework density 13.365076999999999
#
# number of rings (size 3 to 8) (size 9 to 14) (size 15 to 20)
#    0.000    2.143    2.857    4.286    0.000    5.714 
#    0.000    0.000    0.000    0.000    0.000    0.000 
#    0.000    0.000    0.000    0.000    0.000    0.000 
#
# Total GULP energy -347088.172548 kJ/mol
# GULP energy per Si atom -12396.006162 kJ/mol
# Density = 1.333466 g / cm^3
# Si number density = 13.365077 Si / 1000 Ang^3
#
#
#
# Elastic Constant Matrix: (Units=GPa)
#
#
# Indices 1 2 3 4 5 6 
#
# 1 58.9814 16.9863 42.3137 0.0000 0.3459 0.0000
# 2 16.9863 26.3349 18.8819 0.0000 0.1332 0.0000
# 3 42.3137 18.8819 154.7964 0.0000 6.3854 0.0000
# 4 0.0000 0.0000 0.0000 13.9691 0.0000 0.9480
# 5 0.3459 0.1332 6.3854 0.0000 11.2110 0.0000
# 6 0.0000 0.0000 0.0000 0.9480 0.0000 0.4698
#
#
#
# Elastic Compliance Matrix: (Units=1/GPa)
#
#
# Indices 1 2 3 4 5 6 
#
# 1 0.024103 -0.011796 -0.005248 0.000000 0.002386 0.000000
# 2 -0.011796 0.047451 -0.002617 0.000000 0.001290 0.000000
# 3 -0.005248 -0.002617 0.008403 0.000000 -0.004593 0.000000
# 4 0.000000 0.000000 0.000000 0.082945 0.000000 -0.167375
# 5 0.002386 0.001290 -0.004593 0.000000 0.091725 0.000000
# 6 0.000000 0.000000 0.000000 -0.167375 0.000000 2.466321
#
#
# Mechanical properties :
#
#
# Convention : Reuss Voigt Hill
#
# Bulk Modulus (GPa) = 24.60914 44.05295 34.33104
# Shear Modulus (GPa) = 1.80257 15.92536 8.86397
#
# Velocity S-wave (km/s) = 1.16260 3.45565 2.57810
# Velocity P-wave (km/s) = 4.50058 6.99677 5.88260
#
# Compressibility (1/GPa) = 0.04063531
#
# Stress axis : x y z
#
# Youngs Moduli (GPa) = 41.48930 21.07453 119.00053
#
# Poissons Ratio (x) = 0.24859 0.62452
# Poissons Ratio (y) = 0.48940 0.31141
# Poissons Ratio (z) = 0.21774 0.05515
#
# Static dielectric constant tensor:
#      x y z
#    x 2.532560 0.000000 0.802370 
#    y 0.000000 2.284470 0.000000 
#    z 0.802370 0.000000 13.959030 
# 
# 
# High freq. dielectric constant tensor:
#      x y z
#    x 1.470540 0.000000 0.005250 
#    y 0.000000 1.452160 0.000000 
#    z 0.005250 0.000000 1.545250 
# 
# From -- ./inp_files/11526.got.cif
#   From: 2010.06.25/outbox.cif.g09.slc.cpg/sg10_6_cif.got.tgz:11526.got - 2010.06.27 22:07:45.
