data_PCOD8056553
_publ_section_title
;
Structure prediction by ZEFSAII (Michael W. Deem and Ramdas Pophale) SiO2 
 PCOD8056553
Probable space group: C C
;
_chemical_formula_sum "Si O2"
_cell_formula_units_Z 32
_cell_length_a 16.204221
_cell_length_b 10.329323
_cell_length_c 13.172789
_cell_angle_alpha 90.000000
_cell_angle_beta 35.892582
_cell_angle_gamma 90.000000
_cell_volume 1292.627984
_symmetry_space_group_name_H-M "C C"
_symmetry_group_IT_number 9
_symmetry_cell_setting 'monoclinic'
loop_
_space_group_symop_operation_xyz
x,y,z
x,-y,1/2+z
1/2+x,1/2+y,z
1/2+x,1/2-y,1/2+z
loop_
_atom_site_type_symbol
_atom_site_label
_atom_site_fract_x
_atom_site_fract_y
_atom_site_fract_z
Si Si1 0.583480 0.429512 0.162530
Si Si2 0.798561 0.534933 0.291524
Si Si3 0.168135 0.350868 0.142455
Si Si4 0.851720 0.170902 0.752217
Si Si5 0.801647 0.338632 0.102559
Si Si6 0.610730 0.111934 0.301315
Si Si7 0.098255 0.483518 0.030903
Si Si8 0.960567 0.148083 0.426867
O O1 0.465560 0.335396 0.230328
O O2 0.708605 0.350810 0.092747
O O3 0.517599 0.524313 0.310845
O O4 0.662466 0.507717 0.993511
O O5 0.796088 0.688914 0.272828
O O6 0.785702 0.456835 0.198016
O O7 0.937788 0.516465 0.222638
O O8 0.155762 0.506026 0.173784
O O9 0.066937 0.267831 0.314677
O O10 0.137589 0.350012 0.051788
O O11 0.323133 0.299182 0.006930
O O12 0.715542 0.094019 0.927541
O O13 0.924768 0.108695 0.578479
O O14 0.738680 0.204985 0.208111
O O15 0.966301 0.315595 0.910508
O O16 0.575226 0.032593 0.435721
#
# Coordination Sequence:
#
# PCOD8056553 Si02
#       8
#     4   4   4   4   4   4   4   4
#     4  12  28  46  77 114 151 205 267 323 398 483
#     4  11  27  48  78 111 154 203 266 325 406 475
#     4  12  28  49  76 114 154 210 269 327 402 483
#     4  12  26  50  77 115 155 206 264 335 400 485
#     4  11  28  47  75 111 155 208 257 331 401 477
#     4  11  27  48  74 109 160 202 262 332 400 474
#     4  11  25  48  75 110 154 201 256 335 399 468
#     4  12  29  48  78 108 161 207 265 328 402 483
#
# _framework density 24.755768
#
# number of rings (size 3 to 8) (size 9 to 14) (size 15 to 20)
#    0.000    0.500    2.500    3.750   15.750    2.000 
#    0.000    0.000    0.000    0.000    0.000    0.000 
#    0.000    0.000    0.000    0.000    0.000    0.000 
#
# Total GULP energy -198308.545219 kJ/mol
# GULP energy per Si atom -12394.284076 kJ/mol
# Density = 2.469942 g / cm^3
# Si number density = 24.755768 Si / 1000 Ang^3
#
#
#
# Elastic Constant Matrix: (Units=GPa)
#
#
# Indices 1 2 3 4 5 6 
#
# 1 102.0980 1.9827 -0.5646 0.0000 -21.0858 0.0000
# 2 1.9827 77.8382 6.1034 0.0000 -9.8032 0.0000
# 3 -0.5646 6.1034 69.3045 0.0000 -22.2941 0.0000
# 4 0.0000 0.0000 0.0000 36.1771 0.0000 -6.4808
# 5 -21.0858 -9.8032 -22.2941 0.0000 52.7702 0.0000
# 6 0.0000 0.0000 0.0000 -6.4808 0.0000 35.9295
#
#
#
# Elastic Compliance Matrix: (Units=1/GPa)
#
#
# Indices 1 2 3 4 5 6 
#
# 1 0.010853 0.000232 0.001709 0.000000 0.005102 0.000000
# 2 0.000232 0.013171 -0.000395 0.000000 0.002373 0.000000
# 3 0.001709 -0.000395 0.016982 0.000000 0.007784 0.000000
# 4 0.000000 0.000000 0.000000 0.028565 0.000000 0.005152
# 5 0.005102 0.002373 0.007784 0.000000 0.024718 0.000000
# 6 0.000000 0.000000 0.000000 0.005152 0.000000 0.028762
#
#
# Mechanical properties :
#
#
# Convention : Reuss Voigt Hill
#
# Bulk Modulus (GPa) = 22.67630 29.36483 26.02056
# Shear Modulus (GPa) = 37.13136 41.08996 39.11066
#
# Velocity S-wave (km/s) = 3.87707 4.07850 3.97906
# Velocity P-wave (km/s) = 5.40574 5.83665 5.62532
#
# Compressibility (1/GPa) = 0.04409891
#
# Stress axis : x y z
#
# Youngs Moduli (GPa) = 92.13936 75.92417 58.88674
#
# Poissons Ratio (x) = -0.01762 -0.10065
# Poissons Ratio (y) = -0.02138 0.02325
# Poissons Ratio (z) = -0.15748 0.02997
#
# Static dielectric constant tensor:
#      x y z
#    x 4.614220 0.000000 -0.212030 
#    y 0.000000 4.068660 0.000000 
#    z -0.212030 0.000000 5.009940 
# 
# 
# High freq. dielectric constant tensor:
#      x y z
#    x 2.004180 0.000000 -0.005130 
#    y 0.000000 1.961240 0.000000 
#    z -0.005130 0.000000 2.007330 
# 
# From -- ./inp_files/26844.got.cif
#   From: 2010.06.25/outbox.cif.g09.slc.cpg/sg9_14_cif.got.tgz:26844.got - 2010.06.27 21:40:51.
