data_PCOD8056705
_publ_section_title
;
Structure prediction by ZEFSAII (Michael W. Deem and Ramdas Pophale) SiO2 
 PCOD8056705
Probable space group: C C
;
_chemical_formula_sum "Si O2"
_cell_formula_units_Z 20
_cell_length_a 17.547020
_cell_length_b 4.678918
_cell_length_c 17.519664
_cell_angle_alpha 90.000000
_cell_angle_beta 152.329808
_cell_angle_gamma 90.000000
_cell_volume 667.958308
_symmetry_space_group_name_H-M "C C"
_symmetry_group_IT_number 9
_symmetry_cell_setting 'monoclinic'
loop_
_space_group_symop_operation_xyz
x,y,z
x,-y,1/2+z
1/2+x,1/2+y,z
1/2+x,1/2-y,1/2+z
loop_
_atom_site_type_symbol
_atom_site_label
_atom_site_fract_x
_atom_site_fract_y
_atom_site_fract_z
Si Si1 0.221510 0.510684 0.791070
Si Si2 0.300090 0.983166 0.264367
Si Si3 0.082509 0.167883 0.440926
Si Si4 0.864457 0.473274 0.020365
Si Si5 0.604277 0.867068 0.857989
O O1 0.298166 0.192670 0.843729
O O2 0.024493 0.495389 0.607329
O O3 0.296682 0.684949 0.784836
O O4 0.276283 0.673758 0.918912
O O5 0.434018 0.891401 0.321792
O O6 0.134818 0.911799 0.072248
O O7 0.194846 0.375587 0.485970
O O8 0.041924 0.883009 0.358426
O O9 0.940654 0.495476 0.173560
O O10 0.723611 0.730399 0.896780
#
# Coordination Sequence:
#
# PCOD8056705 Si02
#       5
#     4   4   4   4   4
#     4  12  27  47  76 110 153 202 253 317 384 461
#     4  12  25  46  74 108 149 198 254 316 382 455
#     4  12  25  46  74 108 149 198 254 316 382 455
#     4  12  28  50  76 114 156 204 258 316 390 464
#     4  12  27  47  76 110 153 202 253 317 384 461
#
# _framework density 29.941991000000002
#
# number of rings (size 3 to 8) (size 9 to 14) (size 15 to 20)
#    0.000    0.000    0.000    9.600    0.000   11.200 
#    0.000    0.000    0.000    0.000    0.000    0.000 
#    0.000    0.000    0.000    0.000    0.000    0.000 
#
# Total GULP energy -123932.058963 kJ/mol
# GULP energy per Si atom -12393.205896 kJ/mol
# Density = 2.987384 g / cm^3
# Si number density = 29.941991 Si / 1000 Ang^3
#
#
#
# Elastic Constant Matrix: (Units=GPa)
#
#
# Indices 1 2 3 4 5 6 
#
# 1 115.2172 22.5220 33.3460 0.0004 -38.8867 0.0016
# 2 22.5220 154.5122 45.3335 0.0032 -11.7679 0.0066
# 3 33.3460 45.3335 131.5824 0.0000 8.3617 0.0005
# 4 0.0004 0.0032 0.0000 46.8967 0.0001 -12.5859
# 5 -38.8867 -11.7679 8.3617 0.0001 31.7371 0.0004
# 6 0.0016 0.0066 0.0005 -12.5859 0.0004 51.8978
#
#
#
# Elastic Compliance Matrix: (Units=1/GPa)
#
#
# Indices 1 2 3 4 5 6 
#
# 1 0.019094 0.001188 -0.006878 -0.000001 0.025649 -0.000001
# 2 0.001188 0.007649 -0.003264 -0.000001 0.005152 -0.000001
# 3 -0.006878 -0.003264 0.011268 0.000001 -0.012607 0.000001
# 4 -0.000001 -0.000001 0.000001 0.022808 -0.000001 0.005531
# 5 0.025649 0.005152 -0.012607 -0.000001 0.068167 -0.000002
# 6 -0.000001 -0.000001 0.000001 0.005531 -0.000002 0.020610
#
#
# Mechanical properties :
#
#
# Convention : Reuss Voigt Hill
#
# Bulk Modulus (GPa) = 49.74101 67.07940 58.41021
# Shear Modulus (GPa) = 28.70178 46.11368 37.40773
#
# Velocity S-wave (km/s) = 3.09945 3.92867 3.53844
# Velocity P-wave (km/s) = 5.42746 6.55980 6.02031
#
# Compressibility (1/GPa) = 0.02010413
#
# Stress axis : x y z
#
# Youngs Moduli (GPa) = 52.37182 130.74081 88.74338
#
# Poissons Ratio (x) = -0.15536 0.61039
# Poissons Ratio (y) = -0.06223 0.28963
# Poissons Ratio (z) = 0.36022 0.42670
#
# Static dielectric constant tensor:
#      x y z
#    x 5.616280 0.000000 -0.114350 
#    y 0.000000 5.567430 0.000000 
#    z -0.114350 0.000000 5.245130 
# 
# 
# High freq. dielectric constant tensor:
#      x y z
#    x 2.277700 0.000000 -0.022970 
#    y 0.000000 2.251640 0.000000 
#    z -0.022970 0.000000 2.209760 
# 
# From -- ./inp_files/10220.got.cif
#   From: 2010.06.25/outbox.cif.g09.slc.cpg/sg9_6_cif.got.tgz:10220.got - 2010.06.27 21:40:51.
