data_PCOD8056499
_publ_section_title
;
Structure prediction by ZEFSAII (Michael W. Deem and Ramdas Pophale) SiO2 
 PCOD8056499
Probable space group: C C
;
_chemical_formula_sum "Si O2"
_cell_formula_units_Z 28
_cell_length_a 14.385125
_cell_length_b 8.946685
_cell_length_c 14.434865
_cell_angle_alpha 90.000000
_cell_angle_beta 140.772991
_cell_angle_gamma 90.000000
_cell_volume 1174.834317
_symmetry_space_group_name_H-M "C C"
_symmetry_group_IT_number 9
_symmetry_cell_setting 'monoclinic'
loop_
_space_group_symop_operation_xyz
x,y,z
x,-y,1/2+z
1/2+x,1/2+y,z
1/2+x,1/2-y,1/2+z
loop_
_atom_site_type_symbol
_atom_site_label
_atom_site_fract_x
_atom_site_fract_y
_atom_site_fract_z
Si Si1 0.356080 0.164593 0.574400
Si Si2 0.755519 0.212494 0.366167
Si Si3 0.651112 0.679799 0.243631
Si Si4 0.702264 0.194201 0.120509
Si Si5 0.419583 0.841713 0.652175
Si Si6 0.005704 0.044701 0.502891
Si Si7 0.313896 0.379189 0.227196
O O1 0.501155 0.228285 0.638738
O O2 0.226648 0.140325 0.399391
O O3 0.307377 0.279555 0.615023
O O4 0.391520 0.012544 0.659294
O O5 0.764353 0.256957 0.265446
O O6 0.592629 0.187332 0.278380
O O7 0.841628 0.335296 0.492057
O O8 0.855554 0.061378 0.448275
O O9 0.623037 0.528482 0.163158
O O10 0.761015 0.777468 0.269243
O O11 0.553578 0.292410 0.997927
O O12 0.692524 0.011673 0.115529
O O13 0.342624 0.720558 0.658943
O O14 0.969956 0.946416 0.383595
#
# Coordination Sequence:
#
# PCOD8056499 Si02
#       7
#     4   4   4   4   4   4   4
#     4  12  29  46  79 114 149 204 252 318 384 454
#     4  11  26  48  75 108 150 198 250 312 373 458
#     4  12  27  52  77 111 156 199 257 316 381 460
#     4  11  26  46  77 109 156 195 254 308 383 445
#     4  12  28  48  78 112 151 204 256 309 392 449
#     4  11  24  50  75 109 159 200 250 320 377 452
#     4  11  28  50  75 113 153 202 255 317 376 462
#
# _framework density 23.833148999999999
#
# number of rings (size 3 to 8) (size 9 to 14) (size 15 to 20)
#    0.000    0.571    2.857    3.429   10.000    0.000 
#    0.000    0.000    0.000    0.000    0.000    0.000 
#    0.000    0.000    0.000    0.000    0.000    0.000 
#
# Total GULP energy -173479.225739 kJ/mol
# GULP energy per Si atom -12391.373267 kJ/mol
# Density = 2.377890 g / cm^3
# Si number density = 23.833149 Si / 1000 Ang^3
#
#
#
# Elastic Constant Matrix: (Units=GPa)
#
#
# Indices 1 2 3 4 5 6 
#
# 1 96.3673 46.9431 21.9890 0.0000 -7.1523 0.0000
# 2 46.9431 125.1686 30.4211 0.0000 4.5067 0.0000
# 3 21.9890 30.4211 91.6418 0.0000 8.7778 0.0000
# 4 0.0000 0.0000 0.0000 39.6302 0.0000 4.6417
# 5 -7.1523 4.5067 8.7778 0.0000 35.2501 0.0000
# 6 0.0000 0.0000 0.0000 4.6417 0.0000 43.1769
#
#
#
# Elastic Compliance Matrix: (Units=1/GPa)
#
#
# Indices 1 2 3 4 5 6 
#
# 1 0.013398 -0.004669 -0.002031 0.000000 0.003821 0.000000
# 2 -0.004669 0.010323 -0.002140 0.000000 -0.001734 0.000000
# 3 -0.002031 -0.002140 0.012419 0.000000 -0.003231 0.000000
# 4 0.000000 0.000000 0.000000 0.025555 0.000000 -0.002747
# 5 0.003821 -0.001734 -0.003231 0.000000 0.030170 0.000000
# 6 0.000000 0.000000 0.000000 -0.002747 0.000000 0.023456
#
#
# Mechanical properties :
#
#
# Convention : Reuss Voigt Hill
#
# Bulk Modulus (GPa) = 54.17095 56.87601 55.52348
# Shear Modulus (GPa) = 35.93099 37.86642 36.89870
#
# Velocity S-wave (km/s) = 3.88700 3.99032 3.93900
# Velocity P-wave (km/s) = 6.55161 6.71909 6.63588
#
# Compressibility (1/GPa) = 0.01846008
#
# Stress axis : x y z
#
# Youngs Moduli (GPa) = 74.63614 96.87230 80.51932
#
# Poissons Ratio (x) = 0.45228 0.16354
# Poissons Ratio (y) = 0.34847 0.17234
# Poissons Ratio (z) = 0.15159 0.20734
#
# Static dielectric constant tensor:
#      x y z
#    x 4.254060 0.000000 0.066200 
#    y 0.000000 4.506820 0.000000 
#    z 0.066200 0.000000 4.505690 
# 
# 
# High freq. dielectric constant tensor:
#      x y z
#    x 1.944490 0.000000 -0.002090 
#    y 0.000000 1.952000 0.000000 
#    z -0.002090 0.000000 1.951560 
# 
# From -- ./inp_files/25735.got.cif
#   From: 2010.06.25/outbox.cif.g09.slc.cpg/sg9_13_cif.got.tgz:25735.got - 2010.06.27 21:40:51.
