data_PCOD8056123
_publ_section_title
;
Structure prediction by ZEFSAII (Michael W. Deem and Ramdas Pophale) SiO2 
 PCOD8056123
Probable space group: C C
;
_chemical_formula_sum "Si O2"
_cell_formula_units_Z 32
_cell_length_a 22.546652
_cell_length_b 5.310474
_cell_length_c 12.221741
_cell_angle_alpha 90.000000
_cell_angle_beta 106.182667
_cell_angle_gamma 90.000000
_cell_volume 1405.369895
_symmetry_space_group_name_H-M "C C"
_symmetry_group_IT_number 9
_symmetry_cell_setting 'monoclinic'
loop_
_space_group_symop_operation_xyz
x,y,z
x,-y,1/2+z
1/2+x,1/2+y,z
1/2+x,1/2-y,1/2+z
loop_
_atom_site_type_symbol
_atom_site_label
_atom_site_fract_x
_atom_site_fract_y
_atom_site_fract_z
Si Si1 0.791160 0.397275 0.045160
Si Si2 0.009878 0.709982 0.435196
Si Si3 0.597578 0.908463 0.795767
Si Si4 0.429364 0.441925 0.208121
Si Si5 0.327535 0.709988 0.276664
Si Si6 0.908030 0.442043 0.503721
Si Si7 0.239818 0.408359 0.916075
Si Si8 0.546236 0.397399 0.666674
O O1 0.794680 0.414311 0.179695
O O2 0.859136 0.351576 0.024616
O O3 0.764487 0.662875 0.991521
O O4 0.747990 0.163241 0.989334
O O5 0.061271 0.562969 0.391938
O O6 0.042739 0.914331 0.532147
O O7 0.957537 0.824653 0.332205
O O8 0.975807 0.534405 0.506381
O O9 0.668699 0.866008 0.855892
O O10 0.572881 0.663057 0.720280
O O11 0.589407 0.163421 0.722562
O O12 0.361598 0.534368 0.205484
O O13 0.418677 0.249856 0.105951
O O14 0.478244 0.648278 0.187148
O O15 0.379881 0.824643 0.379655
O O16 0.276141 0.563008 0.319933
#
# Coordination Sequence:
#
# PCOD8056123 Si02
#       8
#     4   4   4   4   4   4   4   4
#     4  11  24  42  66  97 129 169 219 268 324 388
#     4  11  22  39  67  94 134 174 210 269 330 379
#     4  11  26  45  66  95 130 172 224 270 317 385
#     4  11  22  40  66 101 135 168 215 265 327 396
#     4  11  22  39  67  94 134 174 210 269 330 379
#     4  11  22  40  66 101 135 168 215 265 327 396
#     4  11  26  45  66  95 130 172 224 270 317 385
#     4  11  24  42  66  97 129 169 219 268 324 388
#
# _framework density 22.769805999999999
#
# number of rings (size 3 to 8) (size 9 to 14) (size 15 to 20)
#    0.000    1.000    0.000    7.500    0.000    8.000 
#    0.000    0.000    0.000    0.000    0.000    0.000 
#    0.000    0.000    0.000    0.000    0.000    0.000 
#
# Total GULP energy -198377.449129 kJ/mol
# GULP energy per Si atom -12398.590571 kJ/mol
# Density = 2.271798 g / cm^3
# Si number density = 22.769806 Si / 1000 Ang^3
#
#
#
# Elastic Constant Matrix: (Units=GPa)
#
#
# Indices 1 2 3 4 5 6 
#
# 1 97.8442 19.3336 38.7543 0.0000 11.3250 0.0000
# 2 19.3336 110.0868 56.3233 0.0000 -2.4041 0.0000
# 3 38.7543 56.3233 170.1236 0.0000 -8.0507 0.0000
# 4 0.0000 0.0000 0.0000 25.3537 0.0000 -2.4526
# 5 11.3250 -2.4041 -8.0507 0.0000 26.5185 0.0000
# 6 0.0000 0.0000 0.0000 -2.4526 0.0000 27.6931
#
#
#
# Elastic Compliance Matrix: (Units=1/GPa)
#
#
# Indices 1 2 3 4 5 6 
#
# 1 0.012203 -0.000850 -0.002789 0.000000 -0.006135 0.000000
# 2 -0.000850 0.010996 -0.003432 0.000000 0.000318 0.000000
# 3 -0.002789 -0.003432 0.007803 0.000000 0.003249 0.000000
# 4 0.000000 0.000000 0.000000 0.039783 0.000000 0.003523
# 5 -0.006135 0.000318 0.003249 0.000000 0.041345 0.000000
# 6 0.000000 0.000000 0.000000 0.003523 0.000000 0.036422
#
#
# Mechanical properties :
#
#
# Convention : Reuss Voigt Hill
#
# Bulk Modulus (GPa) = 59.30955 67.43076 63.37016
# Shear Modulus (GPa) = 29.70654 33.48928 31.59791
#
# Velocity S-wave (km/s) = 3.61591 3.83923 3.72924
# Velocity P-wave (km/s) = 6.59826 7.02363 6.81426
#
# Compressibility (1/GPa) = 0.01686069
#
# Stress axis : x y z
#
# Youngs Moduli (GPa) = 81.94703 90.94436 128.15266
#
# Poissons Ratio (x) = 0.07733 0.35737
# Poissons Ratio (y) = 0.06968 0.43977
# Poissons Ratio (z) = 0.22852 0.31209
#
# Static dielectric constant tensor:
#      x y z
#    x 4.530390 0.000000 0.027240 
#    y 0.000000 4.020060 0.000000 
#    z 0.027240 0.000000 4.408330 
# 
# 
# High freq. dielectric constant tensor:
#      x y z
#    x 1.892340 0.000000 0.000500 
#    y 0.000000 1.888490 0.000000 
#    z 0.000500 0.000000 1.927500 
# 
# From -- ./inp_files/20621.got.cif
#   From: 2010.06.25/outbox.cif.g09.slc.cpg/sg9_11_cif.got.tgz:20621.got - 2010.06.27 21:40:51.
