data_PCOD8056053
_publ_section_title
;
Structure prediction by ZEFSAII (Michael W. Deem and Ramdas Pophale) SiO2 
 PCOD8056053
Probable space group: C C
;
_chemical_formula_sum "Si O2"
_cell_formula_units_Z 28
_cell_length_a 11.757525
_cell_length_b 13.910504
_cell_length_c 8.977043
_cell_angle_alpha 90.000000
_cell_angle_beta 51.612492
_cell_angle_gamma 90.000000
_cell_volume 1150.835724
_symmetry_space_group_name_H-M "C C"
_symmetry_group_IT_number 9
_symmetry_cell_setting 'monoclinic'
loop_
_space_group_symop_operation_xyz
x,y,z
x,-y,1/2+z
1/2+x,1/2+y,z
1/2+x,1/2-y,1/2+z
loop_
_atom_site_type_symbol
_atom_site_label
_atom_site_fract_x
_atom_site_fract_y
_atom_site_fract_z
Si Si1 0.317600 0.155992 0.716610
Si Si2 0.888075 0.289392 0.488263
Si Si3 0.695954 0.875868 0.246733
Si Si4 0.508377 0.315678 0.461145
Si Si5 0.055388 0.035077 0.161829
Si Si6 0.280678 0.550744 0.979014
Si Si7 0.242305 0.050283 0.280630
O O1 0.453069 0.207853 0.529300
O O2 0.166942 0.188478 0.753388
O O3 0.345273 0.042774 0.672228
O O4 0.309348 0.182337 0.899120
O O5 0.842569 0.181246 0.575324
O O6 0.836103 0.356492 0.668686
O O7 0.060047 0.305346 0.323380
O O8 0.682299 0.894869 0.436332
O O9 0.690262 0.976510 0.157207
O O10 0.559098 0.363703 0.574929
O O11 0.380755 0.375425 0.488922
O O12 0.097025 0.046499 0.299040
O O13 0.889756 0.004439 0.280701
O O14 0.171801 0.957033 0.001902
#
# Coordination Sequence:
#
# PCOD8056053 Si02
#       7
#     4   4   4   4   4   4   4
#     4  11  24  42  72 105 144 192 238 308 364 449
#     4  12  28  48  74 112 150 199 250 312 376 448
#     4  12  31  47  82 105 159 193 256 307 380 442
#     4  11  23  41  73 103 140 187 243 295 370 434
#     4  11  20  42  72 101 141 189 240 293 367 437
#     4  12  25  48  74 111 146 197 243 313 370 446
#     4  11  23  42  73 103 144 193 246 294 371 438
#
# _framework density 24.330145999999999
#
# number of rings (size 3 to 8) (size 9 to 14) (size 15 to 20)
#    0.000    0.571    7.143    1.714    6.000    3.429 
#    0.000    0.000    0.000    0.000    0.000    0.000 
#    0.000    0.000    0.000    0.000    0.000    0.000 
#
# Total GULP energy -173449.621212 kJ/mol
# GULP energy per Si atom -12389.258658 kJ/mol
# Density = 2.427477 g / cm^3
# Si number density = 24.330146 Si / 1000 Ang^3
#
#
#
# Elastic Constant Matrix: (Units=GPa)
#
#
# Indices 1 2 3 4 5 6 
#
# 1 88.5795 37.7363 20.7522 0.0000 4.7051 0.0000
# 2 37.7363 81.4439 19.8043 0.0000 6.9151 0.0000
# 3 20.7522 19.8043 43.5570 0.0000 -5.0320 0.0000
# 4 0.0000 0.0000 0.0000 32.6121 0.0000 -10.9951
# 5 4.7051 6.9151 -5.0320 0.0000 38.0524 0.0000
# 6 0.0000 0.0000 0.0000 -10.9951 0.0000 32.7304
#
#
#
# Elastic Compliance Matrix: (Units=1/GPa)
#
#
# Indices 1 2 3 4 5 6 
#
# 1 0.014860 -0.005623 -0.004689 0.000000 -0.001436 0.000000
# 2 -0.005623 0.016377 -0.005109 0.000000 -0.002956 0.000000
# 3 -0.004689 -0.005109 0.028119 0.000000 0.005227 0.000000
# 4 0.000000 0.000000 0.000000 0.034580 0.000000 0.011616
# 5 -0.001436 -0.002956 0.005227 0.000000 0.027685 0.000000
# 6 0.000000 0.000000 0.000000 0.011616 0.000000 0.034455
#
#
# Mechanical properties :
#
#
# Convention : Reuss Voigt Hill
#
# Bulk Modulus (GPa) = 35.07006 41.12955 38.09981
# Shear Modulus (GPa) = 25.45540 29.69814 27.57677
#
# Velocity S-wave (km/s) = 3.23809 3.49754 3.37031
# Velocity P-wave (km/s) = 5.33159 5.76644 5.55327
#
# Compressibility (1/GPa) = 0.02851435
#
# Stress axis : x y z
#
# Youngs Moduli (GPa) = 67.29692 61.06110 35.56310
#
# Poissons Ratio (x) = 0.34334 0.16675
# Poissons Ratio (y) = 0.37841 0.18168
# Poissons Ratio (z) = 0.31555 0.31195
#
# Static dielectric constant tensor:
#      x y z
#    x 4.623730 0.000000 -0.304540 
#    y 0.000000 4.442940 0.000000 
#    z -0.304540 0.000000 4.359270 
# 
# 
# High freq. dielectric constant tensor:
#      x y z
#    x 1.968600 0.000000 -0.003050 
#    y 0.000000 1.959410 0.000000 
#    z -0.003050 0.000000 1.955020 
# 
# From -- ./inp_files/7326.got.cif
#   From: 2010.06.25/outbox.cif.g09.slc.cpg/sg9_4_cif.got.tgz:7326.got - 2010.06.27 21:40:51.
