data_PCOD8056103
_publ_section_title
;
Structure prediction by ZEFSAII (Michael W. Deem and Ramdas Pophale) SiO2 
 PCOD8056103
Probable space group: C C
;
_chemical_formula_sum "Si O2"
_cell_formula_units_Z 32
_cell_length_a 6.326672
_cell_length_b 28.117969
_cell_length_c 10.075325
_cell_angle_alpha 90.000000
_cell_angle_beta 124.266426
_cell_angle_gamma 90.000000
_cell_volume 1481.233572
_symmetry_space_group_name_H-M "C C"
_symmetry_group_IT_number 9
_symmetry_cell_setting 'monoclinic'
loop_
_space_group_symop_operation_xyz
x,y,z
x,-y,1/2+z
1/2+x,1/2+y,z
1/2+x,1/2-y,1/2+z
loop_
_atom_site_type_symbol
_atom_site_label
_atom_site_fract_x
_atom_site_fract_y
_atom_site_fract_z
Si Si1 0.296550 0.788855 0.487580
Si Si2 0.903951 0.102389 0.021902
Si Si3 0.566499 0.379662 0.299498
Si Si4 0.232247 0.367388 0.927221
Si Si5 0.453216 0.963550 0.444536
Si Si6 0.346543 0.688679 0.202813
Si Si7 0.425034 0.952443 0.732696
Si Si8 0.867889 0.290832 0.807743
O O1 0.257338 0.835565 0.385812
O O2 0.602200 0.776834 0.583721
O O3 0.245365 0.801537 0.621359
O O4 0.088926 0.749035 0.375591
O O5 0.852639 0.146629 0.098360
O O6 0.187870 0.083089 0.143796
O O7 0.714255 0.059302 0.985841
O O8 0.870960 0.117761 0.855310
O O9 0.720300 0.428088 0.341854
O O10 0.436863 0.371616 0.113789
O O11 0.325873 0.333988 0.840889
O O12 0.169692 0.419801 0.852124
O O13 0.989228 0.339740 0.906014
O O14 0.473273 0.977707 0.607514
O O15 0.389643 0.009950 0.337051
O O16 0.608429 0.720559 0.299080
#
# Coordination Sequence:
#
# PCOD8056103 Si02
#       8
#     4   4   4   4   4   4   4   4
#     4  11  23  43  68 100 139 170 232 287 338 420
#     4  11  21  45  68  90 135 183 223 271 350 403
#     4  11  24  43  66 100 138 174 226 288 335 413
#     4  11  24  42  65 100 138 173 230 288 334 415
#     4  11  25  42  65  98 134 183 229 281 346 406
#     4  11  21  45  71  93 136 187 218 280 356 400
#     4  11  25  41  65  97 137 177 232 288 333 410
#     4  11  23  43  68 100 135 179 226 285 348 411
#
# _framework density 21.603615000000001
#
# number of rings (size 3 to 8) (size 9 to 14) (size 15 to 20)
#    0.000    1.000    5.000    2.250    3.500    5.000 
#    0.000    0.000    0.000    0.000    0.000    0.000 
#    0.000    0.000    0.000    0.000    0.000    0.000 
#
# Total GULP energy -198301.419634 kJ/mol
# GULP energy per Si atom -12393.838727 kJ/mol
# Density = 2.155444 g / cm^3
# Si number density = 21.603615 Si / 1000 Ang^3
#
#
#
# Elastic Constant Matrix: (Units=GPa)
#
#
# Indices 1 2 3 4 5 6 
#
# 1 126.5575 32.2823 52.7135 0.0000 8.9365 0.0000
# 2 32.2823 89.6585 42.1211 0.0000 1.9872 0.0000
# 3 52.7135 42.1211 147.8311 0.0000 -3.4128 0.0000
# 4 0.0000 0.0000 0.0000 29.6208 0.0000 -2.2339
# 5 8.9365 1.9872 -3.4128 0.0000 26.3858 0.0000
# 6 0.0000 0.0000 0.0000 -2.2339 0.0000 29.9692
#
#
#
# Elastic Compliance Matrix: (Units=1/GPa)
#
#
# Indices 1 2 3 4 5 6 
#
# 1 0.009952 -0.002075 -0.003041 0.000000 -0.003608 0.000000
# 2 -0.002075 0.013365 -0.003084 0.000000 -0.000703 0.000000
# 3 -0.003041 -0.003084 0.008783 0.000000 0.002398 0.000000
# 4 0.000000 0.000000 0.000000 0.033951 0.000000 0.002531
# 5 -0.003608 -0.000703 0.002398 0.000000 0.039484 0.000000
# 6 0.000000 0.000000 0.000000 0.002531 0.000000 0.033556
#
#
# Mechanical properties :
#
#
# Convention : Reuss Voigt Hill
#
# Bulk Modulus (GPa) = 63.69433 68.69787 66.19610
# Shear Modulus (GPa) = 31.10902 32.99051 32.04977
#
# Velocity S-wave (km/s) = 3.79884 3.91203 3.85585
# Velocity P-wave (km/s) = 6.98489 7.23005 7.10853
#
# Compressibility (1/GPa) = 0.01569998
#
# Stress axis : x y z
#
# Youngs Moduli (GPa) = 100.48140 74.82153 113.85642
#
# Poissons Ratio (x) = 0.15524 0.34622
# Poissons Ratio (y) = 0.20848 0.35119
# Poissons Ratio (z) = 0.30555 0.23079
#
# Static dielectric constant tensor:
#      x y z
#    x 4.215780 0.000000 -0.029940 
#    y 0.000000 3.827800 0.000000 
#    z -0.029940 0.000000 3.999230 
# 
# 
# High freq. dielectric constant tensor:
#      x y z
#    x 1.856270 0.000000 -0.000770 
#    y 0.000000 1.840590 0.000000 
#    z -0.000770 0.000000 1.856160 
# 
# From -- ./inp_files/4471.got.cif
#   From: 2010.06.25/outbox.cif.g09.slc.cpg/sg9_3_cif.got.tgz:4471.got - 2010.06.27 21:40:51.
