data_PCOD8056576
_publ_section_title
;
Structure prediction by ZEFSAII (Michael W. Deem and Ramdas Pophale) SiO2 
 PCOD8056576
Probable space group: C C
;
_chemical_formula_sum "Si O2"
_cell_formula_units_Z 24
_cell_length_a 9.340753
_cell_length_b 13.019293
_cell_length_c 17.505753
_cell_angle_alpha 90.000000
_cell_angle_beta 151.940671
_cell_angle_gamma 90.000000
_cell_volume 1001.391949
_symmetry_space_group_name_H-M "C C"
_symmetry_group_IT_number 9
_symmetry_cell_setting 'monoclinic'
loop_
_space_group_symop_operation_xyz
x,y,z
x,-y,1/2+z
1/2+x,1/2+y,z
1/2+x,1/2-y,1/2+z
loop_
_atom_site_type_symbol
_atom_site_label
_atom_site_fract_x
_atom_site_fract_y
_atom_site_fract_z
Si Si1 0.787450 0.156364 0.647990
Si Si2 0.653384 0.066074 0.748230
Si Si3 0.283999 0.103293 0.128812
Si Si4 0.658602 0.679216 0.613182
Si Si5 0.918622 0.349598 0.390219
Si Si6 0.103644 0.443245 0.921351
O O1 0.674174 0.115367 0.675088
O O2 0.846183 0.277246 0.671602
O O3 0.542906 0.128151 0.466970
O O4 0.107196 0.100984 0.778004
O O5 0.376995 0.120189 0.659649
O O6 0.548035 0.945879 0.697805
O O7 0.956245 0.082115 0.939313
O O8 0.311808 0.053447 0.227154
O O9 0.830604 0.714108 0.771971
O O10 0.559637 0.781670 0.523245
O O11 0.380301 0.602626 0.501577
O O12 0.149842 0.440573 0.474397
#
# Coordination Sequence:
#
# PCOD8056576 Si02
#       6
#     4   4   4   4   4   4
#     4  11  28  48  80 117 155 203 260 328 380 463
#     4  12  29  46  80 116 151 206 259 321 388 463
#     4  12  26  52  77 112 159 201 255 319 393 453
#     4  11  26  50  77 115 155 208 254 325 386 463
#     4  11  26  49  80 112 157 208 255 324 389 455
#     4  11  25  51  78 110 157 208 255 315 394 459
#
# _framework density 23.966638
#
# number of rings (size 3 to 8) (size 9 to 14) (size 15 to 20)
#    0.000    0.667    3.333    2.000    9.333    0.000 
#    6.000    0.000    0.000    0.000    0.000    0.000 
#    0.000    0.000    0.000    0.000    0.000    0.000 
#
# Total GULP energy -148721.108224 kJ/mol
# GULP energy per Si atom -12393.425685 kJ/mol
# Density = 2.391209 g / cm^3
# Si number density = 23.966638 Si / 1000 Ang^3
#
#
#
# Elastic Constant Matrix: (Units=GPa)
#
#
# Indices 1 2 3 4 5 6 
#
# 1 194.3435 82.0252 70.6117 0.0021 -22.9124 0.0016
# 2 82.0252 153.6834 47.1917 -0.0111 -8.6636 -0.0048
# 3 70.6117 47.1917 95.7331 -0.0523 -9.9419 -0.0218
# 4 0.0021 -0.0111 -0.0523 73.6151 0.0161 7.7204
# 5 -22.9124 -8.6636 -9.9419 0.0161 30.0446 0.0087
# 6 0.0016 -0.0048 -0.0218 7.7204 0.0087 55.8927
#
#
#
# Elastic Compliance Matrix: (Units=1/GPa)
#
#
# Indices 1 2 3 4 5 6 
#
# 1 0.008462 -0.002944 -0.004358 -0.000004 0.004162 -0.000002
# 2 -0.002944 0.008720 -0.002174 0.000000 -0.000450 0.000000
# 3 -0.004358 -0.002174 0.014832 0.000010 0.000957 0.000004
# 4 -0.000004 0.000000 0.000010 0.013784 -0.000007 -0.001904
# 5 0.004162 -0.000450 0.000957 -0.000007 0.036645 -0.000005
# 6 -0.000002 0.000000 0.000004 -0.001904 -0.000005 0.018154
#
#
# Mechanical properties :
#
#
# Convention : Reuss Voigt Hill
#
# Bulk Modulus (GPa) = 76.55924 93.71302 85.13613
# Shear Modulus (GPa) = 40.35399 48.17256 44.26328
#
# Velocity S-wave (km/s) = 4.10781 4.48815 4.30219
# Velocity P-wave (km/s) = 7.38324 8.12676 7.76391
#
# Compressibility (1/GPa) = 0.01306178
#
# Stress axis : x y z
#
# Youngs Moduli (GPa) = 118.17346 114.67605 67.42384
#
# Poissons Ratio (x) = 0.33755 0.29385
# Poissons Ratio (y) = 0.34785 0.14659
# Poissons Ratio (z) = 0.51504 0.24933
#
# Static dielectric constant tensor:
#      x y z
#    x 4.596310 0.000010 -0.231040 
#    y 0.000010 4.688720 -0.000020 
#    z -0.231040 -0.000020 4.586660 
# 
# 
# High freq. dielectric constant tensor:
#      x y z
#    x 1.958360 0.000000 -0.016140 
#    y 0.000000 1.951660 0.000000 
#    z -0.016140 0.000000 1.957940 
# 
# From -- ./inp_files/29455.got.cif
#   From: 2010.06.25/outbox.cif.g09.slc.cpg/sg9_15_cif.got.tgz:29455.got - 2010.06.27 21:40:51.
