data_PCOD8056517
_publ_section_title
;
Structure prediction by ZEFSAII (Michael W. Deem and Ramdas Pophale) SiO2 
 PCOD8056517
Probable space group: C C
;
_chemical_formula_sum "Si O2"
_cell_formula_units_Z 32
_cell_length_a 8.760974
_cell_length_b 18.392056
_cell_length_c 9.213984
_cell_angle_alpha 90.000000
_cell_angle_beta 102.587306
_cell_angle_gamma 90.000000
_cell_volume 1448.986701
_symmetry_space_group_name_H-M "C C"
_symmetry_group_IT_number 9
_symmetry_cell_setting 'monoclinic'
loop_
_space_group_symop_operation_xyz
x,y,z
x,-y,1/2+z
1/2+x,1/2+y,z
1/2+x,1/2-y,1/2+z
loop_
_atom_site_type_symbol
_atom_site_label
_atom_site_fract_x
_atom_site_fract_y
_atom_site_fract_z
Si Si1 0.607890 0.909312 0.927760
Si Si2 0.237517 0.664439 0.711079
Si Si3 0.601510 0.304505 0.832546
Si Si4 0.291878 0.920031 0.378353
Si Si5 0.648189 0.075543 0.942141
Si Si6 0.758207 0.831435 0.722282
Si Si7 0.779453 0.570093 0.219204
Si Si8 0.080241 0.190854 0.666332
O O1 0.751676 0.885952 0.856499
O O2 0.449544 0.902457 0.803552
O O3 0.642832 0.991293 0.985567
O O4 0.604005 0.854263 0.063806
O O5 0.197552 0.733978 0.801404
O O6 0.241196 0.592398 0.812736
O O7 0.399399 0.675807 0.660871
O O8 0.421349 0.288621 0.758134
O O9 0.651417 0.374429 0.751397
O O10 0.625647 0.322284 0.007527
O O11 0.470525 0.895748 0.389136
O O12 0.265951 0.934340 0.543284
O O13 0.182851 0.856449 0.297377
O O14 0.246038 0.991459 0.278963
O O15 0.744508 0.119941 0.078497
O O16 0.615599 0.774818 0.707109
#
# Coordination Sequence:
#
# PCOD8056517 Si02
#       8
#     4   4   4   4   4   4   4   4
#     4  11  25  45  75 103 148 185 242 291 353 426
#     4  12  27  46  73 106 144 194 240 294 361 420
#     4  12  28  47  72 105 145 192 239 297 364 423
#     4  11  26  47  75 106 146 186 239 295 358 432
#     4  11  25  46  72 109 140 194 235 292 356 427
#     4  12  25  47  71 102 147 185 239 296 355 424
#     4  11  26  46  75 108 142 193 235 294 362 426
#     4  12  28  48  71 105 146 187 241 303 355 432
#
# _framework density 22.084399000000001
#
# number of rings (size 3 to 8) (size 9 to 14) (size 15 to 20)
#    0.000    0.500    3.750    3.000   12.250    2.000 
#    0.000    0.000    0.000    0.000    0.000    0.000 
#    0.000    0.000    0.000    0.000    0.000    0.000 
#
# Total GULP energy -198428.068157 kJ/mol
# GULP energy per Si atom -12401.754260 kJ/mol
# Density = 2.203413 g / cm^3
# Si number density = 22.084399 Si / 1000 Ang^3
#
#
#
# Elastic Constant Matrix: (Units=GPa)
#
#
# Indices 1 2 3 4 5 6 
#
# 1 79.9017 33.7070 38.2947 0.0000 -8.8692 0.0000
# 2 33.7070 69.7612 50.2697 0.0000 1.5874 0.0000
# 3 38.2947 50.2697 175.3780 0.0000 -8.9627 0.0000
# 4 0.0000 0.0000 0.0000 40.0331 0.0000 -0.9456
# 5 -8.8692 1.5874 -8.9627 0.0000 32.4756 0.0000
# 6 0.0000 0.0000 0.0000 -0.9456 0.0000 34.5388
#
#
#
# Elastic Compliance Matrix: (Units=1/GPa)
#
#
# Indices 1 2 3 4 5 6 
#
# 1 0.016705 -0.007201 -0.001351 0.000000 0.004541 0.000000
# 2 -0.007201 0.021348 -0.004768 0.000000 -0.004326 0.000000
# 3 -0.001351 -0.004768 0.007462 0.000000 0.001923 0.000000
# 4 0.000000 0.000000 0.000000 0.024995 0.000000 0.000684
# 5 0.004541 -0.004326 0.001923 0.000000 0.032775 0.000000
# 6 0.000000 0.000000 0.000000 0.000684 0.000000 0.028972
#
#
# Mechanical properties :
#
#
# Convention : Reuss Voigt Hill
#
# Bulk Modulus (GPa) = 52.98148 63.28708 58.13428
# Shear Modulus (GPa) = 30.26837 34.92746 32.59791
#
# Velocity S-wave (km/s) = 3.70615 3.98118 3.84612
# Velocity P-wave (km/s) = 6.50819 7.06061 6.79002
#
# Compressibility (1/GPa) = 0.01887452
#
# Stress axis : x y z
#
# Youngs Moduli (GPa) = 59.86261 46.84267 134.01213
#
# Poissons Ratio (x) = 0.33731 0.18112
# Poissons Ratio (y) = 0.43106 0.63895
# Poissons Ratio (z) = 0.08090 0.22334
#
# Static dielectric constant tensor:
#      x y z
#    x 3.954600 0.000000 -0.059010 
#    y 0.000000 4.054080 0.000000 
#    z -0.059010 0.000000 4.229110 
# 
# 
# High freq. dielectric constant tensor:
#      x y z
#    x 1.862520 0.000000 -0.005630 
#    y 0.000000 1.877470 0.000000 
#    z -0.005630 0.000000 1.889920 
# 
# From -- ./inp_files/5783.got.cif
#   From: 2010.06.25/outbox.cif.g09.slc.cpg/sg9_3_cif.got.tgz:5783.got - 2010.06.27 21:40:51.
