data_PCOD8056681
_publ_section_title
;
Structure prediction by ZEFSAII (Michael W. Deem and Ramdas Pophale) SiO2 
 PCOD8056681
Probable space group: C C
;
_chemical_formula_sum "Si O2"
_cell_formula_units_Z 20
_cell_length_a 17.281140
_cell_length_b 6.450386
_cell_length_c 14.490503
_cell_angle_alpha 90.000000
_cell_angle_beta 146.306813
_cell_angle_gamma 90.000000
_cell_volume 896.056386
_symmetry_space_group_name_H-M "C C"
_symmetry_group_IT_number 9
_symmetry_cell_setting 'monoclinic'
loop_
_space_group_symop_operation_xyz
x,y,z
x,-y,1/2+z
1/2+x,1/2+y,z
1/2+x,1/2-y,1/2+z
loop_
_atom_site_type_symbol
_atom_site_label
_atom_site_fract_x
_atom_site_fract_y
_atom_site_fract_z
Si Si1 0.276760 0.225136 0.963810
Si Si2 0.115632 0.869015 0.710070
Si Si3 0.835359 0.049030 0.862819
Si Si4 0.452610 0.862993 0.204978
Si Si5 0.723877 0.938576 0.555800
O O1 0.324478 0.386596 0.934483
O O2 0.156581 0.081802 0.801144
O O3 0.222483 0.343910 0.000569
O O4 0.406796 0.091522 0.128926
O O5 0.252324 0.760443 0.803501
O O6 0.000966 0.906300 0.515364
O O7 0.039327 0.720873 0.705590
O O8 0.777865 0.952193 0.712559
O O9 0.561699 0.866766 0.398784
O O10 0.317443 0.727433 0.093561
#
# Coordination Sequence:
#
# PCOD8056681 Si02
#       5
#     4   4   4   4   4
#     4  12  24  46  76  94 146 188 234 286 362 408
#     4  12  24  49  70 104 142 184 239 289 351 426
#     4  12  29  44  73 108 141 186 239 296 352 420
#     4  12  24  49  70 104 142 184 239 289 351 426
#     4  12  29  44  73 108 141 186 239 296 352 420
#
# _framework density 22.320025999999999
#
# number of rings (size 3 to 8) (size 9 to 14) (size 15 to 20)
#    0.000    0.000    8.000    1.200    5.600    1.600 
#    0.000    0.000    0.000    0.000    0.000    0.000 
#    0.000    0.000    0.000    0.000    0.000    0.000 
#
# Total GULP energy -124011.374911 kJ/mol
# GULP energy per Si atom -12401.137491 kJ/mol
# Density = 2.226923 g / cm^3
# Si number density = 22.320026 Si / 1000 Ang^3
#
#
#
# Elastic Constant Matrix: (Units=GPa)
#
#
# Indices 1 2 3 4 5 6 
#
# 1 45.1045 14.8482 24.7807 0.0000 6.0959 0.0000
# 2 14.8482 91.7159 34.4524 0.0000 14.0825 0.0000
# 3 24.7807 34.4524 194.7571 0.0000 20.3316 0.0000
# 4 0.0000 0.0000 0.0000 48.9555 0.0000 2.9757
# 5 6.0959 14.0825 20.3316 0.0000 44.5770 0.0000
# 6 0.0000 0.0000 0.0000 2.9757 0.0000 17.9316
#
#
#
# Elastic Compliance Matrix: (Units=1/GPa)
#
#
# Indices 1 2 3 4 5 6 
#
# 1 0.024660 -0.002850 -0.002494 0.000000 -0.001334 0.000000
# 2 -0.002850 0.012373 -0.001532 0.000000 -0.002820 0.000000
# 3 -0.002494 -0.001532 0.005919 0.000000 -0.001875 0.000000
# 4 0.000000 0.000000 0.000000 0.020635 0.000000 -0.003424
# 5 -0.001334 -0.002820 -0.001875 0.000000 0.024362 0.000000
# 6 0.000000 0.000000 0.000000 -0.003424 0.000000 0.056336
#
#
# Mechanical properties :
#
#
# Convention : Reuss Voigt Hill
#
# Bulk Modulus (GPa) = 34.24796 53.30445 43.77621
# Shear Modulus (GPa) = 29.80289 39.45925 34.63107
#
# Velocity S-wave (km/s) = 3.65808 4.20918 3.94327
# Velocity P-wave (km/s) = 5.76363 6.89614 6.35516
#
# Compressibility (1/GPa) = 0.02919882
#
# Stress axis : x y z
#
# Youngs Moduli (GPa) = 40.55197 80.82025 168.95904
#
# Poissons Ratio (x) = 0.23038 0.42141
# Poissons Ratio (y) = 0.11559 0.25879
# Poissons Ratio (z) = 0.10114 0.12379
#
# Static dielectric constant tensor:
#      x y z
#    x 3.851500 0.000000 0.275030 
#    y 0.000000 4.285240 0.000000 
#    z 0.275030 0.000000 5.100180 
# 
# 
# High freq. dielectric constant tensor:
#      x y z
#    x 1.853630 0.000000 0.013530 
#    y 0.000000 1.888630 0.000000 
#    z 0.013530 0.000000 1.914730 
# 
# From -- ./inp_files/8648.got.cif
#   From: 2010.06.25/outbox.cif.g09.slc.cpg/sg9_5_cif.got.tgz:8648.got - 2010.06.27 21:40:51.
