data_PCOD8056061
_publ_section_title
;
Structure prediction by ZEFSAII (Michael W. Deem and Ramdas Pophale) SiO2 
 PCOD8056061
Probable space group: C C
;
_chemical_formula_sum "Si O2"
_cell_formula_units_Z 28
_cell_length_a 10.500366
_cell_length_b 24.360887
_cell_length_c 11.111347
_cell_angle_alpha 90.000000
_cell_angle_beta 26.651692
_cell_angle_gamma 90.000000
_cell_volume 1274.941380
_symmetry_space_group_name_H-M "C C"
_symmetry_group_IT_number 9
_symmetry_cell_setting 'monoclinic'
loop_
_space_group_symop_operation_xyz
x,y,z
x,-y,1/2+z
1/2+x,1/2+y,z
1/2+x,1/2-y,1/2+z
loop_
_atom_site_type_symbol
_atom_site_label
_atom_site_fract_x
_atom_site_fract_y
_atom_site_fract_z
Si Si1 0.004550 0.625711 0.839960
Si Si2 0.581293 0.016725 0.638237
Si Si3 0.229125 0.786223 0.405897
Si Si4 0.966323 0.404536 0.813061
Si Si5 0.043433 0.874114 0.378839
Si Si6 0.464759 0.483199 0.582097
Si Si7 0.081671 0.095254 0.405580
O O1 0.069851 0.579554 0.685822
O O2 0.315102 0.638151 0.636830
O O3 0.883332 0.679524 0.879694
O O4 0.772450 0.603081 0.127806
O O5 0.772986 0.009448 0.360168
O O6 0.630633 0.964903 0.689905
O O7 0.272961 0.996836 0.860268
O O8 0.172570 0.820974 0.333396
O O9 0.926416 0.765448 0.708820
O O10 0.233266 0.361738 0.581160
O O11 0.773902 0.394276 0.859401
O O12 0.776033 0.396291 0.090457
O O13 0.976444 0.920343 0.534247
O O14 0.415993 0.535010 0.529962
#
# Coordination Sequence:
#
# PCOD8056061 Si02
#       7
#     4   4   4   4   4   4   4
#     4  12  23  42  68  90 136 174 220 277 327 379
#     4  11  21  36  61  98 141 174 216 254 320 403
#     4  12  28  48  72  98 122 166 234 292 336 364
#     4  11  23  39  63 100 137 179 212 251 321 415
#     4  12  23  42  68  90 136 174 220 277 327 379
#     4  11  21  36  61  98 141 174 216 254 320 403
#     4  11  23  39  63 100 137 179 212 251 321 415
#
# _framework density 21.961794999999999
#
# number of rings (size 3 to 8) (size 9 to 14) (size 15 to 20)
#    0.000    0.571    1.429    9.429    2.000    0.000 
#    0.000    0.000    0.000   17.143    0.000    0.000 
#    0.000    0.000    0.000    0.000    0.000    0.000 
#
# Total GULP energy -173515.238945 kJ/mol
# GULP energy per Si atom -12393.945639 kJ/mol
# Density = 2.191181 g / cm^3
# Si number density = 21.961795 Si / 1000 Ang^3
#
#
#
# Elastic Constant Matrix: (Units=GPa)
#
#
# Indices 1 2 3 4 5 6 
#
# 1 69.0666 53.5494 37.4083 -0.0003 -5.7075 0.0005
# 2 53.5494 83.6068 38.3232 0.0001 2.6866 0.0000
# 3 37.4083 38.3232 178.3069 0.0000 8.9305 0.0008
# 4 -0.0003 0.0001 0.0000 33.4031 0.0002 -7.9230
# 5 -5.7075 2.6866 8.9305 0.0002 47.9896 -0.0007
# 6 0.0005 0.0000 0.0008 -7.9230 -0.0007 8.7130
#
#
#
# Elastic Compliance Matrix: (Units=1/GPa)
#
#
# Indices 1 2 3 4 5 6 
#
# 1 0.030885 -0.018702 -0.002722 0.000000 0.005227 -0.000001
# 2 -0.018702 0.024595 -0.001193 0.000000 -0.003379 0.000001
# 3 -0.002722 -0.001193 0.006509 0.000000 -0.001468 -0.000001
# 4 0.000000 0.000000 0.000000 0.038170 0.000000 0.034709
# 5 0.005227 -0.003379 -0.001468 0.000000 0.021922 0.000002
# 6 -0.000001 0.000001 -0.000001 0.034709 0.000002 0.146334
#
#
# Mechanical properties :
#
#
# Convention : Reuss Voigt Hill
#
# Bulk Modulus (GPa) = 59.68324 65.50467 62.59396
# Shear Modulus (GPa) = 15.66247 31.46776 23.56511
#
# Velocity S-wave (km/s) = 2.67342 3.78939 3.27923
# Velocity P-wave (km/s) = 6.06337 7.00267 6.54988
#
# Compressibility (1/GPa) = 0.01675512
#
# Stress axis : x y z
#
# Youngs Moduli (GPa) = 32.37801 40.65907 153.62565
#
# Poissons Ratio (x) = 0.76041 0.41814
# Poissons Ratio (y) = 0.60553 0.18331
# Poissons Ratio (z) = 0.08813 0.04852
#
# Static dielectric constant tensor:
#      x y z
#    x 4.446200 0.000000 -0.536830 
#    y 0.000000 3.652810 0.000000 
#    z -0.536830 0.000000 4.377060 
# 
# 
# High freq. dielectric constant tensor:
#      x y z
#    x 1.885020 0.000000 -0.025870 
#    y 0.000000 1.828900 0.000000 
#    z -0.025870 0.000000 1.894230 
# 
# From -- ./inp_files/17220.got.cif
#   From: 2010.06.25/outbox.cif.g09.slc.cpg/sg9_9_cif.got.tgz:17220.got - 2010.06.27 21:40:51.
