data_PCOD8056364
_publ_section_title
;
Structure prediction by ZEFSAII (Michael W. Deem and Ramdas Pophale) SiO2 
 PCOD8056364
Probable space group: C C
;
_chemical_formula_sum "Si O2"
_cell_formula_units_Z 32
_cell_length_a 13.764877
_cell_length_b 11.877248
_cell_length_c 25.339666
_cell_angle_alpha 90.000000
_cell_angle_beta 157.856255
_cell_angle_gamma 90.000000
_cell_volume 1561.534340
_symmetry_space_group_name_H-M "C C"
_symmetry_group_IT_number 9
_symmetry_cell_setting 'monoclinic'
loop_
_space_group_symop_operation_xyz
x,y,z
x,-y,1/2+z
1/2+x,1/2+y,z
1/2+x,1/2-y,1/2+z
loop_
_atom_site_type_symbol
_atom_site_label
_atom_site_fract_x
_atom_site_fract_y
_atom_site_fract_z
Si Si1 0.537570 0.336908 0.250000
Si Si2 0.978029 0.713435 0.783092
Si Si3 0.249366 0.772386 0.695960
Si Si4 0.505641 0.663089 0.485944
Si Si5 0.793850 0.772394 0.539979
Si Si6 0.429492 0.405943 0.455880
Si Si7 0.613743 0.405954 0.780062
Si Si8 0.565204 0.213428 0.452851
O O1 0.351059 0.320251 0.206445
O O2 0.771581 0.249987 0.367966
O O3 0.642805 0.462475 0.304958
O O4 0.365651 0.317720 0.110952
O O5 0.055233 0.691260 0.882688
O O6 0.145849 0.635087 0.828891
O O7 0.025823 0.843373 0.789629
O O8 0.677582 0.682276 0.624999
O O9 0.487993 0.808747 0.853252
O O10 0.021610 0.720268 0.617972
O O11 0.135482 0.879157 0.606387
O O12 0.692139 0.679775 0.529493
O O13 0.400451 0.537516 0.430999
O O14 0.907759 0.879176 0.629555
O O15 0.517382 0.343366 0.446295
O O16 0.897391 0.364923 0.907056
#
# Coordination Sequence:
#
# PCOD8056364 Si02
#       8
#     4   4   4   4   4   4   4   4
#     4  11  24  38  62  96 130 158 212 259 308 365
#     4   9  20  40  62  88 125 166 206 249 317 369
#     4   9  20  43  63  93 120 168 208 245 314 377
#     4  11  24  38  62  96 130 158 212 259 308 365
#     4   9  20  43  63  93 120 168 208 245 314 377
#     4   9  20  39  64  89 124 167 200 260 313 364
#     4   9  20  39  64  89 124 167 200 260 313 364
#     4   9  20  40  62  88 125 166 206 249 317 369
#
# _framework density 20.492664999999999
#
# number of rings (size 3 to 8) (size 9 to 14) (size 15 to 20)
#    0.000    2.500    0.000    1.500    7.000    3.000 
#    9.000    0.000    0.000    0.000    0.000    0.000 
#    0.000    0.000    0.000    0.000    0.000    0.000 
#
# Total GULP energy -198357.106725 kJ/mol
# GULP energy per Si atom -12397.319170 kJ/mol
# Density = 2.044602 g / cm^3
# Si number density = 20.492665 Si / 1000 Ang^3
#
#
#
# Elastic Constant Matrix: (Units=GPa)
#
#
# Indices 1 2 3 4 5 6 
#
# 1 66.5635 24.8389 23.9672 0.0059 -6.4331 -0.0029
# 2 24.8389 163.7259 44.7326 -0.0010 9.5058 -0.0028
# 3 23.9672 44.7326 136.7422 -0.0249 -0.9324 0.0170
# 4 0.0059 -0.0010 -0.0249 22.4785 0.0037 2.2916
# 5 -6.4331 9.5058 -0.9324 0.0037 20.4927 0.0023
# 6 -0.0029 -0.0028 0.0170 2.2916 0.0023 12.4343
#
#
#
# Elastic Compliance Matrix: (Units=1/GPa)
#
#
# Indices 1 2 3 4 5 6 
#
# 1 0.017339 -0.002402 -0.002209 -0.000009 0.006457 0.000007
# 2 -0.002402 0.007258 -0.001982 -0.000001 -0.004211 0.000005
# 3 -0.002209 -0.001982 0.008353 0.000011 0.000606 -0.000015
# 4 -0.000009 -0.000001 0.000011 0.045339 -0.000009 -0.008356
# 5 0.006457 -0.004211 0.000606 -0.000009 0.052806 -0.000008
# 6 0.000007 0.000005 -0.000015 -0.008356 -0.000008 0.081963
#
#
# Mechanical properties :
#
#
# Convention : Reuss Voigt Hill
#
# Bulk Modulus (GPa) = 50.59819 61.56768 56.08294
# Shear Modulus (GPa) = 21.47476 29.31394 25.39435
#
# Velocity S-wave (km/s) = 3.24068 3.78625 3.52404
# Velocity P-wave (km/s) = 6.22472 7.01592 6.63213
#
# Compressibility (1/GPa) = 0.01976355
#
# Stress axis : x y z
#
# Youngs Moduli (GPa) = 57.67346 137.77571 119.72000
#
# Poissons Ratio (x) = 0.33090 0.26450
# Poissons Ratio (y) = 0.13852 0.23730
# Poissons Ratio (z) = 0.12742 0.27309
#
# Static dielectric constant tensor:
#      x y z
#    x 3.659150 0.000000 -0.155140 
#    y 0.000000 3.340570 -0.000010 
#    z -0.155140 -0.000010 4.020900 
# 
# 
# High freq. dielectric constant tensor:
#      x y z
#    x 1.786100 0.000000 -0.007770 
#    y 0.000000 1.770890 0.000000 
#    z -0.007770 0.000000 1.821380 
# 
# From -- ./inp_files/18211.got.cif
#   From: 2010.06.25/outbox.cif.g09.slc.cpg/sg9_10_cif.got.tgz:18211.got - 2010.06.27 21:40:51.
