data_PCOD8056232
_publ_section_title
;
Structure prediction by ZEFSAII (Michael W. Deem and Ramdas Pophale) SiO2 
 PCOD8056232
Probable space group: C C
;
_chemical_formula_sum "Si O2"
_cell_formula_units_Z 28
_cell_length_a 5.119068
_cell_length_b 23.300067
_cell_length_c 10.608165
_cell_angle_alpha 90.000000
_cell_angle_beta 59.350117
_cell_angle_gamma 90.000000
_cell_volume 1088.522748
_symmetry_space_group_name_H-M "C C"
_symmetry_group_IT_number 9
_symmetry_cell_setting 'monoclinic'
loop_
_space_group_symop_operation_xyz
x,y,z
x,-y,1/2+z
1/2+x,1/2+y,z
1/2+x,1/2-y,1/2+z
loop_
_atom_site_type_symbol
_atom_site_label
_atom_site_fract_x
_atom_site_fract_y
_atom_site_fract_z
Si Si1 0.660960 0.152073 0.529660
Si Si2 0.504131 0.875227 0.549713
Si Si3 0.571037 0.966661 0.159209
Si Si4 0.532542 0.240688 0.917813
Si Si5 0.229283 0.761693 0.234345
Si Si6 0.350086 0.529551 0.849441
Si Si7 0.834611 0.133882 0.211488
O O1 0.652793 0.101045 0.632803
O O2 0.352548 0.189720 0.609380
O O3 0.688320 0.124446 0.384317
O O4 0.934179 0.196489 0.492986
O O5 0.521078 0.806639 0.530418
O O6 0.728302 0.904955 0.393405
O O7 0.159608 0.898021 0.621016
O O8 0.608872 0.893018 0.664395
O O9 0.211296 0.974647 0.263188
O O10 0.695262 0.995461 0.002008
O O11 0.315864 0.220074 0.856254
O O12 0.878673 0.246947 0.790766
O O13 0.398139 0.701222 0.169261
O O14 0.233520 0.506280 0.742594
#
# Coordination Sequence:
#
# PCOD8056232 Si02
#       7
#     4   4   4   4   4   4   4
#     4  11  26  46  73 108 157 200 263 313 396 458
#     4  12  24  45  71 104 151 193 251 302 396 445
#     4  12  29  53  84 118 151 209 263 337 385 473
#     4  11  24  41  69 101 146 193 243 310 367 475
#     4  11  23  42  64 102 145 190 248 293 386 441
#     4  12  29  53  85 115 157 203 269 326 399 457
#     4  11  25  40  68 108 143 206 241 321 365 469
#
# _framework density 25.722932
#
# number of rings (size 3 to 8) (size 9 to 14) (size 15 to 20)
#    0.000    0.571    1.429    6.000    6.000    4.571 
#    0.000    0.000    0.000    0.000    0.000    0.000 
#    0.000    0.000    0.000    0.000    0.000    0.000 
#
# Total GULP energy -173629.120238 kJ/mol
# GULP energy per Si atom -12402.080017 kJ/mol
# Density = 2.566439 g / cm^3
# Si number density = 25.722932 Si / 1000 Ang^3
#
#
#
# Elastic Constant Matrix: (Units=GPa)
#
#
# Indices 1 2 3 4 5 6 
#
# 1 164.9079 21.2821 67.4009 0.0000 -6.4021 0.0000
# 2 21.2821 48.9651 41.6564 0.0000 -10.2280 0.0000
# 3 67.4009 41.6564 152.0115 0.0000 -16.0880 0.0000
# 4 0.0000 0.0000 0.0000 44.3481 0.0000 -1.7211
# 5 -6.4021 -10.2280 -16.0880 0.0000 57.3956 0.0000
# 6 0.0000 0.0000 0.0000 -1.7211 0.0000 24.5389
#
#
#
# Elastic Compliance Matrix: (Units=1/GPa)
#
#
# Indices 1 2 3 4 5 6 
#
# 1 0.007419 -0.000580 -0.003147 0.000000 -0.000158 0.000000
# 2 -0.000580 0.027115 -0.006873 0.000000 0.002841 0.000000
# 3 -0.003147 -0.006873 0.009987 0.000000 0.001224 0.000000
# 4 0.000000 0.000000 0.000000 0.022610 0.000000 0.001586
# 5 -0.000158 0.002841 0.001224 0.000000 0.018255 0.000000
# 6 0.000000 0.000000 0.000000 0.001586 0.000000 0.040863
#
#
# Mechanical properties :
#
#
# Convention : Reuss Voigt Hill
#
# Bulk Modulus (GPa) = 42.88003 69.61813 56.24908
# Shear Modulus (GPa) = 32.21185 40.95952 36.58569
#
# Velocity S-wave (km/s) = 3.54257 3.99474 3.77543
# Velocity P-wave (km/s) = 5.78267 6.95705 6.39687
#
# Compressibility (1/GPa) = 0.02332088
#
# Stress axis : x y z
#
# Youngs Moduli (GPa) = 134.78736 36.87993 100.13236
#
# Poissons Ratio (x) = 0.02139 0.31515
# Poissons Ratio (y) = 0.07819 0.68817
# Poissons Ratio (z) = 0.42422 0.25346
#
# Static dielectric constant tensor:
#      x y z
#    x 4.686520 0.000000 0.008020 
#    y 0.000000 4.735440 0.000000 
#    z 0.008020 0.000000 4.788080 
# 
# 
# High freq. dielectric constant tensor:
#      x y z
#    x 2.032410 0.000000 -0.000920 
#    y 0.000000 2.024140 0.000000 
#    z -0.000920 0.000000 2.040580 
# 
# From -- ./inp_files/22129.got.cif
#   From: 2010.06.25/outbox.cif.g09.slc.cpg/sg9_12_cif.got.tgz:22129.got - 2010.06.27 21:40:51.
