data_PCOD8056695
_publ_section_title
;
Structure prediction by ZEFSAII (Michael W. Deem and Ramdas Pophale) SiO2 
 PCOD8056695
Probable space group: C C
;
_chemical_formula_sum "Si O2"
_cell_formula_units_Z 28
_cell_length_a 6.806306
_cell_length_b 23.223650
_cell_length_c 7.845907
_cell_angle_alpha 90.000000
_cell_angle_beta 103.072330
_cell_angle_gamma 90.000000
_cell_volume 1208.042180
_symmetry_space_group_name_H-M "C C"
_symmetry_group_IT_number 9
_symmetry_cell_setting 'monoclinic'
loop_
_space_group_symop_operation_xyz
x,y,z
x,-y,1/2+z
1/2+x,1/2+y,z
1/2+x,1/2-y,1/2+z
loop_
_atom_site_type_symbol
_atom_site_label
_atom_site_fract_x
_atom_site_fract_y
_atom_site_fract_z
Si Si1 0.029040 0.686010 0.023610
Si Si2 0.498490 0.505138 0.477073
Si Si3 0.316364 0.698183 0.404746
Si Si4 0.694798 0.379143 0.967090
Si Si5 0.339522 0.078080 0.140544
Si Si6 0.691848 0.011832 0.668558
Si Si7 0.598791 0.856401 0.186290
O O1 0.170567 0.697986 0.213248
O O2 0.896316 0.629001 0.024154
O O3 0.872449 0.737481 0.967245
O O4 0.158848 0.675850 0.874933
O O5 0.615127 0.563651 0.546225
O O6 0.629938 0.448875 0.538254
O O7 0.255383 0.505254 0.482714
O O8 0.430701 0.503878 0.265318
O O9 0.515003 0.663792 0.387113
O O10 0.220055 0.669271 0.551790
O O11 0.818459 0.397358 0.824847
O O12 0.857826 0.346476 0.116394
O O13 0.514315 0.030877 0.181030
O O14 0.636513 0.075965 0.711211
#
# Coordination Sequence:
#
# PCOD8056695 Si02
#       7
#     4   4   4   4   4   4   4
#     4  12  30  51  82 109 151 207 257 324 381 456
#     4  12  25  40  71 111 154 205 243 308 384 464
#     4  12  29  55  75 113 151 202 267 319 385 453
#     4  12  25  49  73 109 156 201 255 317 386 454
#     4  12  27  46  74 114 155 198 259 313 389 465
#     4  12  25  44  70 114 156 198 254 304 390 464
#     4  12  27  49  79 110 157 203 251 323 379 462
#
# _framework density 23.177997999999999
#
# number of rings (size 3 to 8) (size 9 to 14) (size 15 to 20)
#    0.000    0.000    5.714    3.429    8.000    2.286 
#    0.000    0.000    0.000    0.000    0.000    0.000 
#    0.000    0.000    0.000    0.000    0.000    0.000 
#
# Total GULP energy -173560.730189 kJ/mol
# GULP energy per Si atom -12397.195013 kJ/mol
# Density = 2.312524 g / cm^3
# Si number density = 23.177998 Si / 1000 Ang^3
#
#
#
# Elastic Constant Matrix: (Units=GPa)
#
#
# Indices 1 2 3 4 5 6 
#
# 1 118.9898 51.3233 53.5960 0.0000 -8.8759 0.0000
# 2 51.3233 149.4691 53.5227 0.0000 0.4612 0.0000
# 3 53.5960 53.5227 112.8348 0.0000 -10.2595 0.0000
# 4 0.0000 0.0000 0.0000 32.3709 0.0000 3.1513
# 5 -8.8759 0.4612 -10.2595 0.0000 34.4768 0.0000
# 6 0.0000 0.0000 0.0000 3.1513 0.0000 47.8901
#
#
#
# Elastic Compliance Matrix: (Units=1/GPa)
#
#
# Indices 1 2 3 4 5 6 
#
# 1 0.011449 -0.002465 -0.004109 0.000000 0.001758 0.000000
# 2 -0.002465 0.008645 -0.003081 0.000000 -0.001667 0.000000
# 3 -0.004109 -0.003081 0.012522 0.000000 0.002710 0.000000
# 4 0.000000 0.000000 0.000000 0.031091 0.000000 -0.002046
# 5 0.001758 -0.001667 0.002710 0.000000 0.030286 0.000000
# 6 0.000000 0.000000 0.000000 -0.002046 0.000000 0.021016
#
#
# Mechanical properties :
#
#
# Convention : Reuss Voigt Hill
#
# Bulk Modulus (GPa) = 75.15830 77.57528 76.36679
# Shear Modulus (GPa) = 36.03406 37.80434 36.91920
#
# Velocity S-wave (km/s) = 3.94720 4.04300 3.99539
# Velocity P-wave (km/s) = 7.29869 7.43885 7.36910
#
# Compressibility (1/GPa) = 0.01330525
#
# Stress axis : x y z
#
# Youngs Moduli (GPa) = 87.34036 115.66745 79.85681
#
# Poissons Ratio (x) = 0.28517 0.32814
# Poissons Ratio (y) = 0.21533 0.24608
# Poissons Ratio (z) = 0.35890 0.35643
#
# Static dielectric constant tensor:
#      x y z
#    x 4.202270 0.000000 -0.051520 
#    y 0.000000 4.209130 0.000000 
#    z -0.051520 0.000000 4.518540 
# 
# 
# High freq. dielectric constant tensor:
#      x y z
#    x 1.927690 0.000000 -0.004290 
#    y 0.000000 1.916680 0.000000 
#    z -0.004290 0.000000 1.946740 
# 
# From -- ./inp_files/3987.got.cif
#   From: 2010.06.25/outbox.cif.g09.slc.cpg/sg9_2_cif.got.tgz:3987.got - 2010.06.27 21:40:51.
