data_PCOD8056305
_publ_section_title
;
Structure prediction by ZEFSAII (Michael W. Deem and Ramdas Pophale) SiO2 
 PCOD8056305
Probable space group: C C
;
_chemical_formula_sum "Si O2"
_cell_formula_units_Z 32
_cell_length_a 19.720716
_cell_length_b 13.642869
_cell_length_c 14.087713
_cell_angle_alpha 90.000000
_cell_angle_beta 157.843863
_cell_angle_gamma 90.000000
_cell_volume 1429.427459
_symmetry_space_group_name_H-M "C C"
_symmetry_group_IT_number 9
_symmetry_cell_setting 'monoclinic'
loop_
_space_group_symop_operation_xyz
x,y,z
x,-y,1/2+z
1/2+x,1/2+y,z
1/2+x,1/2-y,1/2+z
loop_
_atom_site_type_symbol
_atom_site_label
_atom_site_fract_x
_atom_site_fract_y
_atom_site_fract_z
Si Si1 0.269730 0.543623 0.021950
Si Si2 0.305954 0.883667 0.182082
Si Si3 0.378305 0.225808 0.326324
Si Si4 0.278691 0.319207 0.372421
Si Si5 0.006123 0.379761 0.631647
Si Si6 0.104353 0.068960 0.934237
Si Si7 0.051641 0.703947 0.842570
Si Si8 0.854502 0.230466 0.572728
O O1 0.446460 0.486333 0.291322
O O2 0.325307 0.579775 0.987210
O O3 0.212772 0.637300 0.009815
O O4 0.097415 0.473980 0.796596
O O5 0.381932 0.910760 0.383788
O O6 0.467389 0.848063 0.324964
O O7 0.148078 0.805408 0.993812
O O8 0.220303 0.985199 0.030256
O O9 0.317802 0.321162 0.309958
O O10 0.568603 0.196263 0.615256
O O11 0.377189 0.253172 0.214816
O O12 0.240397 0.136527 0.171796
O O13 0.389198 0.226966 0.559701
O O14 0.888907 0.330635 0.562540
O O15 0.155762 0.303836 0.788261
O O16 0.997193 0.145186 0.726063
#
# Coordination Sequence:
#
# PCOD8056305 Si02
#       8
#     4   4   4   4   4   4   4   4
#     4  11  25  45  67 103 139 180 231 294 344 417
#     4  12  24  44  70  99 136 184 230 280 349 419
#     4  12  23  41  72 101 134 183 226 287 356 406
#     4  12  22  43  71 100 138 177 236 283 356 409
#     4  11  25  44  70  98 137 180 232 276 347 421
#     4  11  24  44  66 103 139 178 233 288 349 422
#     4  12  24  45  70  99 141 183 227 294 348 409
#     4  11  23  46  68  97 140 177 223 288 345 413
#
# _framework density 22.386586000000001
#
# number of rings (size 3 to 8) (size 9 to 14) (size 15 to 20)
#    0.000    0.500    6.250    1.500    1.750    0.000 
#    4.500    1.250    2.750    0.000    0.000    0.000 
#    0.000    0.000    0.000    0.000    0.000    0.000 
#
# Total GULP energy -198299.207381 kJ/mol
# GULP energy per Si atom -12393.700461 kJ/mol
# Density = 2.233563 g / cm^3
# Si number density = 22.386586 Si / 1000 Ang^3
#
#
#
# Elastic Constant Matrix: (Units=GPa)
#
#
# Indices 1 2 3 4 5 6 
#
# 1 92.1612 28.7724 11.0850 0.0001 -2.7053 0.0001
# 2 28.7724 95.5934 17.2844 0.0000 1.5654 0.0000
# 3 11.0850 17.2844 112.8693 0.0002 10.8381 0.0002
# 4 0.0001 0.0000 0.0002 47.6118 0.0001 14.0798
# 5 -2.7053 1.5654 10.8381 0.0001 22.8727 0.0001
# 6 0.0001 0.0000 0.0002 14.0798 0.0001 33.6114
#
#
#
# Elastic Compliance Matrix: (Units=1/GPa)
#
#
# Indices 1 2 3 4 5 6 
#
# 1 0.012115 -0.003527 -0.000849 0.000000 0.002077 0.000000
# 2 -0.003527 0.011786 -0.001405 0.000000 -0.000558 0.000000
# 3 -0.000849 -0.001405 0.009595 0.000000 -0.004551 0.000000
# 4 0.000000 0.000000 0.000000 0.023973 0.000000 -0.010042
# 5 0.002077 -0.000558 -0.004551 0.000000 0.046161 0.000000
# 6 0.000000 0.000000 0.000000 -0.010042 0.000000 0.033959
#
#
# Mechanical properties :
#
#
# Convention : Reuss Voigt Hill
#
# Bulk Modulus (GPa) = 45.59116 46.10084 45.84600
# Shear Modulus (GPa) = 31.95689 37.05130 34.50410
#
# Velocity S-wave (km/s) = 3.78233 4.07267 3.93018
# Velocity P-wave (km/s) = 6.28365 6.53860 6.41239
#
# Compressibility (1/GPa) = 0.02193408
#
# Stress axis : x y z
#
# Youngs Moduli (GPa) = 82.54429 84.84890 104.21734
#
# Poissons Ratio (x) = 0.29925 0.08849
# Poissons Ratio (y) = 0.29112 0.14641
# Poissons Ratio (z) = 0.07009 0.11920
#
# Static dielectric constant tensor:
#      x y z
#    x 3.773030 0.000000 0.240740 
#    y 0.000000 4.197760 0.000000 
#    z 0.240740 0.000000 4.312080 
# 
# 
# High freq. dielectric constant tensor:
#      x y z
#    x 1.851000 0.000000 0.022900 
#    y 0.000000 1.886680 0.000000 
#    z 0.022900 0.000000 1.901880 
# 
# From -- ./inp_files/27484.got.cif
#   From: 2010.06.25/outbox.cif.g09.slc.cpg/sg9_14_cif.got.tgz:27484.got - 2010.06.27 21:40:51.
