data_PCOD8056894
_publ_section_title
;
Structure prediction by ZEFSAII (Michael W. Deem and Ramdas Pophale) SiO2 
 PCOD8056894
Probable space group: P 2/M
;
_chemical_formula_sum "Si O2"
_cell_formula_units_Z 28
_cell_length_a 14.484797
_cell_length_b 11.776182
_cell_length_c 15.609813
_cell_angle_alpha 90.000000
_cell_angle_beta 142.114205
_cell_angle_gamma 90.000000
_cell_volume 1635.107567
_symmetry_space_group_name_H-M "P 2/M"
_symmetry_group_IT_number 10
_symmetry_cell_setting 'monoclinic'
loop_
_space_group_symop_operation_xyz
x,y,z
-x,y,-z
-x,-y,-z
x,-y,z
loop_
_atom_site_type_symbol
_atom_site_label
_atom_site_fract_x
_atom_site_fract_y
_atom_site_fract_z
Si Si1 0.697002 0.129635 0.942142
Si Si2 0.545764 0.632664 0.629203
Si Si3 0.831064 0.865227 0.394436
Si Si4 0.661328 0.133854 0.107303
Si Si5 0.174058 0.240502 0.110399
Si Si6 0.606476 0.186495 0.370877
Si Si7 0.835328 0.000000 0.835005
Si Si8 0.641637 0.000000 0.538655
O O1 0.800736 0.225089 0.972572
O O2 0.522752 0.137440 0.786299
O O3 0.752441 0.000000 0.964543
O O4 0.724720 0.162657 0.060551
O O5 0.500000 0.670199 0.500000
O O6 0.523356 0.500000 0.626251
O O7 0.722408 0.662982 0.772103
O O8 0.443179 0.692558 0.626226
O O9 0.759353 0.816394 0.255306
O O10 0.757536 0.803939 0.423759
O O11 0.000000 0.829244 0.500000
O O12 0.812338 0.000000 0.394749
O O13 0.649604 0.000000 0.110401
O O14 0.500000 0.191593 0.000000
O O15 0.239681 0.118342 0.191152
O O16 0.000000 0.266933 0.000000
O O17 0.636561 0.109274 0.475053
O O18 0.802816 0.000000 0.708370
O O19 0.000000 0.000000 0.000000
O O20 0.500000 0.000000 0.500000
#
# Coordination Sequence:
#
# PCOD8056894 Si02
#       8
#     4   4   4   4   4   4   2   2
#     4  10  16  28  48  74 105 142 176 204 246 307
#     4  10  22  39  57  76  98 133 186 233 268 315
#     4  10  19  33  45  75 114 141 171 210 257 319
#     4   9  16  27  46  65  98 143 174 199 239 298
#     4  10  20  34  51  78 111 139 168 212 261 318
#     4  11  19  32  55  77 104 139 177 221 268 314
#     4  10  20  34  44  72 116 138 162 197 261 321
#     4  12  20  30  53  77 103 143 176 213 258 322
#
# _framework density 17.124255000000002
#
# number of rings (size 3 to 8) (size 9 to 14) (size 15 to 20)
#    0.000    1.857    3.571    3.000    0.000    0.286 
#    7.714    0.000    0.000    0.429    0.000    8.000 
#    0.000    0.000    0.000    0.000    0.000    0.000 
#
# Total GULP energy -346890.900846 kJ/mol
# GULP energy per Si atom -12388.960744 kJ/mol
# Density = 1.708528 g / cm^3
# Si number density = 17.124255 Si / 1000 Ang^3
#
#
#
# Elastic Constant Matrix: (Units=GPa)
#
#
# Indices 1 2 3 4 5 6 
#
# 1 136.5266 30.7502 69.6478 0.0000 4.6190 0.0000
# 2 30.7502 52.2766 27.1364 0.0000 -4.9986 0.0000
# 3 69.6478 27.1364 119.5189 0.0000 -6.8638 0.0000
# 4 0.0000 0.0000 0.0000 15.1664 0.0000 -0.4160
# 5 4.6190 -4.9986 -6.8638 0.0000 30.0865 0.0000
# 6 0.0000 0.0000 0.0000 -0.4160 0.0000 15.8259
#
#
#
# Elastic Compliance Matrix: (Units=1/GPa)
#
#
# Indices 1 2 3 4 5 6 
#
# 1 0.011379 -0.003966 -0.005946 0.000000 -0.003762 0.000000
# 2 -0.003966 0.023256 -0.002748 0.000000 0.003846 0.000000
# 3 -0.005946 -0.002748 0.012648 0.000000 0.003342 0.000000
# 4 0.000000 0.000000 0.000000 0.065983 0.000000 0.001734
# 5 -0.003762 0.003846 0.003342 0.000000 0.035216 0.000000
# 6 0.000000 0.000000 0.000000 0.001734 0.000000 0.063233
#
#
# Mechanical properties :
#
#
# Convention : Reuss Voigt Hill
#
# Bulk Modulus (GPa) = 45.53432 62.59900 54.06666
# Shear Modulus (GPa) = 20.46185 24.26826 22.36505
#
# Velocity S-wave (km/s) = 3.46049 3.76864 3.61785
# Velocity P-wave (km/s) = 6.52801 7.45466 7.00667
#
# Compressibility (1/GPa) = 0.02196146
#
# Stress axis : x y z
#
# Youngs Moduli (GPa) = 87.88403 42.99909 79.06485
#
# Poissons Ratio (x) = 0.17054 0.47014
# Poissons Ratio (y) = 0.34857 0.21728
# Poissons Ratio (z) = 0.52258 0.11817
#
# Static dielectric constant tensor:
#      x y z
#    x 3.254000 0.000000 -0.162920 
#    y 0.000000 2.792390 0.000000 
#    z -0.162920 0.000000 3.367970 
# 
# 
# High freq. dielectric constant tensor:
#      x y z
#    x 1.666590 0.000000 -0.011430 
#    y 0.000000 1.602910 0.000000 
#    z -0.011430 0.000000 1.669800 
# 
# From -- ./inp_files/67166.got.cif
#   From: 2010.06.25/outbox.cif.g09.slc.cpg/sg10_34_cif.got.tgz:67166.got - 2010.06.27 22:07:45.
