data_PCOD8056613
_publ_section_title
;
Structure prediction by ZEFSAII (Michael W. Deem and Ramdas Pophale) SiO2 
 PCOD8056613
Probable space group: C C
;
_chemical_formula_sum "Si O2"
_cell_formula_units_Z 28
_cell_length_a 19.464416
_cell_length_b 9.168343
_cell_length_c 9.193541
_cell_angle_alpha 90.000000
_cell_angle_beta 43.479283
_cell_angle_gamma 90.000000
_cell_volume 1128.916223
_symmetry_space_group_name_H-M "C C"
_symmetry_group_IT_number 9
_symmetry_cell_setting 'monoclinic'
loop_
_space_group_symop_operation_xyz
x,y,z
x,-y,1/2+z
1/2+x,1/2+y,z
1/2+x,1/2-y,1/2+z
loop_
_atom_site_type_symbol
_atom_site_label
_atom_site_fract_x
_atom_site_fract_y
_atom_site_fract_z
Si Si1 0.896090 0.581658 0.220720
Si Si2 0.257921 0.428412 0.572012
Si Si3 0.040249 0.667932 0.465453
Si Si4 0.072685 0.909626 0.599889
Si Si5 0.198709 0.042541 0.181297
Si Si6 0.960503 0.808194 0.319705
Si Si7 0.279284 0.697720 0.724701
O O1 0.798660 0.514921 0.450374
O O2 0.975548 0.659750 0.205398
O O3 0.872606 0.702143 0.132257
O O4 0.954763 0.448191 0.060404
O O5 0.148669 0.405205 0.805302
O O6 0.339200 0.318990 0.518332
O O7 0.297366 0.590084 0.559505
O O8 0.247840 0.401003 0.412984
O O9 0.020017 0.752935 0.649430
O O10 0.025111 0.792226 0.365922
O O11 0.116175 0.909936 0.692827
O O12 0.160333 0.911952 0.342618
O O13 0.997599 0.043970 0.684994
O O14 0.202141 0.181203 0.285819
#
# Coordination Sequence:
#
# PCOD8056613 Si02
#       7
#     4   4   4   4   4   4   4
#     4  11  27  47  80 111 156 204 263 324 388 470
#     4  11  29  50  77 112 160 207 255 329 383 467
#     4  12  28  48  78 117 155 206 264 320 392 467
#     4  12  26  47  77 113 152 207 258 323 398 465
#     4  12  25  49  78 109 154 203 261 324 393 461
#     4  11  27  49  75 110 159 200 262 322 388 466
#     4  11  26  50  79 112 156 207 259 320 394 458
#
# _framework density 24.80255
#
# number of rings (size 3 to 8) (size 9 to 14) (size 15 to 20)
#    0.000    0.571    2.857    3.429   14.000    0.000 
#    0.000    0.000    0.000    0.000    0.000    0.000 
#    0.000    0.000    0.000    0.000    0.000    0.000 
#
# Total GULP energy -173471.223482 kJ/mol
# GULP energy per Si atom -12390.801677 kJ/mol
# Density = 2.474610 g / cm^3
# Si number density = 24.802550 Si / 1000 Ang^3
#
#
#
# Elastic Constant Matrix: (Units=GPa)
#
#
# Indices 1 2 3 4 5 6 
#
# 1 127.5867 56.9129 34.1227 0.0000 20.3263 0.0000
# 2 56.9129 143.3886 37.9388 0.0000 9.6119 0.0000
# 3 34.1227 37.9388 70.6050 0.0000 -4.7577 0.0000
# 4 0.0000 0.0000 0.0000 34.2688 0.0000 12.9582
# 5 20.3263 9.6119 -4.7577 0.0000 40.2956 0.0000
# 6 0.0000 0.0000 0.0000 12.9582 0.0000 63.9027
#
#
#
# Elastic Compliance Matrix: (Units=1/GPa)
#
#
# Indices 1 2 3 4 5 6 
#
# 1 0.011127 -0.002956 -0.004153 0.000000 -0.005398 0.000000
# 2 -0.002956 0.009167 -0.003573 0.000000 -0.001118 0.000000
# 3 -0.004153 -0.003573 0.018436 0.000000 0.005124 0.000000
# 4 0.000000 0.000000 0.000000 0.031604 0.000000 -0.006409
# 5 -0.005398 -0.001118 0.005124 0.000000 0.028411 0.000000
# 6 0.000000 0.000000 0.000000 -0.006409 0.000000 0.016948
#
#
# Mechanical properties :
#
#
# Convention : Reuss Voigt Hill
#
# Bulk Modulus (GPa) = 57.58169 66.61436 62.09803
# Shear Modulus (GPa) = 35.00269 41.86717 38.43493
#
# Velocity S-wave (km/s) = 3.76074 4.11301 3.94081
# Velocity P-wave (km/s) = 6.49030 7.03363 6.76742
#
# Compressibility (1/GPa) = 0.01736663
#
# Stress axis : x y z
#
# Youngs Moduli (GPa) = 89.87145 109.08119 54.24304
#
# Poissons Ratio (x) = 0.32242 0.22528
# Poissons Ratio (y) = 0.26564 0.19380
# Poissons Ratio (z) = 0.37324 0.38973
#
# Static dielectric constant tensor:
#      x y z
#    x 4.556120 0.000000 0.127560 
#    y 0.000000 4.766470 0.000000 
#    z 0.127560 0.000000 4.093740 
# 
# 
# High freq. dielectric constant tensor:
#      x y z
#    x 2.005740 0.000000 0.003750 
#    y 0.000000 2.004650 0.000000 
#    z 0.003750 0.000000 1.958000 
# 
# From -- ./inp_files/11417.got.cif
#   From: 2010.06.25/outbox.cif.g09.slc.cpg/sg9_6_cif.got.tgz:11417.got - 2010.06.27 21:40:51.
