data_PCOD8056340
_publ_section_title
;
Structure prediction by ZEFSAII (Michael W. Deem and Ramdas Pophale) SiO2 
 PCOD8056340
Probable space group: C C
;
_chemical_formula_sum "Si O2"
_cell_formula_units_Z 24
_cell_length_a 11.592606
_cell_length_b 8.340925
_cell_length_c 11.805827
_cell_angle_alpha 90.000000
_cell_angle_beta 77.239569
_cell_angle_gamma 90.000000
_cell_volume 1113.347856
_symmetry_space_group_name_H-M "C C"
_symmetry_group_IT_number 9
_symmetry_cell_setting 'monoclinic'
loop_
_space_group_symop_operation_xyz
x,y,z
x,-y,1/2+z
1/2+x,1/2+y,z
1/2+x,1/2-y,1/2+z
loop_
_atom_site_type_symbol
_atom_site_label
_atom_site_fract_x
_atom_site_fract_y
_atom_site_fract_z
Si Si1 0.772040 0.657865 0.937950
Si Si2 0.077344 0.662937 0.608793
Si Si3 0.894794 0.320329 0.961067
Si Si4 0.151411 0.306042 0.535872
Si Si5 0.588159 0.347636 0.282222
Si Si6 0.010829 0.195825 0.349386
O O1 0.837443 0.494320 0.957289
O O2 0.704726 0.645305 0.833776
O O3 0.872116 0.792198 0.904731
O O4 0.680350 0.710687 0.055152
O O5 0.113226 0.485574 0.565935
O O6 0.053287 0.673470 0.747640
O O7 0.955986 0.701058 0.569780
O O8 0.993604 0.285442 0.844257
O O9 0.790478 0.190202 0.977317
O O10 0.127126 0.192913 0.647746
O O11 0.083017 0.225111 0.447461
O O12 0.528150 0.520416 0.295054
#
# Coordination Sequence:
#
# PCOD8056340 Si02
#       6
#     4   4   4   4   4   4
#     4  11  23  47  71  97 137 181 228 282 343 402
#     4  11  26  44  70 100 138 180 229 282 341 406
#     4  11  23  47  71  97 137 181 228 282 343 402
#     4  12  25  45  71 100 138 180 227 282 346 405
#     4  11  26  44  70 100 138 180 229 282 341 406
#     4  12  25  45  71 100 138 180 227 282 346 405
#
# _framework density 21.556604
#
# number of rings (size 3 to 8) (size 9 to 14) (size 15 to 20)
#    0.000    0.667    3.333    4.000    4.667    1.333 
#    6.000    0.000    0.000    0.000    0.000    0.000 
#    0.000    0.000    0.000    0.000    0.000    0.000 
#
# Total GULP energy -148863.431634 kJ/mol
# GULP energy per Si atom -12405.285969 kJ/mol
# Density = 2.150754 g / cm^3
# Si number density = 21.556604 Si / 1000 Ang^3
#
#
#
# Elastic Constant Matrix: (Units=GPa)
#
#
# Indices 1 2 3 4 5 6 
#
# 1 143.1947 16.5311 41.6345 0.0000 -14.0196 0.0000
# 2 16.5311 71.1528 2.0432 0.0000 -6.5151 0.0000
# 3 41.6345 2.0432 117.3006 0.0000 10.8592 0.0000
# 4 0.0000 0.0000 0.0000 24.0171 0.0000 -7.2422
# 5 -14.0196 -6.5151 10.8592 0.0000 20.7905 0.0000
# 6 0.0000 0.0000 0.0000 -7.2422 0.0000 45.3759
#
#
#
# Elastic Compliance Matrix: (Units=1/GPa)
#
#
# Indices 1 2 3 4 5 6 
#
# 1 0.009018 -0.001277 -0.003893 0.000000 0.007714 0.000000
# 2 -0.001277 0.014706 -0.000157 0.000000 0.003830 0.000000
# 3 -0.003893 -0.000157 0.010673 0.000000 -0.008249 0.000000
# 4 0.000000 0.000000 0.000000 0.043742 0.000000 0.006981
# 5 0.007714 0.003830 -0.008249 0.000000 0.058810 0.000000
# 6 0.000000 0.000000 0.000000 0.006981 0.000000 0.023152
#
#
# Mechanical properties :
#
#
# Convention : Reuss Voigt Hill
#
# Bulk Modulus (GPa) = 42.11776 50.22952 46.17364
# Shear Modulus (GPa) = 27.98451 36.13264 32.05858
#
# Velocity S-wave (km/s) = 3.60695 4.09855 3.86058
# Velocity P-wave (km/s) = 6.07679 6.76382 6.42949
#
# Compressibility (1/GPa) = 0.02374295
#
# Stress axis : x y z
#
# Youngs Moduli (GPa) = 110.88907 67.99883 93.69251
#
# Poissons Ratio (x) = 0.08684 0.36472
# Poissons Ratio (y) = 0.14161 0.01475
# Poissons Ratio (z) = 0.43166 0.01070
#
# Static dielectric constant tensor:
#      x y z
#    x 4.226070 0.000000 -0.150770 
#    y 0.000000 3.966850 0.000000 
#    z -0.150770 0.000000 3.976500 
# 
# 
# High freq. dielectric constant tensor:
#      x y z
#    x 1.865100 0.000000 -0.005270 
#    y 0.000000 1.855690 0.000000 
#    z -0.005270 0.000000 1.850420 
# 
# From -- ./inp_files/6730.got.cif
#   From: 2010.06.25/outbox.cif.g09.slc.cpg/sg9_4_cif.got.tgz:6730.got - 2010.06.27 21:40:51.
