data_PCOD8056639
_publ_section_title
;
Structure prediction by ZEFSAII (Michael W. Deem and Ramdas Pophale) SiO2 
 PCOD8056639
Probable space group: C C
;
_chemical_formula_sum "Si O2"
_cell_formula_units_Z 32
_cell_length_a 14.743954
_cell_length_b 12.154475
_cell_length_c 8.654070
_cell_angle_alpha 90.000000
_cell_angle_beta 73.259613
_cell_angle_gamma 90.000000
_cell_volume 1485.127184
_symmetry_space_group_name_H-M "C C"
_symmetry_group_IT_number 9
_symmetry_cell_setting 'monoclinic'
loop_
_space_group_symop_operation_xyz
x,y,z
x,-y,1/2+z
1/2+x,1/2+y,z
1/2+x,1/2-y,1/2+z
loop_
_atom_site_type_symbol
_atom_site_label
_atom_site_fract_x
_atom_site_fract_y
_atom_site_fract_z
Si Si1 0.655740 0.641038 0.533170
Si Si2 0.396886 0.417703 0.858569
Si Si3 0.795927 0.082618 0.724505
Si Si4 0.529654 0.859620 0.591269
Si Si5 0.581275 0.925358 0.240497
Si Si6 0.860214 0.283374 0.873285
Si Si7 0.572356 0.545219 0.866764
Si Si8 0.491085 0.260006 0.594455
O O1 0.601890 0.757426 0.558424
O O2 0.766736 0.643625 0.440254
O O3 0.647799 0.587318 0.705624
O O4 0.608201 0.565421 0.427701
O O5 0.315555 0.460285 0.780593
O O6 0.474880 0.515075 0.827626
O O7 0.436577 0.304126 0.771868
O O8 0.358597 0.390130 0.045392
O O9 0.687723 0.098874 0.737425
O O10 0.824741 0.162098 0.849678
O O11 0.516950 0.906684 0.424194
O O12 0.425381 0.829218 0.703066
O O13 0.573042 0.951035 0.683826
O O14 0.554846 0.842131 0.115832
O O15 0.918008 0.282493 0.003298
O O16 0.556953 0.642296 0.997747
#
# Coordination Sequence:
#
# PCOD8056639 Si02
#       8
#     4   4   4   4   4   4   4   4
#     4  12  27  45  76 107 144 189 247 307 365 436
#     4  12  22  40  74 106 142 186 252 313 362 424
#     4  12  23  42  71 111 139 189 253 308 357 442
#     4  12  26  50  72 104 156 194 237 306 374 443
#     4  12  28  46  73 104 154 197 239 299 378 443
#     4  12  26  47  72 107 149 195 246 301 371 447
#     4  12  23  45  73 104 143 187 242 311 367 421
#     4  12  25  45  71 107 145 199 242 301 378 434
#
# _framework density 21.546976000000001
#
# number of rings (size 3 to 8) (size 9 to 14) (size 15 to 20)
#    0.000    0.000    6.250    3.750    1.750    3.000 
#    0.000    0.000    0.000    0.000    0.000    0.000 
#    0.000    0.000    0.000    0.000    0.000    0.000 
#
# Total GULP energy -198490.529592 kJ/mol
# GULP energy per Si atom -12405.658099 kJ/mol
# Density = 2.149793 g / cm^3
# Si number density = 21.546976 Si / 1000 Ang^3
#
#
#
# Elastic Constant Matrix: (Units=GPa)
#
#
# Indices 1 2 3 4 5 6 
#
# 1 137.4825 56.5276 41.1148 0.0000 -2.9318 0.0000
# 2 56.5276 125.1559 42.8606 0.0000 7.6840 0.0000
# 3 41.1148 42.8606 112.7010 0.0000 -1.9472 0.0000
# 4 0.0000 0.0000 0.0000 46.6575 0.0000 6.9191
# 5 -2.9318 7.6840 -1.9472 0.0000 38.7283 0.0000
# 6 0.0000 0.0000 0.0000 6.9191 0.0000 33.8323
#
#
#
# Elastic Compliance Matrix: (Units=1/GPa)
#
#
# Indices 1 2 3 4 5 6 
#
# 1 0.009402 -0.003635 -0.002025 0.000000 0.001331 0.000000
# 2 -0.003635 0.010749 -0.002806 0.000000 -0.002549 0.000000
# 3 -0.002025 -0.002806 0.010695 0.000000 0.000941 0.000000
# 4 0.000000 0.000000 0.000000 0.022103 0.000000 -0.004520
# 5 0.001331 -0.002549 0.000941 0.000000 0.026475 0.000000
# 6 0.000000 0.000000 0.000000 -0.004520 0.000000 0.030482
#
#
# Mechanical properties :
#
#
# Convention : Reuss Voigt Hill
#
# Bulk Modulus (GPa) = 71.86318 72.92727 72.39522
# Shear Modulus (GPa) = 38.02992 39.49937 38.76464
#
# Velocity S-wave (km/s) = 4.20572 4.28620 4.24615
# Velocity P-wave (km/s) = 7.55039 7.64294 7.59681
#
# Compressibility (1/GPa) = 0.01391533
#
# Stress axis : x y z
#
# Youngs Moduli (GPa) = 106.35994 93.03048 93.50150
#
# Poissons Ratio (x) = 0.33815 0.18931
# Poissons Ratio (y) = 0.38661 0.26236
# Poissons Ratio (z) = 0.21534 0.26104
#
# Static dielectric constant tensor:
#      x y z
#    x 3.843230 0.000000 -0.058260 
#    y 0.000000 3.911960 0.000000 
#    z -0.058260 0.000000 4.214330 
# 
# 
# High freq. dielectric constant tensor:
#      x y z
#    x 1.839620 0.000000 0.003930 
#    y 0.000000 1.849600 0.000000 
#    z 0.003930 0.000000 1.866730 
# 
# From -- ./inp_files/9078.got.cif
#   From: 2010.06.25/outbox.cif.g09.slc.cpg/sg9_5_cif.got.tgz:9078.got - 2010.06.27 21:40:51.
