data_PCOD8056751
_publ_section_title
;
Structure prediction by ZEFSAII (Michael W. Deem and Ramdas Pophale) SiO2 
 PCOD8056751
Probable space group: C C
;
_chemical_formula_sum "Si O2"
_cell_formula_units_Z 20
_cell_length_a 6.597935
_cell_length_b 19.870401
_cell_length_c 7.424180
_cell_angle_alpha 90.000000
_cell_angle_beta 116.381925
_cell_angle_gamma 90.000000
_cell_volume 871.965731
_symmetry_space_group_name_H-M "C C"
_symmetry_group_IT_number 9
_symmetry_cell_setting 'monoclinic'
loop_
_space_group_symop_operation_xyz
x,y,z
x,-y,1/2+z
1/2+x,1/2+y,z
1/2+x,1/2-y,1/2+z
loop_
_atom_site_type_symbol
_atom_site_label
_atom_site_fract_x
_atom_site_fract_y
_atom_site_fract_z
Si Si1 0.491540 0.089797 0.880770
Si Si2 0.414556 0.941246 0.945409
Si Si3 0.281344 0.660203 0.460378
Si Si4 0.639721 0.691246 0.895738
Si Si5 0.483203 0.375000 0.670574
O O1 0.405573 0.087928 0.642988
O O2 0.369804 0.151484 0.935235
O O3 0.759633 0.098626 0.986189
O O4 0.453500 0.020542 0.972008
O O5 0.605144 0.901484 0.905914
O O6 0.170902 0.933486 0.754934
O O7 0.433160 0.662072 0.698160
O O8 0.152066 0.729458 0.369140
O O9 0.444018 0.651374 0.354959
O O10 0.586540 0.683486 0.086213
#
# Coordination Sequence:
#
# PCOD8056751 Si02
#       5
#     4   4   4   4   4
#     4  12  27  47  75 111 148 197 249 302 372 443
#     4  12  27  47  75 111 148 197 249 302 372 443
#     4  12  27  47  75 111 148 197 249 302 372 443
#     4  12  27  47  75 111 148 197 249 302 372 443
#     4  12  26  48  76 104 156 188 240 316 360 436
#
# _framework density 22.936682000000001
#
# number of rings (size 3 to 8) (size 9 to 14) (size 15 to 20)
#    0.000    0.000    4.000    6.000    5.600    6.400 
#    0.000    0.000    0.000    0.000    0.000    0.000 
#    0.000    0.000    0.000    0.000    0.000    0.000 
#
# Total GULP energy -124054.339987 kJ/mol
# GULP energy per Si atom -12405.433999 kJ/mol
# Density = 2.288448 g / cm^3
# Si number density = 22.936682 Si / 1000 Ang^3
#
#
#
# Elastic Constant Matrix: (Units=GPa)
#
#
# Indices 1 2 3 4 5 6 
#
# 1 115.2640 27.0359 34.0637 0.0000 -4.8278 0.0000
# 2 27.0359 107.7020 0.6914 0.0000 2.8887 0.0000
# 3 34.0637 0.6914 86.5169 0.0000 7.9805 0.0000
# 4 0.0000 0.0000 0.0000 33.9036 0.0000 -0.8113
# 5 -4.8278 2.8887 7.9805 0.0000 61.2116 0.0000
# 6 0.0000 0.0000 0.0000 -0.8113 0.0000 26.5030
#
#
#
# Elastic Compliance Matrix: (Units=1/GPa)
#
#
# Indices 1 2 3 4 5 6 
#
# 1 0.010643 -0.002685 -0.004310 0.000000 0.001528 0.000000
# 2 -0.002685 0.009974 0.001053 0.000000 -0.000820 0.000000
# 3 -0.004310 0.001053 0.013445 0.000000 -0.002142 0.000000
# 4 0.000000 0.000000 0.000000 0.029517 0.000000 0.000904
# 5 0.001528 -0.000820 -0.002142 0.000000 0.016775 0.000000
# 6 0.000000 0.000000 0.000000 0.000904 0.000000 0.037759
#
#
# Mechanical properties :
#
#
# Convention : Reuss Voigt Hill
#
# Bulk Modulus (GPa) = 45.08962 48.11830 46.60396
# Shear Modulus (GPa) = 36.39273 40.83643 38.61458
#
# Velocity S-wave (km/s) = 3.98761 4.22405 4.10753
# Velocity P-wave (km/s) = 6.39550 6.69436 6.54663
#
# Compressibility (1/GPa) = 0.02217805
#
# Stress axis : x y z
#
# Youngs Moduli (GPa) = 93.95629 100.25951 74.37942
#
# Poissons Ratio (x) = 0.26920 0.32057
# Poissons Ratio (y) = 0.25228 -0.07833
# Poissons Ratio (z) = 0.40495 -0.10558
#
# Static dielectric constant tensor:
#      x y z
#    x 4.253140 0.000000 0.004750 
#    y 0.000000 3.938560 0.000000 
#    z 0.004750 0.000000 4.209910 
# 
# 
# High freq. dielectric constant tensor:
#      x y z
#    x 1.920090 0.000000 -0.001120 
#    y 0.000000 1.897080 0.000000 
#    z -0.001120 0.000000 1.930340 
# 
# From -- ./inp_files/3779.got.cif
#   From: 2010.06.25/outbox.cif.g09.slc.cpg/sg9_2_cif.got.tgz:3779.got - 2010.06.27 21:40:51.
