data_PCOD8056621
_publ_section_title
;
Structure prediction by ZEFSAII (Michael W. Deem and Ramdas Pophale) SiO2 
 PCOD8056621
Probable space group: C C
;
_chemical_formula_sum "Si O2"
_cell_formula_units_Z 20
_cell_length_a 14.599071
_cell_length_b 11.919443
_cell_length_c 5.027140
_cell_angle_alpha 90.000000
_cell_angle_beta 75.710129
_cell_angle_gamma 90.000000
_cell_volume 847.720240
_symmetry_space_group_name_H-M "C C"
_symmetry_group_IT_number 9
_symmetry_cell_setting 'monoclinic'
loop_
_space_group_symop_operation_xyz
x,y,z
x,-y,1/2+z
1/2+x,1/2+y,z
1/2+x,1/2-y,1/2+z
loop_
_atom_site_type_symbol
_atom_site_label
_atom_site_fract_x
_atom_site_fract_y
_atom_site_fract_z
Si Si1 0.662120 0.776293 0.876380
Si Si2 0.496721 0.077233 0.329761
Si Si3 0.529936 0.575357 0.978853
Si Si4 0.863733 0.778657 0.445321
Si Si5 0.255747 0.421517 0.191268
O O1 0.763698 0.766695 0.665366
O O2 0.592131 0.848664 0.737952
O O3 0.621125 0.653342 0.958021
O O4 0.671381 0.838468 0.158130
O O5 0.405683 0.156290 0.358222
O O6 0.494525 0.979550 0.118186
O O7 0.532744 0.474418 0.182060
O O8 0.434469 0.648489 0.078675
O O9 0.847675 0.840946 0.168610
O O10 0.253963 0.477271 0.485045
#
# Coordination Sequence:
#
# PCOD8056621 Si02
#       5
#     4   4   4   4   4
#     4  11  27  46  75 105 140 184 243 283 346 423
#     4  11  28  47  70 105 146 185 229 292 353 412
#     4  11  28  47  70 105 146 185 229 292 353 412
#     4  11  27  46  75 105 140 184 243 283 346 423
#     4  12  24  40  70 106 132 174 234 288 338 400
#
# _framework density 23.592687999999999
#
# number of rings (size 3 to 8) (size 9 to 14) (size 15 to 20)
#    0.000    0.800    2.000    2.400   11.200    4.800 
#    0.000    0.000    0.000    0.000    0.000    0.000 
#    0.000    0.000    0.000    0.000    0.000    0.000 
#
# Total GULP energy -123926.175131 kJ/mol
# GULP energy per Si atom -12392.617513 kJ/mol
# Density = 2.353899 g / cm^3
# Si number density = 23.592688 Si / 1000 Ang^3
#
#
#
# Elastic Constant Matrix: (Units=GPa)
#
#
# Indices 1 2 3 4 5 6 
#
# 1 160.8945 70.8073 35.2620 0.0000 -12.7452 0.0000
# 2 70.8073 115.5941 11.9313 0.0000 -4.5324 0.0000
# 3 35.2620 11.9313 65.6940 0.0000 1.9485 0.0000
# 4 0.0000 0.0000 0.0000 36.7223 0.0000 24.1861
# 5 -12.7452 -4.5324 1.9485 0.0000 31.9819 0.0000
# 6 0.0000 0.0000 0.0000 24.1861 0.0000 51.9298
#
#
#
# Elastic Compliance Matrix: (Units=1/GPa)
#
#
# Indices 1 2 3 4 5 6 
#
# 1 0.009845 -0.005443 -0.004397 0.000000 0.003420 0.000000
# 2 -0.005443 0.011884 0.000779 0.000000 -0.000532 0.000000
# 3 -0.004397 0.000779 0.017521 0.000000 -0.002710 0.000000
# 4 0.000000 0.000000 0.000000 0.039281 0.000000 -0.018295
# 5 0.003420 -0.000532 -0.002710 0.000000 0.032720 0.000000
# 6 0.000000 0.000000 0.000000 -0.018295 0.000000 0.027778
#
#
# Mechanical properties :
#
#
# Convention : Reuss Voigt Hill
#
# Bulk Modulus (GPa) = 47.33117 64.24265 55.78691
# Shear Modulus (GPa) = 30.45183 39.07227 34.76205
#
# Velocity S-wave (km/s) = 3.59657 4.07396 3.84269
# Velocity P-wave (km/s) = 6.11167 7.02983 6.58677
#
# Compressibility (1/GPa) = 0.02112773
#
# Stress axis : x y z
#
# Youngs Moduli (GPa) = 101.57269 84.14947 57.07319
#
# Poissons Ratio (x) = 0.45800 0.25098
# Poissons Ratio (y) = 0.55283 -0.04446
# Poissons Ratio (z) = 0.44666 -0.06555
#
# Static dielectric constant tensor:
#      x y z
#    x 4.577510 0.000000 0.380770 
#    y 0.000000 4.534890 0.000000 
#    z 0.380770 0.000000 4.121720 
# 
# 
# High freq. dielectric constant tensor:
#      x y z
#    x 1.940230 0.000000 0.020770 
#    y 0.000000 1.951180 0.000000 
#    z 0.020770 0.000000 1.928940 
# 
# From -- ./inp_files/2328.got.cif
#   From: 2010.06.25/outbox.cif.g09.slc.cpg/sg9_2_cif.got.tgz:2328.got - 2010.06.27 21:40:51.
