data_PCOD8056288
_publ_section_title
;
Structure prediction by ZEFSAII (Michael W. Deem and Ramdas Pophale) SiO2 
 PCOD8056288
Probable space group: C C
;
_chemical_formula_sum "Si O2"
_cell_formula_units_Z 32
_cell_length_a 9.760610
_cell_length_b 9.766376
_cell_length_c 25.103363
_cell_angle_alpha 90.000000
_cell_angle_beta 36.613536
_cell_angle_gamma 90.000000
_cell_volume 1427.218664
_symmetry_space_group_name_H-M "C C"
_symmetry_group_IT_number 9
_symmetry_cell_setting 'monoclinic'
loop_
_space_group_symop_operation_xyz
x,y,z
x,-y,1/2+z
1/2+x,1/2+y,z
1/2+x,1/2-y,1/2+z
loop_
_atom_site_type_symbol
_atom_site_label
_atom_site_fract_x
_atom_site_fract_y
_atom_site_fract_z
Si Si1 0.350590 0.042464 0.493660
Si Si2 0.637583 0.483640 0.881767
Si Si3 0.143377 0.900552 0.758536
Si Si4 0.257513 0.813105 0.182516
Si Si5 0.574325 0.920724 0.810740
Si Si6 0.948801 0.150377 0.680161
Si Si7 0.788850 0.244197 0.499080
Si Si8 0.201110 0.736921 0.409331
O O1 0.434761 0.094120 0.409362
O O2 0.508984 0.125348 0.485813
O O3 0.088599 0.084362 0.587285
O O4 0.379583 0.882454 0.498493
O O5 0.620012 0.458630 0.825108
O O6 0.578311 0.640042 0.915630
O O7 0.896704 0.463201 0.820300
O O8 0.451873 0.380659 0.966910
O O9 0.320439 0.778844 0.695473
O O10 0.898027 0.841818 0.813799
O O11 0.225849 0.024787 0.697237
O O12 0.174330 0.725489 0.259769
O O13 0.525566 0.783264 0.093453
O O14 0.106585 0.782570 0.177236
O O15 0.770448 0.035930 0.756705
O O16 0.818476 0.286087 0.427491
#
# Coordination Sequence:
#
# PCOD8056288 Si02
#       8
#     4   4   4   4   4   4   4   4
#     4  12  25  45  72 102 140 186 232 288 350 416
#     4  11  23  45  72  98 140 183 228 284 346 415
#     4  11  25  43  70 102 135 184 233 279 349 415
#     4  12  26  46  70 101 142 181 233 295 345 417
#     4  12  24  47  73 101 139 187 231 288 355 410
#     4  12  25  48  71 100 144 183 229 297 348 404
#     4  11  25  45  67 101 139 182 229 284 348 411
#     4  11  23  45  69  99 139 180 229 287 341 412
#
# _framework density 22.421230000000001
#
# number of rings (size 3 to 8) (size 9 to 14) (size 15 to 20)
#    0.000    0.500    6.250    2.250    3.500    0.000 
#    4.500    0.000    0.000    0.000    0.000    0.000 
#    0.000    0.000    0.000    0.000    0.000    0.000 
#
# Total GULP energy -198353.763882 kJ/mol
# GULP energy per Si atom -12397.110243 kJ/mol
# Density = 2.237020 g / cm^3
# Si number density = 22.421230 Si / 1000 Ang^3
#
#
#
# Elastic Constant Matrix: (Units=GPa)
#
#
# Indices 1 2 3 4 5 6 
#
# 1 42.8478 27.5694 20.3280 0.0000 -16.1328 0.0001
# 2 27.5694 170.7093 51.8723 0.0002 -17.7478 0.0000
# 3 20.3280 51.8723 119.4894 0.0008 -9.9687 -0.0004
# 4 0.0000 0.0002 0.0008 41.6717 -0.0002 -7.7217
# 5 -16.1328 -17.7478 -9.9687 -0.0002 35.7530 0.0001
# 6 0.0001 0.0000 -0.0004 -7.7217 0.0001 34.7437
#
#
#
# Elastic Compliance Matrix: (Units=1/GPa)
#
#
# Indices 1 2 3 4 5 6 
#
# 1 0.031052 -0.002865 -0.003060 0.000000 0.011736 0.000000
# 2 -0.002865 0.007256 -0.002529 0.000000 0.001604 0.000000
# 3 -0.003060 -0.002529 0.010000 0.000000 0.000152 0.000000
# 4 0.000000 0.000000 0.000000 0.025028 0.000000 0.005562
# 5 0.011736 0.001604 0.000152 0.000000 0.034104 0.000000
# 6 0.000000 0.000000 0.000000 0.005562 0.000000 0.030018
#
#
# Mechanical properties :
#
#
# Convention : Reuss Voigt Hill
#
# Bulk Modulus (GPa) = 31.84598 59.17619 45.51109
# Shear Modulus (GPa) = 30.33383 37.98547 34.15965
#
# Velocity S-wave (km/s) = 3.68218 4.12050 3.90749
# Velocity P-wave (km/s) = 5.68439 7.00630 6.37967
#
# Compressibility (1/GPa) = 0.03140114
#
# Stress axis : x y z
#
# Youngs Moduli (GPa) = 32.20358 137.82250 100.00079
#
# Poissons Ratio (x) = 0.39486 0.30599
# Poissons Ratio (y) = 0.09226 0.25286
# Poissons Ratio (z) = 0.09854 0.34850
#
# Static dielectric constant tensor:
#      x y z
#    x 3.990190 0.000000 -0.193890 
#    y 0.000000 4.336200 0.000000 
#    z -0.193890 0.000000 4.095340 
# 
# 
# High freq. dielectric constant tensor:
#      x y z
#    x 1.871720 0.000000 -0.013980 
#    y 0.000000 1.902020 0.000000 
#    z -0.013980 0.000000 1.887910 
# 
# From -- ./inp_files/24217.got.cif
#   From: 2010.06.25/outbox.cif.g09.slc.cpg/sg9_13_cif.got.tgz:24217.got - 2010.06.27 21:40:51.
