data_PCOD8056332
_publ_section_title
;
Structure prediction by ZEFSAII (Michael W. Deem and Ramdas Pophale) SiO2 
 PCOD8056332
Probable space group: C C
;
_chemical_formula_sum "Si O2"
_cell_formula_units_Z 32
_cell_length_a 12.390065
_cell_length_b 8.518958
_cell_length_c 14.101609
_cell_angle_alpha 90.000000
_cell_angle_beta 106.676824
_cell_angle_gamma 90.000000
_cell_volume 1425.825666
_symmetry_space_group_name_H-M "C C"
_symmetry_group_IT_number 9
_symmetry_cell_setting 'monoclinic'
loop_
_space_group_symop_operation_xyz
x,y,z
x,-y,1/2+z
1/2+x,1/2+y,z
1/2+x,1/2-y,1/2+z
loop_
_atom_site_type_symbol
_atom_site_label
_atom_site_fract_x
_atom_site_fract_y
_atom_site_fract_z
Si Si1 0.663610 0.243484 0.720440
Si Si2 0.874945 0.063371 0.839096
Si Si3 0.430102 0.692253 0.199890
Si Si4 0.147872 0.530876 0.553142
Si Si5 0.582804 0.776752 0.680181
Si Si6 0.396402 0.452857 0.049873
Si Si7 0.488925 0.114075 0.346330
Si Si8 0.780224 0.555652 0.738306
O O1 0.751233 0.140519 0.803086
O O2 0.559279 0.277011 0.765542
O O3 0.604472 0.155798 0.618272
O O4 0.719613 0.398143 0.686678
O O5 0.967665 0.201094 0.859346
O O6 0.881335 0.945708 0.753105
O O7 0.892512 0.955592 0.935504
O O8 0.433984 0.626034 0.093773
O O9 0.351314 0.846531 0.178442
O O10 0.137621 0.362610 0.602796
O O11 0.274158 0.580770 0.561212
O O12 0.076814 0.538317 0.439780
O O13 0.479817 0.677261 0.612351
O O14 0.537048 0.895340 0.750097
O O15 0.680958 0.668399 0.753524
O O16 0.376102 0.008320 0.335120
#
# Coordination Sequence:
#
# PCOD8056332 Si02
#       8
#     4   4   4   4   4   4   4   4
#     4  11  23  47  69 101 147 184 233 305 347 428
#     4  11  25  45  69 104 145 186 237 288 366 425
#     4  12  23  46  72 101 136 190 233 296 351 429
#     4  12  27  44  72 107 141 190 242 296 370 424
#     4  12  25  50  70 102 147 188 241 305 356 429
#     4  12  25  44  73 104 142 189 238 294 364 435
#     4  11  26  46  70 106 142 189 238 300 359 432
#     4  11  24  42  73  99 136 188 238 282 361 424
#
# _framework density 22.443135000000002
#
# number of rings (size 3 to 8) (size 9 to 14) (size 15 to 20)
#    0.000    0.500    5.000    2.250    7.000    0.000 
#    0.000    2.500    0.000    0.000    0.000    0.000 
#    0.000    0.000    0.000    0.000    0.000    0.000 
#
# Total GULP energy -198280.327115 kJ/mol
# GULP energy per Si atom -12392.520445 kJ/mol
# Density = 2.239205 g / cm^3
# Si number density = 22.443135 Si / 1000 Ang^3
#
#
#
# Elastic Constant Matrix: (Units=GPa)
#
#
# Indices 1 2 3 4 5 6 
#
# 1 128.7437 39.9645 33.7339 0.0000 24.6565 0.0000
# 2 39.9645 98.6657 32.8779 0.0000 13.9907 0.0000
# 3 33.7339 32.8779 106.5564 0.0000 9.7722 0.0000
# 4 0.0000 0.0000 0.0000 26.8887 0.0000 7.0905
# 5 24.6565 13.9907 9.7722 0.0000 31.3217 0.0000
# 6 0.0000 0.0000 0.0000 7.0905 0.0000 43.2610
#
#
#
# Elastic Compliance Matrix: (Units=1/GPa)
#
#
# Indices 1 2 3 4 5 6 
#
# 1 0.010291 -0.002650 -0.001859 0.000000 -0.006337 0.000000
# 2 -0.002650 0.012508 -0.002779 0.000000 -0.002634 0.000000
# 3 -0.001859 -0.002779 0.010894 0.000000 -0.000694 0.000000
# 4 0.000000 0.000000 0.000000 0.038870 0.000000 -0.006371
# 5 -0.006337 -0.002634 -0.000694 0.000000 0.038309 0.000000
# 6 0.000000 0.000000 0.000000 -0.006371 0.000000 0.024160
#
#
# Mechanical properties :
#
#
# Convention : Reuss Voigt Hill
#
# Bulk Modulus (GPa) = 52.30889 60.79092 56.54991
# Shear Modulus (GPa) = 32.05534 35.45358 33.75446
#
# Velocity S-wave (km/s) = 3.78337 3.97886 3.88235
# Velocity P-wave (km/s) = 6.51484 6.94651 6.73413
#
# Compressibility (1/GPa) = 0.01911721
#
# Stress axis : x y z
#
# Youngs Moduli (GPa) = 97.17399 79.94775 91.79103
#
# Poissons Ratio (x) = 0.21188 0.17064
# Poissons Ratio (y) = 0.25753 0.25507
# Poissons Ratio (z) = 0.18065 0.22216
#
# Static dielectric constant tensor:
#      x y z
#    x 4.362000 0.000000 0.122330 
#    y 0.000000 4.234580 0.000000 
#    z 0.122330 0.000000 3.826670 
# 
# 
# High freq. dielectric constant tensor:
#      x y z
#    x 1.906550 0.000000 0.018540 
#    y 0.000000 1.897830 0.000000 
#    z 0.018540 0.000000 1.854060 
# 
# From -- ./inp_files/24183.got.cif
#   From: 2010.06.25/outbox.cif.g09.slc.cpg/sg9_13_cif.got.tgz:24183.got - 2010.06.27 21:40:51.
