data_PCOD8056830
_publ_section_title
;
Structure prediction by ZEFSAII (Michael W. Deem and Ramdas Pophale) SiO2 
 PCOD8056830
Probable space group: P 2/M
;
_chemical_formula_sum "Si O2"
_cell_formula_units_Z 10
_cell_length_a 15.122668
_cell_length_b 11.127213
_cell_length_c 16.853935
_cell_angle_alpha 90.000000
_cell_angle_beta 161.675742
_cell_angle_gamma 90.000000
_cell_volume 891.642852
_symmetry_space_group_name_H-M "P 2/M"
_symmetry_group_IT_number 10
_symmetry_cell_setting 'monoclinic'
loop_
_space_group_symop_operation_xyz
x,y,z
-x,y,-z
-x,-y,-z
x,-y,z
loop_
_atom_site_type_symbol
_atom_site_label
_atom_site_fract_x
_atom_site_fract_y
_atom_site_fract_z
Si Si1 0.665345 0.000000 0.723345
Si Si2 0.403144 0.739071 0.298215
Si Si3 0.888267 0.359034 0.793540
O O1 0.500000 0.000000 0.500000
O O2 0.573556 0.882187 0.694433
O O3 0.000000 0.000000 0.000000
O O4 0.248597 0.711108 0.249536
O O5 0.716461 0.680477 0.568027
O O6 0.216835 0.680498 0.068391
O O7 0.861308 0.500000 0.785092
#
# Coordination Sequence:
#
# PCOD8056830 Si02
#       3
#     2   4   4
#     4  12  16  24  28  32  40  44  52  56  60  68
#     4  10  16  22  28  34  38  46  50  56  62  66
#     4  10  16  22  28  34  40  44  50  56  62  68
#
# _framework density 11.215254
#
# number of rings (size 3 to 8) (size 9 to 14) (size 15 to 20)
#    0.000    1.600    8.000    6.000    0.000    0.000 
#    0.000    0.000    0.000    0.000    0.000    0.000 
#    0.000    0.000    0.000    0.000    0.000    0.000 
#
# Total GULP energy -123881.996611 kJ/mol
# GULP energy per Si atom -12388.199661 kJ/mol
# Density = 1.118973 g / cm^3
# Si number density = 11.215254 Si / 1000 Ang^3
#
#
#
# Elastic Constant Matrix: (Units=GPa)
#
#
# Indices 1 2 3 4 5 6 
#
# 1 0.5988 2.0283 8.6279 0.0000 -2.2864 0.0000
# 2 2.0283 98.1680 29.0216 0.0000 -7.6788 0.0000
# 3 8.6279 29.0216 123.1723 0.0000 -32.6033 0.0000
# 4 0.0000 0.0000 0.0000 22.0192 0.0000 -5.8291
# 5 -2.2864 -7.6788 -32.6033 0.0000 8.6289 0.0000
# 6 0.0000 0.0000 0.0000 -5.8291 0.0000 1.5426
#
#
#
# Elastic Compliance Matrix: (Units=1/GPa)
#
#
# Indices 1 2 3 4 5 6 
#
# 1 ********** 0.212816********** 0.000000********** -0.000001
# 2 0.212816 0.010976 -0.141853 0.000000 -0.469820 0.000000
# 3 ********** -0.141853714.144466 0.000000********** 0.000001
# 4 0.000000 0.000000 0.000000********** 0.000001**********
# 5 ********** -0.469820********** 0.000000********** 0.000002
# 6 -0.000002 0.000000 0.000001********** 0.000004**********
#
#
# Mechanical properties :
#
#
# Convention : Reuss Voigt Hill
#
# Bulk Modulus (GPa) = 0.01116 33.47720 16.74418
# Shear Modulus (GPa) = 0.00047 18.58888 9.29468
#
# Velocity S-wave (km/s) = 0.02051 4.07561 2.88193
# Velocity P-wave (km/s) = 0.10261 7.21540 5.10257
#
# Compressibility (1/GPa) = 89.64196218
#
# Stress axis : x y z
#
# Youngs Moduli (GPa) = 0.00062 91.10594 0.00140
#
# Poissons Ratio (x) = -19.38883 1.56987
# Poissons Ratio (y) = -0.00013 0.00020
# Poissons Ratio (z) = 0.69308 12.92368
#
# Static dielectric constant tensor:
#      x y z
#    x 1.609480 0.000000 -0.577780 
#    y 0.000000 2.643210 0.000000 
#    z -0.577780 0.000000 3.639290 
# 
# 
# High freq. dielectric constant tensor:
#      x y z
#    x 1.285800 0.000000 -0.048660 
#    y 0.000000 1.452290 0.000000 
#    z -0.048660 0.000000 1.456750 
# 
# From -- ./inp_files/16788.got.cif
#   From: 2010.06.25/outbox.cif.g09.slc.cpg/sg10_9_cif.got.tgz:16788.got - 2010.06.27 22:07:45.
