data_PCOD8056145
_publ_section_title
;
Structure prediction by ZEFSAII (Michael W. Deem and Ramdas Pophale) SiO2 
 PCOD8056145
Probable space group: C C
;
_chemical_formula_sum "Si O2"
_cell_formula_units_Z 32
_cell_length_a 16.789206
_cell_length_b 17.023469
_cell_length_c 9.885007
_cell_angle_alpha 90.000000
_cell_angle_beta 150.142690
_cell_angle_gamma 90.000000
_cell_volume 1406.521801
_symmetry_space_group_name_H-M "C C"
_symmetry_group_IT_number 9
_symmetry_cell_setting 'monoclinic'
loop_
_space_group_symop_operation_xyz
x,y,z
x,-y,1/2+z
1/2+x,1/2+y,z
1/2+x,1/2-y,1/2+z
loop_
_atom_site_type_symbol
_atom_site_label
_atom_site_fract_x
_atom_site_fract_y
_atom_site_fract_z
Si Si1 0.240490 0.909183 0.994420
Si Si2 0.702176 0.996410 0.431818
Si Si3 0.371364 0.569213 0.919275
Si Si4 0.267709 0.085644 0.041004
Si Si5 0.446132 0.133328 0.048507
Si Si6 0.884747 0.773798 0.326993
Si Si7 0.051542 0.204988 0.790953
Si Si8 0.946855 0.630487 0.561769
O O1 0.050755 0.899639 0.708318
O O2 0.304407 0.886858 0.236692
O O3 0.331650 0.854537 0.020889
O O4 0.269239 0.997675 0.989380
O O5 0.791099 0.972363 0.426694
O O6 0.598587 0.922126 0.330708
O O7 0.840264 0.012705 0.745425
O O8 0.596268 0.074837 0.249361
O O9 0.296206 0.654344 0.773175
O O10 0.381478 0.132262 0.105394
O O11 0.353731 0.079443 0.312996
O O12 0.079099 0.117949 0.764351
O O13 0.496041 0.225944 0.107296
O O14 0.003499 0.717537 0.590991
O O15 0.958365 0.803517 0.294152
O O16 0.741546 0.713284 0.095171
#
# Coordination Sequence:
#
# PCOD8056145 Si02
#       8
#     4   4   4   4   4   4   4   4
#     4  12  26  43  69 103 145 186 235 293 367 422
#     4  12  24  43  73 105 141 181 249 298 356 424
#     4  12  28  43  68 110 145 181 233 317 357 422
#     4  11  22  42  76  98 136 188 246 280 356 439
#     4  12  23  45  72 106 139 192 244 291 362 443
#     4  11  23  44  72 103 143 187 243 285 379 426
#     4  11  22  41  75 104 133 191 239 295 341 449
#     4  11  22  45  75  99 132 200 237 287 356 455
#
# _framework density 22.751158
#
# number of rings (size 3 to 8) (size 9 to 14) (size 15 to 20)
#    0.000    0.500    6.250    3.750    5.250    0.000 
#    2.250    1.250    0.000    0.000    0.000    0.000 
#    0.000    0.000    0.000    0.000    0.000    0.000 
#
# Total GULP energy -198246.120978 kJ/mol
# GULP energy per Si atom -12390.382561 kJ/mol
# Density = 2.269938 g / cm^3
# Si number density = 22.751158 Si / 1000 Ang^3
#
#
#
# Elastic Constant Matrix: (Units=GPa)
#
#
# Indices 1 2 3 4 5 6 
#
# 1 130.9200 30.1429 34.5265 0.0000 -7.9659 0.0000
# 2 30.1429 95.2241 25.8697 0.0000 -11.8057 0.0000
# 3 34.5265 25.8697 100.3124 0.0000 -5.1809 0.0000
# 4 0.0000 0.0000 0.0000 27.8114 0.0000 10.6821
# 5 -7.9659 -11.8057 -5.1809 0.0000 22.6644 0.0000
# 6 0.0000 0.0000 0.0000 10.6821 0.0000 -21.8504
#
#
#
# Elastic Compliance Matrix: (Units=1/GPa)
#
#
# Indices 1 2 3 4 5 6 
#
# 1 0.008826 -0.001936 -0.002459 0.000000 0.001531 0.000000
# 2 -0.001936 0.012378 -0.002255 0.000000 0.005252 0.000000
# 3 -0.002459 -0.002255 0.011426 0.000000 0.000573 0.000000
# 4 0.000000 0.000000 0.000000 0.030272 0.000000 0.014799
# 5 0.001531 0.005252 0.000573 0.000000 0.047527 0.000000
# 6 0.000000 0.000000 0.000000 0.014799 0.000000 -0.038531
#
#
# Mechanical properties :
#
#
# Convention : Reuss Voigt Hill
#
# Bulk Modulus (GPa) = 51.73180 56.39273 54.06227
# Shear Modulus (GPa) = 54.56031 21.45289 38.00660
#
# Velocity S-wave (km/s) = 4.90239 3.07406 4.09165
# Velocity P-wave (km/s) = 7.40486 6.11885 6.79236
#
# Compressibility (1/GPa) = 0.01933047
#
# Stress axis : x y z
#
# Youngs Moduli (GPa) = 113.30525 80.78899 87.51642
#
# Poissons Ratio (x) = 0.15639 0.21524
# Poissons Ratio (y) = 0.21933 0.19732
# Poissons Ratio (z) = 0.27866 0.18215
#
# Static dielectric constant tensor:
#      x y z
#    x 3.960770 0.000000 0.045800 
#    y 0.000000 4.544890 0.000000 
#    z 0.045800 0.000000 4.016760 
# 
# 
# High freq. dielectric constant tensor:
#      x y z
#    x 1.898300 0.000000 0.003850 
#    y 0.000000 1.919990 0.000000 
#    z 0.003850 0.000000 1.875190 
# 
# From -- ./inp_files/9974.got.cif
#   From: 2010.06.25/outbox.cif.g09.slc.cpg/sg9_5_cif.got.tgz:9974.got - 2010.06.27 21:40:51.
