data_PCOD8056996
_publ_section_title
;
Structure prediction by ZEFSAII (Michael W. Deem and Ramdas Pophale) SiO2 
 PCOD8056996
Probable space group: P 2/M
;
_chemical_formula_sum "Si O2"
_cell_formula_units_Z 32
_cell_length_a 14.402543
_cell_length_b 9.164919
_cell_length_c 23.751737
_cell_angle_alpha 90.000000
_cell_angle_beta 136.350662
_cell_angle_gamma 90.000000
_cell_volume 2164.039197
_symmetry_space_group_name_H-M "P 2/M"
_symmetry_group_IT_number 10
_symmetry_cell_setting 'monoclinic'
loop_
_space_group_symop_operation_xyz
x,y,z
-x,y,-z
-x,-y,-z
x,-y,z
loop_
_atom_site_type_symbol
_atom_site_label
_atom_site_fract_x
_atom_site_fract_y
_atom_site_fract_z
Si Si1 0.244453 0.671137 0.526921
Si Si2 0.045843 0.661129 0.584372
Si Si3 0.199570 0.165100 0.050717
Si Si4 0.437714 0.329725 0.198203
Si Si5 0.928751 0.163545 0.883045
Si Si6 0.704061 0.173403 0.333983
Si Si7 0.485145 0.672798 0.555820
Si Si8 0.690945 0.330417 0.737756
O O1 0.262485 0.500000 0.550997
O O2 0.287495 0.765671 0.599303
O O3 0.339257 0.715615 0.516500
O O4 0.089738 0.704055 0.440569
O O5 0.097220 0.500000 0.624961
O O6 0.165249 0.777443 0.645125
O O7 0.000000 0.657692 0.500000
O O8 0.327127 0.273040 0.104661
O O9 0.136859 0.168822 0.084757
O O10 0.245034 0.000000 0.056166
O O11 0.083995 0.218682 0.956003
O O12 0.463219 0.500000 0.199194
O O13 0.573544 0.240114 0.246506
O O14 0.388895 0.296695 0.240010
O O15 0.839629 0.260322 0.801767
O O16 0.928026 0.000000 0.858960
O O17 0.695621 0.000000 0.331235
O O18 0.500000 0.741263 0.500000
O O19 0.499778 0.500000 0.559598
O O20 0.602646 0.734956 0.647818
O O21 0.714408 0.500000 0.740397
#
# Coordination Sequence:
#
# PCOD8056996 Si02
#       8
#     4   4   4   4   4   4   4   4
#     4   9  16  29  43  55  73  98 129 162 199 236
#     4   8  15  26  40  54  72  97 124 158 194 231
#     4   8  14  24  35  51  72  96 126 155 186 224
#     4  10  17  25  37  53  76 102 129 159 191 226
#     4   8  14  24  37  50  70  97 124 155 190 228
#     4  11  19  25  37  56  77 101 129 160 192 231
#     4   9  16  27  43  60  77  99 131 170 204 231
#     4   9  16  25  38  54  71  95 130 165 193 227
#
# _framework density 14.787164000000001
#
# number of rings (size 3 to 8) (size 9 to 14) (size 15 to 20)
#    0.000    3.000    1.250    3.000    0.000    3.250 
#    0.000    2.500    0.000    1.500    0.000    0.000 
#    0.000    0.000    0.000    1.125    0.000   24.250 
#
# Total GULP energy -396535.456137 kJ/mol
# GULP energy per Si atom -12391.733004 kJ/mol
# Density = 1.475351 g / cm^3
# Si number density = 14.787164 Si / 1000 Ang^3
#
#
#
# Elastic Constant Matrix: (Units=GPa)
#
#
# Indices 1 2 3 4 5 6 
#
# 1 60.7290 28.2193 50.0087 0.0000 17.3872 0.0000
# 2 28.2193 72.5096 50.1252 0.0000 20.4004 0.0000
# 3 50.0087 50.1252 110.5130 0.0000 28.7809 0.0000
# 4 0.0000 0.0000 0.0000 23.8185 0.0000 7.6708
# 5 17.3872 20.4004 28.7809 0.0000 21.5954 0.0000
# 6 0.0000 0.0000 0.0000 7.6708 0.0000 9.3954
#
#
#
# Elastic Compliance Matrix: (Units=1/GPa)
#
#
# Indices 1 2 3 4 5 6 
#
# 1 0.027384 -0.001945 -0.009566 0.000000 -0.007461 0.000000
# 2 -0.001945 0.021902 -0.006239 0.000000 -0.010810 0.000000
# 3 -0.009566 -0.006239 0.019400 0.000000 -0.012259 0.000000
# 4 0.000000 0.000000 0.000000 0.056962 0.000000 -0.046506
# 5 -0.007461 -0.010810 -0.012259 0.000000 0.078863 0.000000
# 6 0.000000 0.000000 0.000000 -0.046506 0.000000 0.144404
#
#
# Mechanical properties :
#
#
# Convention : Reuss Voigt Hill
#
# Bulk Modulus (GPa) = 30.13329 55.60644 42.86987
# Shear Modulus (GPa) = 12.64291 18.65508 15.64899
#
# Velocity S-wave (km/s) = 2.92720 3.55572 3.25665
# Velocity P-wave (km/s) = 5.64330 7.38537 6.57231
#
# Compressibility (1/GPa) = 0.03318589
#
# Stress axis : x y z
#
# Youngs Moduli (GPa) = 36.51727 45.65697 51.54601
#
# Poissons Ratio (x) = 0.08881 0.49311
# Poissons Ratio (y) = 0.07103 0.32159
# Poissons Ratio (z) = 0.34934 0.28485
#
# Static dielectric constant tensor:
#      x y z
#    x 2.723300 0.000000 0.381590 
#    y 0.000000 2.792790 0.000000 
#    z 0.381590 0.000000 3.121940 
# 
# 
# High freq. dielectric constant tensor:
#      x y z
#    x 1.511550 0.000000 0.041390 
#    y 0.000000 1.555930 0.000000 
#    z 0.041390 0.000000 1.559140 
# 
# From -- ./inp_files/78539.got.cif
#   From: 2010.06.25/outbox.cif.g09.slc.cpg/sg10_40_cif.got.tgz:78539.got - 2010.06.27 22:07:45.
