data_PCOD8056164
_publ_section_title
;
Structure prediction by ZEFSAII (Michael W. Deem and Ramdas Pophale) SiO2 
 PCOD8056164
Probable space group: C C
;
_chemical_formula_sum "Si O2"
_cell_formula_units_Z 32
_cell_length_a 15.267874
_cell_length_b 13.627658
_cell_length_c 9.632279
_cell_angle_alpha 90.000000
_cell_angle_beta 45.426029
_cell_angle_gamma 90.000000
_cell_volume 1427.641617
_symmetry_space_group_name_H-M "C C"
_symmetry_group_IT_number 9
_symmetry_cell_setting 'monoclinic'
loop_
_space_group_symop_operation_xyz
x,y,z
x,-y,1/2+z
1/2+x,1/2+y,z
1/2+x,1/2-y,1/2+z
loop_
_atom_site_type_symbol
_atom_site_label
_atom_site_fract_x
_atom_site_fract_y
_atom_site_fract_z
Si Si1 0.992860 0.194350 0.787790
Si Si2 0.720342 0.441497 0.101796
Si Si3 0.997751 0.415054 0.778040
Si Si4 0.628637 0.982647 0.897401
Si Si5 0.799635 0.803757 0.748480
Si Si6 0.378555 0.419615 0.186092
Si Si7 0.191730 0.897990 0.423232
Si Si8 0.940887 0.103149 0.306418
O O1 0.908226 0.177925 0.743096
O O2 0.114141 0.125278 0.650707
O O3 0.050144 0.303894 0.717702
O O4 0.908687 0.171244 0.017586
O O5 0.675345 0.468807 0.307582
O O6 0.746964 0.540749 0.987905
O O7 0.854091 0.392168 0.960523
O O8 0.066698 0.481672 0.815856
O O9 0.019284 0.481469 0.618356
O O10 0.680994 0.872527 0.857751
O O11 0.736465 0.063247 0.801329
O O12 0.773103 0.689387 0.770065
O O13 0.837846 0.822233 0.867116
O O14 0.425104 0.502512 0.239400
O O15 0.448320 0.416072 0.961644
O O16 0.067982 0.848886 0.616843
#
# Coordination Sequence:
#
# PCOD8056164 Si02
#       8
#     4   4   4   4   4   4   4   4
#     4  12  25  47  77 109 142 198 253 302 369 447
#     4  12  26  45  72 103 151 191 243 309 372 438
#     4  12  27  47  72 106 150 197 242 305 379 441
#     4  11  25  48  74 104 147 194 244 302 371 446
#     4  11  24  46  76 102 140 194 247 299 364 445
#     4  11  23  46  76 108 145 192 248 304 359 443
#     4  12  24  44  70 106 145 189 238 301 367 440
#     4  11  22  43  71 108 140 187 239 300 361 430
#
# _framework density 22.414588999999999
#
# number of rings (size 3 to 8) (size 9 to 14) (size 15 to 20)
#    0.000    0.500    3.750    6.000    1.750    0.000 
#    9.000    0.000    0.000    0.000    0.000    0.000 
#    0.000    0.000    0.000    0.000    0.000    0.000 
#
# Total GULP energy -198227.411338 kJ/mol
# GULP energy per Si atom -12389.213209 kJ/mol
# Density = 2.236357 g / cm^3
# Si number density = 22.414589 Si / 1000 Ang^3
#
#
#
# Elastic Constant Matrix: (Units=GPa)
#
#
# Indices 1 2 3 4 5 6 
#
# 1 119.4910 34.6735 48.4399 0.0000 10.2939 0.0000
# 2 34.6735 77.3739 48.9931 0.0000 7.0870 0.0000
# 3 48.4399 48.9931 127.5213 0.0000 16.6641 0.0000
# 4 0.0000 0.0000 0.0000 34.2772 0.0000 -0.1386
# 5 10.2939 7.0870 16.6641 0.0000 50.4879 0.0000
# 6 0.0000 0.0000 0.0000 -0.1386 0.0000 22.6032
#
#
#
# Elastic Compliance Matrix: (Units=1/GPa)
#
#
# Indices 1 2 3 4 5 6 
#
# 1 0.010375 -0.002837 -0.002745 0.000000 -0.000811 0.000000
# 2 -0.002837 0.017858 -0.005781 0.000000 -0.000020 0.000000
# 3 -0.002745 -0.005781 0.011419 0.000000 -0.002398 0.000000
# 4 0.000000 0.000000 0.000000 0.029175 0.000000 0.000179
# 5 -0.000811 -0.000020 -0.002398 0.000000 0.020766 0.000000
# 6 0.000000 0.000000 0.000000 0.000179 0.000000 0.044243
#
#
# Mechanical properties :
#
#
# Convention : Reuss Voigt Hill
#
# Bulk Modulus (GPa) = 59.07973 65.39990 62.23981
# Shear Modulus (GPa) = 30.82587 34.29232 32.55909
#
# Velocity S-wave (km/s) = 3.71247 3.91565 3.81541
# Velocity P-wave (km/s) = 6.69265 7.04867 6.87297
#
# Compressibility (1/GPa) = 0.01692628
#
# Stress axis : x y z
#
# Youngs Moduli (GPa) = 96.38871 55.99848 87.57523
#
# Poissons Ratio (x) = 0.15885 0.24040
# Poissons Ratio (y) = 0.27343 0.50624
# Poissons Ratio (z) = 0.26459 0.32370
#
# Static dielectric constant tensor:
#      x y z
#    x 4.317370 0.000000 0.091630 
#    y 0.000000 3.859600 0.000000 
#    z 0.091630 0.000000 4.085980 
# 
# 
# High freq. dielectric constant tensor:
#      x y z
#    x 1.896020 0.000000 0.001650 
#    y 0.000000 1.863970 0.000000 
#    z 0.001650 0.000000 1.889360 
# 
# From -- ./inp_files/9677.got.cif
#   From: 2010.06.25/outbox.cif.g09.slc.cpg/sg9_5_cif.got.tgz:9677.got - 2010.06.27 21:40:51.
