data_PCOD8056917
_publ_section_title
;
Structure prediction by ZEFSAII (Michael W. Deem and Ramdas Pophale) SiO2 
 PCOD8056917
Probable space group: P 2/M
;
_chemical_formula_sum "Si O2"
_cell_formula_units_Z 30
_cell_length_a 13.987294
_cell_length_b 9.341798
_cell_length_c 23.926195
_cell_angle_alpha 90.000000
_cell_angle_beta 28.789462
_cell_angle_gamma 90.000000
_cell_volume 1505.627444
_symmetry_space_group_name_H-M "P 2/M"
_symmetry_group_IT_number 10
_symmetry_cell_setting 'monoclinic'
loop_
_space_group_symop_operation_xyz
x,y,z
-x,y,-z
-x,-y,-z
x,-y,z
loop_
_atom_site_type_symbol
_atom_site_label
_atom_site_fract_x
_atom_site_fract_y
_atom_site_fract_z
Si Si1 0.962567 0.834262 0.873554
Si Si2 0.588967 0.657847 0.073770
Si Si3 0.209111 0.336577 0.333805
Si Si4 0.578803 0.663951 0.660158
Si Si5 0.189454 0.834658 0.865778
Si Si6 0.500000 0.741539 0.000000
Si Si7 0.932192 0.838794 0.767378
Si Si8 0.882997 0.828354 0.440789
O O1 0.008185 0.771352 0.787790
O O2 0.143485 0.811066 0.823344
O O3 0.905334 0.000000 0.897061
O O4 0.769473 0.759273 0.998222
O O5 0.635810 0.500000 0.073314
O O6 0.394342 0.719628 0.202831
O O7 0.554831 0.644758 0.024801
O O8 0.150712 0.500000 0.346987
O O9 0.261460 0.330655 0.372078
O O10 0.031684 0.227868 0.412284
O O11 0.540753 0.500000 0.660980
O O12 0.373153 0.733300 0.786744
O O13 0.667930 0.757253 0.563137
O O14 0.244679 0.000000 0.849366
O O15 0.000000 0.789977 0.000000
O O16 0.307271 0.836260 0.114004
O O17 0.038421 0.766756 0.659356
O O18 0.006155 0.000000 0.727545
O O19 0.867928 0.000000 0.451269
#
# Coordination Sequence:
#
# PCOD8056917 Si02
#       8
#     4   4   4   4   4   2   4   4
#     4   9  19  35  55  80 113 147 181 227 279 330
#     4  10  19  30  49  80 113 145 182 222 269 323
#     4  10  21  37  54  78 114 151 185 223 273 333
#     4  11  24  40  59  81 110 150 188 227 279 336
#     4  10  21  39  63  89 113 140 181 234 283 324
#     4  10  16  30  50  76 111 150 183 224 265 324
#     4   9  18  32  53  81 112 147 186 225 274 330
#     4  11  22  37  57  83 112 147 189 232 274 324
#
# _framework density 19.925248
#
# number of rings (size 3 to 8) (size 9 to 14) (size 15 to 20)
#    0.000    2.000    1.333    2.400    0.000    4.533 
#    0.000    1.333    0.000    4.000    0.000    0.000 
#    0.000    0.000    0.000    0.000    0.000    0.000 
#
# Total GULP energy -371884.155237 kJ/mol
# GULP energy per Si atom -12396.138508 kJ/mol
# Density = 1.987990 g / cm^3
# Si number density = 19.925248 Si / 1000 Ang^3
#
#
#
# Elastic Constant Matrix: (Units=GPa)
#
#
# Indices 1 2 3 4 5 6 
#
# 1 61.8525 23.5420 19.8398 0.0000 5.7451 0.0000
# 2 23.5420 86.2850 46.4801 0.0000 -2.4315 0.0000
# 3 19.8398 46.4801 116.3045 0.0000 17.1236 0.0000
# 4 0.0000 0.0000 0.0000 28.1201 0.0000 -0.0696
# 5 5.7451 -2.4315 17.1236 0.0000 25.1858 0.0000
# 6 0.0000 0.0000 0.0000 -0.0696 0.0000 20.0926
#
#
#
# Elastic Compliance Matrix: (Units=1/GPa)
#
#
# Indices 1 2 3 4 5 6 
#
# 1 0.018616 -0.004884 -0.000588 0.000000 -0.004318 0.000000
# 2 -0.004884 0.016927 -0.007041 0.000000 0.007536 0.000000
# 3 -0.000588 -0.007041 0.012882 0.000000 -0.009304 0.000000
# 4 0.000000 0.000000 0.000000 0.035562 0.000000 0.000123
# 5 -0.004318 0.007536 -0.009304 0.000000 0.047743 0.000000
# 6 0.000000 0.000000 0.000000 0.000123 0.000000 0.049770
#
#
# Mechanical properties :
#
#
# Convention : Reuss Voigt Hill
#
# Bulk Modulus (GPa) = 42.73656 49.35175 46.04415
# Shear Modulus (GPa) = 23.32878 26.31837 24.82358
#
# Velocity S-wave (km/s) = 3.42543 3.63830 3.53347
# Velocity P-wave (km/s) = 6.09424 6.51704 6.30918
#
# Compressibility (1/GPa) = 0.02339917
#
# Stress axis : x y z
#
# Youngs Moduli (GPa) = 53.71664 59.07566 77.62636
#
# Poissons Ratio (x) = 0.28854 0.04564
# Poissons Ratio (y) = 0.26237 0.54658
# Poissons Ratio (z) = 0.03158 0.41596
#
# Static dielectric constant tensor:
#      x y z
#    x 3.682440 0.000000 0.279330 
#    y 0.000000 3.413610 0.000000 
#    z 0.279330 0.000000 3.657120 
# 
# 
# High freq. dielectric constant tensor:
#      x y z
#    x 1.769070 0.000000 0.018860 
#    y 0.000000 1.761400 0.000000 
#    z 0.018860 0.000000 1.776980 
# 
# From -- ./inp_files/93045.got.cif
#   From: 2010.06.25/outbox.cif.g09.slc.cpg/sg10_47_cif.got.tgz:93045.got - 2010.06.27 22:07:45.
