data_PCOD8056359
_publ_section_title
;
Structure prediction by ZEFSAII (Michael W. Deem and Ramdas Pophale) SiO2 
 PCOD8056359
Probable space group: C C
;
_chemical_formula_sum "Si O2"
_cell_formula_units_Z 28
_cell_length_a 6.540937
_cell_length_b 14.385346
_cell_length_c 14.971744
_cell_angle_alpha 90.000000
_cell_angle_beta 116.086667
_cell_angle_gamma 90.000000
_cell_volume 1265.236870
_symmetry_space_group_name_H-M "C C"
_symmetry_group_IT_number 9
_symmetry_cell_setting 'monoclinic'
loop_
_space_group_symop_operation_xyz
x,y,z
x,-y,1/2+z
1/2+x,1/2+y,z
1/2+x,1/2-y,1/2+z
loop_
_atom_site_type_symbol
_atom_site_label
_atom_site_fract_x
_atom_site_fract_y
_atom_site_fract_z
Si Si1 0.057970 0.513394 0.181530
Si Si2 0.226877 0.232370 0.841049
Si Si3 0.420961 0.050702 0.461381
Si Si4 0.275641 0.819110 0.696740
Si Si5 0.590064 0.903678 0.361558
Si Si6 0.495026 0.612922 0.303411
Si Si7 0.005417 0.766608 0.475802
O O1 0.121015 0.434718 0.265619
O O2 0.293912 0.566149 0.207030
O O3 0.863871 0.579515 0.185006
O O4 0.962420 0.470656 0.072444
O O5 0.344040 0.144378 0.818145
O O6 0.385076 0.323251 0.859638
O O7 0.197124 0.206765 0.939771
O O8 0.982671 0.247407 0.748254
O O9 0.154521 0.035276 0.382883
O O10 0.449811 0.159497 0.446779
O O11 0.588470 0.991308 0.429772
O O12 0.139951 0.824447 0.763068
O O13 0.107696 0.776361 0.592751
O O14 0.785117 0.831948 0.427175
#
# Coordination Sequence:
#
# PCOD8056359 Si02
#       7
#     4   4   4   4   4   4   4
#     4  11  27  43  73 107 139 191 243 299 364 436
#     4  11  24  46  72 102 144 192 229 305 360 430
#     4  12  25  47  71 108 141 192 246 296 370 436
#     4  11  24  48  72 104 143 190 242 296 368 433
#     4  12  26  48  72 107 150 188 242 302 370 435
#     4  11  23  50  72 101 153 181 241 305 359 436
#     4  12  27  46  74 105 146 194 243 301 371 438
#
# _framework density 22.130241999999999
#
# number of rings (size 3 to 8) (size 9 to 14) (size 15 to 20)
#    0.000    0.571    4.286    2.571    8.000    2.286 
#    5.143    0.000    0.000    0.000    0.000    0.000 
#    0.000    0.000    0.000    0.000    0.000    0.000 
#
# Total GULP energy -173634.882551 kJ/mol
# GULP energy per Si atom -12402.491611 kJ/mol
# Density = 2.207987 g / cm^3
# Si number density = 22.130242 Si / 1000 Ang^3
#
#
#
# Elastic Constant Matrix: (Units=GPa)
#
#
# Indices 1 2 3 4 5 6 
#
# 1 128.3742 48.1019 58.3044 0.0000 2.8951 0.0000
# 2 48.1019 105.2979 39.7216 0.0000 4.3812 0.0000
# 3 58.3044 39.7216 150.4382 0.0000 -9.8441 0.0000
# 4 0.0000 0.0000 0.0000 36.2732 0.0000 -2.5466
# 5 2.8951 4.3812 -9.8441 0.0000 33.2734 0.0000
# 6 0.0000 0.0000 0.0000 -2.5466 0.0000 37.2117
#
#
#
# Elastic Compliance Matrix: (Units=1/GPa)
#
#
# Indices 1 2 3 4 5 6 
#
# 1 0.010648 -0.003568 -0.003278 0.000000 -0.001426 0.000000
# 2 -0.003568 0.011912 -0.001881 0.000000 -0.001815 0.000000
# 3 -0.003278 -0.001881 0.008616 0.000000 0.003082 0.000000
# 4 0.000000 0.000000 0.000000 0.027702 0.000000 0.001896
# 5 -0.001426 -0.001815 0.003082 0.000000 0.031329 0.000000
# 6 0.000000 0.000000 0.000000 0.001896 0.000000 0.027003
#
#
# Mechanical properties :
#
#
# Convention : Reuss Voigt Hill
#
# Bulk Modulus (GPa) = 72.87887 75.15181 74.01534
# Shear Modulus (GPa) = 35.91001 37.21716 36.56358
#
# Velocity S-wave (km/s) = 4.03260 4.10534 4.06914
# Velocity P-wave (km/s) = 7.39499 7.51694 7.45621
#
# Compressibility (1/GPa) = 0.01372140
#
# Stress axis : x y z
#
# Youngs Moduli (GPa) = 93.91793 83.94926 116.06360
#
# Poissons Ratio (x) = 0.29954 0.38044
# Poissons Ratio (y) = 0.33511 0.21832
# Poissons Ratio (z) = 0.30785 0.15791
#
# Static dielectric constant tensor:
#      x y z
#    x 4.235690 0.000000 0.079890 
#    y 0.000000 4.045900 0.000000 
#    z 0.079890 0.000000 4.041350 
# 
# 
# High freq. dielectric constant tensor:
#      x y z
#    x 1.881280 0.000000 0.002950 
#    y 0.000000 1.875130 0.000000 
#    z 0.002950 0.000000 1.874960 
# 
# From -- ./inp_files/21695.got.cif
#   From: 2010.06.25/outbox.cif.g09.slc.cpg/sg9_11_cif.got.tgz:21695.got - 2010.06.27 21:40:51.
