data_PCOD8056913
_publ_section_title
;
Structure prediction by ZEFSAII (Michael W. Deem and Ramdas Pophale) SiO2 
 PCOD8056913
Probable space group: P 2/M
;
_chemical_formula_sum "Si O2"
_cell_formula_units_Z 26
_cell_length_a 15.622573
_cell_length_b 8.064952
_cell_length_c 12.162632
_cell_angle_alpha 90.000000
_cell_angle_beta 73.262131
_cell_angle_gamma 90.000000
_cell_volume 1467.508849
_symmetry_space_group_name_H-M "P 2/M"
_symmetry_group_IT_number 10
_symmetry_cell_setting 'monoclinic'
loop_
_space_group_symop_operation_xyz
x,y,z
-x,y,-z
-x,-y,-z
x,-y,z
loop_
_atom_site_type_symbol
_atom_site_label
_atom_site_fract_x
_atom_site_fract_y
_atom_site_fract_z
Si Si1 0.986031 0.820350 0.634973
Si Si2 0.641372 0.693448 0.925993
Si Si3 0.741763 0.500000 0.595585
Si Si4 0.427344 0.178199 0.622485
Si Si5 0.932696 0.500000 0.420325
Si Si6 0.477622 0.306380 0.831832
Si Si7 0.392139 0.500000 0.545251
Si Si8 0.780162 0.812838 0.726212
O O1 0.884457 0.777072 0.702842
O O2 0.000000 0.832443 0.500000
O O3 0.046756 0.667833 0.657427
O O4 0.013157 0.000000 0.676699
O O5 0.662790 0.500000 0.909181
O O6 0.565707 0.742944 0.865893
O O7 0.730592 0.796924 0.862567
O O8 0.608604 0.737789 0.060708
O O9 0.829517 0.500000 0.488534
O O10 0.651546 0.500000 0.558158
O O11 0.737674 0.670213 0.665531
O O12 0.500000 0.174217 0.500000
O O13 0.475382 0.200560 0.721879
O O14 0.360968 0.333556 0.622593
O O15 0.376368 0.000000 0.642009
O O16 0.000000 0.500000 0.500000
O O17 0.477529 0.500000 0.802199
O O18 0.500000 0.500000 0.500000
O O19 0.766716 0.000000 0.683166
#
# Coordination Sequence:
#
# PCOD8056913 Si02
#       8
#     4   4   2   4   2   4   2   4
#     4   9  16  28  44  69 104 134 160 199 248 309
#     4   9  19  31  50  75 102 135 173 212 261 316
#     4  12  22  34  51  72 104 144 176 217 254 303
#     4  10  21  35  53  72  90 127 178 218 254 297
#     4  10  16  30  50  70  95 138 172 196 256 317
#     4   9  18  35  53  71  98 136 175 220 266 301
#     4  10  24  38  49  66 102 138 175 222 261 287
#     4  11  21  30  48  77 106 138 173 204 251 314
#
# _framework density 17.717099999999999
#
# number of rings (size 3 to 8) (size 9 to 14) (size 15 to 20)
#    0.000    2.154    4.615    0.923    4.308    1.846 
#    0.000    1.538    0.000    0.000    0.000    0.000 
#    0.000    2.462    0.000    4.769    0.000    0.154 
#
# Total GULP energy -322097.531240 kJ/mol
# GULP energy per Si atom -12388.366586 kJ/mol
# Density = 1.767678 g / cm^3
# Si number density = 17.717100 Si / 1000 Ang^3
#
#
#
# Elastic Constant Matrix: (Units=GPa)
#
#
# Indices 1 2 3 4 5 6 
#
# 1 51.6612 21.1945 30.5355 0.0000 -21.3676 0.0000
# 2 21.1945 146.5836 32.6987 0.0000 1.9351 0.0000
# 3 30.5355 32.6987 86.9680 0.0000 -11.5226 0.0000
# 4 0.0000 0.0000 0.0000 -754.0291 0.0000 393.9443
# 5 -21.3676 1.9351 -11.5226 0.0000 29.8195 0.0000
# 6 0.0000 0.0000 0.0000 393.9443 0.0000 -192.9845
#
#
#
# Elastic Compliance Matrix: (Units=1/GPa)
#
#
# Indices 1 2 3 4 5 6 
#
# 1 0.034539 -0.003522 -0.007898 0.000000 0.021926 0.000000
# 2 -0.003522 0.007883 -0.002245 0.000000 -0.003902 0.000000
# 3 -0.007898 -0.002245 0.015161 0.000000 0.000345 0.000000
# 4 0.000000 0.000000 0.000000 0.019944 0.000000 0.040713
# 5 0.021926 -0.003902 0.000345 0.000000 0.049633 0.000000
# 6 0.000000 0.000000 0.000000 0.040713 0.000000 0.077926
#
#
# Mechanical properties :
#
#
# Convention : Reuss Voigt Hill
#
# Bulk Modulus (GPa) = 33.05228 50.45222 41.75225
# Shear Modulus (GPa) = 20.61857 -170.05322 -74.71733
#
# Velocity S-wave (km/s) = 3.41510 -9.80770 -6.50108
# Velocity P-wave (km/s) = 5.85206 9.98580 5.72143
#
# Compressibility (1/GPa) = 0.03025510
#
# Stress axis : x y z
#
# Youngs Moduli (GPa) = 28.95310 126.84789 65.95818
#
# Poissons Ratio (x) = 0.44671 0.52093
# Poissons Ratio (y) = 0.10196 0.14805
# Poissons Ratio (z) = 0.22867 0.28473
#
# Static dielectric constant tensor:
#      x y z
#    x 2.940900 0.000000 -0.308540 
#    y 0.000000 4.677710 0.000000 
#    z -0.308540 0.000000 3.194700 
# 
# 
# High freq. dielectric constant tensor:
#      x y z
#    x 1.634320 0.000000 -0.034290 
#    y 0.000000 1.715620 0.000000 
#    z -0.034290 0.000000 1.654520 
# 
# From -- ./inp_files/48758.got.cif
#   From: 2010.06.25/outbox.cif.g09.slc.cpg/sg10_25_cif.got.tgz:48758.got - 2010.06.27 22:07:45.
