data_PCOD8056648
_publ_section_title
;
Structure prediction by ZEFSAII (Michael W. Deem and Ramdas Pophale) SiO2 
 PCOD8056648
Probable space group: C C
;
_chemical_formula_sum "Si O2"
_cell_formula_units_Z 28
_cell_length_a 13.568821
_cell_length_b 5.109810
_cell_length_c 18.158839
_cell_angle_alpha 90.000000
_cell_angle_beta 112.116886
_cell_angle_gamma 90.000000
_cell_volume 1166.384642
_symmetry_space_group_name_H-M "C C"
_symmetry_group_IT_number 9
_symmetry_cell_setting 'monoclinic'
loop_
_space_group_symop_operation_xyz
x,y,z
x,-y,1/2+z
1/2+x,1/2+y,z
1/2+x,1/2-y,1/2+z
loop_
_atom_site_type_symbol
_atom_site_label
_atom_site_fract_x
_atom_site_fract_y
_atom_site_fract_z
Si Si1 0.542070 0.234816 0.816250
Si Si2 0.172929 0.702557 0.162881
Si Si3 0.741957 0.487928 0.315549
Si Si4 0.694716 0.129486 0.424048
Si Si5 0.456576 0.957690 0.661747
Si Si6 0.246945 0.128763 0.528095
Si Si7 0.871363 0.126849 0.770588
O O1 0.658572 0.362829 0.844163
O O2 0.492435 0.200303 0.721640
O O3 0.452258 0.414111 0.830572
O O4 0.572542 0.961631 0.867166
O O5 0.189280 0.947317 0.221221
O O6 0.183662 0.791507 0.082637
O O7 0.258409 0.489770 0.213802
O O8 0.052529 0.612708 0.135519
O O9 0.760441 0.217957 0.367758
O O10 0.849728 0.649970 0.327246
O O11 0.686496 0.379484 0.475806
O O12 0.754876 0.884212 0.478244
O O13 0.365117 0.041258 0.580609
O O14 0.423842 0.733722 0.710383
#
# Coordination Sequence:
#
# PCOD8056648 Si02
#       7
#     4   4   4   4   4   4   4
#     4  12  23  47  84 117 158 213 275 330 404 493
#     4  12  25  46  83 119 152 210 273 333 396 498
#     4  12  23  47  84 117 158 213 275 330 404 493
#     4  12  27  52  80 118 175 216 261 350 418 484
#     4  12  25  46  83 119 152 210 273 333 396 498
#     4  12  28  50  80 116 172 216 259 347 426 470
#     4  12  23  44  84 120 151 208 284 333 392 474
#
# _framework density 24.005803
#
# number of rings (size 3 to 8) (size 9 to 14) (size 15 to 20)
#    0.000    0.000    8.571    0.857    0.000    0.000 
#    0.000    5.714    3.143    0.000    0.000    0.000 
#    0.000    0.000    0.000    0.000    0.000    0.000 
#
# Total GULP energy -173476.234408 kJ/mol
# GULP energy per Si atom -12391.159601 kJ/mol
# Density = 2.395116 g / cm^3
# Si number density = 24.005803 Si / 1000 Ang^3
#
#
#
# Elastic Constant Matrix: (Units=GPa)
#
#
# Indices 1 2 3 4 5 6 
#
# 1 150.3132 58.8096 53.5092 -0.0001 -18.0685 0.0001
# 2 58.8096 157.0019 67.7450 0.0001 -8.3255 0.0000
# 3 53.5092 67.7450 138.3155 0.0000 -4.3268 0.0000
# 4 -0.0001 0.0001 0.0000 34.9857 -0.0001 2.9981
# 5 -18.0685 -8.3255 -4.3268 -0.0001 10.4276 0.0001
# 6 0.0001 0.0000 0.0000 2.9981 0.0001 49.9578
#
#
#
# Elastic Compliance Matrix: (Units=1/GPa)
#
#
# Indices 1 2 3 4 5 6 
#
# 1 0.010081 -0.001907 -0.002499 0.000000 0.014908 0.000000
# 2 -0.001907 0.008689 -0.003449 0.000000 0.002202 0.000000
# 3 -0.002499 -0.003449 0.009792 0.000000 -0.003022 0.000000
# 4 0.000000 0.000000 0.000000 0.028731 0.000000 -0.001724
# 5 0.014908 0.002202 -0.003022 0.000000 0.122235 0.000000
# 6 0.000000 0.000000 0.000000 -0.001724 0.000000 0.020120
#
#
# Mechanical properties :
#
#
# Convention : Reuss Voigt Hill
#
# Bulk Modulus (GPa) = 77.82112 89.52870 83.67491
# Shear Modulus (GPa) = 22.76438 36.77866 29.77152
#
# Velocity S-wave (km/s) = 3.08277 3.91842 3.52544
# Velocity P-wave (km/s) = 6.72007 7.60576 7.17659
#
# Compressibility (1/GPa) = 0.01284998
#
# Stress axis : x y z
#
# Youngs Moduli (GPa) = 99.20002 115.09337 102.12919
#
# Poissons Ratio (x) = 0.21948 0.25527
# Poissons Ratio (y) = 0.18917 0.35224
# Poissons Ratio (z) = 0.24795 0.39695
#
# Static dielectric constant tensor:
#      x y z
#    x 5.350040 0.000000 -0.062180 
#    y 0.000000 4.829020 0.000000 
#    z -0.062180 0.000000 4.376020 
# 
# 
# High freq. dielectric constant tensor:
#      x y z
#    x 1.946240 0.000000 0.000090 
#    y 0.000000 1.975410 0.000000 
#    z 0.000090 0.000000 1.943210 
# 
# From -- ./inp_files/30407.got.cif
#   From: 2010.06.25/outbox.cif.g09.slc.cpg/sg9_16_cif.got.tgz:30407.got - 2010.06.27 21:40:51.
