data_PCOD8056055
_publ_section_title
;
Structure prediction by ZEFSAII (Michael W. Deem and Ramdas Pophale) SiO2 
 PCOD8056055
Probable space group: C C
;
_chemical_formula_sum "Si O2"
_cell_formula_units_Z 24
_cell_length_a 17.644012
_cell_length_b 8.853960
_cell_length_c 15.280123
_cell_angle_alpha 90.000000
_cell_angle_beta 150.418995
_cell_angle_gamma 90.000000
_cell_volume 1178.376414
_symmetry_space_group_name_H-M "C C"
_symmetry_group_IT_number 9
_symmetry_cell_setting 'monoclinic'
loop_
_space_group_symop_operation_xyz
x,y,z
x,-y,1/2+z
1/2+x,1/2+y,z
1/2+x,1/2-y,1/2+z
loop_
_atom_site_type_symbol
_atom_site_label
_atom_site_fract_x
_atom_site_fract_y
_atom_site_fract_z
Si Si1 0.118100 0.323727 0.519760
Si Si2 0.404841 0.047057 0.220377
Si Si3 0.067028 0.146805 0.873893
Si Si4 0.932759 0.952218 0.890622
Si Si5 0.264155 0.216370 0.486377
Si Si6 0.998007 0.061652 0.147250
O O1 0.258556 0.395780 0.712541
O O2 0.171769 0.251888 0.482158
O O3 0.982157 0.447704 0.374941
O O4 0.050570 0.185979 0.506936
O O5 0.527594 0.177133 0.321290
O O6 0.242563 0.124318 0.083121
O O7 0.376916 0.928244 0.113066
O O8 0.958351 0.069946 0.837271
O O9 0.043202 0.080038 0.752988
O O10 0.955735 0.028730 0.006329
O O11 0.352123 0.364441 0.546930
O O12 0.141399 0.176346 0.288194
#
# Coordination Sequence:
#
# PCOD8056055 Si02
#       6
#     4   4   4   4   4   4
#     4  12  20  45  71  91 134 189 226 273 349 411
#     4  11  22  39  74  91 131 186 222 281 346 405
#     4  11  23  42  63 103 135 174 231 288 339 400
#     4  12  24  42  69 101 135 178 236 280 343 411
#     4  11  20  45  69  92 131 190 223 273 347 410
#     4  11  25  41  68 100 134 177 236 281 336 413
#
# _framework density 20.367006
#
# number of rings (size 3 to 8) (size 9 to 14) (size 15 to 20)
#    0.000    0.667    8.333    1.000    0.000    5.333 
#    0.000    3.333    0.000    0.000    0.000    0.000 
#    0.000    0.000    0.000    0.000    0.000    0.000 
#
# Total GULP energy -148775.043112 kJ/mol
# GULP energy per Si atom -12397.920259 kJ/mol
# Density = 2.032065 g / cm^3
# Si number density = 20.367006 Si / 1000 Ang^3
#
#
#
# Elastic Constant Matrix: (Units=GPa)
#
#
# Indices 1 2 3 4 5 6 
#
# 1 47.8549 15.7787 30.4777 0.0000 0.9153 0.0000
# 2 15.7787 87.7027 31.8719 0.0000 10.7861 0.0000
# 3 30.4777 31.8719 136.4739 0.0000 2.5352 0.0000
# 4 0.0000 0.0000 0.0000 46.6579 0.0000 3.5845
# 5 0.9153 10.7861 2.5352 0.0000 32.3177 0.0000
# 6 0.0000 0.0000 0.0000 3.5845 0.0000 28.1701
#
#
#
# Elastic Compliance Matrix: (Units=1/GPa)
#
#
# Indices 1 2 3 4 5 6 
#
# 1 0.024940 -0.002768 -0.004934 0.000000 0.000605 0.000000
# 2 -0.002768 0.013288 -0.002408 0.000000 -0.004168 0.000000
# 3 -0.004934 -0.002408 0.008987 0.000000 0.000238 0.000000
# 4 0.000000 0.000000 0.000000 0.021644 0.000000 -0.002754
# 5 0.000605 -0.004168 0.000238 0.000000 0.032298 0.000000
# 6 0.000000 0.000000 0.000000 -0.002754 0.000000 0.035849
#
#
# Mechanical properties :
#
#
# Convention : Reuss Voigt Hill
#
# Bulk Modulus (GPa) = 37.04426 47.58757 42.31591
# Shear Modulus (GPa) = 30.07970 34.35601 32.21785
#
# Velocity S-wave (km/s) = 3.84719 4.11158 3.98158
# Velocity P-wave (km/s) = 6.16136 6.77908 6.47759
#
# Compressibility (1/GPa) = 0.02699474
#
# Stress axis : x y z
#
# Youngs Moduli (GPa) = 40.09574 75.25776 111.26913
#
# Poissons Ratio (x) = 0.20833 0.54906
# Poissons Ratio (y) = 0.11099 0.26789
# Poissons Ratio (z) = 0.19785 0.18119
#
# Static dielectric constant tensor:
#      x y z
#    x 3.393470 0.000000 0.337830 
#    y 0.000000 3.926450 0.000000 
#    z 0.337830 0.000000 4.102700 
# 
# 
# High freq. dielectric constant tensor:
#      x y z
#    x 1.758650 0.000000 0.019550 
#    y 0.000000 1.808910 0.000000 
#    z 0.019550 0.000000 1.817220 
# 
# From -- ./inp_files/8762.got.cif
#   From: 2010.06.25/outbox.cif.g09.slc.cpg/sg9_5_cif.got.tgz:8762.got - 2010.06.27 21:40:51.
