data_PCOD8056419
_publ_section_title
;
Structure prediction by ZEFSAII (Michael W. Deem and Ramdas Pophale) SiO2 
 PCOD8056419
Probable space group: C C
;
_chemical_formula_sum "Si O2"
_cell_formula_units_Z 32
_cell_length_a 13.221706
_cell_length_b 12.564893
_cell_length_c 9.468583
_cell_angle_alpha 90.000000
_cell_angle_beta 70.626795
_cell_angle_gamma 90.000000
_cell_volume 1483.942168
_symmetry_space_group_name_H-M "C C"
_symmetry_group_IT_number 9
_symmetry_cell_setting 'monoclinic'
loop_
_space_group_symop_operation_xyz
x,y,z
x,-y,1/2+z
1/2+x,1/2+y,z
1/2+x,1/2-y,1/2+z
loop_
_atom_site_type_symbol
_atom_site_label
_atom_site_fract_x
_atom_site_fract_y
_atom_site_fract_z
Si Si1 0.598410 0.073538 0.521520
Si Si2 0.024964 0.616923 0.865990
Si Si3 0.821751 0.978696 0.397793
Si Si4 0.724122 0.245163 0.871669
Si Si5 0.115773 0.800782 0.438700
Si Si6 0.163334 0.086432 0.623696
Si Si7 0.787461 0.367107 0.570335
Si Si8 0.963852 0.968798 0.589741
O O1 0.535067 0.088935 0.696490
O O2 0.719912 0.041970 0.504472
O O3 0.591280 0.177212 0.423816
O O4 0.544673 0.984325 0.453510
O O5 0.107371 0.710442 0.868921
O O6 0.904906 0.650617 0.953808
O O7 0.858004 0.031386 0.234459
O O8 0.796190 0.854792 0.383797
O O9 0.923115 0.996173 0.452266
O O10 0.784220 0.313758 0.725361
O O11 0.716008 0.318448 0.012660
O O12 0.137639 0.869790 0.290121
O O13 0.216076 0.800732 0.496053
O O14 0.014606 0.851371 0.567490
O O15 0.247584 0.989484 0.597310
O O16 0.053418 0.053273 0.597135
#
# Coordination Sequence:
#
# PCOD8056419 Si02
#       8
#     4   4   4   4   4   4   4   4
#     4  11  26  47  69 102 143 177 239 280 355 425
#     4  11  27  46  71 100 140 188 224 295 348 424
#     4  11  25  45  73 103 140 184 233 297 351 421
#     4  11  26  47  71 106 138 185 241 286 357 421
#     4  11  25  45  69 106 137 181 231 289 349 425
#     4  11  26  45  71 105 139 181 237 296 346 429
#     4  11  25  48  70  99 147 181 234 286 356 418
#     4  11  24  45  70 105 136 179 233 291 354 413
#
# _framework density 21.564181999999999
#
# number of rings (size 3 to 8) (size 9 to 14) (size 15 to 20)
#    0.000    1.000    2.500    3.000   12.250    2.000 
#    0.000    0.000    0.000    0.000    0.000    0.000 
#    0.000    0.000    0.000    0.000    0.000    0.000 
#
# Total GULP energy -198452.131455 kJ/mol
# GULP energy per Si atom -12403.258216 kJ/mol
# Density = 2.151510 g / cm^3
# Si number density = 21.564182 Si / 1000 Ang^3
#
#
#
# Elastic Constant Matrix: (Units=GPa)
#
#
# Indices 1 2 3 4 5 6 
#
# 1 67.3958 8.7384 22.8430 0.0000 -14.8132 0.0000
# 2 8.7384 96.1584 41.6823 0.0000 -11.5212 0.0000
# 3 22.8430 41.6823 111.0025 0.0000 -14.5974 0.0000
# 4 0.0000 0.0000 0.0000 34.9992 0.0000 2.7774
# 5 -14.8132 -11.5212 -14.5974 0.0000 41.0547 0.0000
# 6 0.0000 0.0000 0.0000 2.7774 0.0000 8.0663
#
#
#
# Elastic Compliance Matrix: (Units=1/GPa)
#
#
# Indices 1 2 3 4 5 6 
#
# 1 0.016921 0.000353 -0.002936 0.000000 0.005161 0.000000
# 2 0.000353 0.012574 -0.004525 0.000000 0.002047 0.000000
# 3 -0.002936 -0.004525 0.011546 0.000000 0.001776 0.000000
# 4 0.000000 0.000000 0.000000 0.029375 0.000000 -0.010114
# 5 0.005161 0.002047 0.001776 0.000000 0.027426 0.000000
# 6 0.000000 0.000000 0.000000 -0.010114 0.000000 0.127455
#
#
# Mechanical properties :
#
#
# Convention : Reuss Voigt Hill
#
# Bulk Modulus (GPa) = 37.27828 46.78715 42.03271
# Shear Modulus (GPa) = 20.12434 30.24357 25.18396
#
# Velocity S-wave (km/s) = 3.05820 3.74905 3.42110
# Velocity P-wave (km/s) = 5.45846 6.36272 5.92786
#
# Compressibility (1/GPa) = 0.02682527
#
# Stress axis : x y z
#
# Youngs Moduli (GPa) = 59.09677 79.52751 86.61117
#
# Poissons Ratio (x) = -0.02810 0.25431
# Poissons Ratio (y) = -0.02088 0.39194
# Poissons Ratio (z) = 0.17352 0.35988
#
# Static dielectric constant tensor:
#      x y z
#    x 3.947110 0.000000 -0.113800 
#    y 0.000000 3.948940 0.000000 
#    z -0.113800 0.000000 3.993990 
# 
# 
# High freq. dielectric constant tensor:
#      x y z
#    x 1.849070 0.000000 -0.000990 
#    y 0.000000 1.854220 0.000000 
#    z -0.000990 0.000000 1.860640 
# 
# From -- ./inp_files/9186.got.cif
#   From: 2010.06.25/outbox.cif.g09.slc.cpg/sg9_5_cif.got.tgz:9186.got - 2010.06.27 21:40:51.
