data_PCOD8056064
_publ_section_title
;
Structure prediction by ZEFSAII (Michael W. Deem and Ramdas Pophale) SiO2 
 PCOD8056064
Probable space group: C C
;
_chemical_formula_sum "Si O2"
_cell_formula_units_Z 32
_cell_length_a 9.907881
_cell_length_b 17.806123
_cell_length_c 10.281684
_cell_angle_alpha 90.000000
_cell_angle_beta 120.911485
_cell_angle_gamma 90.000000
_cell_volume 1556.260984
_symmetry_space_group_name_H-M "C C"
_symmetry_group_IT_number 9
_symmetry_cell_setting 'monoclinic'
loop_
_space_group_symop_operation_xyz
x,y,z
x,-y,1/2+z
1/2+x,1/2+y,z
1/2+x,1/2-y,1/2+z
loop_
_atom_site_type_symbol
_atom_site_label
_atom_site_fract_x
_atom_site_fract_y
_atom_site_fract_z
Si Si1 0.053800 0.722896 0.135630
Si Si2 0.996512 0.235543 0.085922
Si Si3 0.010334 0.045881 0.327572
Si Si4 0.634022 0.937954 0.645522
Si Si5 0.970423 0.938973 0.527933
Si Si6 0.675071 0.031885 0.436058
Si Si7 0.657867 0.700033 0.430813
Si Si8 0.728142 0.798847 0.990476
O O1 0.052451 0.640375 0.069670
O O2 0.161429 0.724278 0.317091
O O3 0.121312 0.774029 0.056972
O O4 0.884147 0.751750 0.093854
O O5 0.977024 0.150668 0.024694
O O6 0.049885 0.235896 0.263228
O O7 0.117386 0.278795 0.055128
O O8 0.837396 0.281808 0.988622
O O9 0.053876 0.027980 0.199101
O O10 0.126380 0.111818 0.426842
O O11 0.825539 0.070195 0.247196
O O12 0.047985 0.973803 0.436302
O O13 0.581315 0.001389 0.515672
O O14 0.564824 0.958106 0.754835
O O15 0.791368 0.965584 0.449852
O O16 0.759645 0.111230 0.511479
#
# Coordination Sequence:
#
# PCOD8056064 Si02
#       8
#     4   4   4   4   4   4   4   4
#     4  11  21  38  60  89 119 153 194 242 289 345
#     4  11  24  39  60  89 121 153 193 241 293 346
#     4   9  18  33  56  84 112 148 194 239 280 338
#     4   9  18  33  56  84 112 148 194 239 280 338
#     4   9  18  34  56  82 110 150 195 232 277 347
#     4   9  18  34  56  82 110 150 195 232 277 347
#     4  11  21  38  60  89 119 153 194 242 289 345
#     4  11  24  39  60  89 121 153 193 241 293 346
#
# _framework density 20.562104999999999
#
# number of rings (size 3 to 8) (size 9 to 14) (size 15 to 20)
#    0.000    2.000    0.000    6.000    0.000    8.000 
#    0.000    1.250    0.000    9.000    0.000    0.000 
#    0.000    0.000    0.000    0.000    0.000    0.000 
#
# Total GULP energy -198274.020058 kJ/mol
# GULP energy per Si atom -12392.126254 kJ/mol
# Density = 2.051531 g / cm^3
# Si number density = 20.562105 Si / 1000 Ang^3
#
#
#
# Elastic Constant Matrix: (Units=GPa)
#
#
# Indices 1 2 3 4 5 6 
#
# 1 68.7934 25.8010 7.3075 0.0000 -6.6510 0.0000
# 2 25.8010 54.2592 6.9269 0.0000 -6.0946 0.0000
# 3 7.3075 6.9269 76.3669 0.0000 19.5360 0.0000
# 4 0.0000 0.0000 0.0000 37.9211 0.0000 -4.0706
# 5 -6.6510 -6.0946 19.5360 0.0000 63.5443 0.0000
# 6 0.0000 0.0000 0.0000 -4.0706 0.0000 40.0212
#
#
#
# Elastic Compliance Matrix: (Units=1/GPa)
#
#
# Indices 1 2 3 4 5 6 
#
# 1 0.017888 -0.008163 -0.001357 0.000000 0.001506 0.000000
# 2 -0.008163 0.022746 -0.001760 0.000000 0.001868 0.000000
# 3 -0.001357 -0.001760 0.014613 0.000000 -0.004803 0.000000
# 4 0.000000 0.000000 0.000000 0.026662 0.000000 0.002712
# 5 0.001506 0.001868 -0.004803 0.000000 0.017551 0.000000
# 6 0.000000 0.000000 0.000000 0.002712 0.000000 0.025263
#
#
# Mechanical properties :
#
#
# Convention : Reuss Voigt Hill
#
# Bulk Modulus (GPa) = 30.59319 31.05448 30.82383
# Shear Modulus (GPa) = 31.61002 38.92294 35.26648
#
# Velocity S-wave (km/s) = 3.92509 4.35552 4.14589
# Velocity P-wave (km/s) = 5.95420 6.35843 6.15963
#
# Compressibility (1/GPa) = 0.03268702
#
# Stress axis : x y z
#
# Youngs Moduli (GPa) = 55.90423 43.96293 68.43258
#
# Poissons Ratio (x) = 0.35889 0.09283
# Poissons Ratio (y) = 0.45637 0.12044
# Poissons Ratio (z) = 0.07584 0.07738
#
# Static dielectric constant tensor:
#      x y z
#    x 3.652410 0.000000 -0.729300 
#    y 0.000000 2.959490 0.000000 
#    z -0.729300 0.000000 3.002940 
# 
# 
# High freq. dielectric constant tensor:
#      x y z
#    x 1.784510 0.000000 -0.037210 
#    y 0.000000 1.808430 0.000000 
#    z -0.037210 0.000000 1.806250 
# 
# From -- ./inp_files/15167.got.cif
#   From: 2010.06.25/outbox.cif.g09.slc.cpg/sg9_8_cif.got.tgz:15167.got - 2010.06.27 21:40:51.
