data_PCOD8056700
_publ_section_title
;
Structure prediction by ZEFSAII (Michael W. Deem and Ramdas Pophale) SiO2 
 PCOD8056700
Probable space group: C C
;
_chemical_formula_sum "Si O2"
_cell_formula_units_Z 28
_cell_length_a 5.577935
_cell_length_b 22.945072
_cell_length_c 11.532845
_cell_angle_alpha 90.000000
_cell_angle_beta 127.263655
_cell_angle_gamma 90.000000
_cell_volume 1174.721086
_symmetry_space_group_name_H-M "C C"
_symmetry_group_IT_number 9
_symmetry_cell_setting 'monoclinic'
loop_
_space_group_symop_operation_xyz
x,y,z
x,-y,1/2+z
1/2+x,1/2+y,z
1/2+x,1/2-y,1/2+z
loop_
_atom_site_type_symbol
_atom_site_label
_atom_site_fract_x
_atom_site_fract_y
_atom_site_fract_z
Si Si1 0.518240 0.683131 0.906450
Si Si2 0.057709 0.782055 0.775936
Si Si3 0.329572 0.548668 0.443577
Si Si4 0.658115 0.625728 0.713186
Si Si5 0.811658 0.082176 0.981634
Si Si6 0.659044 0.409721 0.805369
Si Si7 0.528650 0.265979 0.018960
O O1 0.222731 0.721060 0.826440
O O2 0.493833 0.652574 0.774844
O O3 0.548533 0.630069 0.005446
O O4 0.780523 0.728769 0.013720
O O5 0.250239 0.841102 0.824944
O O6 0.814158 0.779029 0.600426
O O7 0.894059 0.781751 0.854240
O O8 0.480776 0.570636 0.607605
O O9 0.370681 0.479838 0.439388
O O10 0.517612 0.575338 0.390068
O O11 0.967944 0.559414 0.353238
O O12 0.649857 0.676065 0.614859
O O13 0.984276 0.605448 0.851148
O O14 0.878201 0.075948 0.138061
#
# Coordination Sequence:
#
# PCOD8056700 Si02
#       7
#     4   4   4   4   4   4   4
#     4  12  27  45  81 110 155 207 260 331 406 477
#     4  12  26  46  73 114 154 202 257 328 404 476
#     4  12  31  53  85 116 163 217 275 334 395 476
#     4  12  27  51  77 117 159 213 268 331 405 482
#     4  12  30  52  81 114 160 213 273 334 402 478
#     4  12  30  53  81 121 160 210 273 335 400 478
#     4  12  25  46  72 114 157 198 260 325 406 483
#
# _framework density 23.835446000000001
#
# number of rings (size 3 to 8) (size 9 to 14) (size 15 to 20)
#    0.000    0.000    4.286    3.429   16.000    0.000 
#    0.000    0.000    0.000    0.000    0.000    0.000 
#    0.000    0.000    0.000    0.000    0.000    0.000 
#
# Total GULP energy -173448.769832 kJ/mol
# GULP energy per Si atom -12389.197845 kJ/mol
# Density = 2.378120 g / cm^3
# Si number density = 23.835446 Si / 1000 Ang^3
#
#
#
# Elastic Constant Matrix: (Units=GPa)
#
#
# Indices 1 2 3 4 5 6 
#
# 1 83.5287 31.0218 26.8426 0.0000 2.4650 0.0000
# 2 31.0218 150.5297 31.8674 0.0000 3.0763 0.0000
# 3 26.8426 31.8674 133.6816 0.0000 7.5705 0.0000
# 4 0.0000 0.0000 0.0000 29.5558 0.0000 -4.8920
# 5 2.4650 3.0763 7.5705 0.0000 35.4559 0.0000
# 6 0.0000 0.0000 0.0000 -4.8920 0.0000 25.2147
#
#
#
# Elastic Compliance Matrix: (Units=1/GPa)
#
#
# Indices 1 2 3 4 5 6 
#
# 1 0.013535 -0.002329 -0.002147 0.000000 -0.000281 0.000000
# 2 -0.002329 0.007399 -0.001285 0.000000 -0.000206 0.000000
# 3 -0.002147 -0.001285 0.008303 0.000000 -0.001512 0.000000
# 4 0.000000 0.000000 0.000000 0.034957 0.000000 0.006782
# 5 -0.000281 -0.000206 -0.001512 0.000000 0.028564 0.000000
# 6 0.000000 0.000000 0.000000 0.006782 0.000000 0.040975
#
#
# Mechanical properties :
#
#
# Convention : Reuss Voigt Hill
#
# Bulk Modulus (GPa) = 56.44280 60.80041 58.62160
# Shear Modulus (GPa) = 33.07739 36.57916 34.82828
#
# Velocity S-wave (km/s) = 3.72928 3.92172 3.82671
# Velocity P-wave (km/s) = 6.50192 6.78751 6.64625
#
# Compressibility (1/GPa) = 0.01771705
#
# Stress axis : x y z
#
# Youngs Moduli (GPa) = 73.88198 135.14685 120.43333
#
# Poissons Ratio (x) = 0.31478 0.25853
# Poissons Ratio (y) = 0.17208 0.15470
# Poissons Ratio (z) = 0.15860 0.17360
#
# Static dielectric constant tensor:
#      x y z
#    x 4.182280 0.000000 -0.107740 
#    y 0.000000 4.665310 0.000000 
#    z -0.107740 0.000000 4.907050 
# 
# 
# High freq. dielectric constant tensor:
#      x y z
#    x 1.931740 0.000000 -0.005450 
#    y 0.000000 1.968440 0.000000 
#    z -0.005450 0.000000 1.959480 
# 
# From -- ./inp_files/13295.got.cif
#   From: 2010.06.25/outbox.cif.g09.slc.cpg/sg9_7_cif.got.tgz:13295.got - 2010.06.27 21:40:51.
