data_PCOD8056973
_publ_section_title
;
Structure prediction by ZEFSAII (Michael W. Deem and Ramdas Pophale) SiO2 
 PCOD8056973
Probable space group: P 2/M
;
_chemical_formula_sum "Si O2"
_cell_formula_units_Z 32
_cell_length_a 12.016941
_cell_length_b 9.559584
_cell_length_c 27.382206
_cell_angle_alpha 90.000000
_cell_angle_beta 42.087280
_cell_angle_gamma 90.000000
_cell_volume 2108.365378
_symmetry_space_group_name_H-M "P 2/M"
_symmetry_group_IT_number 10
_symmetry_cell_setting 'monoclinic'
loop_
_space_group_symop_operation_xyz
x,y,z
-x,y,-z
-x,-y,-z
x,-y,z
loop_
_atom_site_type_symbol
_atom_site_label
_atom_site_fract_x
_atom_site_fract_y
_atom_site_fract_z
Si Si1 0.308837 0.839033 0.618321
Si Si2 0.640948 0.843141 0.173765
Si Si3 0.024127 0.842398 0.872498
Si Si4 0.483023 0.660355 0.301357
Si Si5 0.188930 0.662292 0.742732
Si Si6 0.176047 0.336268 0.465482
Si Si7 0.153813 0.165880 0.978318
Si Si8 0.692474 0.839632 0.492729
O O1 0.197051 0.737871 0.687819
O O2 0.500893 0.796794 0.561584
O O3 0.251708 0.817009 0.581270
O O4 0.282891 0.000000 0.642804
O O5 0.813923 0.839180 0.146333
O O6 0.505702 0.745205 0.243708
O O7 0.568082 0.000000 0.197355
O O8 0.677166 0.789869 0.105818
O O9 0.042632 0.734457 0.821853
O O10 0.864433 0.795159 0.958058
O O11 0.998358 0.000000 0.860449
O O12 0.465422 0.500000 0.291832
O O13 0.635970 0.684604 0.287794
O O14 0.317907 0.714915 0.381870
O O15 0.145349 0.500000 0.749637
O O16 0.194520 0.500000 0.470294
O O17 0.192628 0.256894 0.511267
O O18 0.000000 0.297583 0.500000
O O19 0.139617 0.000000 0.978078
O O20 0.000000 0.236932 0.000000
O O21 0.717936 0.000000 0.499908
#
# Coordination Sequence:
#
# PCOD8056973 Si02
#       8
#     4   4   4   4   4   4   4   4
#     4   9  17  29  44  61  81 104 129 165 209 248
#     4   8  13  21  35  51  66  92 129 165 195 228
#     4   8  13  21  33  48  70 100 129 159 193 230
#     4   9  17  27  36  52  76 100 130 166 201 236
#     4  10  17  24  36  56  79 104 133 166 197 233
#     4  10  20  33  46  59  80 110 139 168 205 247
#     4   7  10  18  31  47  66  91 127 161 189 225
#     4   9  18  31  46  63  80  99 131 171 208 245
#
# _framework density 15.177636
#
# number of rings (size 3 to 8) (size 9 to 14) (size 15 to 20)
#    0.000    3.250    1.250    2.625    0.000    1.750 
#    0.000    1.875    0.000    3.750    0.000    0.000 
#    0.000    0.000    0.000    1.125    0.000   22.875 
#
# Total GULP energy -396506.905912 kJ/mol
# GULP energy per Si atom -12390.840810 kJ/mol
# Density = 1.514309 g / cm^3
# Si number density = 15.177636 Si / 1000 Ang^3
#
#
#
# Elastic Constant Matrix: (Units=GPa)
#
#
# Indices 1 2 3 4 5 6 
#
# 1 40.8081 25.4779 25.6356 0.0000 7.4609 0.0000
# 2 25.4779 71.2660 57.7555 0.0000 14.6724 0.0000
# 3 25.6356 57.7555 123.1184 0.0000 21.6654 0.0000
# 4 0.0000 0.0000 0.0000 18.2168 0.0000 0.7161
# 5 7.4609 14.6724 21.6654 0.0000 12.5444 0.0000
# 6 0.0000 0.0000 0.0000 0.7161 0.0000 11.9666
#
#
#
# Elastic Compliance Matrix: (Units=1/GPa)
#
#
# Indices 1 2 3 4 5 6 
#
# 1 0.032182 -0.009174 -0.001318 0.000000 -0.006134 0.000000
# 2 -0.009174 0.026514 -0.008663 0.000000 -0.010592 0.000000
# 3 -0.001318 -0.008663 0.015141 0.000000 -0.015234 0.000000
# 4 0.000000 0.000000 0.000000 0.055024 0.000000 -0.003293
# 5 -0.006134 -0.010592 -0.015234 0.000000 0.122065 0.000000
# 6 0.000000 0.000000 0.000000 -0.003293 0.000000 0.083763
#
#
# Mechanical properties :
#
#
# Convention : Reuss Voigt Hill
#
# Bulk Modulus (GPa) = 28.14843 50.32560 39.23701
# Shear Modulus (GPa) = 12.99235 16.96713 14.97974
#
# Velocity S-wave (km/s) = 2.92895 3.34713 3.14500
# Velocity P-wave (km/s) = 5.47947 6.94028 6.25268
#
# Compressibility (1/GPa) = 0.03552596
#
# Stress axis : x y z
#
# Youngs Moduli (GPa) = 31.07320 37.71642 66.04376
#
# Poissons Ratio (x) = 0.34603 0.08703
# Poissons Ratio (y) = 0.28508 0.57217
# Poissons Ratio (z) = 0.04095 0.32676
#
# Static dielectric constant tensor:
#      x y z
#    x 2.337210 0.000000 0.139240 
#    y 0.000000 2.836370 0.000000 
#    z 0.139240 0.000000 3.275530 
# 
# 
# High freq. dielectric constant tensor:
#      x y z
#    x 1.504550 0.000000 0.019660 
#    y 0.000000 1.573050 0.000000 
#    z 0.019660 0.000000 1.597350 
# 
# From -- ./inp_files/57190.got.cif
#   From: 2010.06.25/outbox.cif.g09.slc.cpg/sg10_29_cif.got.tgz:57190.got - 2010.06.27 22:07:45.
