data_PCOD8056463
_publ_section_title
;
Structure prediction by ZEFSAII (Michael W. Deem and Ramdas Pophale) SiO2 
 PCOD8056463
Probable space group: C C
;
_chemical_formula_sum "Si O2"
_cell_formula_units_Z 32
_cell_length_a 8.678647
_cell_length_b 11.243504
_cell_length_c 14.795712
_cell_angle_alpha 90.000000
_cell_angle_beta 58.432909
_cell_angle_gamma 90.000000
_cell_volume 1230.108203
_symmetry_space_group_name_H-M "C C"
_symmetry_group_IT_number 9
_symmetry_cell_setting 'monoclinic'
loop_
_space_group_symop_operation_xyz
x,y,z
x,-y,1/2+z
1/2+x,1/2+y,z
1/2+x,1/2-y,1/2+z
loop_
_atom_site_type_symbol
_atom_site_label
_atom_site_fract_x
_atom_site_fract_y
_atom_site_fract_z
Si Si1 0.965250 0.080189 0.395830
Si Si2 0.090928 0.858075 0.173840
Si Si3 0.131539 0.394132 0.713367
Si Si4 0.378974 0.974531 0.640178
Si Si5 0.733087 0.739537 0.081256
Si Si6 0.119766 0.521034 0.403704
Si Si7 0.183065 0.297860 0.283204
Si Si8 0.515462 0.462240 0.556197
O O1 0.844696 0.177623 0.482835
O O2 0.837145 0.026760 0.356711
O O3 0.138570 0.156216 0.309420
O O4 0.026526 0.974807 0.444588
O O5 0.193179 0.732277 0.151449
O O6 0.186823 0.953851 0.213897
O O7 0.885282 0.822395 0.256957
O O8 0.117498 0.922876 0.068514
O O9 0.074610 0.385096 0.836969
O O10 0.310782 0.475071 0.654645
O O11 0.976178 0.461013 0.705573
O O12 0.504279 0.049237 0.529572
O O13 0.363202 0.844631 0.601211
O O14 0.640843 0.820160 0.189051
O O15 0.596317 0.662953 0.062657
O O16 0.065100 0.390465 0.379075
#
# Coordination Sequence:
#
# PCOD8056463 Si02
#       8
#     4   4   4   4   4   4   4   4
#     4  12  25  46  75 111 151 196 253 320 371 453
#     4  11  26  46  74 105 148 199 240 308 378 446
#     4  12  24  48  74 107 148 197 243 317 375 447
#     4  11  25  50  73 106 153 195 252 311 377 450
#     4  11  24  49  73 107 151 202 242 314 381 448
#     4  12  27  46  75 113 147 195 262 313 378 454
#     4  12  25  47  74 107 155 195 249 308 383 444
#     4  11  24  46  78 108 147 197 245 303 383 446
#
# _framework density 26.013971999999999
#
# number of rings (size 3 to 8) (size 9 to 14) (size 15 to 20)
#    0.000    0.500    6.250    0.750    3.500    3.000 
#    2.250    0.000    0.000    0.000    0.000    0.000 
#    0.000    0.000    0.000    0.000    0.000    0.000 
#
# Total GULP energy -198313.623441 kJ/mol
# GULP energy per Si atom -12394.601465 kJ/mol
# Density = 2.595476 g / cm^3
# Si number density = 26.013972 Si / 1000 Ang^3
#
#
#
# Elastic Constant Matrix: (Units=GPa)
#
#
# Indices 1 2 3 4 5 6 
#
# 1 110.4292 33.8638 9.9805 0.0000 41.4624 0.0000
# 2 33.8638 104.0881 8.3581 0.0000 23.4661 0.0000
# 3 9.9805 8.3581 62.7505 0.0000 35.9039 0.0000
# 4 0.0000 0.0000 0.0000 32.3730 0.0000 4.0803
# 5 41.4624 23.4661 35.9039 0.0000 42.0521 0.0000
# 6 0.0000 0.0000 0.0000 4.0803 0.0000 48.1979
#
#
#
# Elastic Compliance Matrix: (Units=1/GPa)
#
#
# Indices 1 2 3 4 5 6 
#
# 1 0.020247 -0.000345 0.015910 0.000000 -0.033354 0.000000
# 2 -0.000345 0.011534 0.003923 0.000000 -0.009445 0.000000
# 3 0.015910 0.003923 0.045185 0.000000 -0.056454 0.000000
# 4 0.000000 0.000000 0.000000 0.031223 0.000000 -0.002643
# 5 -0.033354 -0.009445 -0.056454 0.000000 0.110138 0.000000
# 6 0.000000 0.000000 0.000000 -0.002643 0.000000 0.020972
#
#
# Mechanical properties :
#
#
# Convention : Reuss Voigt Hill
#
# Bulk Modulus (GPa) = 8.62506 42.40806 25.51656
# Shear Modulus (GPa) = 20.92319 39.52894 30.22606
#
# Velocity S-wave (km/s) = 2.83911 3.90234 3.41239
# Velocity P-wave (km/s) = 3.75101 6.05324 5.03547
#
# Compressibility (1/GPa) = 0.11594120
#
# Stress axis : x y z
#
# Youngs Moduli (GPa) = 49.39035 86.70074 22.13144
#
# Poissons Ratio (x) = 0.02992 -0.35211
# Poissons Ratio (y) = 0.01704 -0.08682
# Poissons Ratio (z) = -0.78580 -0.34013
#
# Static dielectric constant tensor:
#      x y z
#    x 4.882050 0.000000 0.117730 
#    y 0.000000 5.064360 0.000000 
#    z 0.117730 0.000000 4.744310 
# 
# 
# High freq. dielectric constant tensor:
#      x y z
#    x 2.043930 0.000000 0.011560 
#    y 0.000000 2.052510 0.000000 
#    z 0.011560 0.000000 2.031840 
# 
# From -- ./inp_files/22724.got.cif
#   From: 2010.06.25/outbox.cif.g09.slc.cpg/sg9_12_cif.got.tgz:22724.got - 2010.06.27 21:40:51.
