data_PCOD8056687
_publ_section_title
;
Structure prediction by ZEFSAII (Michael W. Deem and Ramdas Pophale) SiO2 
 PCOD8056687
Probable space group: C C
;
_chemical_formula_sum "Si O2"
_cell_formula_units_Z 32
_cell_length_a 15.976968
_cell_length_b 18.813287
_cell_length_c 9.662230
_cell_angle_alpha 90.000000
_cell_angle_beta 29.474181
_cell_angle_gamma 90.000000
_cell_volume 1428.989877
_symmetry_space_group_name_H-M "C C"
_symmetry_group_IT_number 9
_symmetry_cell_setting 'monoclinic'
loop_
_space_group_symop_operation_xyz
x,y,z
x,-y,1/2+z
1/2+x,1/2+y,z
1/2+x,1/2-y,1/2+z
loop_
_atom_site_type_symbol
_atom_site_label
_atom_site_fract_x
_atom_site_fract_y
_atom_site_fract_z
Si Si1 0.357430 0.942909 0.186680
Si Si2 0.487114 0.301251 0.318306
Si Si3 0.707574 0.307632 0.263997
Si Si4 0.913998 0.195810 0.362232
Si Si5 0.120586 0.197539 0.330248
Si Si6 0.717412 0.538667 0.183745
Si Si7 0.739127 0.932007 0.692715
Si Si8 0.879135 0.958869 0.776939
O O1 0.238610 0.883248 0.290457
O O2 0.260185 0.973757 0.461388
O O3 0.369369 0.008077 0.060642
O O4 0.543517 0.911733 0.947506
O O5 0.639903 0.318770 0.204386
O O6 0.382163 0.234457 0.523288
O O7 0.361486 0.367112 0.478929
O O8 0.559819 0.276898 0.066800
O O9 0.566787 0.265645 0.558282
O O10 0.745996 0.242937 0.587558
O O11 0.901673 0.119978 0.304452
O O12 0.961169 0.188399 0.456231
O O13 0.212816 0.122541 0.217277
O O14 0.547745 0.496933 0.474585
O O15 0.748836 0.954266 0.837897
O O16 0.793770 0.997538 0.521110
#
# Coordination Sequence:
#
# PCOD8056687 Si02
#       8
#     4   4   4   4   4   4   4   4
#     4  12  27  44  73 106 142 186 240 299 353 433
#     4  12  26  46  73 103 143 188 236 294 363 429
#     4  12  25  48  71 102 141 189 235 291 362 429
#     4  12  26  48  73 104 141 190 234 292 360 430
#     4  12  27  46  74 106 143 186 238 296 357 426
#     4  12  24  48  74 104 142 190 241 295 359 424
#     4  12  26  45  72 106 142 188 239 298 358 428
#     4  12  25  49  74 103 146 191 237 297 362 427
#
# _framework density 22.393442
#
# number of rings (size 3 to 8) (size 9 to 14) (size 15 to 20)
#    0.000    0.000    5.000    4.500    3.500    1.000 
#    2.250    0.000    0.000    0.000    0.000    0.000 
#    0.000    0.000    0.000    0.000    0.000    0.000 
#
# Total GULP energy -198427.352074 kJ/mol
# GULP energy per Si atom -12401.709505 kJ/mol
# Density = 2.234247 g / cm^3
# Si number density = 22.393442 Si / 1000 Ang^3
#
#
#
# Elastic Constant Matrix: (Units=GPa)
#
#
# Indices 1 2 3 4 5 6 
#
# 1 154.8673 38.8927 61.3937 -0.0374 11.4951 0.0171
# 2 38.8927 117.5426 49.0354 -0.0321 2.1199 0.0141
# 3 61.3937 49.0354 99.0057 -0.0414 9.2899 0.0145
# 4 -0.0374 -0.0321 -0.0414 66.5617 0.0185 -12.0236
# 5 11.4951 2.1199 9.2899 0.0185 45.4491 -0.0078
# 6 0.0171 0.0141 0.0145 -12.0236 -0.0078 39.6595
#
#
#
# Elastic Compliance Matrix: (Units=1/GPa)
#
#
# Indices 1 2 3 4 5 6 
#
# 1 0.008679 -0.000821 -0.004866 0.000002 -0.001162 -0.000001
# 2 -0.000821 0.010817 -0.004915 0.000001 0.000708 -0.000001
# 3 -0.004866 -0.004915 0.015717 0.000005 -0.001753 -0.000001
# 4 0.000002 0.000001 0.000005 0.015894 -0.000007 0.004819
# 5 -0.001162 0.000708 -0.001753 -0.000007 0.022622 0.000003
# 6 -0.000001 -0.000001 -0.000001 0.004819 0.000003 0.026675
#
#
# Mechanical properties :
#
#
# Convention : Reuss Voigt Hill
#
# Bulk Modulus (GPa) = 71.38415 74.45102 72.91759
# Shear Modulus (GPa) = 39.59592 45.14032 42.36812
#
# Velocity S-wave (km/s) = 4.20955 4.49462 4.35442
# Velocity P-wave (km/s) = 7.45477 7.76237 7.61012
#
# Compressibility (1/GPa) = 0.01400871
#
# Stress axis : x y z
#
# Youngs Moduli (GPa) = 115.22667 92.45032 63.62719
#
# Poissons Ratio (x) = 0.07587 0.30962
# Poissons Ratio (y) = 0.09456 0.31271
# Poissons Ratio (z) = 0.56071 0.45437
#
# Static dielectric constant tensor:
#      x y z
#    x 4.331540 0.000000 0.073850 
#    y 0.000000 4.012700 0.000000 
#    z 0.073850 0.000000 4.267750 
# 
# 
# High freq. dielectric constant tensor:
#      x y z
#    x 1.903530 0.000000 0.007790 
#    y 0.000000 1.883190 0.000000 
#    z 0.007790 0.000000 1.884300 
# 
# From -- ./inp_files/10090.got.cif
#   From: 2010.06.25/outbox.cif.g09.slc.cpg/sg9_6_cif.got.tgz:10090.got - 2010.06.27 21:40:51.
