data_PCOD8056676
_publ_section_title
;
Structure prediction by ZEFSAII (Michael W. Deem and Ramdas Pophale) SiO2 
 PCOD8056676
Probable space group: C C
;
_chemical_formula_sum "Si O2"
_cell_formula_units_Z 28
_cell_length_a 12.384298
_cell_length_b 13.795717
_cell_length_c 7.772299
_cell_angle_alpha 90.000000
_cell_angle_beta 113.361571
_cell_angle_gamma 90.000000
_cell_volume 1219.039245
_symmetry_space_group_name_H-M "C C"
_symmetry_group_IT_number 9
_symmetry_cell_setting 'monoclinic'
loop_
_space_group_symop_operation_xyz
x,y,z
x,-y,1/2+z
1/2+x,1/2+y,z
1/2+x,1/2-y,1/2+z
loop_
_atom_site_type_symbol
_atom_site_label
_atom_site_fract_x
_atom_site_fract_y
_atom_site_fract_z
Si Si1 0.794060 0.851026 0.558330
Si Si2 0.914914 0.201943 0.462636
Si Si3 0.391986 0.954912 0.018062
Si Si4 0.314490 0.215617 0.241263
Si Si5 0.995271 0.989396 0.147183
Si Si6 0.032324 0.615636 0.920801
Si Si7 0.665491 0.436409 0.519550
O O1 0.814496 0.790833 0.749442
O O2 0.786604 0.779838 0.389844
O O3 0.670287 0.907630 0.488912
O O4 0.896446 0.929105 0.600079
O O5 0.879988 0.223170 0.637513
O O6 0.956082 0.091004 0.483739
O O7 0.020371 0.273928 0.478956
O O8 0.461913 0.891235 0.199285
O O9 0.269035 0.995062 0.012406
O O10 0.376354 0.885223 0.841622
O O11 0.474982 0.044476 0.022711
O O12 0.200574 0.176579 0.064122
O O13 0.034661 0.938170 0.349485
O O14 0.126771 0.027160 0.183190
#
# Coordination Sequence:
#
# PCOD8056676 Si02
#       7
#     4   4   4   4   4   4   4
#     4  12  31  51  74 116 162 200 251 324 393 462
#     4  12  28  50  75 117 152 204 260 311 393 464
#     4  12  24  49  76 114 148 201 257 320 387 450
#     4  12  27  49  79 115 148 199 264 314 387 459
#     4  12  27  49  77 111 157 202 256 323 392 452
#     4  12  27  47  79 110 159 196 255 320 381 469
#     4  12  24  45  84 107 150 196 265 320 375 456
#
# _framework density 22.968909
#
# number of rings (size 3 to 8) (size 9 to 14) (size 15 to 20)
#    0.000    0.000    7.143    0.857    8.000    1.143 
#    0.000    0.000    0.000    0.000    0.000    0.000 
#    0.000    0.000    0.000    0.000    0.000    0.000 
#
# Total GULP energy -173481.528187 kJ/mol
# GULP energy per Si atom -12391.537728 kJ/mol
# Density = 2.291663 g / cm^3
# Si number density = 22.968909 Si / 1000 Ang^3
#
#
#
# Elastic Constant Matrix: (Units=GPa)
#
#
# Indices 1 2 3 4 5 6 
#
# 1 144.3290 45.3624 55.6229 0.0000 9.8195 0.0000
# 2 45.3624 110.1072 37.1871 0.0000 7.1964 0.0000
# 3 55.6229 37.1871 111.2298 0.0000 1.8960 0.0000
# 4 0.0000 0.0000 0.0000 44.4798 0.0000 -8.6782
# 5 9.8195 7.1964 1.8960 0.0000 35.8475 0.0000
# 6 0.0000 0.0000 0.0000 -8.6782 0.0000 3.6431
#
#
#
# Elastic Compliance Matrix: (Units=1/GPa)
#
#
# Indices 1 2 3 4 5 6 
#
# 1 0.009279 -0.002418 -0.003800 0.000000 -0.001855 0.000000
# 2 -0.002418 0.010996 -0.002443 0.000000 -0.001416 0.000000
# 3 -0.003800 -0.002443 0.011692 0.000000 0.000913 0.000000
# 4 0.000000 0.000000 0.000000 0.042003 0.000000 0.100054
# 5 -0.001855 -0.001416 0.000913 0.000000 0.028640 0.000000
# 6 0.000000 0.000000 0.000000 0.100054 0.000000 0.512824
#
#
# Mechanical properties :
#
#
# Convention : Reuss Voigt Hill
#
# Bulk Modulus (GPa) = 68.28428 71.33453 69.80941
# Shear Modulus (GPa) = 7.84144 31.96033 19.90088
#
# Velocity S-wave (km/s) = 1.84969 3.73428 2.94671
# Velocity P-wave (km/s) = 5.86134 7.05106 6.48355
#
# Compressibility (1/GPa) = 0.01464466
#
# Stress axis : x y z
#
# Youngs Moduli (GPa) = 107.76448 90.94314 85.52894
#
# Poissons Ratio (x) = 0.21992 0.32504
# Poissons Ratio (y) = 0.26060 0.20893
# Poissons Ratio (z) = 0.40954 0.22215
#
# Static dielectric constant tensor:
#      x y z
#    x 3.887460 0.000000 -0.192020 
#    y 0.000000 4.089830 0.000000 
#    z -0.192020 0.000000 4.571740 
# 
# 
# High freq. dielectric constant tensor:
#      x y z
#    x 1.898590 0.000000 -0.012040 
#    y 0.000000 1.906840 0.000000 
#    z -0.012040 0.000000 1.938000 
# 
# From -- ./inp_files/7515.got.cif
#   From: 2010.06.25/outbox.cif.g09.slc.cpg/sg9_4_cif.got.tgz:7515.got - 2010.06.27 21:40:51.
