data_PCOD8056243
_publ_section_title
;
Structure prediction by ZEFSAII (Michael W. Deem and Ramdas Pophale) SiO2 
 PCOD8056243
Probable space group: C C
;
_chemical_formula_sum "Si O2"
_cell_formula_units_Z 28
_cell_length_a 16.866875
_cell_length_b 15.146054
_cell_length_c 9.346613
_cell_angle_alpha 90.000000
_cell_angle_beta 148.334833
_cell_angle_gamma 90.000000
_cell_volume 1253.458293
_symmetry_space_group_name_H-M "C C"
_symmetry_group_IT_number 9
_symmetry_cell_setting 'monoclinic'
loop_
_space_group_symop_operation_xyz
x,y,z
x,-y,1/2+z
1/2+x,1/2+y,z
1/2+x,1/2-y,1/2+z
loop_
_atom_site_type_symbol
_atom_site_label
_atom_site_fract_x
_atom_site_fract_y
_atom_site_fract_z
Si Si1 0.700270 0.068153 0.329030
Si Si2 0.807207 0.285043 0.199306
Si Si3 0.577883 0.820527 0.908370
Si Si4 0.996653 0.840786 0.158668
Si Si5 0.662848 0.121400 0.833243
Si Si6 0.266110 0.099651 0.898689
Si Si7 0.931237 0.421112 0.186799
O O1 0.640076 0.130508 0.362379
O O2 0.849419 0.107818 0.484883
O O3 0.748860 0.973512 0.471923
O O4 0.567073 0.052666 0.006361
O O5 0.958515 0.246263 0.503194
O O6 0.726398 0.354460 0.184082
O O7 0.841239 0.337267 0.107223
O O8 0.716986 0.195589 0.027673
O O9 0.585973 0.712915 0.919495
O O10 0.404515 0.846104 0.678885
O O11 0.680818 0.846722 0.199447
O O12 0.113074 0.903402 0.256214
O O13 0.493276 0.102946 0.625594
O O14 0.315691 0.998477 0.969845
#
# Coordination Sequence:
#
# PCOD8056243 Si02
#       7
#     4   4   4   4   4   4   4
#     4  12  22  46  72 102 141 194 229 285 355 429
#     4  11  24  44  74 103 142 187 236 295 356 413
#     4  11  23  42  74 102 141 185 235 284 357 418
#     4  11  24  44  70 105 145 181 232 298 354 409
#     4  12  24  44  70 106 138 186 243 281 345 438
#     4  11  23  45  73 103 140 183 236 292 355 416
#     4  12  22  45  75  99 137 190 239 279 356 431
#
# _framework density 22.338200000000001
#
# number of rings (size 3 to 8) (size 9 to 14) (size 15 to 20)
#    0.000    0.571    7.143    2.571    0.000    2.286 
#    5.143    0.000    0.000    0.000    0.000    0.000 
#    0.000    0.000    0.000    0.000    0.000    0.000 
#
# Total GULP energy -173439.779306 kJ/mol
# GULP energy per Si atom -12388.555665 kJ/mol
# Density = 2.228736 g / cm^3
# Si number density = 22.338200 Si / 1000 Ang^3
#
#
#
# Elastic Constant Matrix: (Units=GPa)
#
#
# Indices 1 2 3 4 5 6 
#
# 1 149.5760 67.1443 49.3118 0.0000 16.8584 0.0000
# 2 67.1443 175.6484 42.0195 0.0000 11.2550 0.0000
# 3 49.3118 42.0195 49.6086 0.0000 7.5884 0.0000
# 4 0.0000 0.0000 0.0000 36.5597 0.0000 1.7526
# 5 16.8584 11.2550 7.5884 0.0000 33.4630 0.0000
# 6 0.0000 0.0000 0.0000 1.7526 0.0000 39.0292
#
#
#
# Elastic Compliance Matrix: (Units=1/GPa)
#
#
# Indices 1 2 3 4 5 6 
#
# 1 0.010667 -0.001836 -0.008620 0.000000 -0.002802 0.000000
# 2 -0.001836 0.007493 -0.004431 0.000000 -0.000590 0.000000
# 3 -0.008620 -0.004431 0.032722 0.000000 -0.001587 0.000000
# 4 0.000000 0.000000 0.000000 0.027412 0.000000 -0.001231
# 5 -0.002802 -0.000590 -0.001587 0.000000 0.031854 0.000000
# 6 0.000000 0.000000 0.000000 -0.001231 0.000000 0.025677
#
#
# Mechanical properties :
#
#
# Convention : Reuss Voigt Hill
#
# Bulk Modulus (GPa) = 47.37479 76.86491 62.11985
# Shear Modulus (GPa) = 28.96282 36.23419 32.59851
#
# Velocity S-wave (km/s) = 3.60468 4.03187 3.82424
# Velocity P-wave (km/s) = 6.21120 7.49393 6.88251
#
# Compressibility (1/GPa) = 0.02110827
#
# Stress axis : x y z
#
# Youngs Moduli (GPa) = 93.74435 133.45815 30.56039
#
# Poissons Ratio (x) = 0.24505 0.26342
# Poissons Ratio (y) = 0.17213 0.13542
# Poissons Ratio (z) = 0.80804 0.59139
#
# Static dielectric constant tensor:
#      x y z
#    x 4.042660 0.000000 -0.192370 
#    y 0.000000 4.288000 0.000000 
#    z -0.192370 0.000000 3.769910 
# 
# 
# High freq. dielectric constant tensor:
#      x y z
#    x 1.887350 0.000000 -0.008190 
#    y 0.000000 1.898760 0.000000 
#    z -0.008190 0.000000 1.842430 
# 
# From -- ./inp_files/9746.got.cif
#   From: 2010.06.25/outbox.cif.g09.slc.cpg/sg9_5_cif.got.tgz:9746.got - 2010.06.27 21:40:51.
