data_PCOD8056423
_publ_section_title
;
Structure prediction by ZEFSAII (Michael W. Deem and Ramdas Pophale) SiO2 
 PCOD8056423
Probable space group: C C
;
_chemical_formula_sum "Si O2"
_cell_formula_units_Z 32
_cell_length_a 18.972072
_cell_length_b 10.875403
_cell_length_c 10.873696
_cell_angle_alpha 90.000000
_cell_angle_beta 140.814445
_cell_angle_gamma 90.000000
_cell_volume 1417.556051
_symmetry_space_group_name_H-M "C C"
_symmetry_group_IT_number 9
_symmetry_cell_setting 'monoclinic'
loop_
_space_group_symop_operation_xyz
x,y,z
x,-y,1/2+z
1/2+x,1/2+y,z
1/2+x,1/2-y,1/2+z
loop_
_atom_site_type_symbol
_atom_site_label
_atom_site_fract_x
_atom_site_fract_y
_atom_site_fract_z
Si Si1 0.995020 0.598579 0.018810
Si Si2 0.765209 0.882595 0.584571
Si Si3 0.124620 0.173076 0.770662
Si Si4 0.467685 0.532349 0.969738
Si Si5 0.178182 0.102380 0.100008
Si Si6 0.864347 0.753669 0.491259
Si Si7 0.255868 0.843814 0.219252
Si Si8 0.028317 0.556671 0.791814
O O1 0.092078 0.695885 0.170881
O O2 0.966050 0.523710 0.104016
O O3 0.882790 0.675526 0.850459
O O4 0.015532 0.519126 0.920051
O O5 0.872612 0.963497 0.762917
O O6 0.786424 0.812435 0.487911
O O7 0.710540 0.786443 0.609513
O O8 0.655774 0.966035 0.420124
O O9 0.229824 0.134010 0.828488
O O10 0.026420 0.071105 0.633386
O O11 0.161970 0.190357 0.960832
O O12 0.406656 0.637461 0.962603
O O13 0.561540 0.599602 0.015050
O O14 0.284578 0.154958 0.316358
O O15 0.205249 0.965149 0.084852
O O16 0.973537 0.691613 0.700267
#
# Coordination Sequence:
#
# PCOD8056423 Si02
#       8
#     4   4   4   4   4   4   4   4
#     4  12  26  47  72 105 146 188 241 296 362 425
#     4  12  26  46  74  99 147 185 241 290 360 424
#     4  11  25  45  73 101 143 186 240 293 359 431
#     4  11  26  47  71 108 139 192 235 293 362 429
#     4  11  27  45  74 108 139 189 239 301 355 434
#     4  12  26  47  73 104 141 188 240 298 359 426
#     4  11  24  45  72 102 136 187 238 290 358 420
#     4  12  28  46  73 107 147 191 236 301 361 425
#
# _framework density 22.574064
#
# number of rings (size 3 to 8) (size 9 to 14) (size 15 to 20)
#    0.000    0.500    5.000    1.500   12.250    2.000 
#    0.000    0.000    0.000    0.000    0.000    0.000 
#    0.000    0.000    0.000    0.000    0.000    0.000 
#
# Total GULP energy -198274.769248 kJ/mol
# GULP energy per Si atom -12392.173078 kJ/mol
# Density = 2.252268 g / cm^3
# Si number density = 22.574064 Si / 1000 Ang^3
#
#
#
# Elastic Constant Matrix: (Units=GPa)
#
#
# Indices 1 2 3 4 5 6 
#
# 1 125.8413 39.4555 48.4690 0.0000 -5.8009 0.0000
# 2 39.4555 73.7926 12.1246 0.0000 -7.4295 0.0000
# 3 48.4690 12.1246 96.2279 0.0000 2.0390 0.0000
# 4 0.0000 0.0000 0.0000 26.6787 0.0000 3.2466
# 5 -5.8009 -7.4295 2.0390 0.0000 44.9058 0.0000
# 6 0.0000 0.0000 0.0000 3.2466 0.0000 38.1603
#
#
#
# Elastic Compliance Matrix: (Units=1/GPa)
#
#
# Indices 1 2 3 4 5 6 
#
# 1 0.011656 -0.005287 -0.005223 0.000000 0.000868 0.000000
# 2 -0.005287 0.016493 0.000542 0.000000 0.002021 0.000000
# 3 -0.005223 0.000542 0.012979 0.000000 -0.001174 0.000000
# 4 0.000000 0.000000 0.000000 0.037875 0.000000 -0.003222
# 5 0.000868 0.002021 -0.001174 0.000000 0.022769 0.000000
# 6 0.000000 0.000000 0.000000 -0.003222 0.000000 0.026479
#
#
# Mechanical properties :
#
#
# Convention : Reuss Voigt Hill
#
# Bulk Modulus (GPa) = 47.18724 55.10667 51.14696
# Shear Modulus (GPa) = 32.20593 35.00314 33.60454
#
# Velocity S-wave (km/s) = 3.78124 3.94203 3.86247
# Velocity P-wave (km/s) = 6.32553 6.72190 6.52672
#
# Compressibility (1/GPa) = 0.02119217
#
# Stress axis : x y z
#
# Youngs Moduli (GPa) = 85.79413 60.63346 77.04468
#
# Poissons Ratio (x) = 0.32054 0.40242
# Poissons Ratio (y) = 0.45355 -0.04175
# Poissons Ratio (z) = 0.44812 -0.03286
#
# Static dielectric constant tensor:
#      x y z
#    x 4.081650 0.000000 0.051210 
#    y 0.000000 3.963040 0.000000 
#    z 0.051210 0.000000 4.029220 
# 
# 
# High freq. dielectric constant tensor:
#      x y z
#    x 1.902860 0.000000 0.009200 
#    y 0.000000 1.885180 0.000000 
#    z 0.009200 0.000000 1.894300 
# 
# From -- ./inp_files/19321.got.cif
#   From: 2010.06.25/outbox.cif.g09.slc.cpg/sg9_10_cif.got.tgz:19321.got - 2010.06.27 21:40:51.
