data_PCOD8056140
_publ_section_title
;
Structure prediction by ZEFSAII (Michael W. Deem and Ramdas Pophale) SiO2 
 PCOD8056140
Probable space group: C C
;
_chemical_formula_sum "Si O2"
_cell_formula_units_Z 32
_cell_length_a 12.075339
_cell_length_b 9.695667
_cell_length_c 16.020784
_cell_angle_alpha 90.000000
_cell_angle_beta 52.569249
_cell_angle_gamma 90.000000
_cell_volume 1489.462960
_symmetry_space_group_name_H-M "C C"
_symmetry_group_IT_number 9
_symmetry_cell_setting 'monoclinic'
loop_
_space_group_symop_operation_xyz
x,y,z
x,-y,1/2+z
1/2+x,1/2+y,z
1/2+x,1/2-y,1/2+z
loop_
_atom_site_type_symbol
_atom_site_label
_atom_site_fract_x
_atom_site_fract_y
_atom_site_fract_z
Si Si1 0.404360 0.024886 0.868260
Si Si2 0.685350 0.399147 0.722144
Si Si3 0.627752 0.478397 0.564835
Si Si4 0.120866 0.308328 0.996132
Si Si5 0.367166 0.357462 0.150557
Si Si6 0.414383 0.692580 0.439197
Si Si7 0.851846 0.359559 0.211297
Si Si8 0.672868 0.902471 0.790654
O O1 0.439589 0.142075 0.922072
O O2 0.365647 0.110579 0.802916
O O3 0.531456 0.916094 0.798324
O O4 0.267269 0.945534 0.966241
O O5 0.654212 0.391196 0.637721
O O6 0.809211 0.295685 0.694936
O O7 0.542723 0.380406 0.836166
O O8 0.736593 0.549342 0.720158
O O9 0.591808 0.357116 0.514420
O O10 0.510280 0.595970 0.631108
O O11 0.272214 0.350932 0.959294
O O12 0.108487 0.369685 0.909858
O O13 0.003123 0.384836 0.103592
O O14 0.245061 0.451580 0.242893
O O15 0.402202 0.368368 0.037206
O O16 0.791797 0.208665 0.215933
#
# Coordination Sequence:
#
# PCOD8056140 Si02
#       8
#     4   4   4   4   4   4   4   4
#     4  11  22  44  69 100 143 183 236 289 351 426
#     4  12  25  43  68 102 141 182 233 293 359 414
#     4  11  22  44  69 100 143 183 236 289 351 426
#     4  11  22  41  70  97 131 188 232 282 348 421
#     4  12  24  42  72 102 135 185 239 287 349 427
#     4  11  22  41  70  97 131 188 232 282 348 421
#     4  12  25  43  68 102 141 182 233 293 359 414
#     4  12  24  42  72 102 135 185 239 287 349 427
#
# _framework density 21.484252000000001
#
# number of rings (size 3 to 8) (size 9 to 14) (size 15 to 20)
#    0.000    0.500    7.500    3.750    0.000    1.000 
#    0.000    1.250    0.000    0.000    0.000    0.000 
#    0.000    0.000    0.000    0.000    0.000    0.000 
#
# Total GULP energy -198273.891005 kJ/mol
# GULP energy per Si atom -12392.118188 kJ/mol
# Density = 2.143535 g / cm^3
# Si number density = 21.484252 Si / 1000 Ang^3
#
#
#
# Elastic Constant Matrix: (Units=GPa)
#
#
# Indices 1 2 3 4 5 6 
#
# 1 101.4312 31.6050 25.8938 0.0000 -28.3846 0.0000
# 2 31.6050 53.9993 17.9778 0.0000 4.8895 0.0000
# 3 25.8938 17.9778 104.0793 0.0000 -21.1098 0.0000
# 4 0.0000 0.0000 0.0000 30.5156 0.0000 -5.9309
# 5 -28.3846 4.8895 -21.1098 0.0000 45.4890 0.0000
# 6 0.0000 0.0000 0.0000 -5.9309 0.0000 39.3915
#
#
#
# Elastic Compliance Matrix: (Units=1/GPa)
#
#
# Indices 1 2 3 4 5 6 
#
# 1 0.016325 -0.010608 0.000075 0.000000 0.011362 0.000000
# 2 -0.010608 0.027250 -0.004420 0.000000 -0.011600 0.000000
# 3 0.000075 -0.004420 0.011545 0.000000 0.005880 0.000000
# 4 0.000000 0.000000 0.000000 0.033758 0.000000 0.005083
# 5 0.011362 -0.011600 0.005880 0.000000 0.033048 0.000000
# 6 0.000000 0.000000 0.000000 0.005083 0.000000 0.026151
#
#
# Mechanical properties :
#
#
# Convention : Reuss Voigt Hill
#
# Bulk Modulus (GPa) = 39.66199 45.60700 42.63449
# Shear Modulus (GPa) = 26.82573 35.34810 31.08691
#
# Velocity S-wave (km/s) = 3.53742 4.06063 3.80802
# Velocity P-wave (km/s) = 5.93174 6.57717 6.26277
#
# Compressibility (1/GPa) = 0.02521306
#
# Stress axis : x y z
#
# Youngs Moduli (GPa) = 61.25754 36.69778 86.61428
#
# Poissons Ratio (x) = 0.38930 -0.00653
# Poissons Ratio (y) = 0.64984 0.38287
# Poissons Ratio (z) = -0.00462 0.16222
#
# Static dielectric constant tensor:
#      x y z
#    x 3.994550 0.000000 -0.254250 
#    y 0.000000 3.660880 0.000000 
#    z -0.254250 0.000000 4.120420 
# 
# 
# High freq. dielectric constant tensor:
#      x y z
#    x 1.842470 0.000000 -0.025910 
#    y 0.000000 1.819110 0.000000 
#    z -0.025910 0.000000 1.865300 
# 
# From -- ./inp_files/24337.got.cif
#   From: 2010.06.25/outbox.cif.g09.slc.cpg/sg9_13_cif.got.tgz:24337.got - 2010.06.27 21:40:51.
