data_PCOD8056002
_publ_section_title
;
Structure prediction by ZEFSAII (Michael W. Deem and Ramdas Pophale) SiO2 
 PCOD8056002
Probable space group: C C
;
_chemical_formula_sum "Si O2"
_cell_formula_units_Z 32
_cell_length_a 20.245030
_cell_length_b 6.897279
_cell_length_c 11.420564
_cell_angle_alpha 90.000000
_cell_angle_beta 60.600507
_cell_angle_gamma 90.000000
_cell_volume 1389.346871
_symmetry_space_group_name_H-M "C C"
_symmetry_group_IT_number 9
_symmetry_cell_setting 'monoclinic'
loop_
_space_group_symop_operation_xyz
x,y,z
x,-y,1/2+z
1/2+x,1/2+y,z
1/2+x,1/2-y,1/2+z
loop_
_atom_site_type_symbol
_atom_site_label
_atom_site_fract_x
_atom_site_fract_y
_atom_site_fract_z
Si Si1 0.799160 0.272921 0.264260
Si Si2 0.339668 0.825955 0.657747
Si Si3 0.051656 0.919957 0.252693
Si Si4 0.570201 0.130640 0.445247
Si Si5 0.213863 0.436028 0.225253
Si Si6 0.919767 0.765169 0.851098
Si Si7 0.167572 0.199327 0.052845
Si Si8 0.972716 0.602697 0.184641
O O1 0.830857 0.443351 0.155668
O O2 0.867119 0.184323 0.284248
O O3 0.733458 0.361008 0.405530
O O4 0.766611 0.124034 0.197157
O O5 0.257287 0.734177 0.757910
O O6 0.368113 0.736308 0.511165
O O7 0.396397 0.780625 0.716394
O O8 0.053838 0.810658 0.374931
O O9 0.036256 0.755517 0.168881
O O10 0.134144 0.017855 0.156928
O O11 0.984621 0.075632 0.312425
O O12 0.595597 0.218357 0.546946
O O13 0.630966 0.976118 0.346694
O O14 0.496491 0.004693 0.542330
O O15 0.202955 0.370717 0.100916
O O16 0.957425 0.552536 0.801173
#
# Coordination Sequence:
#
# PCOD8056002 Si02
#       8
#     4   4   4   4   4   4   4   4
#     4  10  25  48  70 107 143 191 235 296 360 422
#     4  11  25  44  77 102 145 186 235 296 352 431
#     4  12  27  44  77 102 144 195 230 307 357 417
#     4  11  26  45  73 105 143 189 240 293 361 427
#     4  11  25  46  69 103 144 187 239 297 344 429
#     4  11  24  48  72 110 143 182 248 285 361 435
#     4  11  25  46  69 105 142 189 246 283 360 431
#     4  11  25  47  69 110 140 191 235 297 359 430
#
# _framework density 23.032404
#
# number of rings (size 3 to 8) (size 9 to 14) (size 15 to 20)
#    0.000    1.000    2.500    2.250    8.750    3.000 
#    9.000    0.000    0.000    0.000    0.000    0.000 
#    0.000    0.000    0.000    0.000    0.000    0.000 
#
# Total GULP energy -198359.177164 kJ/mol
# GULP energy per Si atom -12397.448573 kJ/mol
# Density = 2.297998 g / cm^3
# Si number density = 23.032404 Si / 1000 Ang^3
#
#
#
# Elastic Constant Matrix: (Units=GPa)
#
#
# Indices 1 2 3 4 5 6 
#
# 1 127.0945 61.2541 32.8867 0.0000 5.6050 0.0000
# 2 61.2541 105.6045 49.2195 0.0000 4.2076 0.0001
# 3 32.8867 49.2195 82.1357 0.0000 -0.2555 0.0000
# 4 0.0000 0.0000 0.0000 37.4460 0.0000 -2.9946
# 5 5.6050 4.2076 -0.2555 0.0000 29.0094 0.0000
# 6 0.0000 0.0001 0.0000 -2.9946 0.0000 54.6226
#
#
#
# Elastic Compliance Matrix: (Units=1/GPa)
#
#
# Indices 1 2 3 4 5 6 
#
# 1 0.011006 -0.005935 -0.000854 0.000000 -0.001273 0.000000
# 2 -0.005935 0.016453 -0.007487 0.000000 -0.001306 0.000000
# 3 -0.000854 -0.007487 0.017008 0.000000 0.001401 0.000000
# 4 0.000000 0.000000 0.000000 0.026823 0.000000 0.001471
# 5 -0.001273 -0.001306 0.001401 0.000000 0.034919 0.000000
# 6 0.000000 0.000000 0.000000 0.001471 0.000000 0.018388
#
#
# Mechanical properties :
#
#
# Convention : Reuss Voigt Hill
#
# Bulk Modulus (GPa) = 62.83616 66.83947 64.83782
# Shear Modulus (GPa) = 31.55474 35.64723 33.60098
#
# Velocity S-wave (km/s) = 3.70539 3.93835 3.82364
# Velocity P-wave (km/s) = 6.75628 7.05433 6.90691
#
# Compressibility (1/GPa) = 0.01591440
#
# Stress axis : x y z
#
# Youngs Moduli (GPa) = 90.86237 60.77774 58.79542
#
# Poissons Ratio (x) = 0.36070 0.05022
# Poissons Ratio (y) = 0.53925 0.44023
# Poissons Ratio (z) = 0.07761 0.45507
#
# Static dielectric constant tensor:
#      x y z
#    x 4.443620 0.000000 -0.050880 
#    y 0.000000 4.125640 0.000000 
#    z -0.050880 0.000000 3.960970 
# 
# 
# High freq. dielectric constant tensor:
#      x y z
#    x 1.934220 0.000000 -0.003390 
#    y 0.000000 1.905590 0.000000 
#    z -0.003390 0.000000 1.896650 
# 
# From -- ./inp_files/19812.got.cif
#   From: 2010.06.25/outbox.cif.g09.slc.cpg/sg9_10_cif.got.tgz:19812.got - 2010.06.27 21:40:51.
