data_PCOD8056633
_publ_section_title
;
Structure prediction by ZEFSAII (Michael W. Deem and Ramdas Pophale) SiO2 
 PCOD8056633
Probable space group: C C
;
_chemical_formula_sum "Si O2"
_cell_formula_units_Z 28
_cell_length_a 8.036351
_cell_length_b 21.568367
_cell_length_c 11.418355
_cell_angle_alpha 90.000000
_cell_angle_beta 139.052819
_cell_angle_gamma 90.000000
_cell_volume 1297.064664
_symmetry_space_group_name_H-M "C C"
_symmetry_group_IT_number 9
_symmetry_cell_setting 'monoclinic'
loop_
_space_group_symop_operation_xyz
x,y,z
x,-y,1/2+z
1/2+x,1/2+y,z
1/2+x,1/2-y,1/2+z
loop_
_atom_site_type_symbol
_atom_site_label
_atom_site_fract_x
_atom_site_fract_y
_atom_site_fract_z
Si Si1 0.666110 0.269846 0.669010
Si Si2 0.645945 0.169567 0.495130
Si Si3 0.918885 0.287640 0.257323
Si Si4 0.918248 0.832646 0.909669
Si Si5 0.019784 0.053751 0.297702
Si Si6 0.329435 0.621655 0.974041
Si Si7 0.617667 0.053396 0.637607
O O1 0.803624 0.223164 0.648908
O O2 0.486060 0.228587 0.657928
O O3 0.521558 0.326138 0.523946
O O4 0.863152 0.302737 0.861117
O O5 0.689612 0.161762 0.380320
O O6 0.669712 0.103254 0.565597
O O7 0.876626 0.226487 0.308139
O O8 0.116998 0.335081 0.423921
O O9 0.661824 0.326427 0.121214
O O10 0.942682 0.893207 0.845790
O O11 0.317126 0.033210 0.473968
O O12 0.816554 0.000329 0.214742
O O13 0.976311 0.077070 0.142023
O O14 0.191119 0.580715 0.802637
#
# Coordination Sequence:
#
# PCOD8056633 Si02
#       7
#     4   4   4   4   4   4   4
#     4  12  20  41  73 104 140 182 229 287 362 430
#     4  12  24  41  69 111 146 177 233 301 360 425
#     4  12  20  41  73 104 140 182 229 287 362 430
#     4  12  24  41  69 111 146 177 233 301 360 425
#     4  12  28  49  73 102 141 198 246 291 352 428
#     4  12  24  44  80 100 136 186 240 284 358 428
#     4  12  28  49  73 102 141 198 246 291 352 428
#
# _framework density 21.587205000000001
#
# number of rings (size 3 to 8) (size 9 to 14) (size 15 to 20)
#    0.000    0.000    8.571    0.857    2.000    3.429 
#    0.000    1.429    0.000    0.000    0.000    0.000 
#    0.000    0.000    0.000    0.000    0.000    0.000 
#
# Total GULP energy -173506.680696 kJ/mol
# GULP energy per Si atom -12393.334335 kJ/mol
# Density = 2.153807 g / cm^3
# Si number density = 21.587205 Si / 1000 Ang^3
#
#
#
# Elastic Constant Matrix: (Units=GPa)
#
#
# Indices 1 2 3 4 5 6 
#
# 1 95.7473 50.2105 36.7930 0.0000 -7.6903 0.0000
# 2 50.2105 138.3921 55.1105 0.0000 8.4827 0.0000
# 3 36.7930 55.1105 113.0439 0.0000 7.0266 0.0000
# 4 0.0000 0.0000 0.0000 29.2967 0.0000 7.0984
# 5 -7.6903 8.4827 7.0266 0.0000 28.7651 0.0000
# 6 0.0000 0.0000 0.0000 7.0984 0.0000 22.8843
#
#
#
# Elastic Compliance Matrix: (Units=1/GPa)
#
#
# Indices 1 2 3 4 5 6 
#
# 1 0.014332 -0.004412 -0.002876 0.000000 0.005835 0.000000
# 2 -0.004412 0.010398 -0.003421 0.000000 -0.003410 0.000000
# 3 -0.002876 -0.003421 0.011612 0.000000 -0.002597 0.000000
# 4 0.000000 0.000000 0.000000 0.036907 0.000000 -0.011448
# 5 0.005835 -0.003410 -0.002597 0.000000 0.037964 0.000000
# 6 0.000000 0.000000 0.000000 -0.011448 0.000000 0.047249
#
#
# Mechanical properties :
#
#
# Convention : Reuss Voigt Hill
#
# Bulk Modulus (GPa) = 67.01452 70.15681 68.58566
# Shear Modulus (GPa) = 27.04812 29.86051 28.45431
#
# Velocity S-wave (km/s) = 3.54357 3.72324 3.63452
# Velocity P-wave (km/s) = 6.91763 7.14515 7.03231
#
# Compressibility (1/GPa) = 0.01492214
#
# Stress axis : x y z
#
# Youngs Moduli (GPa) = 69.77459 96.17239 86.12063
#
# Poissons Ratio (x) = 0.42431 0.24772
# Poissons Ratio (y) = 0.30785 0.29464
# Poissons Ratio (z) = 0.20070 0.32903
#
# Static dielectric constant tensor:
#      x y z
#    x 3.705360 0.000000 0.188600 
#    y 0.000000 4.040710 0.000000 
#    z 0.188600 0.000000 4.299070 
# 
# 
# High freq. dielectric constant tensor:
#      x y z
#    x 1.828410 0.000000 0.002310 
#    y 0.000000 1.851170 0.000000 
#    z 0.002310 0.000000 1.869840 
# 
# From -- ./inp_files/15383.got.cif
#   From: 2010.06.25/outbox.cif.g09.slc.cpg/sg9_8_cif.got.tgz:15383.got - 2010.06.27 21:40:51.
