data_PCOD8056513
_publ_section_title
;
Structure prediction by ZEFSAII (Michael W. Deem and Ramdas Pophale) SiO2 
 PCOD8056513
Probable space group: C C
;
_chemical_formula_sum "Si O2"
_cell_formula_units_Z 32
_cell_length_a 14.870413
_cell_length_b 11.913980
_cell_length_c 13.149311
_cell_angle_alpha 90.000000
_cell_angle_beta 36.085750
_cell_angle_gamma 90.000000
_cell_volume 1372.128503
_symmetry_space_group_name_H-M "C C"
_symmetry_group_IT_number 9
_symmetry_cell_setting 'monoclinic'
loop_
_space_group_symop_operation_xyz
x,y,z
x,-y,1/2+z
1/2+x,1/2+y,z
1/2+x,1/2-y,1/2+z
loop_
_atom_site_type_symbol
_atom_site_label
_atom_site_fract_x
_atom_site_fract_y
_atom_site_fract_z
Si Si1 0.705910 0.116707 0.242630
Si Si2 0.511412 0.623749 0.184355
Si Si3 0.545140 0.747874 0.565856
Si Si4 0.194100 0.658991 0.559404
Si Si5 0.998344 0.447635 0.748999
Si Si6 0.266384 0.629745 0.723004
Si Si7 0.168430 0.085179 0.617234
Si Si8 0.042976 0.825794 0.435518
O O1 0.618229 0.104149 0.217237
O O2 0.603015 0.199826 0.406138
O O3 0.727786 0.000158 0.283628
O O4 0.866233 0.174262 0.063864
O O5 0.331276 0.654268 0.351876
O O6 0.613167 0.721726 0.138584
O O7 0.540869 0.509831 0.218089
O O8 0.559542 0.602705 0.023315
O O9 0.473451 0.860919 0.679240
O O10 0.423330 0.659591 0.635127
O O11 0.640619 0.785770 0.380919
O O12 0.646718 0.687393 0.558674
O O13 0.065745 0.566310 0.649938
O O14 0.276121 0.640456 0.593010
O O15 0.835789 0.468477 0.951346
O O16 0.150208 0.125420 0.749437
#
# Coordination Sequence:
#
# PCOD8056513 Si02
#       8
#     4   4   4   4   4   4   4   4
#     4  11  25  47  72 108 149 200 248 321 378 450
#     4  12  27  47  76 106 152 204 255 312 391 457
#     4  12  25  44  75 109 146 192 248 306 379 456
#     4  11  26  50  73 108 154 199 258 318 377 461
#     4  11  25  45  72 107 148 195 245 317 373 445
#     4  11  26  47  75 109 150 199 247 313 391 451
#     4  12  26  47  73 111 153 192 257 317 384 455
#     4  12  26  45  74 108 148 201 254 312 387 459
#
# _framework density 23.321431
#
# number of rings (size 3 to 8) (size 9 to 14) (size 15 to 20)
#    0.000    0.500    2.500    5.250    7.000    2.000 
#    4.500    0.000    0.000    0.000    0.000    0.000 
#    0.000    0.000    0.000    0.000    0.000    0.000 
#
# Total GULP energy -198480.945033 kJ/mol
# GULP energy per Si atom -12405.059065 kJ/mol
# Density = 2.326835 g / cm^3
# Si number density = 23.321431 Si / 1000 Ang^3
#
#
#
# Elastic Constant Matrix: (Units=GPa)
#
#
# Indices 1 2 3 4 5 6 
#
# 1 87.0769 36.7069 37.3391 0.0000 -1.8116 0.0000
# 2 36.7069 130.9872 46.3708 0.0000 -0.2367 0.0000
# 3 37.3391 46.3708 129.9351 0.0001 -8.5813 0.0000
# 4 0.0000 0.0000 0.0001 41.2428 0.0000 -7.3763
# 5 -1.8116 -0.2367 -8.5813 0.0000 42.8098 0.0000
# 6 0.0000 0.0000 0.0000 -7.3763 0.0000 45.8759
#
#
#
# Elastic Compliance Matrix: (Units=1/GPa)
#
#
# Indices 1 2 3 4 5 6 
#
# 1 0.013972 -0.002854 -0.002998 0.000000 -0.000026 0.000000
# 2 -0.002854 0.009336 -0.002550 0.000000 -0.000580 0.000000
# 3 -0.002998 -0.002550 0.009585 0.000000 0.001780 0.000000
# 4 0.000000 0.000000 0.000000 0.024965 0.000000 0.004014
# 5 -0.000026 -0.000580 0.001780 0.000000 0.023712 0.000000
# 6 0.000000 0.000000 0.000000 0.004014 0.000000 0.022443
#
#
# Mechanical properties :
#
#
# Convention : Reuss Voigt Hill
#
# Bulk Modulus (GPa) = 62.15468 65.42587 63.79028
# Shear Modulus (GPa) = 39.62569 41.15787 40.39178
#
# Velocity S-wave (km/s) = 4.12650 4.20552 4.16620
# Velocity P-wave (km/s) = 7.02945 7.19004 7.11020
#
# Compressibility (1/GPa) = 0.01608889
#
# Stress axis : x y z
#
# Youngs Moduli (GPa) = 71.56957 107.11470 104.32596
#
# Poissons Ratio (x) = 0.30572 0.31280
# Poissons Ratio (y) = 0.20427 0.26602
# Poissons Ratio (z) = 0.21459 0.27313
#
# Static dielectric constant tensor:
#      x y z
#    x 4.058640 0.000000 -0.063630 
#    y 0.000000 4.380610 0.000000 
#    z -0.063630 0.000000 4.167900 
# 
# 
# High freq. dielectric constant tensor:
#      x y z
#    x 1.927450 0.000000 -0.000770 
#    y 0.000000 1.932000 0.000000 
#    z -0.000770 0.000000 1.924820 
# 
# From -- ./inp_files/9240.got.cif
#   From: 2010.06.25/outbox.cif.g09.slc.cpg/sg9_5_cif.got.tgz:9240.got - 2010.06.27 21:40:51.
