data_PCOD8056199
_publ_section_title
;
Structure prediction by ZEFSAII (Michael W. Deem and Ramdas Pophale) SiO2 
 PCOD8056199
Probable space group: C C
;
_chemical_formula_sum "Si O2"
_cell_formula_units_Z 32
_cell_length_a 15.822883
_cell_length_b 8.390240
_cell_length_c 13.555346
_cell_angle_alpha 90.000000
_cell_angle_beta 55.087413
_cell_angle_gamma 90.000000
_cell_volume 1475.700817
_symmetry_space_group_name_H-M "C C"
_symmetry_group_IT_number 9
_symmetry_cell_setting 'monoclinic'
loop_
_space_group_symop_operation_xyz
x,y,z
x,-y,1/2+z
1/2+x,1/2+y,z
1/2+x,1/2-y,1/2+z
loop_
_atom_site_type_symbol
_atom_site_label
_atom_site_fract_x
_atom_site_fract_y
_atom_site_fract_z
Si Si1 0.058080 0.528282 0.326870
Si Si2 0.353757 0.412301 0.459078
Si Si3 0.971673 0.236143 0.721083
Si Si4 0.575945 0.355856 0.391836
Si Si5 0.628700 0.459588 0.570606
Si Si6 0.218873 0.674899 0.613511
Si Si7 0.757641 0.631690 0.622036
Si Si8 0.401905 0.118719 0.066857
O O1 0.072662 0.662349 0.403160
O O2 0.162483 0.437817 0.230129
O O3 0.020510 0.626086 0.256097
O O4 0.979306 0.394116 0.421538
O O5 0.366526 0.323665 0.344894
O O6 0.465993 0.433500 0.435419
O O7 0.289265 0.574831 0.488297
O O8 0.282245 0.313465 0.582502
O O9 0.959761 0.315370 0.623191
O O10 0.038142 0.074734 0.668935
O O11 0.618238 0.438512 0.461223
O O12 0.655307 0.396376 0.252614
O O13 0.631815 0.282347 0.617493
O O14 0.737284 0.541304 0.530062
O O15 0.301507 0.775191 0.618514
O O16 0.856845 0.559707 0.612335
#
# Coordination Sequence:
#
# PCOD8056199 Si02
#       8
#     4   4   4   4   4   4   4   4
#     4  11  24  48  68  98 142 178 230 285 341 410
#     4  11  22  46  68  97 142 181 225 285 344 409
#     4  11  24  46  74  97 141 185 222 290 345 408
#     4  11  23  43  72  94 141 179 223 288 337 408
#     4  11  25  43  68 104 131 182 226 283 346 403
#     4  11  26  42  69 103 140 178 233 283 340 414
#     4  11  22  46  66 101 137 179 233 277 349 404
#     4  11  26  42  69 104 132 186 228 283 342 412
#
# _framework density 21.684612000000001
#
# number of rings (size 3 to 8) (size 9 to 14) (size 15 to 20)
#    0.000    1.000    6.250    0.750    5.250    3.000 
#    2.250    0.000    0.000    0.000    0.000    0.000 
#    0.000    0.000    0.000    0.000    0.000    0.000 
#
# Total GULP energy -198218.381795 kJ/mol
# GULP energy per Si atom -12388.648862 kJ/mol
# Density = 2.163526 g / cm^3
# Si number density = 21.684612 Si / 1000 Ang^3
#
#
#
# Elastic Constant Matrix: (Units=GPa)
#
#
# Indices 1 2 3 4 5 6 
#
# 1 97.5505 50.8660 63.9034 0.0000 7.6319 0.0000
# 2 50.8660 108.0495 55.9185 0.0000 0.4112 0.0000
# 3 63.9034 55.9185 123.8065 0.0000 -3.0082 0.0000
# 4 0.0000 0.0000 0.0000 50.1163 0.0000 -13.4331
# 5 7.6319 0.4112 -3.0082 0.0000 33.0670 0.0000
# 6 0.0000 0.0000 0.0000 -13.4331 0.0000 27.9611
#
#
#
# Elastic Compliance Matrix: (Units=1/GPa)
#
#
# Indices 1 2 3 4 5 6 
#
# 1 0.017726 -0.004611 -0.007181 0.000000 -0.004687 0.000000
# 2 -0.004611 0.013291 -0.003610 0.000000 0.000570 0.000000
# 3 -0.007181 -0.003610 0.013485 0.000000 0.002929 0.000000
# 4 0.000000 0.000000 0.000000 0.022903 0.000000 0.011003
# 5 -0.004687 0.000570 0.002929 0.000000 0.031583 0.000000
# 6 0.000000 0.000000 0.000000 0.011003 0.000000 0.041050
#
#
# Mechanical properties :
#
#
# Convention : Reuss Voigt Hill
#
# Bulk Modulus (GPa) = 72.99066 74.53136 73.76101
# Shear Modulus (GPa) = 28.50520 32.81012 30.65766
#
# Velocity S-wave (km/s) = 3.62959 3.89403 3.76413
# Velocity P-wave (km/s) = 7.16229 7.39345 7.27879
#
# Compressibility (1/GPa) = 0.01370038
#
# Stress axis : x y z
#
# Youngs Moduli (GPa) = 56.41456 75.23651 74.15672
#
# Poissons Ratio (x) = 0.34689 0.53250
# Poissons Ratio (y) = 0.26011 0.26767
# Poissons Ratio (z) = 0.40510 0.27157
#
# Static dielectric constant tensor:
#      x y z
#    x 3.938790 0.000000 -0.100920 
#    y 0.000000 4.313610 0.000000 
#    z -0.100920 0.000000 3.852360 
# 
# 
# High freq. dielectric constant tensor:
#      x y z
#    x 1.837830 0.000000 -0.016040 
#    y 0.000000 1.864580 0.000000 
#    z -0.016040 0.000000 1.848780 
# 
# From -- ./inp_files/26672.got.cif
#   From: 2010.06.25/outbox.cif.g09.slc.cpg/sg9_14_cif.got.tgz:26672.got - 2010.06.27 21:40:51.
