data_PCOD8056192
_publ_section_title
;
Structure prediction by ZEFSAII (Michael W. Deem and Ramdas Pophale) SiO2 
 PCOD8056192
Probable space group: C C
;
_chemical_formula_sum "Si O2"
_cell_formula_units_Z 32
_cell_length_a 8.224845
_cell_length_b 18.321019
_cell_length_c 9.517383
_cell_angle_alpha 90.000000
_cell_angle_beta 76.545417
_cell_angle_gamma 90.000000
_cell_volume 1394.790285
_symmetry_space_group_name_H-M "C C"
_symmetry_group_IT_number 9
_symmetry_cell_setting 'monoclinic'
loop_
_space_group_symop_operation_xyz
x,y,z
x,-y,1/2+z
1/2+x,1/2+y,z
1/2+x,1/2-y,1/2+z
loop_
_atom_site_type_symbol
_atom_site_label
_atom_site_fract_x
_atom_site_fract_y
_atom_site_fract_z
Si Si1 0.693280 0.624796 0.363680
Si Si2 0.967690 0.623792 0.849057
Si Si3 0.539133 0.128341 0.163048
Si Si4 0.153244 0.246404 0.156231
Si Si5 0.024341 0.211801 0.638931
Si Si6 0.589612 0.651359 0.915053
Si Si7 0.722296 0.995909 0.242104
Si Si8 0.444144 0.498889 0.961764
O O1 0.633205 0.671632 0.244506
O O2 0.650732 0.667152 0.515620
O O3 0.602872 0.546549 0.375926
O O4 0.891431 0.613436 0.306139
O O5 0.050028 0.693941 0.760777
O O6 0.055717 0.552416 0.768266
O O7 0.776659 0.625788 0.841714
O O8 0.978293 0.619582 0.015053
O O9 0.610205 0.210609 0.160552
O O10 0.685920 0.073880 0.176717
O O11 0.345233 0.272850 0.101758
O O12 0.084244 0.223130 0.016629
O O13 0.993617 0.169926 0.790536
O O14 0.495074 0.580862 0.993962
O O15 0.790382 0.003505 0.384469
O O16 0.870190 0.960446 0.117151
#
# Coordination Sequence:
#
# PCOD8056192 Si02
#       8
#     4   4   4   4   4   4   4   4
#     4  11  22  45  72 101 141 188 237 283 359 419
#     4  12  24  48  69 105 144 182 238 291 352 425
#     4  11  25  47  70 101 145 185 233 297 350 423
#     4  11  23  45  74 101 148 188 227 297 353 423
#     4  11  25  44  73 108 137 187 238 294 353 426
#     4  12  26  45  73 107 144 187 233 297 358 418
#     4  12  27  45  73  99 146 185 235 297 358 415
#     4  12  26  45  70 108 139 188 237 294 351 431
#
# _framework density 22.942515
#
# number of rings (size 3 to 8) (size 9 to 14) (size 15 to 20)
#    0.000    0.500    5.000    3.750    0.000    7.000 
#    4.500    0.000    0.000    0.000    0.000    0.000 
#    0.000    0.000    0.000    0.000    0.000    0.000 
#
# Total GULP energy -198409.351168 kJ/mol
# GULP energy per Si atom -12400.584448 kJ/mol
# Density = 2.289030 g / cm^3
# Si number density = 22.942515 Si / 1000 Ang^3
#
#
#
# Elastic Constant Matrix: (Units=GPa)
#
#
# Indices 1 2 3 4 5 6 
#
# 1 77.6180 37.4012 34.8909 0.0000 -4.7805 0.0000
# 2 37.4012 91.4506 21.4669 0.0000 -7.1200 0.0000
# 3 34.8909 21.4669 116.0577 0.0000 -13.0123 0.0000
# 4 0.0000 0.0000 0.0000 37.4538 0.0000 -4.7616
# 5 -4.7805 -7.1200 -13.0123 0.0000 35.8985 0.0000
# 6 0.0000 0.0000 0.0000 -4.7616 0.0000 33.0998
#
#
#
# Elastic Compliance Matrix: (Units=1/GPa)
#
#
# Indices 1 2 3 4 5 6 
#
# 1 0.017806 -0.006321 -0.004230 0.000000 -0.000416 0.000000
# 2 -0.006321 0.013760 -0.000452 0.000000 0.001724 0.000000
# 3 -0.004230 -0.000452 0.010318 0.000000 0.003087 0.000000
# 4 0.000000 0.000000 0.000000 0.027197 0.000000 0.003912
# 5 -0.000416 0.001724 0.003087 0.000000 0.029262 0.000000
# 6 0.000000 0.000000 0.000000 0.003912 0.000000 0.030774
#
#
# Mechanical properties :
#
#
# Convention : Reuss Voigt Hill
#
# Bulk Modulus (GPa) = 50.30892 52.51602 51.41247
# Shear Modulus (GPa) = 31.69579 34.04825 32.87202
#
# Velocity S-wave (km/s) = 3.72093 3.85654 3.78934
# Velocity P-wave (km/s) = 6.35895 6.53991 6.45007
#
# Compressibility (1/GPa) = 0.01987719
#
# Stress axis : x y z
#
# Youngs Moduli (GPa) = 56.16172 72.67231 96.91962
#
# Poissons Ratio (x) = 0.45940 0.41001
# Poissons Ratio (y) = 0.35503 0.04376
# Poissons Ratio (z) = 0.23759 0.03281
#
# Static dielectric constant tensor:
#      x y z
#    x 4.067280 0.000000 -0.264250 
#    y 0.000000 4.322430 0.000000 
#    z -0.264250 0.000000 4.199200 
# 
# 
# High freq. dielectric constant tensor:
#      x y z
#    x 1.898200 0.000000 -0.017150 
#    y 0.000000 1.915270 0.000000 
#    z -0.017150 0.000000 1.915920 
# 
# From -- ./inp_files/5742.got.cif
#   From: 2010.06.25/outbox.cif.g09.slc.cpg/sg9_3_cif.got.tgz:5742.got - 2010.06.27 21:40:51.
