data_PCOD8056786
_publ_section_title
;
Structure prediction by ZEFSAII (Michael W. Deem and Ramdas Pophale) SiO2 
 PCOD8056786
Probable space group: C C
;
_chemical_formula_sum "Si O2"
_cell_formula_units_Z 20
_cell_length_a 5.129072
_cell_length_b 18.847835
_cell_length_c 8.882384
_cell_angle_alpha 90.000000
_cell_angle_beta 56.522877
_cell_angle_gamma 90.000000
_cell_volume 716.227720
_symmetry_space_group_name_H-M "C C"
_symmetry_group_IT_number 9
_symmetry_cell_setting 'monoclinic'
loop_
_space_group_symop_operation_xyz
x,y,z
x,-y,1/2+z
1/2+x,1/2+y,z
1/2+x,1/2-y,1/2+z
loop_
_atom_site_type_symbol
_atom_site_label
_atom_site_fract_x
_atom_site_fract_y
_atom_site_fract_z
Si Si1 0.947280 0.657301 0.690860
Si Si2 0.575393 0.158337 0.970109
Si Si3 0.208533 0.456062 0.633157
Si Si4 0.793616 0.543069 0.542774
Si Si5 0.009976 0.792640 0.830142
O O1 0.693505 0.615121 0.668140
O O2 0.842252 0.738179 0.762582
O O3 0.266166 0.656731 0.490492
O O4 0.019699 0.616726 0.827636
O O5 0.809853 0.115524 0.006917
O O6 0.245942 0.157897 0.164999
O O7 0.678224 0.239816 0.900904
O O8 0.507215 0.490008 0.616867
O O9 0.062808 0.509297 0.559402
O O10 0.944174 0.434386 0.837272
#
# Coordination Sequence:
#
# PCOD8056786 Si02
#       5
#     4   4   4   4   4
#     4   9  19  43  79 118 163 199 270 321 408 469
#     4   9  19  43  79 118 163 199 270 321 408 469
#     4  12  28  50  77 112 161 214 269 326 393 471
#     4  12  28  50  77 112 161 214 269 326 393 471
#     4   8  18  40  86 118 160 208 254 332 404 478
#
# _framework density 27.92408
#
# number of rings (size 3 to 8) (size 9 to 14) (size 15 to 20)
#    1.200    0.800    0.000    2.400    5.600    0.000 
#    0.000    2.000    0.000    0.000    0.000    0.000 
#    0.000    0.000    0.000    0.000    0.000    0.000 
#
# Total GULP energy -123897.967083 kJ/mol
# GULP energy per Si atom -12389.796708 kJ/mol
# Density = 2.786052 g / cm^3
# Si number density = 27.924080 Si / 1000 Ang^3
#
#
#
# Elastic Constant Matrix: (Units=GPa)
#
#
# Indices 1 2 3 4 5 6 
#
# 1 110.5882 49.2360 40.8293 0.0000 9.0484 0.0000
# 2 49.2360 105.4781 36.6871 0.0000 24.2959 0.0000
# 3 40.8293 36.6871 210.6247 0.0000 7.0663 0.0000
# 4 0.0000 0.0000 0.0000 27.7462 0.0000 19.8829
# 5 9.0484 24.2959 7.0663 0.0000 25.9276 0.0000
# 6 0.0000 0.0000 0.0000 19.8829 0.0000 46.7231
#
#
#
# Elastic Compliance Matrix: (Units=1/GPa)
#
#
# Indices 1 2 3 4 5 6 
#
# 1 0.011828 -0.005317 -0.001408 0.000000 0.001238 0.000000
# 2 -0.005317 0.015148 -0.001205 0.000000 -0.012011 0.000000
# 3 -0.001408 -0.001205 0.005224 0.000000 0.000197 0.000000
# 4 0.000000 0.000000 0.000000 0.051854 0.000000 -0.022066
# 5 0.001238 -0.012011 0.000197 0.000000 0.049338 0.000000
# 6 0.000000 0.000000 0.000000 -0.022066 0.000000 0.030793
#
#
# Mechanical properties :
#
#
# Convention : Reuss Voigt Hill
#
# Bulk Modulus (GPa) = 61.19732 75.57732 68.38732
# Shear Modulus (GPa) = 26.95530 40.07526 33.51528
#
# Velocity S-wave (km/s) = 3.11031 3.79245 3.46819
# Velocity P-wave (km/s) = 5.90440 6.80448 6.37035
#
# Compressibility (1/GPa) = 0.01634059
#
# Stress axis : x y z
#
# Youngs Moduli (GPa) = 84.54298 66.01494 191.42165
#
# Poissons Ratio (x) = 0.35098 0.26959
# Poissons Ratio (y) = 0.44948 0.23065
# Poissons Ratio (z) = 0.11907 0.07955
#
# Static dielectric constant tensor:
#      x y z
#    x 4.513540 0.000000 0.398810 
#    y 0.000000 5.096290 0.000000 
#    z 0.398810 0.000000 5.709780 
# 
# 
# High freq. dielectric constant tensor:
#      x y z
#    x 2.085400 0.000000 0.010520 
#    y 0.000000 2.122990 0.000000 
#    z 0.010520 0.000000 2.166800 
# 
# From -- ./inp_files/3802.got.cif
#   From: 2010.06.25/outbox.cif.g09.slc.cpg/sg9_2_cif.got.tgz:3802.got - 2010.06.27 21:40:51.
