data_PCOD8056978
_publ_section_title
;
Structure prediction by ZEFSAII (Michael W. Deem and Ramdas Pophale) SiO2 
 PCOD8056978
Probable space group: P 2/M
;
_chemical_formula_sum "Si O2"
_cell_formula_units_Z 32
_cell_length_a 12.384494
_cell_length_b 9.025804
_cell_length_c 17.811750
_cell_angle_alpha 90.000000
_cell_angle_beta 87.392786
_cell_angle_gamma 90.000000
_cell_volume 1988.936710
_symmetry_space_group_name_H-M "P 2/M"
_symmetry_group_IT_number 10
_symmetry_cell_setting 'monoclinic'
loop_
_space_group_symop_operation_xyz
x,y,z
-x,y,-z
-x,-y,-z
x,-y,z
loop_
_atom_site_type_symbol
_atom_site_label
_atom_site_fract_x
_atom_site_fract_y
_atom_site_fract_z
Si Si1 0.727721 0.173620 0.920190
Si Si2 0.887341 0.328058 0.809200
Si Si3 0.142524 0.667016 0.804955
Si Si4 0.699016 0.827873 0.094174
Si Si5 0.513825 0.332910 0.910853
Si Si6 0.111797 0.329396 0.643485
Si Si7 0.871662 0.664312 0.516931
Si Si8 0.889428 0.173198 0.659620
O O1 0.832890 0.248854 0.881665
O O2 0.620331 0.241186 0.885243
O O3 0.728927 0.000000 0.904234
O O4 0.731672 0.210476 0.008191
O O5 0.857049 0.500000 0.810370
O O6 0.841026 0.256208 0.733874
O O7 0.015008 0.301992 0.812780
O O8 0.168602 0.500000 0.831074
O O9 0.202287 0.782457 0.855989
O O10 0.182305 0.690421 0.717062
O O11 0.591462 0.741050 0.123180
O O12 0.674551 0.000000 0.104396
O O13 0.525329 0.500000 0.880281
O O14 0.500000 0.328837 0.000000
O O15 0.065776 0.500000 0.643654
O O16 0.179880 0.299500 0.564298
O O17 0.014970 0.212648 0.649247
O O18 0.837984 0.500000 0.543748
O O19 0.831303 0.774729 0.583733
O O20 0.000000 0.675165 0.500000
O O21 0.871621 0.000000 0.670499
#
# Coordination Sequence:
#
# PCOD8056978 Si02
#       8
#     4   4   4   4   4   4   4   4
#     4  10  20  33  48  67  90 114 144 184 228 268
#     4  10  20  33  46  61  86 121 156 185 218 262
#     4   9  18  31  45  62  87 120 156 188 216 256
#     4  10  20  32  47  67  91 117 144 181 228 269
#     4   9  17  31  51  70  86 108 142 182 222 264
#     4   8  15  27  40  55  79 113 148 180 215 255
#     4   8  13  23  38  54  76 108 144 178 213 255
#     4  10  17  24  37  58  83 110 142 180 220 259
#
# _framework density 16.088999000000001
#
# number of rings (size 3 to 8) (size 9 to 14) (size 15 to 20)
#    0.000    2.750    0.000    4.125    0.000    8.250 
#    0.000    2.500    0.000    0.000    0.000    0.000 
#    0.000    1.000    0.000   10.750    0.000    6.750 
#
# Total GULP energy -396597.953162 kJ/mol
# GULP energy per Si atom -12393.686036 kJ/mol
# Density = 1.605238 g / cm^3
# Si number density = 16.088999 Si / 1000 Ang^3
#
#
#
# Elastic Constant Matrix: (Units=GPa)
#
#
# Indices 1 2 3 4 5 6 
#
# 1 44.1293 29.3775 35.4034 0.0000 6.7574 0.0000
# 2 29.3775 100.1142 51.4205 0.0000 7.2219 0.0000
# 3 35.4034 51.4205 93.4355 0.0000 10.4421 0.0000
# 4 0.0000 0.0000 0.0000 25.6011 0.0000 -0.2350
# 5 6.7574 7.2219 10.4421 0.0000 2.7199 0.0000
# 6 0.0000 0.0000 0.0000 -0.2350 0.0000 23.9360
#
#
#
# Elastic Compliance Matrix: (Units=1/GPa)
#
#
# Indices 1 2 3 4 5 6 
#
# 1 0.040128 -0.004122 -0.005285 0.000000 -0.068460 0.000000
# 2 -0.004122 0.014625 -0.005765 0.000000 -0.006459 0.000000
# 3 -0.005285 -0.005765 0.022243 0.000000 -0.056957 0.000000
# 4 0.000000 0.000000 0.000000 0.039064 0.000000 0.000384
# 5 -0.068460 -0.006459 -0.056957 0.000000 0.773570 0.000000
# 6 0.000000 0.000000 0.000000 0.000384 0.000000 0.041782
#
#
# Mechanical properties :
#
#
# Convention : Reuss Voigt Hill
#
# Bulk Modulus (GPa) = 21.43548 52.23131 36.83339
# Shear Modulus (GPa) = 5.11610 18.54991 11.83300
#
# Velocity S-wave (km/s) = 1.78515 3.39920 2.71490
# Velocity P-wave (km/s) = 4.19536 6.92391 5.72458
#
# Compressibility (1/GPa) = 0.04665163
#
# Stress axis : x y z
#
# Youngs Moduli (GPa) = 24.92016 68.37567 44.95745
#
# Poissons Ratio (x) = 0.28185 0.23762
# Poissons Ratio (y) = 0.10272 0.25917
# Poissons Ratio (z) = 0.13172 0.39418
#
# Static dielectric constant tensor:
#      x y z
#    x 2.634930 0.000000 0.031850 
#    y 0.000000 3.076400 0.000000 
#    z 0.031850 0.000000 3.378780 
# 
# 
# High freq. dielectric constant tensor:
#      x y z
#    x 1.558450 0.000000 0.003710 
#    y 0.000000 1.628540 0.000000 
#    z 0.003710 0.000000 1.620690 
# 
# From -- ./inp_files/52807.got.cif
#   From: 2010.06.25/outbox.cif.g09.slc.cpg/sg10_27_cif.got.tgz:52807.got - 2010.06.27 22:07:45.
