data_PCOD8056655
_publ_section_title
;
Structure prediction by ZEFSAII (Michael W. Deem and Ramdas Pophale) SiO2 
 PCOD8056655
Probable space group: C C
;
_chemical_formula_sum "Si O2"
_cell_formula_units_Z 32
_cell_length_a 28.718344
_cell_length_b 8.857549
_cell_length_c 8.160835
_cell_angle_alpha 90.000000
_cell_angle_beta 139.894288
_cell_angle_gamma 90.000000
_cell_volume 1337.298004
_symmetry_space_group_name_H-M "C C"
_symmetry_group_IT_number 9
_symmetry_cell_setting 'monoclinic'
loop_
_space_group_symop_operation_xyz
x,y,z
x,-y,1/2+z
1/2+x,1/2+y,z
1/2+x,1/2-y,1/2+z
loop_
_atom_site_type_symbol
_atom_site_label
_atom_site_fract_x
_atom_site_fract_y
_atom_site_fract_z
Si Si1 0.188330 0.315777 0.470930
Si Si2 0.344200 0.599069 0.437494
Si Si3 0.469361 0.916974 0.282909
Si Si4 0.124750 0.428045 0.624408
Si Si5 0.185527 0.176244 0.950897
Si Si6 0.622552 0.581958 0.106945
Si Si7 0.975786 0.731874 0.159917
Si Si8 0.341485 0.276987 0.297430
O O1 0.272386 0.335943 0.658467
O O2 0.175598 0.374134 0.617114
O O3 0.137244 0.396053 0.195374
O O4 0.161790 0.145009 0.378066
O O5 0.408255 0.657219 0.493992
O O6 0.342400 0.416355 0.428000
O O7 0.352441 0.656708 0.645267
O O8 0.541753 0.885091 0.372266
O O9 0.477593 0.852192 0.488782
O O10 0.465214 0.101227 0.270434
O O11 0.404653 0.839904 0.011298
O O12 0.156314 0.348184 0.873274
O O13 0.128805 0.095057 0.669264
O O14 0.178626 0.112190 0.112767
O O15 0.268764 0.176916 0.115926
O O16 0.543331 0.652188 0.864292
#
# Coordination Sequence:
#
# PCOD8056655 Si02
#       8
#     4   4   4   4   4   4   4   4
#     4  12  24  45  77 106 144 191 244 303 363 442
#     4  12  27  48  73 113 145 200 244 303 370 435
#     4  12  27  48  75 112 147 198 242 304 369 442
#     4  12  23  46  76 106 144 188 246 297 368 435
#     4  12  27  49  73 108 147 193 245 304 366 428
#     4  12  29  47  75 107 147 196 244 309 361 437
#     4  12  28  49  75 110 152 194 247 302 371 441
#     4  12  29  48  78 108 154 194 246 304 368 444
#
# _framework density 23.928850000000001
#
# number of rings (size 3 to 8) (size 9 to 14) (size 15 to 20)
#    0.000    0.000    5.000    3.750    8.750    1.000 
#    0.000    0.000    0.000    0.000    0.000    0.000 
#    0.000    0.000    0.000    0.000    0.000    0.000 
#
# Total GULP energy -198299.491254 kJ/mol
# GULP energy per Si atom -12393.718203 kJ/mol
# Density = 2.387439 g / cm^3
# Si number density = 23.928850 Si / 1000 Ang^3
#
#
#
# Elastic Constant Matrix: (Units=GPa)
#
#
# Indices 1 2 3 4 5 6 
#
# 1 91.6351 31.7508 45.2170 0.0000 14.4656 0.0000
# 2 31.7508 78.0101 46.8785 0.0000 15.6098 0.0000
# 3 45.2170 46.8785 136.7315 0.0000 36.0335 0.0000
# 4 0.0000 0.0000 0.0000 50.4875 0.0000 1.2968
# 5 14.4656 15.6098 36.0335 0.0000 52.2625 0.0000
# 6 0.0000 0.0000 0.0000 1.2968 0.0000 35.4322
#
#
#
# Elastic Compliance Matrix: (Units=1/GPa)
#
#
# Indices 1 2 3 4 5 6 
#
# 1 0.013821 -0.003597 -0.003193 0.000000 -0.000550 0.000000
# 2 -0.003597 0.017146 -0.004402 0.000000 -0.001091 0.000000
# 3 -0.003193 -0.004402 0.011364 0.000000 -0.005637 0.000000
# 4 0.000000 0.000000 0.000000 0.019826 0.000000 -0.000726
# 5 -0.000550 -0.001091 -0.005637 0.000000 0.023499 0.000000
# 6 0.000000 0.000000 0.000000 -0.000726 0.000000 0.028249
#
#
# Mechanical properties :
#
#
# Convention : Reuss Voigt Hill
#
# Bulk Modulus (GPa) = 50.12676 61.56324 55.84500
# Shear Modulus (GPa) = 34.98046 39.80513 37.39280
#
# Velocity S-wave (km/s) = 3.82757 4.08300 3.95735
# Velocity P-wave (km/s) = 6.36611 6.92902 6.65352
#
# Compressibility (1/GPa) = 0.01994943
#
# Stress axis : x y z
#
# Youngs Moduli (GPa) = 72.35201 58.32217 87.99729
#
# Poissons Ratio (x) = 0.20977 0.28094
# Poissons Ratio (y) = 0.26024 0.38733
# Poissons Ratio (z) = 0.23099 0.25671
#
# Static dielectric constant tensor:
#      x y z
#    x 4.191000 0.000000 0.086990 
#    y 0.000000 4.641790 0.000000 
#    z 0.086990 0.000000 4.255850 
# 
# 
# High freq. dielectric constant tensor:
#      x y z
#    x 1.952830 0.000000 0.002850 
#    y 0.000000 1.966450 0.000000 
#    z 0.002850 0.000000 1.954480 
# 
# From -- ./inp_files/12439.got.cif
#   From: 2010.06.25/outbox.cif.g09.slc.cpg/sg9_7_cif.got.tgz:12439.got - 2010.06.27 21:40:51.
