data_PCOD8056592
_publ_section_title
;
Structure prediction by ZEFSAII (Michael W. Deem and Ramdas Pophale) SiO2 
 PCOD8056592
Probable space group: C C
;
_chemical_formula_sum "Si O2"
_cell_formula_units_Z 32
_cell_length_a 17.060012
_cell_length_b 5.111907
_cell_length_c 14.353908
_cell_angle_alpha 90.000000
_cell_angle_beta 111.574368
_cell_angle_gamma 90.000000
_cell_volume 1164.093507
_symmetry_space_group_name_H-M "C C"
_symmetry_group_IT_number 9
_symmetry_cell_setting 'monoclinic'
loop_
_space_group_symop_operation_xyz
x,y,z
x,-y,1/2+z
1/2+x,1/2+y,z
1/2+x,1/2-y,1/2+z
loop_
_atom_site_type_symbol
_atom_site_label
_atom_site_fract_x
_atom_site_fract_y
_atom_site_fract_z
Si Si1 0.421060 0.007175 0.287270
Si Si2 0.709265 0.787212 0.283946
Si Si3 0.119906 0.970779 0.011169
Si Si4 0.253494 0.801440 0.211347
Si Si5 0.196343 0.482428 0.969655
Si Si6 0.968580 0.322270 0.509335
Si Si7 0.024436 0.690581 0.680644
Si Si8 0.873688 0.082598 0.627724
O O1 0.382636 0.284972 0.234892
O O2 0.352114 0.783369 0.220899
O O3 0.436082 0.974927 0.403460
O O4 0.507103 0.977943 0.266820
O O5 0.764988 0.520231 0.301120
O O6 0.614018 0.675505 0.236852
O O7 0.719487 0.011281 0.210099
O O8 0.733527 0.964425 0.383727
O O9 0.191243 0.973761 0.121115
O O10 0.129336 0.711347 0.954792
O O11 0.140408 0.219787 0.955146
O O12 0.023135 0.945600 0.008004
O O13 0.276102 0.514103 0.075568
O O14 0.033629 0.512330 0.592085
O O15 0.889545 0.282067 0.546187
O O16 0.948851 0.889099 0.636598
#
# Coordination Sequence:
#
# PCOD8056592 Si02
#       8
#     4   4   4   4   4   4   4   4
#     4  11  26  46  72 110 152 203 259 321 397 469
#     4  12  27  47  74 110 149 200 258 320 386 467
#     4  12  25  49  76 110 152 201 259 316 391 468
#     4  12  25  47  75 105 149 197 257 317 386 464
#     4  12  27  48  79 112 151 205 261 322 391 466
#     4  11  26  47  73 110 151 206 254 319 396 467
#     4  11  26  47  72 109 157 197 256 324 389 468
#     4  11  26  47  77 110 159 201 262 331 394 467
#
# _framework density 27.489203
#
# number of rings (size 3 to 8) (size 9 to 14) (size 15 to 20)
#    0.000    0.500    2.500    4.500    8.750    1.000 
#    2.250    0.000    0.000    0.000    0.000    0.000 
#    0.000    0.000    0.000    0.000    0.000    0.000 
#
# Total GULP energy -198249.033127 kJ/mol
# GULP energy per Si atom -12390.564570 kJ/mol
# Density = 2.742664 g / cm^3
# Si number density = 27.489203 Si / 1000 Ang^3
#
#
#
# Elastic Constant Matrix: (Units=GPa)
#
#
# Indices 1 2 3 4 5 6 
#
# 1 95.3424 32.1157 21.3005 0.0000 3.8458 0.0000
# 2 32.1157 130.6009 9.6641 0.0000 -4.5757 0.0000
# 3 21.3005 9.6641 119.3424 0.0000 -11.5618 0.0000
# 4 0.0000 0.0000 0.0000 31.2971 0.0000 -3.5530
# 5 3.8458 -4.5757 -11.5618 0.0000 32.1218 0.0000
# 6 0.0000 0.0000 0.0000 -3.5530 0.0000 47.0779
#
#
#
# Elastic Compliance Matrix: (Units=1/GPa)
#
#
# Indices 1 2 3 4 5 6 
#
# 1 0.012056 -0.002896 -0.002173 0.000000 -0.002638 0.000000
# 2 -0.002896 0.008424 -0.000016 0.000000 0.001541 0.000000
# 3 -0.002173 -0.000016 0.009111 0.000000 0.003537 0.000000
# 4 0.000000 0.000000 0.000000 0.032228 0.000000 0.002432
# 5 -0.002638 0.001541 0.003537 0.000000 0.032940 0.000000
# 6 0.000000 0.000000 0.000000 0.002432 0.000000 0.021425
#
#
# Mechanical properties :
#
#
# Convention : Reuss Voigt Hill
#
# Bulk Modulus (GPa) = 51.49014 52.38293 51.93653
# Shear Modulus (GPa) = 37.64264 40.91305 39.27784
#
# Velocity S-wave (km/s) = 3.70450 3.86208 3.78411
# Velocity P-wave (km/s) = 6.08847 6.24377 6.16661
#
# Compressibility (1/GPa) = 0.01942119
#
# Stress axis : x y z
#
# Youngs Moduli (GPa) = 82.94651 118.70408 109.75695
#
# Poissons Ratio (x) = 0.34380 0.23848
# Poissons Ratio (y) = 0.24024 0.00175
# Poissons Ratio (z) = 0.18023 0.00189
#
# Static dielectric constant tensor:
#      x y z
#    x 5.383470 0.000000 -0.499090 
#    y 0.000000 4.900730 0.000000 
#    z -0.499090 0.000000 5.016560 
# 
# 
# High freq. dielectric constant tensor:
#      x y z
#    x 2.130460 0.000000 -0.017160 
#    y 0.000000 2.110000 0.000000 
#    z -0.017160 0.000000 2.107620 
# 
# From -- ./inp_files/26399.got.cif
#   From: 2010.06.25/outbox.cif.g09.slc.cpg/sg9_14_cif.got.tgz:26399.got - 2010.06.27 21:40:51.
