data_PCOD8056990
_publ_section_title
;
Structure prediction by ZEFSAII (Michael W. Deem and Ramdas Pophale) SiO2 
 PCOD8056990
Probable space group: P 2/M
;
_chemical_formula_sum "Si O2"
_cell_formula_units_Z 20
_cell_length_a 26.494299
_cell_length_b 8.819247
_cell_length_c 14.082021
_cell_angle_alpha 90.000000
_cell_angle_beta 160.368539
_cell_angle_gamma 90.000000
_cell_volume 1105.472329
_symmetry_space_group_name_H-M "P 2/M"
_symmetry_group_IT_number 10
_symmetry_cell_setting 'monoclinic'
loop_
_space_group_symop_operation_xyz
x,y,z
-x,y,-z
-x,-y,-z
x,-y,z
loop_
_atom_site_type_symbol
_atom_site_label
_atom_site_fract_x
_atom_site_fract_y
_atom_site_fract_z
Si Si1 0.743922 0.821452 0.693550
Si Si2 0.826857 0.329361 0.663206
Si Si3 0.357824 0.678874 0.310528
Si Si4 0.050831 0.320498 0.310299
Si Si5 0.947323 0.821741 0.301930
O O1 0.720855 0.776137 0.541591
O O2 0.618015 0.755470 0.542246
O O3 0.752149 0.000000 0.717515
O O4 0.895471 0.743770 0.996409
O O5 0.768295 0.500000 0.572629
O O6 0.819193 0.281824 0.537494
O O7 0.000000 0.316294 0.000000
O O8 0.500000 0.725414 0.500000
O O9 0.343117 0.500000 0.297216
O O10 0.210617 0.741256 0.997122
O O11 0.036827 0.500000 0.298226
O O12 0.076210 0.240798 0.457410
O O13 0.000000 0.778917 0.500000
O O14 0.927832 0.000000 0.252867
#
# Coordination Sequence:
#
# PCOD8056990 Si02
#       5
#     4   4   4   4   4
#     4  10  17  24  39  62  88 117 146 182 228 273
#     4   8  14  24  37  56  84 115 146 181 222 267
#     4  10  20  33  49  68  91 122 158 193 228 268
#     4   9  16  26  41  60  85 118 151 185 224 265
#     4  10  20  32  47  69  96 124 153 188 230 274
#
# _framework density 18.091813999999999
#
# number of rings (size 3 to 8) (size 9 to 14) (size 15 to 20)
#    0.000    2.600    0.000    7.200    0.000    7.600 
#    0.000    0.000    0.000    0.000    0.000    1.400 
#    0.000   11.200    0.000    0.000    0.000    0.000 
#
# Total GULP energy -247765.934024 kJ/mol
# GULP energy per Si atom -12388.296701 kJ/mol
# Density = 1.805064 g / cm^3
# Si number density = 18.091814 Si / 1000 Ang^3
#
#
#
# Elastic Constant Matrix: (Units=GPa)
#
#
# Indices 1 2 3 4 5 6 
#
# 1 219.2432 108.0142 46.4799 0.0000 36.4796 0.0000
# 2 108.0142 170.3537 37.1842 0.0000 29.3472 0.0000
# 3 46.4799 37.1842 32.5665 0.0000 15.5648 0.0000
# 4 0.0000 0.0000 0.0000 4.7249 0.0000 -8.8949
# 5 36.4796 29.3472 15.5648 0.0000 26.4360 0.0000
# 6 0.0000 0.0000 0.0000 -8.8949 0.0000 10.6159
#
#
#
# Elastic Compliance Matrix: (Units=1/GPa)
#
#
# Indices 1 2 3 4 5 6 
#
# 1 0.008033 -0.003074 -0.005967 0.000000 -0.004158 0.000000
# 2 -0.003074 0.009452 -0.004755 0.000000 -0.003451 0.000000
# 3 -0.005967 -0.004755 0.053149 0.000000 -0.017781 0.000000
# 4 0.000000 0.000000 0.000000 -0.366584 0.000000 -0.307153
# 5 -0.004158 -0.003451 -0.017781 0.000000 0.057865 0.000000
# 6 0.000000 0.000000 0.000000 -0.307153 0.000000 -0.163159
#
#
# Mechanical properties :
#
#
# Convention : Reuss Voigt Hill
#
# Bulk Modulus (GPa) = 23.23309 89.50222 56.36766
# Shear Modulus (GPa) = -13.91578 23.72106 4.90264
#
# Velocity S-wave (km/s) = -2.77641 3.62491 1.64795
# Velocity P-wave (km/s) = 1.60988 8.19136 5.90297
#
# Compressibility (1/GPa) = 0.04304205
#
# Stress axis : x y z
#
# Youngs Moduli (GPa) = 124.49172 105.79942 18.81487
#
# Poissons Ratio (x) = 0.32527 0.11226
# Poissons Ratio (y) = 0.38274 0.08946
# Poissons Ratio (z) = 0.74279 0.50307
#
# Static dielectric constant tensor:
#      x y z
#    x 4.614310 0.000000 0.409530 
#    y 0.000000 3.408550 0.000000 
#    z 0.409530 0.000000 2.685240 
# 
# 
# High freq. dielectric constant tensor:
#      x y z
#    x 1.735310 0.000000 0.028350 
#    y 0.000000 1.712490 0.000000 
#    z 0.028350 0.000000 1.612080 
# 
# From -- ./inp_files/37843.got.cif
#   From: 2010.06.25/outbox.cif.g09.slc.cpg/sg10_19_cif.got.tgz:37843.got - 2010.06.27 22:07:45.
