data_PCOD8056754
_publ_section_title
;
Structure prediction by ZEFSAII (Michael W. Deem and Ramdas Pophale) SiO2 
 PCOD8056754
Probable space group: C C
;
_chemical_formula_sum "Si O2"
_cell_formula_units_Z 28
_cell_length_a 14.911228
_cell_length_b 6.377490
_cell_length_c 23.860266
_cell_angle_alpha 90.000000
_cell_angle_beta 29.762760
_cell_angle_gamma 90.000000
_cell_volume 1126.364261
_symmetry_space_group_name_H-M "C C"
_symmetry_group_IT_number 9
_symmetry_cell_setting 'monoclinic'
loop_
_space_group_symop_operation_xyz
x,y,z
x,-y,1/2+z
1/2+x,1/2+y,z
1/2+x,1/2-y,1/2+z
loop_
_atom_site_type_symbol
_atom_site_label
_atom_site_fract_x
_atom_site_fract_y
_atom_site_fract_z
Si Si1 0.590150 0.639576 0.413670
Si Si2 0.429888 0.812428 0.598187
Si Si3 0.748577 0.041637 0.073539
Si Si4 0.782799 0.998021 0.755588
Si Si5 0.892161 0.321073 0.289356
Si Si6 0.675286 0.694367 0.715130
Si Si7 0.290260 0.514371 0.926869
O O1 0.421769 0.652375 0.550390
O O2 0.462235 0.507959 0.441164
O O3 0.623411 0.868960 0.370387
O O4 0.765234 0.517166 0.341451
O O5 0.422516 0.676851 0.658887
O O6 0.273389 0.985387 0.684147
O O7 0.628209 0.905147 0.475313
O O8 0.601150 0.886084 0.182307
O O9 0.747760 0.249457 0.113130
O O10 0.686167 0.047111 0.042620
O O11 0.882492 0.853177 0.746081
O O12 0.707255 0.874449 0.743247
O O13 0.832685 0.222623 0.381908
O O14 0.461922 0.662082 0.825102
#
# Coordination Sequence:
#
# PCOD8056754 Si02
#       7
#     4   4   4   4   4   4   4
#     4  12  26  49  75 107 146 202 248 302 382 435
#     4  12  26  49  75 107 146 202 248 302 382 435
#     4  12  27  46  77 107 153 195 246 313 374 444
#     4  12  26  48  78 102 154 200 248 314 360 458
#     4  12  28  50  72 117 149 193 259 306 371 458
#     4  12  28  50  72 117 149 193 259 306 371 458
#     4  12  27  46  77 107 153 195 246 313 374 444
#
# _framework density 24.858744000000002
#
# number of rings (size 3 to 8) (size 9 to 14) (size 15 to 20)
#    0.000    0.000    2.857    6.857    8.000    1.143 
#    0.000    0.000    0.000    0.000    0.000    0.000 
#    0.000    0.000    0.000    0.000    0.000    0.000 
#
# Total GULP energy -173441.000474 kJ/mol
# GULP energy per Si atom -12388.642891 kJ/mol
# Density = 2.480216 g / cm^3
# Si number density = 24.858744 Si / 1000 Ang^3
#
#
#
# Elastic Constant Matrix: (Units=GPa)
#
#
# Indices 1 2 3 4 5 6 
#
# 1 68.3466 31.6432 30.1637 -0.0003 -0.6470 -0.0025
# 2 31.6432 103.5445 32.1247 -0.0009 6.2663 -0.0026
# 3 30.1637 32.1247 107.5792 -0.0012 -6.7213 -0.0008
# 4 -0.0003 -0.0009 -0.0012 50.0051 0.0003 3.5900
# 5 -0.6470 6.2663 -6.7213 0.0003 63.3844 0.0003
# 6 -0.0025 -0.0026 -0.0008 3.5900 0.0003 37.8413
#
#
#
# Elastic Compliance Matrix: (Units=1/GPa)
#
#
# Indices 1 2 3 4 5 6 
#
# 1 0.018373 -0.004446 -0.003810 0.000000 0.000223 0.000001
# 2 -0.004446 0.011844 -0.002382 0.000000 -0.001469 0.000000
# 3 -0.003810 -0.002382 0.011161 0.000000 0.001380 0.000000
# 4 0.000000 0.000000 0.000000 0.020135 0.000000 -0.001910
# 5 0.000223 -0.001469 0.001380 0.000000 0.016071 0.000000
# 6 0.000001 0.000000 0.000000 -0.001910 0.000000 0.026607
#
#
# Mechanical properties :
#
#
# Convention : Reuss Voigt Hill
#
# Bulk Modulus (GPa) = 49.74515 51.92594 50.83555
# Shear Modulus (GPa) = 37.83015 42.61541 40.22278
#
# Velocity S-wave (km/s) = 3.90526 4.14491 4.02687
# Velocity P-wave (km/s) = 6.35526 6.62123 6.48961
#
# Compressibility (1/GPa) = 0.02010246
#
# Stress axis : x y z
#
# Youngs Moduli (GPa) = 54.42628 84.42801 89.59567
#
# Poissons Ratio (x) = 0.37540 0.34136
# Poissons Ratio (y) = 0.24200 0.21341
# Poissons Ratio (z) = 0.20736 0.20111
#
# Static dielectric constant tensor:
#      x y z
#    x 4.641980 0.000000 0.234430 
#    y 0.000000 4.398780 0.000000 
#    z 0.234430 0.000000 4.412150 
# 
# 
# High freq. dielectric constant tensor:
#      x y z
#    x 2.009870 0.000000 0.007370 
#    y 0.000000 1.982800 0.000000 
#    z 0.007370 0.000000 2.009280 
# 
# From -- ./inp_files/36814.got.cif
#   From: 2010.06.25/outbox.cif.g09.slc.cpg/sg9_19_cif.got.tgz:36814.got - 2010.06.27 21:40:51.
