data_PCOD8056277
_publ_section_title
;
Structure prediction by ZEFSAII (Michael W. Deem and Ramdas Pophale) SiO2 
 PCOD8056277
Probable space group: C C
;
_chemical_formula_sum "Si O2"
_cell_formula_units_Z 32
_cell_length_a 14.437431
_cell_length_b 11.053949
_cell_length_c 9.136986
_cell_angle_alpha 90.000000
_cell_angle_beta 67.941293
_cell_angle_gamma 90.000000
_cell_volume 1351.438057
_symmetry_space_group_name_H-M "C C"
_symmetry_group_IT_number 9
_symmetry_cell_setting 'monoclinic'
loop_
_space_group_symop_operation_xyz
x,y,z
x,-y,1/2+z
1/2+x,1/2+y,z
1/2+x,1/2-y,1/2+z
loop_
_atom_site_type_symbol
_atom_site_label
_atom_site_fract_x
_atom_site_fract_y
_atom_site_fract_z
Si Si1 0.289390 0.414132 0.867650
Si Si2 0.109218 0.574533 0.847231
Si Si3 0.806329 0.363244 0.337893
Si Si4 0.271805 0.084740 0.543354
Si Si5 0.468757 0.750909 0.882499
Si Si6 0.021934 0.402574 0.097173
Si Si7 0.574066 0.694632 0.533885
Si Si8 0.916033 0.002964 0.036200
O O1 0.198053 0.491818 0.858964
O O2 0.265337 0.271928 0.883265
O O3 0.385933 0.439747 0.709136
O O4 0.317536 0.447082 0.017610
O O5 0.106740 0.571093 0.670562
O O6 0.012476 0.516532 0.989280
O O7 0.113947 0.714199 0.886731
O O8 0.784235 0.445544 0.490496
O O9 0.753128 0.418847 0.227343
O O10 0.924877 0.369956 0.246606
O O11 0.365477 0.172174 0.448309
O O12 0.171932 0.129880 0.529910
O O13 0.521270 0.771372 0.695120
O O14 0.541940 0.790838 0.972958
O O15 0.452457 0.608184 0.906223
O O16 0.499416 0.599335 0.504461
#
# Coordination Sequence:
#
# PCOD8056277 Si02
#       8
#     4   4   4   4   4   4   4   4
#     4  12  26  48  74 106 153 199 254 314 383 454
#     4  12  26  44  72 114 142 195 257 313 372 458
#     4  11  25  48  72 105 150 195 249 311 384 447
#     4  11  26  47  73 106 148 193 249 312 377 450
#     4  11  25  48  75 103 154 194 248 317 377 452
#     4  11  23  44  76 101 147 188 251 309 380 440
#     4  12  28  44  75 106 152 197 256 303 383 456
#     4  12  25  47  73 107 148 199 244 313 386 447
#
# _framework density 23.678481999999999
#
# number of rings (size 3 to 8) (size 9 to 14) (size 15 to 20)
#    0.000    0.500    3.750    5.250    5.250    1.000 
#    2.250    0.000    0.000    0.000    0.000    0.000 
#    0.000    0.000    0.000    0.000    0.000    0.000 
#
# Total GULP energy -198345.235512 kJ/mol
# GULP energy per Si atom -12396.577220 kJ/mol
# Density = 2.362459 g / cm^3
# Si number density = 23.678482 Si / 1000 Ang^3
#
#
#
# Elastic Constant Matrix: (Units=GPa)
#
#
# Indices 1 2 3 4 5 6 
#
# 1 133.3597 62.6862 27.3276 0.0000 27.1725 0.0000
# 2 62.6862 167.9416 42.0788 0.0000 22.2025 0.0000
# 3 27.3276 42.0788 74.1648 0.0000 32.6653 0.0000
# 4 0.0000 0.0000 0.0000 47.5472 0.0000 2.0836
# 5 27.1725 22.2025 32.6653 0.0000 40.3007 0.0000
# 6 0.0000 0.0000 0.0000 2.0836 0.0000 25.9547
#
#
#
# Elastic Compliance Matrix: (Units=1/GPa)
#
#
# Indices 1 2 3 4 5 6 
#
# 1 0.009968 -0.003128 0.000471 0.000000 -0.005380 0.000000
# 2 -0.003128 0.007948 -0.003666 0.000000 0.000701 0.000000
# 3 0.000471 -0.003666 0.022768 0.000000 -0.016753 0.000000
# 4 0.000000 0.000000 0.000000 0.021106 0.000000 -0.001694
# 5 -0.005380 0.000701 -0.016753 0.000000 0.041633 0.000000
# 6 0.000000 0.000000 0.000000 -0.001694 0.000000 0.038665
#
#
# Mechanical properties :
#
#
# Convention : Reuss Voigt Hill
#
# Bulk Modulus (GPa) = 35.66409 71.07236 53.36823
# Shear Modulus (GPa) = 30.47309 38.98540 34.72925
#
# Velocity S-wave (km/s) = 3.59130 4.06205 3.83391
# Velocity P-wave (km/s) = 5.68253 7.21672 6.49508
#
# Compressibility (1/GPa) = 0.02803941
#
# Stress axis : x y z
#
# Youngs Moduli (GPa) = 100.31829 125.82435 43.92054
#
# Poissons Ratio (x) = 0.39352 -0.02068
# Poissons Ratio (y) = 0.31375 0.16100
# Poissons Ratio (z) = -0.04724 0.46124
#
# Static dielectric constant tensor:
#      x y z
#    x 4.272770 0.000000 0.143480 
#    y 0.000000 4.353450 0.000000 
#    z 0.143480 0.000000 4.690180 
# 
# 
# High freq. dielectric constant tensor:
#      x y z
#    x 1.938690 0.000000 0.010440 
#    y 0.000000 1.943570 0.000000 
#    z 0.010440 0.000000 1.948160 
# 
# From -- ./inp_files/9252.got.cif
#   From: 2010.06.25/outbox.cif.g09.slc.cpg/sg9_5_cif.got.tgz:9252.got - 2010.06.27 21:40:51.
