data_PCOD8056449
_publ_section_title
;
Structure prediction by ZEFSAII (Michael W. Deem and Ramdas Pophale) SiO2 
 PCOD8056449
Probable space group: C C
;
_chemical_formula_sum "Si O2"
_cell_formula_units_Z 28
_cell_length_a 6.607363
_cell_length_b 22.752384
_cell_length_c 8.578284
_cell_angle_alpha 90.000000
_cell_angle_beta 100.941384
_cell_angle_gamma 90.000000
_cell_volume 1266.158866
_symmetry_space_group_name_H-M "C C"
_symmetry_group_IT_number 9
_symmetry_cell_setting 'monoclinic'
loop_
_space_group_symop_operation_xyz
x,y,z
x,-y,1/2+z
1/2+x,1/2+y,z
1/2+x,1/2-y,1/2+z
loop_
_atom_site_type_symbol
_atom_site_label
_atom_site_fract_x
_atom_site_fract_y
_atom_site_fract_z
Si Si1 0.971580 0.015609 0.269490
Si Si2 0.102805 0.309125 0.402858
Si Si3 0.846878 0.635767 0.118190
Si Si4 0.275269 0.996273 0.558325
Si Si5 0.465466 0.298775 0.695261
Si Si6 0.232150 0.621820 0.368336
Si Si7 0.654715 0.920605 0.199922
O O1 0.825832 0.071327 0.271510
O O2 0.048374 0.005854 0.105071
O O3 0.835949 0.959770 0.298431
O O4 0.199638 0.021358 0.381445
O O5 0.299291 0.289555 0.533730
O O6 0.065498 0.262991 0.258405
O O7 0.129237 0.370983 0.323076
O O8 0.911295 0.318034 0.492890
O O9 0.856791 0.569835 0.050968
O O10 0.627202 0.654330 0.152306
O O11 0.000339 0.636884 0.286678
O O12 0.447027 0.040605 0.650445
O O13 0.370173 0.321647 0.844902
O O14 0.235671 0.606563 0.549739
#
# Coordination Sequence:
#
# PCOD8056449 Si02
#       7
#     4   4   4   4   4   4   4
#     4  12  24  41  65 106 144 184 230 292 360 435
#     4  11  29  47  76 104 141 190 244 306 351 434
#     4  11  24  46  72 101 145 187 236 291 366 423
#     4  12  24  41  70 104 143 190 229 292 367 430
#     4  11  27  51  73 102 144 190 248 295 365 420
#     4  11  25  44  69 103 144 188 234 301 352 432
#     4  12  27  44  71 108 147 183 247 297 365 430
#
# _framework density 22.114128000000001
#
# number of rings (size 3 to 8) (size 9 to 14) (size 15 to 20)
#    0.000    0.571    4.286    2.571    8.000    1.143 
#    2.571    0.000    0.000    0.000    0.000    0.000 
#    0.000    0.000    0.000    0.000    0.000    0.000 
#
# Total GULP energy -173540.697999 kJ/mol
# GULP energy per Si atom -12395.764143 kJ/mol
# Density = 2.206380 g / cm^3
# Si number density = 22.114128 Si / 1000 Ang^3
#
#
#
# Elastic Constant Matrix: (Units=GPa)
#
#
# Indices 1 2 3 4 5 6 
#
# 1 108.6287 28.7638 40.9389 0.0000 8.2281 0.0000
# 2 28.7638 98.8358 31.7439 0.0000 14.4442 0.0000
# 3 40.9389 31.7439 81.5841 0.0000 14.0931 0.0000
# 4 0.0000 0.0000 0.0000 37.8446 0.0000 -1.4583
# 5 8.2281 14.4442 14.0931 0.0000 30.3155 0.0000
# 6 0.0000 0.0000 0.0000 -1.4583 0.0000 34.1660
#
#
#
# Elastic Compliance Matrix: (Units=1/GPa)
#
#
# Indices 1 2 3 4 5 6 
#
# 1 0.011604 -0.001730 -0.005163 0.000000 0.000075 0.000000
# 2 -0.001730 0.012219 -0.003220 0.000000 -0.003855 0.000000
# 3 -0.005163 -0.003220 0.016955 0.000000 -0.004947 0.000000
# 4 0.000000 0.000000 0.000000 0.026467 0.000000 0.001130
# 5 0.000075 -0.003855 -0.004947 0.000000 0.037103 0.000000
# 6 0.000000 0.000000 0.000000 0.001130 0.000000 0.029317
#
#
# Mechanical properties :
#
#
# Convention : Reuss Voigt Hill
#
# Bulk Modulus (GPa) = 48.65568 54.66020 51.65794
# Shear Modulus (GPa) = 31.10587 32.97201 32.03894
#
# Velocity S-wave (km/s) = 3.75454 3.86553 3.81044
# Velocity P-wave (km/s) = 6.39103 6.68536 6.53985
#
# Compressibility (1/GPa) = 0.02055259
#
# Stress axis : x y z
#
# Youngs Moduli (GPa) = 86.17973 81.84020 58.97833
#
# Poissons Ratio (x) = 0.14157 0.30448
# Poissons Ratio (y) = 0.14907 0.18993
# Poissons Ratio (z) = 0.44491 0.26355
#
# Static dielectric constant tensor:
#      x y z
#    x 4.074750 0.000000 -0.041370 
#    y 0.000000 3.895410 0.000000 
#    z -0.041370 0.000000 3.861570 
# 
# 
# High freq. dielectric constant tensor:
#      x y z
#    x 1.884450 0.000000 -0.003440 
#    y 0.000000 1.869260 0.000000 
#    z -0.003440 0.000000 1.875860 
# 
# From -- ./inp_files/3975.got.cif
#   From: 2010.06.25/outbox.cif.g09.slc.cpg/sg9_2_cif.got.tgz:3975.got - 2010.06.27 21:40:51.
