data_PCOD8056669
_publ_section_title
;
Structure prediction by ZEFSAII (Michael W. Deem and Ramdas Pophale) SiO2 
 PCOD8056669
Probable space group: C C
;
_chemical_formula_sum "Si O2"
_cell_formula_units_Z 20
_cell_length_a 6.732345
_cell_length_b 26.330277
_cell_length_c 4.880024
_cell_angle_alpha 90.000000
_cell_angle_beta 79.785784
_cell_angle_gamma 90.000000
_cell_volume 851.345353
_symmetry_space_group_name_H-M "C C"
_symmetry_group_IT_number 9
_symmetry_cell_setting 'monoclinic'
loop_
_space_group_symop_operation_xyz
x,y,z
x,-y,1/2+z
1/2+x,1/2+y,z
1/2+x,1/2-y,1/2+z
loop_
_atom_site_type_symbol
_atom_site_label
_atom_site_fract_x
_atom_site_fract_y
_atom_site_fract_z
Si Si1 0.611180 0.701836 0.100140
Si Si2 0.990128 0.966163 0.975492
Si Si3 0.846569 0.393939 0.701360
Si Si4 0.611395 0.900877 0.154886
Si Si5 0.341377 0.302520 0.157082
O O1 0.781675 0.658977 0.077981
O O2 0.420864 0.687361 0.332439
O O3 0.693640 0.754800 0.194806
O O4 0.532811 0.706294 0.808860
O O5 0.154862 0.924896 0.853731
O O6 0.017035 0.015864 0.781037
O O7 0.766922 0.942829 0.005774
O O8 0.969098 0.424002 0.432055
O O9 0.983417 0.381855 0.928736
O O10 0.722160 0.853174 0.271589
#
# Coordination Sequence:
#
# PCOD8056669 Si02
#       5
#     4   4   4   4   4
#     4  12  24  43  70 105 148 187 234 290 350 425
#     4  12  28  48  74 104 144 186 242 302 356 416
#     4  12  26  46  74 105 145 187 240 294 357 424
#     4  12  26  46  74 105 145 187 240 294 357 424
#     4  12  24  43  70 105 148 187 234 290 350 425
#
# _framework density 23.492229999999999
#
# number of rings (size 3 to 8) (size 9 to 14) (size 15 to 20)
#    0.000    0.000    2.000    8.400    2.800    4.800 
#    0.000    0.000    0.000    0.000    0.000    0.000 
#    0.000    0.000    0.000    0.000    0.000    0.000 
#
# Total GULP energy -124077.715917 kJ/mol
# GULP energy per Si atom -12407.771592 kJ/mol
# Density = 2.343876 g / cm^3
# Si number density = 23.492230 Si / 1000 Ang^3
#
#
#
# Elastic Constant Matrix: (Units=GPa)
#
#
# Indices 1 2 3 4 5 6 
#
# 1 101.0252 22.6805 43.2133 0.0000 5.6599 0.0000
# 2 22.6805 81.2938 18.3487 0.0000 -0.2732 0.0000
# 3 43.2133 18.3487 124.5211 0.0000 -8.9814 0.0000
# 4 0.0000 0.0000 0.0000 37.6014 0.0000 -1.2149
# 5 5.6599 -0.2732 -8.9814 0.0000 59.0163 0.0000
# 6 0.0000 0.0000 0.0000 -1.2149 0.0000 24.7337
#
#
#
# Elastic Compliance Matrix: (Units=1/GPa)
#
#
# Indices 1 2 3 4 5 6 
#
# 1 0.012287 -0.002526 -0.004022 0.000000 -0.001802 0.000000
# 2 -0.002526 0.013247 -0.001065 0.000000 0.000142 0.000000
# 3 -0.004022 -0.001065 0.009718 0.000000 0.001860 0.000000
# 4 0.000000 0.000000 0.000000 0.026637 0.000000 0.001308
# 5 -0.001802 0.000142 0.001860 0.000000 0.017401 0.000000
# 6 0.000000 0.000000 0.000000 0.001308 0.000000 0.040495
#
#
# Mechanical properties :
#
#
# Convention : Reuss Voigt Hill
#
# Bulk Modulus (GPa) = 49.93743 52.81392 51.37568
# Shear Modulus (GPa) = 35.28947 39.11011 37.19979
#
# Velocity S-wave (km/s) = 3.88000 4.08464 3.98363
# Velocity P-wave (km/s) = 6.43239 6.69148 6.56321
#
# Compressibility (1/GPa) = 0.02002506
#
# Stress axis : x y z
#
# Youngs Moduli (GPa) = 81.38723 75.49018 102.90687
#
# Poissons Ratio (x) = 0.19071 0.41386
# Poissons Ratio (y) = 0.20561 0.10960
# Poissons Ratio (z) = 0.32732 0.08040
#
# Static dielectric constant tensor:
#      x y z
#    x 4.296630 0.000000 -0.153760 
#    y 0.000000 4.079240 0.000000 
#    z -0.153760 0.000000 4.282220 
# 
# 
# High freq. dielectric constant tensor:
#      x y z
#    x 1.942470 0.000000 -0.007760 
#    y 0.000000 1.922980 0.000000 
#    z -0.007760 0.000000 1.948250 
# 
# From -- ./inp_files/180.got.cif
#   From: 2010.06.25/outbox.cif.g09.slc.cpg/sg9_1_cif.got.tgz:180.got - 2010.06.27 21:40:51.
