data_PCOD8056058
_publ_section_title
;
Structure prediction by ZEFSAII (Michael W. Deem and Ramdas Pophale) SiO2 
 PCOD8056058
Probable space group: C C
;
_chemical_formula_sum "Si O2"
_cell_formula_units_Z 32
_cell_length_a 9.079737
_cell_length_b 11.559647
_cell_length_c 14.534852
_cell_angle_alpha 90.000000
_cell_angle_beta 65.001983
_cell_angle_gamma 90.000000
_cell_volume 1382.646553
_symmetry_space_group_name_H-M "C C"
_symmetry_group_IT_number 9
_symmetry_cell_setting 'monoclinic'
loop_
_space_group_symop_operation_xyz
x,y,z
x,-y,1/2+z
1/2+x,1/2+y,z
1/2+x,1/2-y,1/2+z
loop_
_atom_site_type_symbol
_atom_site_label
_atom_site_fract_x
_atom_site_fract_y
_atom_site_fract_z
Si Si1 0.829690 0.498616 0.739250
Si Si2 0.698821 0.682049 0.640471
Si Si3 0.202824 0.128921 0.439696
Si Si4 0.328001 0.638022 0.519426
Si Si5 0.696068 0.065694 0.162495
Si Si6 0.348650 0.672251 0.797287
Si Si7 0.329013 0.587713 0.319062
Si Si8 0.155665 0.213012 0.200805
O O1 0.779826 0.622955 0.709216
O O2 0.761940 0.480499 0.861787
O O3 0.753538 0.402105 0.695399
O O4 0.021738 0.484749 0.680908
O O5 0.722927 0.602243 0.543064
O O6 0.760871 0.812244 0.605009
O O7 0.509733 0.712883 0.703049
O O8 0.314722 0.241078 0.390242
O O9 0.019335 0.165390 0.460650
O O10 0.322311 0.526198 0.587518
O O11 0.253297 0.622642 0.436918
O O12 0.217076 0.742405 0.586126
O O13 0.696856 0.079552 0.273323
O O14 0.390243 0.543352 0.819889
O O15 0.198268 0.686259 0.764467
O O16 0.466501 0.679369 0.251195
#
# Coordination Sequence:
#
# PCOD8056058 Si02
#       8
#     4   4   4   4   4   4   4   4
#     4  11  25  47  71 104 148 193 253 307 374 446
#     4  12  23  44  74 106 150 196 239 319 380 444
#     4  11  22  45  79 107 137 205 251 302 389 453
#     4  12  24  44  74 107 146 199 249 307 390 450
#     4  12  27  45  67 109 155 189 251 320 364 453
#     4  11  20  45  76 101 146 189 252 306 367 452
#     4  12  25  45  74 106 147 199 245 312 379 443
#     4  11  22  45  73 102 143 188 254 309 365 451
#
# _framework density 23.144022
#
# number of rings (size 3 to 8) (size 9 to 14) (size 15 to 20)
#    0.000    0.500    8.750    0.750    1.750    1.000 
#    2.250    0.000    0.000    0.000    0.000    0.000 
#    0.000    0.000    0.000    0.000    0.000    0.000 
#
# Total GULP energy -198295.338554 kJ/mol
# GULP energy per Si atom -12393.458660 kJ/mol
# Density = 2.309134 g / cm^3
# Si number density = 23.144022 Si / 1000 Ang^3
#
#
#
# Elastic Constant Matrix: (Units=GPa)
#
#
# Indices 1 2 3 4 5 6 
#
# 1 68.9392 30.6763 32.7606 0.0000 7.5336 0.0000
# 2 30.6763 86.2013 36.3052 0.0000 -14.4183 0.0000
# 3 32.7606 36.3052 129.3306 0.0000 8.3325 0.0000
# 4 0.0000 0.0000 0.0000 30.0819 0.0000 3.8955
# 5 7.5336 -14.4183 8.3325 0.0000 32.0742 0.0000
# 6 0.0000 0.0000 0.0000 3.8955 0.0000 39.4484
#
#
#
# Elastic Compliance Matrix: (Units=1/GPa)
#
#
# Indices 1 2 3 4 5 6 
#
# 1 0.019660 -0.007137 -0.002514 0.000000 -0.007173 0.000000
# 2 -0.007137 0.017493 -0.003781 0.000000 0.010522 0.000000
# 3 -0.002514 -0.003781 0.009663 0.000000 -0.003619 0.000000
# 4 0.000000 0.000000 0.000000 0.033673 0.000000 -0.003325
# 5 -0.007173 0.010522 -0.003619 0.000000 0.038533 0.000000
# 6 0.000000 0.000000 0.000000 -0.003325 0.000000 0.025678
#
#
# Mechanical properties :
#
#
# Convention : Reuss Voigt Hill
#
# Bulk Modulus (GPa) = 50.11981 53.77280 51.94631
# Shear Modulus (GPa) = 28.05596 32.63618 30.34607
#
# Velocity S-wave (km/s) = 3.48549 3.75925 3.62496
# Velocity P-wave (km/s) = 6.15637 6.49053 6.32566
#
# Compressibility (1/GPa) = 0.01995219
#
# Stress axis : x y z
#
# Youngs Moduli (GPa) = 50.86433 57.16624 103.48228
#
# Poissons Ratio (x) = 0.40801 0.26020
# Poissons Ratio (y) = 0.36303 0.39122
# Poissons Ratio (z) = 0.12789 0.21612
#
# Static dielectric constant tensor:
#      x y z
#    x 3.994850 0.000000 0.032450 
#    y 0.000000 4.298800 0.000000 
#    z 0.032450 0.000000 4.222540 
# 
# 
# High freq. dielectric constant tensor:
#      x y z
#    x 1.902590 0.000000 0.003830 
#    y 0.000000 1.916540 0.000000 
#    z 0.003830 0.000000 1.915270 
# 
# From -- ./inp_files/22880.got.cif
#   From: 2010.06.25/outbox.cif.g09.slc.cpg/sg9_12_cif.got.tgz:22880.got - 2010.06.27 21:40:51.
