data_PCOD8056853
_publ_section_title
;
Structure prediction by ZEFSAII (Michael W. Deem and Ramdas Pophale) SiO2 
 PCOD8056853
Probable space group: P 2/M
;
_chemical_formula_sum "Si O2"
_cell_formula_units_Z 32
_cell_length_a 31.261281
_cell_length_b 9.435257
_cell_length_c 15.309059
_cell_angle_alpha 90.000000
_cell_angle_beta 27.953368
_cell_angle_gamma 90.000000
_cell_volume 2116.668608
_symmetry_space_group_name_H-M "P 2/M"
_symmetry_group_IT_number 10
_symmetry_cell_setting 'monoclinic'
loop_
_space_group_symop_operation_xyz
x,y,z
-x,y,-z
-x,-y,-z
x,-y,z
loop_
_atom_site_type_symbol
_atom_site_label
_atom_site_fract_x
_atom_site_fract_y
_atom_site_fract_z
Si Si1 0.116805 0.664046 0.202392
Si Si2 0.713211 0.168280 0.152983
Si Si3 0.577627 0.831226 0.545880
Si Si4 0.378047 0.832082 0.860924
Si Si5 0.910683 0.663769 0.548740
Si Si6 0.757765 0.167817 0.742655
Si Si7 0.371366 0.831908 0.172953
Si Si8 0.565875 0.831502 0.759355
O O1 0.143739 0.500000 0.144822
O O2 0.116389 0.709589 0.304485
O O3 0.017553 0.691928 0.339964
O O4 0.188015 0.759466 0.020992
O O5 0.656457 0.222470 0.339037
O O6 0.659524 0.221427 0.164066
O O7 0.726574 0.000000 0.128581
O O8 0.479518 0.769984 0.692480
O O9 0.600115 0.775282 0.603435
O O10 0.573515 0.000000 0.550679
O O11 0.382769 0.000000 0.853993
O O12 0.311434 0.778961 0.057570
O O13 0.887170 0.500000 0.576140
O O14 0.854928 0.757210 0.580045
O O15 0.716626 0.218491 0.723398
O O16 0.772682 0.000000 0.719767
O O17 0.367366 0.780751 0.281783
O O18 0.375872 0.000000 0.160960
O O19 0.463838 0.773395 0.961369
O O20 0.562893 0.000000 0.762609
#
# Coordination Sequence:
#
# PCOD8056853 Si02
#       8
#     4   4   4   4   4   4   4   4
#     4   9  18  32  45  57  78 108 138 169 204 245
#     4  10  18  26  40  62  84 110 142 171 199 232
#     4   9  15  23  36  56  85 117 144 166 192 233
#     4   9  15  23  34  56  88 114 136 162 194 232
#     4   9  18  31  45  59  78 107 138 165 204 254
#     4  10  16  24  41  65  87 107 132 168 206 237
#     4   8  13  20  34  57  85 110 135 166 202 237
#     4   8  12  20  33  54  84 114 138 165 197 233
#
# _framework density 15.118096
#
# number of rings (size 3 to 8) (size 9 to 14) (size 15 to 20)
#    0.000    3.000    2.500    1.875    0.000    2.000 
#    0.000    1.250    0.000    2.250    0.000    3.500 
#    0.000    7.000    0.000    0.000    0.000    0.000 
#
# Total GULP energy -396581.232096 kJ/mol
# GULP energy per Si atom -12393.163503 kJ/mol
# Density = 1.508369 g / cm^3
# Si number density = 15.118096 Si / 1000 Ang^3
#
#
#
# Elastic Constant Matrix: (Units=GPa)
#
#
# Indices 1 2 3 4 5 6 
#
# 1 132.9254 27.5598 59.6600 0.0000 -3.1172 0.0000
# 2 27.5598 21.6941 24.8355 0.0000 -6.6368 0.0000
# 3 59.6600 24.8355 89.9820 0.0000 -3.2337 0.0000
# 4 0.0000 0.0000 0.0000 6.7864 0.0000 2.6800
# 5 -3.1172 -6.6368 -3.2337 0.0000 23.6839 0.0000
# 6 0.0000 0.0000 0.0000 2.6800 0.0000 5.2457
#
#
#
# Elastic Compliance Matrix: (Units=1/GPa)
#
#
# Indices 1 2 3 4 5 6 
#
# 1 0.011826 -0.009553 -0.005270 0.000000 -0.001840 0.000000
# 2 -0.009553 0.082125 -0.015628 0.000000 0.019622 0.000000
# 3 -0.005270 -0.015628 0.018831 0.000000 -0.002502 0.000000
# 4 0.000000 0.000000 0.000000 0.184599 0.000000 -0.094311
# 5 -0.001840 0.019622 -0.002502 0.000000 0.047138 0.000000
# 6 0.000000 0.000000 0.000000 -0.094311 0.000000 0.238817
#
#
# Mechanical properties :
#
#
# Convention : Reuss Voigt Hill
#
# Bulk Modulus (GPa) = 19.27529 52.07911 35.67720
# Shear Modulus (GPa) = 7.55821 15.97961 11.76891
#
# Velocity S-wave (km/s) = 2.23837 3.25466 2.79313
# Velocity P-wave (km/s) = 4.41111 6.97472 5.83544
#
# Compressibility (1/GPa) = 0.05187990
#
# Stress axis : x y z
#
# Youngs Moduli (GPa) = 84.55987 12.17651 53.10337
#
# Poissons Ratio (x) = 0.11632 0.27987
# Poissons Ratio (y) = 0.80779 0.82990
# Poissons Ratio (z) = 0.44566 0.19030
#
# Static dielectric constant tensor:
#      x y z
#    x 3.188670 0.000000 0.043280 
#    y 0.000000 2.421010 0.000000 
#    z 0.043280 0.000000 2.827730 
# 
# 
# High freq. dielectric constant tensor:
#      x y z
#    x 1.580460 0.000000 -0.005320 
#    y 0.000000 1.528670 0.000000 
#    z -0.005320 0.000000 1.558780 
# 
# From -- ./inp_files/53363.got.cif
#   From: 2010.06.25/outbox.cif.g09.slc.cpg/sg10_27_cif.got.tgz:53363.got - 2010.06.27 22:07:45.
