data_PCOD8056640
_publ_section_title
;
Structure prediction by ZEFSAII (Michael W. Deem and Ramdas Pophale) SiO2 
 PCOD8056640
Probable space group: C C
;
_chemical_formula_sum "Si O2"
_cell_formula_units_Z 32
_cell_length_a 7.666644
_cell_length_b 22.409888
_cell_length_c 10.663868
_cell_angle_alpha 90.000000
_cell_angle_beta 126.764771
_cell_angle_gamma 90.000000
_cell_volume 1467.730180
_symmetry_space_group_name_H-M "C C"
_symmetry_group_IT_number 9
_symmetry_cell_setting 'monoclinic'
loop_
_space_group_symop_operation_xyz
x,y,z
x,-y,1/2+z
1/2+x,1/2+y,z
1/2+x,1/2-y,1/2+z
loop_
_atom_site_type_symbol
_atom_site_label
_atom_site_fract_x
_atom_site_fract_y
_atom_site_fract_z
Si Si1 0.104570 0.777780 0.869490
Si Si2 0.546133 0.995506 0.211765
Si Si3 0.929897 0.621090 0.542122
Si Si4 0.810848 0.207812 0.731083
Si Si5 0.242145 0.814808 0.537488
Si Si6 0.235471 0.080854 0.207341
Si Si7 0.269492 0.456388 0.556751
Si Si8 0.656366 0.172451 0.071921
O O1 0.245540 0.749628 0.819150
O O2 0.880286 0.807139 0.731148
O O3 0.247658 0.829449 0.997466
O O4 0.056020 0.724782 0.944407
O O5 0.421640 0.933028 0.136739
O O6 0.692581 0.991804 0.400227
O O7 0.358632 0.043867 0.153254
O O8 0.688244 0.013007 0.150685
O O9 0.899000 0.595278 0.390081
O O10 0.168611 0.648913 0.656171
O O11 0.781681 0.246681 0.594391
O O12 0.059565 0.186028 0.850905
O O13 0.154005 0.856462 0.612753
O O14 0.472321 0.842138 0.594745
O O15 0.031700 0.043347 0.172463
O O16 0.190234 0.388076 0.509380
#
# Coordination Sequence:
#
# PCOD8056640 Si02
#       8
#     4   4   4   4   4   4   4   4
#     4  12  22  41  70 102 140 187 238 299 366 444
#     4  12  28  50  73 109 146 198 256 303 369 444
#     4  12  24  45  75 104 142 193 248 303 370 444
#     4  12  22  43  71 101 141 193 239 296 377 439
#     4  12  23  43  69 105 151 187 242 303 373 444
#     4  12  25  48  73 104 149 195 250 309 367 438
#     4  12  27  48  78 105 151 197 248 309 369 439
#     4  12  25  42  67 108 148 184 243 302 371 442
#
# _framework density 21.802371999999998
#
# number of rings (size 3 to 8) (size 9 to 14) (size 15 to 20)
#    0.000    0.000    7.500    3.000    1.750    0.000 
#    2.250    0.000    0.000    0.000    0.000    0.000 
#    0.000    0.000    0.000    0.000    0.000    0.000 
#
# Total GULP energy -198461.344515 kJ/mol
# GULP energy per Si atom -12403.834032 kJ/mol
# Density = 2.175275 g / cm^3
# Si number density = 21.802372 Si / 1000 Ang^3
#
#
#
# Elastic Constant Matrix: (Units=GPa)
#
#
# Indices 1 2 3 4 5 6 
#
# 1 106.1316 30.1782 31.4100 0.0000 4.3899 0.0000
# 2 30.1782 111.4343 39.0155 0.0000 -2.5983 0.0000
# 3 31.4100 39.0155 104.4369 0.0000 1.7509 0.0000
# 4 0.0000 0.0000 0.0000 42.8635 0.0000 -5.3951
# 5 4.3899 -2.5983 1.7509 0.0000 34.9729 0.0000
# 6 0.0000 0.0000 0.0000 -5.3951 0.0000 33.4307
#
#
#
# Elastic Compliance Matrix: (Units=1/GPa)
#
#
# Indices 1 2 3 4 5 6 
#
# 1 0.010800 -0.002103 -0.002439 0.000000 -0.001390 0.000000
# 2 -0.002103 0.010766 -0.003410 0.000000 0.001235 0.000000
# 3 -0.002439 -0.003410 0.011592 0.000000 -0.000528 0.000000
# 4 0.000000 0.000000 0.000000 0.023814 0.000000 0.003843
# 5 -0.001390 0.001235 -0.000528 0.000000 0.028886 0.000000
# 6 0.000000 0.000000 0.000000 0.003843 0.000000 0.030533
#
#
# Mechanical properties :
#
#
# Convention : Reuss Voigt Hill
#
# Bulk Modulus (GPa) = 57.96235 58.13446 58.04841
# Shear Modulus (GPa) = 36.21991 37.01337 36.61664
#
# Velocity S-wave (km/s) = 4.08031 4.12476 4.10259
# Velocity P-wave (km/s) = 6.98868 7.02901 7.00887
#
# Compressibility (1/GPa) = 0.01725258
#
# Stress axis : x y z
#
# Youngs Moduli (GPa) = 92.59594 92.88292 86.26975
#
# Poissons Ratio (x) = 0.19535 0.21042
# Poissons Ratio (y) = 0.19474 0.29420
# Poissons Ratio (z) = 0.22585 0.31675
#
# Static dielectric constant tensor:
#      x y z
#    x 3.824180 0.000000 0.027120 
#    y 0.000000 4.161430 0.000000 
#    z 0.027120 0.000000 3.929580 
# 
# 
# High freq. dielectric constant tensor:
#      x y z
#    x 1.847720 0.000000 0.006270 
#    y 0.000000 1.871120 0.000000 
#    z 0.006270 0.000000 1.862100 
# 
# From -- ./inp_files/5781.got.cif
#   From: 2010.06.25/outbox.cif.g09.slc.cpg/sg9_3_cif.got.tgz:5781.got - 2010.06.27 21:40:51.
