data_PCOD8056678
_publ_section_title
;
Structure prediction by ZEFSAII (Michael W. Deem and Ramdas Pophale) SiO2 
 PCOD8056678
Probable space group: C C
;
_chemical_formula_sum "Si O2"
_cell_formula_units_Z 28
_cell_length_a 7.579832
_cell_length_b 20.423405
_cell_length_c 12.231299
_cell_angle_alpha 90.000000
_cell_angle_beta 36.227879
_cell_angle_gamma 90.000000
_cell_volume 1119.042308
_symmetry_space_group_name_H-M "C C"
_symmetry_group_IT_number 9
_symmetry_cell_setting 'monoclinic'
loop_
_space_group_symop_operation_xyz
x,y,z
x,-y,1/2+z
1/2+x,1/2+y,z
1/2+x,1/2-y,1/2+z
loop_
_atom_site_type_symbol
_atom_site_label
_atom_site_fract_x
_atom_site_fract_y
_atom_site_fract_z
Si Si1 0.481640 0.715979 0.644660
Si Si2 0.043155 0.553320 0.491138
Si Si3 0.581768 0.518139 0.346142
Si Si4 0.402146 0.192740 0.628971
Si Si5 0.389513 0.850689 0.757516
Si Si6 0.822685 0.315149 0.417430
Si Si7 0.908778 0.076428 0.110435
O O1 0.616458 0.716397 0.701112
O O2 0.438047 0.793835 0.641453
O O3 0.702144 0.680206 0.451597
O O4 0.155124 0.682935 0.800610
O O5 0.232669 0.524461 0.496608
O O6 0.194103 0.536021 0.299845
O O7 0.723927 0.519097 0.669266
O O8 0.035836 0.631720 0.496822
O O9 0.710549 0.590335 0.293609
O O10 0.605896 0.475576 0.443904
O O11 0.660022 0.246311 0.520494
O O12 0.302131 0.170192 0.798223
O O13 0.710308 0.876651 0.633547
O O14 0.638927 0.376181 0.561277
#
# Coordination Sequence:
#
# PCOD8056678 Si02
#       7
#     4   4   4   4   4   4   4
#     4  12  26  47  81 114 154 214 262 332 414 472
#     4  12  27  49  76 112 155 211 263 330 403 473
#     4  12  28  52  77 113 161 208 272 324 407 487
#     4  12  24  46  74 114 159 200 264 335 394 474
#     4  12  27  51  77 113 158 201 269 336 397 481
#     4  12  25  46  78 113 159 205 266 334 403 474
#     4  12  27  51  77 115 158 213 266 337 394 487
#
# _framework density 25.021394000000001
#
# number of rings (size 3 to 8) (size 9 to 14) (size 15 to 20)
#    0.000    0.000    5.714    4.286    2.000    1.143 
#    5.143    0.000    0.000    0.000    0.000    0.000 
#    0.000    0.000    0.000    0.000    0.000    0.000 
#
# Total GULP energy -173617.260874 kJ/mol
# GULP energy per Si atom -12401.232920 kJ/mol
# Density = 2.496444 g / cm^3
# Si number density = 25.021394 Si / 1000 Ang^3
#
#
#
# Elastic Constant Matrix: (Units=GPa)
#
#
# Indices 1 2 3 4 5 6 
#
# 1 55.8624 12.4025 22.9006 0.0000 -17.7885 0.0000
# 2 12.4025 118.3924 36.7223 0.0000 -2.0466 0.0000
# 3 22.9006 36.7223 113.2631 0.0000 1.0490 0.0000
# 4 0.0000 0.0000 0.0000 42.7693 0.0000 -1.4220
# 5 -17.7885 -2.0466 1.0490 0.0000 48.5086 0.0000
# 6 0.0000 0.0000 0.0000 -1.4220 0.0000 33.2634
#
#
#
# Elastic Compliance Matrix: (Units=1/GPa)
#
#
# Indices 1 2 3 4 5 6 
#
# 1 0.022526 -0.000867 -0.004351 0.000000 0.008318 0.000000
# 2 -0.000867 0.009435 -0.002885 0.000000 0.000143 0.000000
# 3 -0.004351 -0.002885 0.010662 0.000000 -0.001948 0.000000
# 4 0.000000 0.000000 0.000000 0.023415 0.000000 0.001001
# 5 0.008318 0.000143 -0.001948 0.000000 0.023713 0.000000
# 6 0.000000 0.000000 0.000000 0.001001 0.000000 0.030106
#
#
# Mechanical properties :
#
#
# Convention : Reuss Voigt Hill
#
# Bulk Modulus (GPa) = 37.85272 47.95207 42.90239
# Shear Modulus (GPa) = 34.51459 39.27443 36.89451
#
# Velocity S-wave (km/s) = 3.71806 3.96616 3.84411
# Velocity P-wave (km/s) = 5.79594 6.33876 6.07342
#
# Compressibility (1/GPa) = 0.02641818
#
# Stress axis : x y z
#
# Youngs Moduli (GPa) = 44.39372 105.99295 93.79046
#
# Poissons Ratio (x) = 0.09184 0.40804
# Poissons Ratio (y) = 0.03847 0.27059
# Poissons Ratio (z) = 0.19314 0.30579
#
# Static dielectric constant tensor:
#      x y z
#    x 4.403190 0.000000 -0.138300 
#    y 0.000000 4.628240 0.000000 
#    z -0.138300 0.000000 4.576180 
# 
# 
# High freq. dielectric constant tensor:
#      x y z
#    x 1.987910 0.000000 -0.010870 
#    y 0.000000 2.005410 0.000000 
#    z -0.010870 0.000000 2.011680 
# 
# From -- ./inp_files/5847.got.cif
#   From: 2010.06.25/outbox.cif.g09.slc.cpg/sg9_3_cif.got.tgz:5847.got - 2010.06.27 21:40:51.
