data_PCOD8056404
_publ_section_title
;
Structure prediction by ZEFSAII (Michael W. Deem and Ramdas Pophale) SiO2 
 PCOD8056404
Probable space group: C C
;
_chemical_formula_sum "Si O2"
_cell_formula_units_Z 28
_cell_length_a 13.171027
_cell_length_b 6.645329
_cell_length_c 15.871524
_cell_angle_alpha 90.000000
_cell_angle_beta 120.883796
_cell_angle_gamma 90.000000
_cell_volume 1192.197982
_symmetry_space_group_name_H-M "C C"
_symmetry_group_IT_number 9
_symmetry_cell_setting 'monoclinic'
loop_
_space_group_symop_operation_xyz
x,y,z
x,-y,1/2+z
1/2+x,1/2+y,z
1/2+x,1/2-y,1/2+z
loop_
_atom_site_type_symbol
_atom_site_label
_atom_site_fract_x
_atom_site_fract_y
_atom_site_fract_z
Si Si1 0.503690 0.207065 0.159890
Si Si2 0.436852 0.150020 0.517592
Si Si3 0.142501 0.027846 0.120362
Si Si4 0.570528 0.150020 0.802188
Si Si5 0.364879 0.527846 0.199418
Si Si6 0.705512 0.234635 0.015971
Si Si7 0.301868 0.234635 0.303808
O O1 0.605006 0.347517 0.165744
O O2 0.402374 0.347517 0.154036
O O3 0.455125 0.072090 0.062190
O O4 0.552255 0.072090 0.257590
O O5 0.551636 0.286378 0.582406
O O6 0.326881 0.254918 0.516066
O O7 0.405219 0.136457 0.404700
O O8 0.160055 0.949802 0.032008
O O9 0.271500 0.096595 0.209668
O O10 0.455744 0.286378 0.737374
O O11 0.680499 0.254918 0.803714
O O12 0.602161 0.136457 0.915080
O O13 0.235880 0.596595 0.110112
O O14 0.347325 0.449802 0.287772
#
# Coordination Sequence:
#
# PCOD8056404 Si02
#       7
#     4   4   4   4   4   4   4
#     4  12  22  44  70  92 150 174 220 298 332 396
#     4  11  24  47  66 102 139 179 231 292 333 416
#     4  12  24  47  67 103 140 181 230 289 338 417
#     4  11  24  47  66 102 139 179 231 292 333 416
#     4  12  24  47  67 103 140 181 230 289 338 417
#     4  11  24  44  72  97 138 183 232 277 357 404
#     4  11  24  44  72  97 138 183 232 277 357 404
#
# _framework density 23.486032999999999
#
# number of rings (size 3 to 8) (size 9 to 14) (size 15 to 20)
#    0.000    0.571    5.714    2.571    0.000    2.286 
#    5.143    0.000    0.000    0.000    0.000    0.000 
#    0.000    0.000    0.000    0.000    0.000    0.000 
#
# Total GULP energy -173599.532397 kJ/mol
# GULP energy per Si atom -12399.966600 kJ/mol
# Density = 2.343258 g / cm^3
# Si number density = 23.486033 Si / 1000 Ang^3
#
#
#
# Elastic Constant Matrix: (Units=GPa)
#
#
# Indices 1 2 3 4 5 6 
#
# 1 48.0700 26.5377 29.6968 0.0000 -2.8337 0.0000
# 2 26.5377 89.6262 44.6101 0.0000 22.5919 0.0000
# 3 29.6968 44.6101 160.0064 0.0000 18.8154 0.0000
# 4 0.0000 0.0000 0.0000 32.1150 0.0000 -7.5211
# 5 -2.8337 22.5919 18.8154 0.0000 19.5935 0.0000
# 6 0.0000 0.0000 0.0000 -7.5211 0.0000 36.2510
#
#
#
# Elastic Compliance Matrix: (Units=1/GPa)
#
#
# Indices 1 2 3 4 5 6 
#
# 1 0.033142 -0.013600 -0.005374 0.000000 0.025635 0.000000
# 2 -0.013600 0.022282 -0.000491 0.000000 -0.027187 0.000000
# 3 -0.005374 -0.000491 0.008352 0.000000 -0.008231 0.000000
# 4 0.000000 0.000000 0.000000 0.032728 0.000000 0.006790
# 5 0.025635 -0.027187 -0.008231 0.000000 0.093997 0.000000
# 6 0.000000 0.000000 0.000000 0.006790 0.000000 0.028994
#
#
# Mechanical properties :
#
#
# Convention : Reuss Voigt Hill
#
# Bulk Modulus (GPa) = 40.24840 55.48800 47.86820
# Shear Modulus (GPa) = 18.74715 30.71576 24.73146
#
# Velocity S-wave (km/s) = 2.82835 3.62032 3.24856
# Velocity P-wave (km/s) = 5.27641 6.41505 5.87339
#
# Compressibility (1/GPa) = 0.02484571
#
# Stress axis : x y z
#
# Youngs Moduli (GPa) = 30.17303 44.87974 119.73240
#
# Poissons Ratio (x) = 0.61037 0.64342
# Poissons Ratio (y) = 0.41036 0.05880
# Poissons Ratio (z) = 0.16214 0.02204
#
# Static dielectric constant tensor:
#      x y z
#    x 4.273610 0.000000 -0.167800 
#    y 0.000000 4.197410 0.000000 
#    z -0.167800 0.000000 4.811310 
# 
# 
# High freq. dielectric constant tensor:
#      x y z
#    x 1.938190 0.000000 -0.005240 
#    y 0.000000 1.923710 0.000000 
#    z -0.005240 0.000000 1.936840 
# 
# From -- ./inp_files/25306.got.cif
#   From: 2010.06.25/outbox.cif.g09.slc.cpg/sg9_13_cif.got.tgz:25306.got - 2010.06.27 21:40:51.
