data_PCOD8056075
_publ_section_title
;
Structure prediction by ZEFSAII (Michael W. Deem and Ramdas Pophale) SiO2 
 PCOD8056075
Probable space group: C C
;
_chemical_formula_sum "Si O2"
_cell_formula_units_Z 32
_cell_length_a 19.390517
_cell_length_b 5.502811
_cell_length_c 13.225877
_cell_angle_alpha 90.000000
_cell_angle_beta 107.710116
_cell_angle_gamma 90.000000
_cell_volume 1344.350745
_symmetry_space_group_name_H-M "C C"
_symmetry_group_IT_number 9
_symmetry_cell_setting 'monoclinic'
loop_
_space_group_symop_operation_xyz
x,y,z
x,-y,1/2+z
1/2+x,1/2+y,z
1/2+x,1/2-y,1/2+z
loop_
_atom_site_type_symbol
_atom_site_label
_atom_site_fract_x
_atom_site_fract_y
_atom_site_fract_z
Si Si1 0.359740 0.027902 0.156130
Si Si2 0.522736 0.937547 0.978241
Si Si3 0.915255 0.831637 0.013683
Si Si4 0.205194 0.126408 0.590431
Si Si5 0.116556 0.279137 0.368191
Si Si6 0.152337 0.374437 0.167613
Si Si7 0.474465 0.350847 0.701785
Si Si8 0.903011 0.137382 0.835602
O O1 0.291570 0.851279 0.113009
O O2 0.440347 0.917616 0.171060
O O3 0.355786 0.222652 0.063159
O O4 0.356224 0.140468 0.268748
O O5 0.582449 0.010336 0.921708
O O6 0.482169 0.709877 0.912625
O O7 0.462787 0.143206 0.970271
O O8 0.565955 0.867050 0.100887
O O9 0.973774 0.001669 0.097015
O O10 0.866773 0.993420 0.913247
O O11 0.166286 0.114105 0.463431
O O12 0.184503 0.372055 0.640690
O O13 0.188888 0.871513 0.640266
O O14 0.162188 0.384681 0.293582
O O15 0.052697 0.125304 0.287278
O O16 0.413285 0.459181 0.747175
#
# Coordination Sequence:
#
# PCOD8056075 Si02
#       8
#     4   4   4   4   4   4   4   4
#     4  11  25  47  69 105 149 188 246 308 368 445
#     4  11  23  43  71 113 142 181 249 310 368 447
#     4  11  23  40  71 107 139 185 233 314 371 440
#     4  11  29  52  72 106 154 198 255 305 363 456
#     4  11  23  47  73 106 145 196 244 309 376 438
#     4  11  27  47  76 106 148 202 248 304 369 444
#     4  11  23  40  74 102 141 183 240 310 370 435
#     4  11  21  40  70 105 142 181 235 302 379 433
#
# _framework density 23.803311000000001
#
# number of rings (size 3 to 8) (size 9 to 14) (size 15 to 20)
#    0.000    1.000    2.500    3.000   10.500    2.000 
#    6.750    0.000    0.000    0.000    0.000    0.000 
#    0.000    0.000    0.000    0.000    0.000    0.000 
#
# Total GULP energy -198284.717051 kJ/mol
# GULP energy per Si atom -12392.794816 kJ/mol
# Density = 2.374913 g / cm^3
# Si number density = 23.803311 Si / 1000 Ang^3
#
#
#
# Elastic Constant Matrix: (Units=GPa)
#
#
# Indices 1 2 3 4 5 6 
#
# 1 93.7525 26.6963 37.2187 0.0000 10.5544 0.0000
# 2 26.6963 104.0804 41.5564 0.0000 -7.4348 0.0000
# 3 37.2187 41.5564 157.7947 0.0000 -7.7968 0.0000
# 4 0.0000 0.0000 0.0000 32.6005 0.0000 5.7006
# 5 10.5544 -7.4348 -7.7968 0.0000 23.5505 0.0000
# 6 0.0000 0.0000 0.0000 5.7006 0.0000 26.8264
#
#
#
# Elastic Compliance Matrix: (Units=1/GPa)
#
#
# Indices 1 2 3 4 5 6 
#
# 1 0.013497 -0.002905 -0.002809 0.000000 -0.007896 0.000000
# 2 -0.002905 0.011508 -0.002137 0.000000 0.004227 0.000000
# 3 -0.002809 -0.002137 0.007718 0.000000 0.003139 0.000000
# 4 0.000000 0.000000 0.000000 0.031858 0.000000 -0.006770
# 5 -0.007896 0.004227 0.003139 0.000000 0.048375 0.000000
# 6 0.000000 0.000000 0.000000 -0.006770 0.000000 0.038715
#
#
# Mechanical properties :
#
#
# Convention : Reuss Voigt Hill
#
# Bulk Modulus (GPa) = 58.74438 62.95225 60.84831
# Shear Modulus (GPa) = 28.89407 33.27255 31.08331
#
# Velocity S-wave (km/s) = 3.48784 3.74279 3.61756
# Velocity P-wave (km/s) = 6.39943 6.72177 6.56258
#
# Compressibility (1/GPa) = 0.01702291
#
# Stress axis : x y z
#
# Youngs Moduli (GPa) = 74.08817 86.89529 129.57220
#
# Poissons Ratio (x) = 0.25240 0.36394
# Poissons Ratio (y) = 0.21520 0.27686
# Poissons Ratio (z) = 0.20810 0.18567
#
# Static dielectric constant tensor:
#      x y z
#    x 3.841730 0.000000 0.075780 
#    y 0.000000 4.305330 0.000000 
#    z 0.075780 0.000000 4.723300 
# 
# 
# High freq. dielectric constant tensor:
#      x y z
#    x 1.909340 0.000000 -0.000320 
#    y 0.000000 1.946030 0.000000 
#    z -0.000320 0.000000 1.970940 
# 
# From -- ./inp_files/19815.got.cif
#   From: 2010.06.25/outbox.cif.g09.slc.cpg/sg9_10_cif.got.tgz:19815.got - 2010.06.27 21:40:51.
