data_PCOD8056562
_publ_section_title
;
Structure prediction by ZEFSAII (Michael W. Deem and Ramdas Pophale) SiO2 
 PCOD8056562
Probable space group: C C
;
_chemical_formula_sum "Si O2"
_cell_formula_units_Z 32
_cell_length_a 5.256177
_cell_length_b 34.003945
_cell_length_c 8.954886
_cell_angle_alpha 90.000000
_cell_angle_beta 121.297002
_cell_angle_gamma 90.000000
_cell_volume 1367.616419
_symmetry_space_group_name_H-M "C C"
_symmetry_group_IT_number 9
_symmetry_cell_setting 'monoclinic'
loop_
_space_group_symop_operation_xyz
x,y,z
x,-y,1/2+z
1/2+x,1/2+y,z
1/2+x,1/2-y,1/2+z
loop_
_atom_site_type_symbol
_atom_site_label
_atom_site_fract_x
_atom_site_fract_y
_atom_site_fract_z
Si Si1 0.784680 0.724304 0.273660
Si Si2 0.371985 0.173459 0.555990
Si Si3 0.294322 0.225110 0.788773
Si Si4 0.000611 0.033254 0.436393
Si Si5 0.705865 0.034714 0.662642
Si Si6 0.373040 0.380130 0.234805
Si Si7 0.854272 0.665967 0.051192
Si Si8 0.371072 0.619364 0.375624
O O1 0.982816 0.703473 0.462323
O O2 0.506739 0.743107 0.275717
O O3 0.672668 0.691578 0.119751
O O4 0.995157 0.756404 0.262820
O O5 0.180950 0.195793 0.624490
O O6 0.648172 0.153318 0.723368
O O7 0.173025 0.140310 0.414594
O O8 0.465959 0.199232 0.967111
O O9 0.917211 0.032127 0.583930
O O10 0.886675 0.074058 0.327621
O O11 0.355848 0.028841 0.521500
O O12 0.817136 0.998368 0.307760
O O13 0.763527 0.077106 0.757418
O O14 0.677005 0.368165 0.409240
O O15 0.367414 0.379157 0.053908
O O16 0.110953 0.642829 0.215483
#
# Coordination Sequence:
#
# PCOD8056562 Si02
#       8
#     4   4   4   4   4   4   4   4
#     4  12  27  47  72 109 144 194 256 316 378 452
#     4  12  24  48  71  98 160 188 240 320 381 432
#     4  12  27  47  72 109 144 194 256 316 378 452
#     4  11  25  49  78 114 158 199 245 308 373 447
#     4  11  25  49  78 114 158 199 245 308 373 447
#     4  11  25  49  73 112 154 195 252 313 377 445
#     4  12  26  48  79 108 142 210 256 306 387 462
#     4  11  25  49  73 112 154 195 252 313 377 445
#
# _framework density 23.398372999999999
#
# number of rings (size 3 to 8) (size 9 to 14) (size 15 to 20)
#    0.000    0.500    3.750    3.750    1.750    3.000 
#    4.500    0.000    0.000    0.000    0.000    0.000 
#    0.000    0.000    0.000    0.000    0.000    0.000 
#
# Total GULP energy -198313.222741 kJ/mol
# GULP energy per Si atom -12394.576421 kJ/mol
# Density = 2.334512 g / cm^3
# Si number density = 23.398373 Si / 1000 Ang^3
#
#
#
# Elastic Constant Matrix: (Units=GPa)
#
#
# Indices 1 2 3 4 5 6 
#
# 1 69.2251 9.4979 9.6948 0.0000 -0.0832 0.0000
# 2 9.4979 130.3520 41.7806 0.0000 -1.9976 0.0000
# 3 9.6948 41.7806 106.6057 0.0000 1.6010 0.0000
# 4 0.0000 0.0000 0.0000 35.9101 0.0000 -9.0886
# 5 -0.0832 -1.9976 1.6010 0.0000 35.8334 0.0000
# 6 0.0000 0.0000 0.0000 -9.0886 0.0000 21.7694
#
#
#
# Elastic Compliance Matrix: (Units=1/GPa)
#
#
# Indices 1 2 3 4 5 6 
#
# 1 0.014693 -0.000734 -0.001049 0.000000 0.000040 0.000000
# 2 -0.000734 0.008825 -0.003402 0.000000 0.000642 0.000000
# 3 -0.001049 -0.003402 0.010819 0.000000 -0.000675 0.000000
# 4 0.000000 0.000000 0.000000 0.031138 0.000000 0.013000
# 5 0.000040 0.000642 -0.000675 0.000000 0.027973 0.000000
# 6 0.000000 0.000000 0.000000 0.013000 0.000000 0.051364
#
#
# Mechanical properties :
#
#
# Convention : Reuss Voigt Hill
#
# Bulk Modulus (GPa) = 41.72174 47.56993 44.64583
# Shear Modulus (GPa) = 30.64285 35.04986 32.84636
#
# Velocity S-wave (km/s) = 3.62279 3.87455 3.75078
# Velocity P-wave (km/s) = 5.94720 6.35537 6.15467
#
# Compressibility (1/GPa) = 0.02396832
#
# Stress axis : x y z
#
# Youngs Moduli (GPa) = 68.05829 113.31272 92.42924
#
# Poissons Ratio (x) = 0.08313 0.09698
# Poissons Ratio (y) = 0.04993 0.31441
# Poissons Ratio (z) = 0.07141 0.38545
#
# Static dielectric constant tensor:
#      x y z
#    x 4.115090 0.000000 -0.203290 
#    y 0.000000 4.785180 0.000000 
#    z -0.203290 0.000000 4.308840 
# 
# 
# High freq. dielectric constant tensor:
#      x y z
#    x 1.923270 0.000000 -0.006730 
#    y 0.000000 1.946380 0.000000 
#    z -0.006730 0.000000 1.926000 
# 
# From -- ./inp_files/4566.got.cif
#   From: 2010.06.25/outbox.cif.g09.slc.cpg/sg9_3_cif.got.tgz:4566.got - 2010.06.27 21:40:51.
