data_PCOD8056730
_publ_section_title
;
Structure prediction by ZEFSAII (Michael W. Deem and Ramdas Pophale) SiO2 
 PCOD8056730
Probable space group: C C
;
_chemical_formula_sum "Si O2"
_cell_formula_units_Z 24
_cell_length_a 8.230272
_cell_length_b 13.519070
_cell_length_c 17.775269
_cell_angle_alpha 90.000000
_cell_angle_beta 150.097389
_cell_angle_gamma 90.000000
_cell_volume 985.975411
_symmetry_space_group_name_H-M "C C"
_symmetry_group_IT_number 9
_symmetry_cell_setting 'monoclinic'
loop_
_space_group_symop_operation_xyz
x,y,z
x,-y,1/2+z
1/2+x,1/2+y,z
1/2+x,1/2-y,1/2+z
loop_
_atom_site_type_symbol
_atom_site_label
_atom_site_fract_x
_atom_site_fract_y
_atom_site_fract_z
Si Si1 0.353350 0.267679 0.530010
Si Si2 0.379264 0.086029 0.203696
Si Si3 0.275763 0.896316 0.247213
Si Si4 0.749614 0.923826 0.160287
Si Si5 0.244627 0.917232 0.475786
Si Si6 0.927400 0.209670 0.485472
O O1 0.585580 0.361527 0.629942
O O2 0.535993 0.175976 0.562998
O O3 0.022753 0.303927 0.355562
O O4 0.262654 0.234759 0.577733
O O5 0.263203 0.063901 0.072205
O O6 0.683879 0.161247 0.326518
O O7 0.465488 0.989683 0.287776
O O8 0.086157 0.919943 0.248300
O O9 0.991682 0.869976 0.075195
O O10 0.881334 0.943801 0.298932
O O11 0.520378 0.015603 0.045942
O O12 0.279952 0.803804 0.467615
#
# Coordination Sequence:
#
# PCOD8056730 Si02
#       6
#     4   4   4   4   4   4
#     4  12  25  50  76 113 152 197 251 314 380 449
#     4  12  28  50  78 113 153 200 258 315 380 457
#     4  12  28  49  79 113 151 205 253 314 384 452
#     4  12  29  51  79 113 156 203 255 317 382 456
#     4  12  28  51  77 113 154 199 260 313 381 457
#     4  12  26  49  77 113 152 198 255 313 385 453
#
# _framework density 24.341377000000001
#
# number of rings (size 3 to 8) (size 9 to 14) (size 15 to 20)
#    0.000    0.000    3.333    5.000   14.000    1.333 
#    0.000    0.000    0.000    0.000    0.000    0.000 
#    0.000    0.000    0.000    0.000    0.000    0.000 
#
# Total GULP energy -148815.917641 kJ/mol
# GULP energy per Si atom -12401.326470 kJ/mol
# Density = 2.428598 g / cm^3
# Si number density = 24.341377 Si / 1000 Ang^3
#
#
#
# Elastic Constant Matrix: (Units=GPa)
#
#
# Indices 1 2 3 4 5 6 
#
# 1 93.7767 35.4093 36.8558 -0.0008 -4.7899 0.0006
# 2 35.4093 126.5449 50.7286 0.0065 1.2242 0.0030
# 3 36.8558 50.7286 126.6498 -0.0125 2.5651 -0.0081
# 4 -0.0008 0.0065 -0.0125 52.1814 0.0067 6.2968
# 5 -4.7899 1.2242 2.5651 0.0067 33.7070 0.0027
# 6 0.0006 0.0030 -0.0081 6.2968 0.0027 33.2864
#
#
#
# Elastic Compliance Matrix: (Units=1/GPa)
#
#
# Indices 1 2 3 4 5 6 
#
# 1 0.012802 -0.002492 -0.002770 0.000000 0.002120 -0.000001
# 2 -0.002492 0.009899 -0.003230 -0.000002 -0.000468 -0.000001
# 3 -0.002770 -0.003230 0.010017 0.000003 -0.001039 0.000002
# 4 0.000000 -0.000002 0.000003 0.019612 -0.000004 -0.003710
# 5 0.002120 -0.000468 -0.001039 -0.000004 0.030065 -0.000002
# 6 -0.000001 -0.000001 0.000002 -0.003710 -0.000002 0.030744
#
#
# Mechanical properties :
#
#
# Convention : Reuss Voigt Hill
#
# Bulk Modulus (GPa) = 63.56275 65.88430 64.72353
# Shear Modulus (GPa) = 36.93651 38.76681 37.85166
#
# Velocity S-wave (km/s) = 3.89966 3.99511 3.94767
# Velocity P-wave (km/s) = 6.81514 6.95749 6.88669
#
# Compressibility (1/GPa) = 0.01573248
#
# Stress axis : x y z
#
# Youngs Moduli (GPa) = 78.11496 101.01863 99.83214
#
# Poissons Ratio (x) = 0.25176 0.27654
# Poissons Ratio (y) = 0.19468 0.32249
# Poissons Ratio (z) = 0.21638 0.32632
#
# Static dielectric constant tensor:
#      x y z
#    x 4.223380 -0.000020 0.066490 
#    y -0.000020 4.488850 -0.000040 
#    z 0.066490 -0.000040 4.498520 
# 
# 
# High freq. dielectric constant tensor:
#      x y z
#    x 1.963260 0.000000 0.005330 
#    y 0.000000 1.980150 0.000000 
#    z 0.005330 0.000000 1.974790 
# 
# From -- ./inp_files/4773.got.cif
#   From: 2010.06.25/outbox.cif.g09.slc.cpg/sg9_3_cif.got.tgz:4773.got - 2010.06.27 21:40:51.
