data_PCOD8056898
_publ_section_title
;
Structure prediction by ZEFSAII (Michael W. Deem and Ramdas Pophale) SiO2 
 PCOD8056898
Probable space group: P 2/M
;
_chemical_formula_sum "Si O2"
_cell_formula_units_Z 22
_cell_length_a 9.949398
_cell_length_b 9.688197
_cell_length_c 14.176594
_cell_angle_alpha 90.000000
_cell_angle_beta 120.323815
_cell_angle_gamma 90.000000
_cell_volume 1179.548870
_symmetry_space_group_name_H-M "P 2/M"
_symmetry_group_IT_number 10
_symmetry_cell_setting 'monoclinic'
loop_
_space_group_symop_operation_xyz
x,y,z
-x,y,-z
-x,-y,-z
x,-y,z
loop_
_atom_site_type_symbol
_atom_site_label
_atom_site_fract_x
_atom_site_fract_y
_atom_site_fract_z
Si Si1 0.449476 0.840245 0.875928
Si Si2 0.308221 0.345574 0.532143
Si Si3 0.000000 0.246815 0.500000
Si Si4 0.830868 0.661057 0.706754
Si Si5 0.572183 0.661681 0.758619
Si Si6 0.094454 0.155060 0.731979
O O1 0.562232 0.747618 0.851185
O O2 0.271544 0.791866 0.799259
O O3 0.470008 0.000000 0.854629
O O4 0.500000 0.812912 0.000000
O O5 0.367639 0.500000 0.538817
O O6 0.147837 0.343649 0.533675
O O7 0.280571 0.282472 0.417870
O O8 0.444974 0.272969 0.640572
O O9 0.034204 0.152727 0.602996
O O10 0.870397 0.500000 0.703058
O O11 0.743607 0.683052 0.774913
O O12 0.991612 0.745872 0.762473
O O13 0.540600 0.500000 0.768480
O O14 0.082869 0.000000 0.768231
#
# Coordination Sequence:
#
# PCOD8056898 Si02
#       6
#     4   4   2   4   4   4
#     4  10  22  40  58  76 102 140 183 222 261 311
#     4   9  16  27  48  78 111 143 173 205 255 319
#     4  10  16  28  50  78 109 138 167 218 263 314
#     4   9  19  33  52  79 112 144 172 208 261 321
#     4  10  19  34  55  80 108 139 177 220 261 307
#     4  10  20  34  53  78 107 138 175 219 265 311
#
# _framework density 18.651197
#
# number of rings (size 3 to 8) (size 9 to 14) (size 15 to 20)
#    0.000    2.364    1.818    1.091    0.000    4.727 
#    0.000    0.909    0.000    8.727    0.000    0.000 
#    0.000    0.000    0.000    0.000    0.000    0.000 
#
# Total GULP energy -272724.661980 kJ/mol
# GULP energy per Si atom -12396.575545 kJ/mol
# Density = 1.860875 g / cm^3
# Si number density = 18.651197 Si / 1000 Ang^3
#
#
#
# Elastic Constant Matrix: (Units=GPa)
#
#
# Indices 1 2 3 4 5 6 
#
# 1 115.0433 49.6644 44.9441 0.0000 -19.0319 0.0000
# 2 49.6644 68.5413 33.9942 0.0000 -14.4882 0.0000
# 3 44.9441 33.9942 66.2540 0.0000 -8.6641 0.0000
# 4 0.0000 0.0000 0.0000 21.7075 0.0000 -1.7289
# 5 -19.0319 -14.4882 -8.6641 0.0000 24.6042 0.0000
# 6 0.0000 0.0000 0.0000 -1.7289 0.0000 28.5549
#
#
#
# Elastic Compliance Matrix: (Units=1/GPa)
#
#
# Indices 1 2 3 4 5 6 
#
# 1 0.014753 -0.006612 -0.005904 0.000000 0.005439 0.000000
# 2 -0.006612 0.024330 -0.007121 0.000000 0.006704 0.000000
# 3 -0.005904 -0.007121 0.022650 0.000000 -0.000784 0.000000
# 4 0.000000 0.000000 0.000000 0.046290 0.000000 0.002803
# 5 0.005439 0.006704 -0.000784 0.000000 0.048523 0.000000
# 6 0.000000 0.000000 0.000000 0.002803 0.000000 0.035190
#
#
# Mechanical properties :
#
#
# Convention : Reuss Voigt Hill
#
# Bulk Modulus (GPa) = 44.52754 56.33822 50.43288
# Shear Modulus (GPa) = 20.96466 23.05571 22.01018
#
# Velocity S-wave (km/s) = 3.35630 3.51971 3.43898
# Velocity P-wave (km/s) = 6.24062 6.84029 6.54733
#
# Compressibility (1/GPa) = 0.02245801
#
# Stress axis : x y z
#
# Youngs Moduli (GPa) = 67.78180 41.10176 44.15042
#
# Poissons Ratio (x) = 0.27177 0.26067
# Poissons Ratio (y) = 0.44818 0.31441
# Poissons Ratio (z) = 0.40019 0.29270
#
# Static dielectric constant tensor:
#      x y z
#    x 3.423660 0.000000 0.019600 
#    y 0.000000 3.148800 0.000000 
#    z 0.019600 0.000000 3.275430 
# 
# 
# High freq. dielectric constant tensor:
#      x y z
#    x 1.728890 0.000000 -0.002710 
#    y 0.000000 1.699180 0.000000 
#    z -0.002710 0.000000 1.703600 
# 
# From -- ./inp_files/42090.got.cif
#   From: 2010.06.25/outbox.cif.g09.slc.cpg/sg10_22_cif.got.tgz:42090.got - 2010.06.27 22:07:45.
