data_PCOD8056112
_publ_section_title
;
Structure prediction by ZEFSAII (Michael W. Deem and Ramdas Pophale) SiO2 
 PCOD8056112
Probable space group: C C
;
_chemical_formula_sum "Si O2"
_cell_formula_units_Z 32
_cell_length_a 6.083468
_cell_length_b 14.656442
_cell_length_c 16.162978
_cell_angle_alpha 90.000000
_cell_angle_beta 117.257985
_cell_angle_gamma 90.000000
_cell_volume 1281.091414
_symmetry_space_group_name_H-M "C C"
_symmetry_group_IT_number 9
_symmetry_cell_setting 'monoclinic'
loop_
_space_group_symop_operation_xyz
x,y,z
x,-y,1/2+z
1/2+x,1/2+y,z
1/2+x,1/2-y,1/2+z
loop_
_atom_site_type_symbol
_atom_site_label
_atom_site_fract_x
_atom_site_fract_y
_atom_site_fract_z
Si Si1 0.786730 0.190914 0.138800
Si Si2 0.636946 0.852279 0.923863
Si Si3 0.831399 0.208274 0.967714
Si Si4 0.452431 0.562831 0.778628
Si Si5 0.493177 0.493024 0.470505
Si Si6 0.298717 0.773272 0.312289
Si Si7 0.502214 0.982956 0.632209
Si Si8 0.243764 0.083454 0.244521
O O1 0.709288 0.254080 0.203042
O O2 0.647745 0.094133 0.106458
O O3 0.076561 0.172069 0.201140
O O4 0.743157 0.242722 0.043724
O O5 0.553856 0.774360 0.974831
O O6 0.774065 0.814154 0.866109
O O7 0.386071 0.901385 0.854601
O O8 0.820771 0.932083 0.988316
O O9 0.589908 0.198000 0.866367
O O10 0.946082 0.107501 0.999631
O O11 0.443696 0.508027 0.863767
O O12 0.598254 0.656811 0.816522
O O13 0.172614 0.568281 0.693299
O O14 0.592562 0.508616 0.731173
O O15 0.776711 0.521272 0.538604
O O16 0.421230 0.927728 0.698596
#
# Coordination Sequence:
#
# PCOD8056112 Si02
#       8
#     4   4   4   4   4   4   4   4
#     4  11  24  46  75 105 155 203 251 325 386 471
#     4  12  25  48  78 111 152 201 257 321 392 470
#     4  12  27  47  77 115 153 203 259 326 399 467
#     4  11  25  45  78 110 151 203 259 320 389 470
#     4  12  25  50  77 106 158 204 259 325 392 479
#     4  12  25  48  73 114 155 199 255 324 394 463
#     4  11  24  48  75 107 147 211 259 310 397 467
#     4  11  21  48  75 100 145 204 251 309 391 461
#
# _framework density 24.978701999999998
#
# number of rings (size 3 to 8) (size 9 to 14) (size 15 to 20)
#    0.000    0.500    6.250    2.250    0.000    0.000 
#    2.250    2.500    0.000    0.000    0.000    0.000 
#    0.000    0.000    0.000    0.000    0.000    0.000 
#
# Total GULP energy -198347.239448 kJ/mol
# GULP energy per Si atom -12396.702466 kJ/mol
# Density = 2.492185 g / cm^3
# Si number density = 24.978702 Si / 1000 Ang^3
#
#
#
# Elastic Constant Matrix: (Units=GPa)
#
#
# Indices 1 2 3 4 5 6 
#
# 1 102.6235 44.4437 45.2280 0.0000 10.9067 0.0000
# 2 44.4437 104.3205 36.7604 0.0000 8.2531 0.0000
# 3 45.2280 36.7604 140.8189 0.0000 16.7758 0.0000
# 4 0.0000 0.0000 0.0000 29.7276 0.0000 3.5003
# 5 10.9067 8.2531 16.7758 0.0000 61.7953 0.0000
# 6 0.0000 0.0000 0.0000 3.5003 0.0000 46.1352
#
#
#
# Elastic Compliance Matrix: (Units=1/GPa)
#
#
# Indices 1 2 3 4 5 6 
#
# 1 0.013062 -0.004463 -0.002921 0.000000 -0.000916 0.000000
# 2 -0.004463 0.012110 -0.001683 0.000000 -0.000373 0.000000
# 3 -0.002921 -0.001683 0.008671 0.000000 -0.001614 0.000000
# 4 0.000000 0.000000 0.000000 0.033942 0.000000 -0.002575
# 5 -0.000916 -0.000373 -0.001614 0.000000 0.016832 0.000000
# 6 0.000000 0.000000 0.000000 -0.002575 0.000000 0.021871
#
#
# Mechanical properties :
#
#
# Convention : Reuss Voigt Hill
#
# Bulk Modulus (GPa) = 63.66128 66.73634 65.19881
# Shear Modulus (GPa) = 38.50342 42.28700 40.39521
#
# Velocity S-wave (km/s) = 3.93039 4.11898 4.02579
# Velocity P-wave (km/s) = 6.79256 7.02827 6.91142
#
# Compressibility (1/GPa) = 0.01570814
#
# Stress axis : x y z
#
# Youngs Moduli (GPa) = 76.55865 82.57705 115.32474
#
# Poissons Ratio (x) = 0.36854 0.33686
# Poissons Ratio (y) = 0.34168 0.19414
# Poissons Ratio (z) = 0.22363 0.13901
#
# Static dielectric constant tensor:
#      x y z
#    x 4.584720 0.000000 0.166350 
#    y 0.000000 4.199310 0.000000 
#    z 0.166350 0.000000 4.477370 
# 
# 
# High freq. dielectric constant tensor:
#      x y z
#    x 2.008150 0.000000 0.003500 
#    y 0.000000 1.977260 0.000000 
#    z 0.003500 0.000000 1.995490 
# 
# From -- ./inp_files/28729.got.cif
#   From: 2010.06.25/outbox.cif.g09.slc.cpg/sg9_15_cif.got.tgz:28729.got - 2010.06.27 21:40:51.
