data_PCOD8056684
_publ_section_title
;
Structure prediction by ZEFSAII (Michael W. Deem and Ramdas Pophale) SiO2 
 PCOD8056684
Probable space group: C C
;
_chemical_formula_sum "Si O2"
_cell_formula_units_Z 28
_cell_length_a 11.626553
_cell_length_b 8.322494
_cell_length_c 15.819391
_cell_angle_alpha 90.000000
_cell_angle_beta 124.144238
_cell_angle_gamma 90.000000
_cell_volume 1266.861075
_symmetry_space_group_name_H-M "C C"
_symmetry_group_IT_number 9
_symmetry_cell_setting 'monoclinic'
loop_
_space_group_symop_operation_xyz
x,y,z
x,-y,1/2+z
1/2+x,1/2+y,z
1/2+x,1/2-y,1/2+z
loop_
_atom_site_type_symbol
_atom_site_label
_atom_site_fract_x
_atom_site_fract_y
_atom_site_fract_z
Si Si1 0.396400 0.677609 0.008120
Si Si2 0.007535 0.477455 0.596556
Si Si3 0.907704 0.697509 0.836632
Si Si4 0.639585 0.984037 0.335960
Si Si5 0.755682 0.811940 0.616336
Si Si6 0.590343 0.533357 0.485737
Si Si7 0.250656 0.828409 0.428325
O O1 0.436324 0.863303 0.030324
O O2 0.349962 0.611208 0.081255
O O3 0.264583 0.648053 0.890339
O O4 0.533388 0.585725 0.033856
O O5 0.080100 0.498968 0.717063
O O6 0.120167 0.421476 0.573686
O O7 0.884163 0.343546 0.547152
O O8 0.838364 0.804396 0.736513
O O9 0.795570 0.610960 0.852312
O O10 0.015195 0.569451 0.845386
O O11 0.976367 0.832168 0.923064
O O12 0.696997 0.147574 0.398950
O O13 0.724370 0.626514 0.577226
O O14 0.627553 0.438816 0.414845
#
# Coordination Sequence:
#
# PCOD8056684 Si02
#       7
#     4   4   4   4   4   4   4
#     4  12  25  45  72 102 144 184 242 290 357 422
#     4  12  24  48  73 105 141 189 238 294 358 421
#     4  12  24  47  71  98 146 185 234 301 356 418
#     4  12  24  48  73 105 141 189 238 294 358 421
#     4  12  24  47  71  98 146 185 234 301 356 418
#     4  12  26  44  66 106 138 188 238 288 354 424
#     4  12  25  45  72 102 144 184 242 290 357 422
#
# _framework density 22.101868
#
# number of rings (size 3 to 8) (size 9 to 14) (size 15 to 20)
#    0.000    0.000    8.571    0.000    4.000    1.143 
#    5.143    2.857    0.000    0.000    0.000    0.000 
#    0.000    0.000    0.000    0.000    0.000    0.000 
#
# Total GULP energy -173566.170592 kJ/mol
# GULP energy per Si atom -12397.583614 kJ/mol
# Density = 2.205156 g / cm^3
# Si number density = 22.101868 Si / 1000 Ang^3
#
#
#
# Elastic Constant Matrix: (Units=GPa)
#
#
# Indices 1 2 3 4 5 6 
#
# 1 157.6181 60.9292 28.6550 0.0000 -33.5050 0.0000
# 2 60.9292 115.6942 48.0421 0.0000 -7.8408 0.0000
# 3 28.6550 48.0421 121.2433 0.0000 -5.3900 0.0000
# 4 0.0000 0.0000 0.0000 40.5510 0.0000 5.0365
# 5 -33.5050 -7.8408 -5.3900 0.0000 31.7155 0.0000
# 6 0.0000 0.0000 0.0000 5.0365 0.0000 46.7643
#
#
#
# Elastic Compliance Matrix: (Units=1/GPa)
#
#
# Indices 1 2 3 4 5 6 
#
# 1 0.010221 -0.004674 -0.000136 0.000000 0.009619 0.000000
# 2 -0.004674 0.012595 -0.003997 0.000000 -0.002504 0.000000
# 3 -0.000136 -0.003997 0.009888 0.000000 0.000549 0.000000
# 4 0.000000 0.000000 0.000000 0.024995 0.000000 -0.002692
# 5 0.009619 -0.002504 0.000549 0.000000 0.041166 0.000000
# 6 0.000000 0.000000 0.000000 -0.002692 0.000000 0.021674
#
#
# Mechanical properties :
#
#
# Convention : Reuss Voigt Hill
#
# Bulk Modulus (GPa) = 66.27207 74.42313 70.34760
# Shear Modulus (GPa) = 34.92012 40.93479 37.92746
#
# Velocity S-wave (km/s) = 3.97919 4.30827 4.14699
# Velocity P-wave (km/s) = 7.15275 7.64814 7.40459
#
# Compressibility (1/GPa) = 0.01508931
#
# Stress axis : x y z
#
# Youngs Moduli (GPa) = 97.84032 79.39367 101.12927
#
# Poissons Ratio (x) = 0.37112 0.01373
# Poissons Ratio (y) = 0.45734 0.40426
# Poissons Ratio (z) = 0.01329 0.31737
#
# Static dielectric constant tensor:
#      x y z
#    x 4.434510 0.000000 0.030260 
#    y 0.000000 4.049220 0.000000 
#    z 0.030260 0.000000 4.065630 
# 
# 
# High freq. dielectric constant tensor:
#      x y z
#    x 1.895180 0.000000 -0.003360 
#    y 0.000000 1.860940 0.000000 
#    z -0.003360 0.000000 1.864490 
# 
# From -- ./inp_files/24039.got.cif
#   From: 2010.06.25/outbox.cif.g09.slc.cpg/sg9_13_cif.got.tgz:24039.got - 2010.06.27 21:40:51.
