data_PCOD8056130
_publ_section_title
;
Structure prediction by ZEFSAII (Michael W. Deem and Ramdas Pophale) SiO2 
 PCOD8056130
Probable space group: C C
;
_chemical_formula_sum "Si O2"
_cell_formula_units_Z 32
_cell_length_a 11.477402
_cell_length_b 15.390535
_cell_length_c 9.231332
_cell_angle_alpha 90.000000
_cell_angle_beta 62.912225
_cell_angle_gamma 90.000000
_cell_volume 1451.787067
_symmetry_space_group_name_H-M "C C"
_symmetry_group_IT_number 9
_symmetry_cell_setting 'monoclinic'
loop_
_space_group_symop_operation_xyz
x,y,z
x,-y,1/2+z
1/2+x,1/2+y,z
1/2+x,1/2-y,1/2+z
loop_
_atom_site_type_symbol
_atom_site_label
_atom_site_fract_x
_atom_site_fract_y
_atom_site_fract_z
Si Si1 0.071510 0.389168 0.517910
Si Si2 0.525027 0.600338 0.604325
Si Si3 0.664710 0.971418 0.736512
Si Si4 0.354512 0.244902 0.094309
Si Si5 0.228203 0.301647 0.873014
Si Si6 0.437491 0.465020 0.451975
Si Si7 0.739854 0.274768 0.939981
Si Si8 0.942652 0.771777 0.530004
O O1 0.053213 0.443735 0.679557
O O2 0.118673 0.445963 0.354656
O O3 0.177699 0.318711 0.513257
O O4 0.943716 0.341093 0.525967
O O5 0.432694 0.682017 0.635152
O O6 0.535224 0.537583 0.460030
O O7 0.467579 0.541285 0.765156
O O8 0.667362 0.642663 0.553847
O O9 0.706628 0.899221 0.830437
O O10 0.789525 0.996883 0.566543
O O11 0.236052 0.215413 0.267236
O O12 0.303599 0.291480 0.980509
O O13 0.323606 0.249459 0.708803
O O14 0.084376 0.264612 0.984110
O O15 0.465598 0.374037 0.512206
O O16 0.890355 0.271134 0.910260
#
# Coordination Sequence:
#
# PCOD8056130 Si02
#       8
#     4   4   4   4   4   4   4   4
#     4  11  24  43  69 103 139 179 239 295 354 409
#     4  11  25  40  69 102 138 177 234 293 347 407
#     4  11  23  41  70 106 138 182 238 298 346 425
#     4  11  25  43  67  99 140 186 228 289 354 428
#     4  11  26  41  69 102 140 179 238 287 351 420
#     4  11  22  40  67 101 134 173 233 288 342 407
#     4  11  22  45  70  94 140 187 226 281 362 422
#     4  11  23  45  67  99 137 185 230 285 350 428
#
# _framework density 22.041801
#
# number of rings (size 3 to 8) (size 9 to 14) (size 15 to 20)
#    0.000    1.000    3.750    3.000   10.500    0.000 
#    0.000    6.250    0.000    0.000    0.000    0.000 
#    0.000    0.000    0.000    0.000    0.000    0.000 
#
# Total GULP energy -198268.845821 kJ/mol
# GULP energy per Si atom -12391.802864 kJ/mol
# Density = 2.199163 g / cm^3
# Si number density = 22.041801 Si / 1000 Ang^3
#
#
#
# Elastic Constant Matrix: (Units=GPa)
#
#
# Indices 1 2 3 4 5 6 
#
# 1 92.2742 39.9560 32.5992 0.0000 -0.2625 0.0000
# 2 39.9560 101.6724 50.4390 0.0000 -1.2104 0.0000
# 3 32.5992 50.4390 112.5737 0.0000 7.6312 0.0000
# 4 0.0000 0.0000 0.0000 39.1219 0.0000 -0.8222
# 5 -0.2625 -1.2104 7.6312 0.0000 33.1255 0.0000
# 6 0.0000 0.0000 0.0000 -0.8222 0.0000 22.9467
#
#
#
# Elastic Compliance Matrix: (Units=1/GPa)
#
#
# Indices 1 2 3 4 5 6 
#
# 1 0.013391 -0.004269 -0.001993 0.000000 0.000409 0.000000
# 2 -0.004269 0.014113 -0.005201 0.000000 0.001680 0.000000
# 3 -0.001993 -0.005201 0.011992 0.000000 -0.002968 0.000000
# 4 0.000000 0.000000 0.000000 0.025580 0.000000 0.000917
# 5 0.000409 0.001680 -0.002968 0.000000 0.030937 0.000000
# 6 0.000000 0.000000 0.000000 0.000917 0.000000 0.043612
#
#
# Mechanical properties :
#
#
# Convention : Reuss Voigt Hill
#
# Bulk Modulus (GPa) = 60.34936 61.38987 60.86962
# Shear Modulus (GPa) = 29.74865 31.27391 30.51128
#
# Velocity S-wave (km/s) = 3.67774 3.77084 3.72458
# Velocity P-wave (km/s) = 6.74339 6.84624 6.79501
#
# Compressibility (1/GPa) = 0.01657018
#
# Stress axis : x y z
#
# Youngs Moduli (GPa) = 74.67710 70.85417 83.39029
#
# Poissons Ratio (x) = 0.30248 0.16618
# Poissons Ratio (y) = 0.31880 0.43373
# Poissons Ratio (z) = 0.14881 0.36853
#
# Static dielectric constant tensor:
#      x y z
#    x 3.826700 0.000000 -0.066460 
#    y 0.000000 3.957200 0.000000 
#    z -0.066460 0.000000 4.300890 
# 
# 
# High freq. dielectric constant tensor:
#      x y z
#    x 1.848640 0.000000 0.005710 
#    y 0.000000 1.861230 0.000000 
#    z 0.005710 0.000000 1.880700 
# 
# From -- ./inp_files/7406.got.cif
#   From: 2010.06.25/outbox.cif.g09.slc.cpg/sg9_4_cif.got.tgz:7406.got - 2010.06.27 21:40:51.
