data_PCOD8056505
_publ_section_title
;
Structure prediction by ZEFSAII (Michael W. Deem and Ramdas Pophale) SiO2 
 PCOD8056505
Probable space group: C C
;
_chemical_formula_sum "Si O2"
_cell_formula_units_Z 24
_cell_length_a 8.603129
_cell_length_b 8.616748
_cell_length_c 13.963879
_cell_angle_alpha 90.000000
_cell_angle_beta 96.489715
_cell_angle_gamma 90.000000
_cell_volume 1028.523124
_symmetry_space_group_name_H-M "C C"
_symmetry_group_IT_number 9
_symmetry_cell_setting 'monoclinic'
loop_
_space_group_symop_operation_xyz
x,y,z
x,-y,1/2+z
1/2+x,1/2+y,z
1/2+x,1/2-y,1/2+z
loop_
_atom_site_type_symbol
_atom_site_label
_atom_site_fract_x
_atom_site_fract_y
_atom_site_fract_z
Si Si1 0.686170 0.081452 0.278180
Si Si2 0.489253 0.087118 0.617684
Si Si3 0.212079 0.087105 0.855437
Si Si4 0.060170 0.413480 0.436887
Si Si5 0.641164 0.413485 0.036231
Si Si6 0.015141 0.081445 0.194938
O O1 0.642728 0.249227 0.317031
O O2 0.850642 0.073747 0.236543
O O3 0.548044 0.045146 0.194063
O O4 0.691062 0.961338 0.368123
O O5 0.302017 0.097878 0.606691
O O6 0.558600 0.250799 0.656068
O O7 0.549790 0.047295 0.515800
O O8 0.399316 0.097834 0.866422
O O9 0.153248 0.954818 0.779078
O O10 0.151565 0.047330 0.957337
O O11 0.100656 0.249979 0.486538
O O12 0.510280 0.461314 0.105006
#
# Coordination Sequence:
#
# PCOD8056505 Si02
#       6
#     4   4   4   4   4   4
#     4  12  25  43  68 100 135 175 222 277 336 395
#     4  11  25  44  69  98 136 177 223 275 331 398
#     4  11  25  44  69  98 136 177 223 275 331 398
#     4  11  25  47  70  98 135 178 225 274 332 397
#     4  11  25  47  70  98 135 178 225 274 332 397
#     4  12  25  43  68 100 135 175 222 277 336 395
#
# _framework density 23.334427999999999
#
# number of rings (size 3 to 8) (size 9 to 14) (size 15 to 20)
#    0.000    0.667    0.000    8.000    0.000   13.333 
#    0.000    1.667    0.000    0.000    0.000    0.000 
#    0.000    0.000    0.000    0.000    0.000    0.000 
#
# Total GULP energy -148868.478633 kJ/mol
# GULP energy per Si atom -12405.706553 kJ/mol
# Density = 2.328132 g / cm^3
# Si number density = 23.334428 Si / 1000 Ang^3
#
#
#
# Elastic Constant Matrix: (Units=GPa)
#
#
# Indices 1 2 3 4 5 6 
#
# 1 110.4607 63.6244 69.1667 0.0000 8.2489 0.0000
# 2 63.6244 140.9332 70.5010 0.0000 17.4670 0.0000
# 3 69.1667 70.5010 130.1246 0.0000 5.9872 0.0000
# 4 0.0000 0.0000 0.0000 65.5486 0.0000 9.0736
# 5 8.2489 17.4670 5.9872 0.0000 54.7900 0.0000
# 6 0.0000 0.0000 0.0000 9.0736 0.0000 25.6578
#
#
#
# Elastic Compliance Matrix: (Units=1/GPa)
#
#
# Indices 1 2 3 4 5 6 
#
# 1 0.014925 -0.003742 -0.005887 0.000000 -0.000411 0.000000
# 2 -0.003742 0.011037 -0.003874 0.000000 -0.002532 0.000000
# 3 -0.005887 -0.003874 0.012880 0.000000 0.000714 0.000000
# 4 0.000000 0.000000 0.000000 0.016041 0.000000 -0.005673
# 5 -0.000411 -0.002532 0.000714 0.000000 0.019042 0.000000
# 6 0.000000 0.000000 0.000000 -0.005673 0.000000 0.040981
#
#
# Mechanical properties :
#
#
# Convention : Reuss Voigt Hill
#
# Bulk Modulus (GPa) = 84.48952 87.56697 86.02825
# Shear Modulus (GPa) = 34.27982 41.08104 37.68043
#
# Velocity S-wave (km/s) = 3.83700 4.20042 4.02282
# Velocity P-wave (km/s) = 7.47775 7.81877 7.65016
#
# Compressibility (1/GPa) = 0.01183579
#
# Stress axis : x y z
#
# Youngs Moduli (GPa) = 66.99976 90.60663 77.63823
#
# Poissons Ratio (x) = 0.33907 0.45706
# Poissons Ratio (y) = 0.25073 0.30077
# Poissons Ratio (z) = 0.39443 0.35101
#
# Static dielectric constant tensor:
#      x y z
#    x 4.031830 0.000000 0.037950 
#    y 0.000000 4.262810 0.000000 
#    z 0.037950 0.000000 4.623510 
# 
# 
# High freq. dielectric constant tensor:
#      x y z
#    x 1.908030 0.000000 0.000480 
#    y 0.000000 1.929130 0.000000 
#    z 0.000480 0.000000 1.957230 
# 
# From -- ./inp_files/14005.got.cif
#   From: 2010.06.25/outbox.cif.g09.slc.cpg/sg9_8_cif.got.tgz:14005.got - 2010.06.27 21:40:51.
