data_PCOD8056981
_publ_section_title
;
Structure prediction by ZEFSAII (Michael W. Deem and Ramdas Pophale) SiO2 
 PCOD8056981
Probable space group: P 2/M
;
_chemical_formula_sum "Si O2"
_cell_formula_units_Z 28
_cell_length_a 28.687643
_cell_length_b 9.287884
_cell_length_c 14.249521
_cell_angle_alpha 90.000000
_cell_angle_beta 29.306185
_cell_angle_gamma 90.000000
_cell_volume 1858.419868
_symmetry_space_group_name_H-M "P 2/M"
_symmetry_group_IT_number 10
_symmetry_cell_setting 'monoclinic'
loop_
_space_group_symop_operation_xyz
x,y,z
-x,y,-z
-x,-y,-z
x,-y,z
loop_
_atom_site_type_symbol
_atom_site_label
_atom_site_fract_x
_atom_site_fract_y
_atom_site_fract_z
Si Si1 0.966833 0.840571 0.665516
Si Si2 0.413529 0.340544 0.224536
Si Si3 0.778545 0.830151 0.910765
Si Si4 0.862529 0.666078 0.588469
Si Si5 0.470205 0.829805 0.843453
Si Si6 0.434208 0.170133 0.696823
Si Si7 0.691455 0.666071 0.765035
O O1 0.854787 0.796686 0.860424
O O2 0.000000 0.837469 0.500000
O O3 0.031763 0.732140 0.612204
O O4 0.979833 0.000000 0.685424
O O5 0.399537 0.500000 0.292034
O O6 0.434988 0.230954 0.271658
O O7 0.321484 0.294483 0.323145
O O8 0.500000 0.338318 0.000000
O O9 0.805230 0.745083 0.770609
O O10 0.779994 0.000000 0.883440
O O11 0.674650 0.777389 0.126238
O O12 0.874338 0.500000 0.595079
O O13 0.801896 0.686643 0.599350
O O14 0.475005 0.783506 0.726298
O O15 0.467395 0.000000 0.861503
O O16 0.374005 0.765714 0.055285
O O17 0.500000 0.240089 0.500000
O O18 0.436427 0.000000 0.683901
O O19 0.659306 0.500000 0.837333
#
# Coordination Sequence:
#
# PCOD8056981 Si02
#       7
#     4   4   4   4   4   4   4
#     4   8  15  25  37  53  75 102 130 156 189 235
#     4   8  15  27  39  51  74 105 130 152 189 239
#     4   9  16  28  41  53  74 105 134 160 194 232
#     4  10  17  24  38  58  79 102 131 160 189 228
#     4  10  17  25  40  58  75  98 132 168 196 222
#     4   9  17  28  42  59  78 103 136 169 198 230
#     4   9  17  27  38  54  78 108 132 152 188 238
#
# _framework density 15.066563
#
# number of rings (size 3 to 8) (size 9 to 14) (size 15 to 20)
#    0.000    3.000    1.429    2.571    0.000    5.714 
#    0.000    0.000    0.000    3.857    0.000    0.000 
#    0.000    1.143    0.000   14.286    0.000    1.143 
#
# Total GULP energy -346935.857611 kJ/mol
# GULP energy per Si atom -12390.566343 kJ/mol
# Density = 1.503227 g / cm^3
# Si number density = 15.066563 Si / 1000 Ang^3
#
#
#
# Elastic Constant Matrix: (Units=GPa)
#
#
# Indices 1 2 3 4 5 6 
#
# 1 128.5192 52.3883 53.7874 0.0000 -25.8039 0.0000
# 2 52.3883 64.9129 26.6822 0.0000 -10.0267 0.0000
# 3 53.7874 26.6822 61.9779 0.0000 -14.6375 0.0000
# 4 0.0000 0.0000 0.0000 5.9584 0.0000 -6.7847
# 5 -25.8039 -10.0267 -14.6375 0.0000 22.9007 0.0000
# 6 0.0000 0.0000 0.0000 -6.7847 0.0000 24.4668
#
#
#
# Elastic Compliance Matrix: (Units=1/GPa)
#
#
# Indices 1 2 3 4 5 6 
#
# 1 0.016816 -0.008525 -0.008634 0.000000 0.009697 0.000000
# 2 -0.008525 0.023293 -0.002932 0.000000 -0.001281 0.000000
# 3 -0.008634 -0.002932 0.026252 0.000000 0.005768 0.000000
# 4 0.000000 0.000000 0.000000 0.245279 0.000000 0.068016
# 5 0.009697 -0.001281 0.005768 0.000000 0.057719 0.000000
# 6 0.000000 0.000000 0.000000 0.068016 0.000000 0.059733
#
#
# Mechanical properties :
#
#
# Convention : Reuss Voigt Hill
#
# Bulk Modulus (GPa) = 38.19774 57.90286 48.05030
# Shear Modulus (GPa) = 10.46027 18.83532 14.64779
#
# Velocity S-wave (km/s) = 2.63776 3.53957 3.12140
# Velocity P-wave (km/s) = 5.88937 7.43098 6.70463
#
# Compressibility (1/GPa) = 0.02617956
#
# Stress axis : x y z
#
# Youngs Moduli (GPa) = 59.46606 42.93204 38.09245
#
# Poissons Ratio (x) = 0.36599 0.32888
# Poissons Ratio (y) = 0.50695 0.11169
# Poissons Ratio (z) = 0.51341 0.12588
#
# Static dielectric constant tensor:
#      x y z
#    x 3.331270 0.000000 -0.404000 
#    y 0.000000 2.880300 0.000000 
#    z -0.404000 0.000000 2.785230 
# 
# 
# High freq. dielectric constant tensor:
#      x y z
#    x 1.581230 0.000000 -0.036980 
#    y 0.000000 1.572320 0.000000 
#    z -0.036980 0.000000 1.519070 
# 
# From -- ./inp_files/65789.got.cif
#   From: 2010.06.25/outbox.cif.g09.slc.cpg/sg10_33_cif.got.tgz:65789.got - 2010.06.27 22:07:45.
