data_PCOD8056078
_publ_section_title
;
Structure prediction by ZEFSAII (Michael W. Deem and Ramdas Pophale) SiO2 
 PCOD8056078
Probable space group: C C
;
_chemical_formula_sum "Si O2"
_cell_formula_units_Z 32
_cell_length_a 10.676780
_cell_length_b 17.029767
_cell_length_c 9.080911
_cell_angle_alpha 90.000000
_cell_angle_beta 111.720994
_cell_angle_gamma 90.000000
_cell_volume 1533.884801
_symmetry_space_group_name_H-M "C C"
_symmetry_group_IT_number 9
_symmetry_cell_setting 'monoclinic'
loop_
_space_group_symop_operation_xyz
x,y,z
x,-y,1/2+z
1/2+x,1/2+y,z
1/2+x,1/2-y,1/2+z
loop_
_atom_site_type_symbol
_atom_site_label
_atom_site_fract_x
_atom_site_fract_y
_atom_site_fract_z
Si Si1 0.551770 0.045196 0.061120
Si Si2 0.070937 0.714297 0.189847
Si Si3 0.928495 0.922921 0.909031
Si Si4 0.280901 0.292749 0.020182
Si Si5 0.704066 0.196934 0.815998
Si Si6 0.457827 0.091532 0.731568
Si Si7 0.830537 0.934763 0.544844
Si Si8 0.690638 0.327886 0.016173
O O1 0.573037 0.120427 0.174759
O O2 0.686652 0.027470 0.025469
O O3 0.519052 0.972033 0.148136
O O4 0.434901 0.056851 0.886628
O O5 0.149458 0.742195 0.374535
O O6 0.163373 0.751319 0.103128
O O7 0.913297 0.738685 0.105580
O O8 0.820988 0.867712 0.941803
O O9 0.914599 0.922518 0.728277
O O10 0.077771 0.891932 0.998191
O O11 0.912055 0.009230 0.969063
O O12 0.227129 0.316898 0.154786
O O13 0.557658 0.164518 0.794105
O O14 0.706101 0.289943 0.859319
O O15 0.816783 0.148387 0.955347
O O16 0.322222 0.124700 0.609971
#
# Coordination Sequence:
#
# PCOD8056078 Si02
#       8
#     4   4   4   4   4   4   4   4
#     4  11  22  40  68  95 127 174 216 280 326 406
#     4  11  23  43  66  94 136 179 219 278 341 407
#     4  11  23  40  67  96 136 171 222 279 335 402
#     4  11  24  39  66 100 132 173 230 280 338 400
#     4  11  25  40  68  95 128 177 225 275 326 413
#     4  11  25  41  67  96 133 169 229 269 344 399
#     4  11  21  41  67  95 125 173 224 268 331 399
#     4  11  25  44  65  95 135 180 213 277 345 400
#
# _framework density 20.862062000000002
#
# number of rings (size 3 to 8) (size 9 to 14) (size 15 to 20)
#    0.000    1.000    3.750    3.750    7.000    1.000 
#    0.000    1.250    0.000    0.000    0.000    0.000 
#    0.000    0.000    0.000    0.000    0.000    0.000 
#
# Total GULP energy -198337.017785 kJ/mol
# GULP energy per Si atom -12396.063612 kJ/mol
# Density = 2.081458 g / cm^3
# Si number density = 20.862062 Si / 1000 Ang^3
#
#
#
# Elastic Constant Matrix: (Units=GPa)
#
#
# Indices 1 2 3 4 5 6 
#
# 1 59.9043 43.8480 40.1243 0.0000 13.8886 0.0000
# 2 43.8480 74.9227 23.1830 0.0000 9.4048 0.0000
# 3 40.1243 23.1830 134.2738 0.0000 3.7311 0.0000
# 4 0.0000 0.0000 0.0000 42.5074 0.0000 19.9767
# 5 13.8886 9.4048 3.7311 0.0000 29.2216 0.0000
# 6 0.0000 0.0000 0.0000 19.9767 0.0000 62.2524
#
#
#
# Elastic Compliance Matrix: (Units=1/GPa)
#
#
# Indices 1 2 3 4 5 6 
#
# 1 0.038040 -0.018427 -0.007876 0.000000 -0.011144 0.000000
# 2 -0.018427 0.023571 0.001409 0.000000 0.000992 0.000000
# 3 -0.007876 0.001409 0.009500 0.000000 0.002077 0.000000
# 4 0.000000 0.000000 0.000000 0.027703 0.000000 -0.008890
# 5 -0.011144 0.000992 0.002077 0.000000 0.038933 0.000000
# 6 0.000000 0.000000 0.000000 -0.008890 0.000000 0.018916
#
#
# Mechanical properties :
#
#
# Convention : Reuss Voigt Hill
#
# Bulk Modulus (GPa) = 46.89695 53.71238 50.30467
# Shear Modulus (GPa) = 23.41267 37.59265 30.50266
#
# Velocity S-wave (km/s) = 3.35365 4.24956 3.82790
# Velocity P-wave (km/s) = 6.12571 7.06262 6.61078
#
# Compressibility (1/GPa) = 0.02132335
#
# Stress axis : x y z
#
# Youngs Moduli (GPa) = 26.28786 42.42553 105.26242
#
# Poissons Ratio (x) = 0.78177 0.82907
# Poissons Ratio (y) = 0.48440 -0.14834
# Poissons Ratio (z) = 0.20705 -0.05979
#
# Static dielectric constant tensor:
#      x y z
#    x 3.666400 0.000000 0.079510 
#    y 0.000000 3.519180 0.000000 
#    z 0.079510 0.000000 4.145020 
# 
# 
# High freq. dielectric constant tensor:
#      x y z
#    x 1.802070 0.000000 0.002520 
#    y 0.000000 1.809050 0.000000 
#    z 0.002520 0.000000 1.837450 
# 
# From -- ./inp_files/7494.got.cif
#   From: 2010.06.25/outbox.cif.g09.slc.cpg/sg9_4_cif.got.tgz:7494.got - 2010.06.27 21:40:51.
