data_PCOD8056188
_publ_section_title
;
Structure prediction by ZEFSAII (Michael W. Deem and Ramdas Pophale) SiO2 
 PCOD8056188
Probable space group: C C
;
_chemical_formula_sum "Si O2"
_cell_formula_units_Z 32
_cell_length_a 8.966608
_cell_length_b 12.249208
_cell_length_c 14.197578
_cell_angle_alpha 90.000000
_cell_angle_beta 106.882687
_cell_angle_gamma 90.000000
_cell_volume 1492.167711
_symmetry_space_group_name_H-M "C C"
_symmetry_group_IT_number 9
_symmetry_cell_setting 'monoclinic'
loop_
_space_group_symop_operation_xyz
x,y,z
x,-y,1/2+z
1/2+x,1/2+y,z
1/2+x,1/2-y,1/2+z
loop_
_atom_site_type_symbol
_atom_site_label
_atom_site_fract_x
_atom_site_fract_y
_atom_site_fract_z
Si Si1 0.558240 0.828286 0.592580
Si Si2 0.344656 0.591366 0.033400
Si Si3 0.241586 0.500955 0.833352
Si Si4 0.203674 0.841996 0.245803
Si Si5 0.780894 0.227296 0.438156
Si Si6 0.949277 0.461997 0.173127
Si Si7 0.367949 0.591049 0.677969
Si Si8 0.090058 0.725031 0.580148
O O1 0.673366 0.870431 0.533429
O O2 0.672935 0.773174 0.689128
O O3 0.438563 0.737886 0.529283
O O4 0.449817 0.920522 0.622022
O O5 0.366417 0.467663 0.075652
O O6 0.492196 0.666798 0.091588
O O7 0.330574 0.587169 0.917313
O O8 0.269790 0.383310 0.879716
O O9 0.304422 0.500678 0.738333
O O10 0.062111 0.536565 0.785348
O O11 0.290404 0.823239 0.361316
O O12 0.285809 0.927633 0.190010
O O13 0.038291 0.887709 0.245492
O O14 0.625147 0.232568 0.474865
O O15 0.987757 0.377590 0.095552
O O16 0.260896 0.702097 0.659756
#
# Coordination Sequence:
#
# PCOD8056188 Si02
#       8
#     4   4   4   4   4   4   4   4
#     4  12  23  44  70  98 140 179 228 295 346 418
#     4  12  22  43  69  97 137 182 230 285 352 421
#     4  11  22  45  68  97 139 181 226 287 357 418
#     4  12  24  43  68 105 137 178 239 288 346 427
#     4  12  24  44  70 101 137 179 229 290 352 420
#     4  11  24  44  71  98 139 188 228 288 359 413
#     4  11  24  44  67  98 142 181 225 295 351 408
#     4  11  23  41  69  98 133 182 227 276 357 407
#
# _framework density 21.445311
#
# number of rings (size 3 to 8) (size 9 to 14) (size 15 to 20)
#    0.000    0.500    7.500    1.500    1.750    0.000 
#    2.250    1.250    0.000    0.000    0.000    0.000 
#    0.000    0.000    0.000    0.000    0.000    0.000 
#
# Total GULP energy -198227.373568 kJ/mol
# GULP energy per Si atom -12389.210848 kJ/mol
# Density = 2.139650 g / cm^3
# Si number density = 21.445311 Si / 1000 Ang^3
#
#
#
# Elastic Constant Matrix: (Units=GPa)
#
#
# Indices 1 2 3 4 5 6 
#
# 1 119.2610 46.4604 31.9031 0.0000 -0.2076 0.0000
# 2 46.4604 87.4837 26.5762 0.0000 -0.4387 0.0000
# 3 31.9031 26.5762 105.4644 0.0000 -5.0753 0.0000
# 4 0.0000 0.0000 0.0000 41.5921 0.0000 0.6922
# 5 -0.2076 -0.4387 -5.0753 0.0000 31.9638 0.0000
# 6 0.0000 0.0000 0.0000 0.6922 0.0000 35.8367
#
#
#
# Elastic Compliance Matrix: (Units=1/GPa)
#
#
# Indices 1 2 3 4 5 6 
#
# 1 0.010952 -0.005205 -0.002017 0.000000 -0.000321 0.000000
# 2 -0.005205 0.014856 -0.002177 0.000000 -0.000176 0.000000
# 3 -0.002017 -0.002177 0.010720 0.000000 0.001659 0.000000
# 4 0.000000 0.000000 0.000000 0.024051 0.000000 -0.000465
# 5 -0.000321 -0.000176 0.001659 0.000000 0.031544 0.000000
# 6 0.000000 0.000000 0.000000 -0.000465 0.000000 0.027913
#
#
# Mechanical properties :
#
#
# Convention : Reuss Voigt Hill
#
# Bulk Modulus (GPa) = 56.40371 58.00985 57.20678
# Shear Modulus (GPa) = 34.54369 35.69648 35.12009
#
# Velocity S-wave (km/s) = 4.01781 4.08430 4.05119
# Velocity P-wave (km/s) = 6.91968 7.02502 6.97255
#
# Compressibility (1/GPa) = 0.01772933
#
# Stress axis : x y z
#
# Youngs Moduli (GPa) = 91.31057 67.31471 93.27975
#
# Poissons Ratio (x) = 0.35038 0.18811
# Poissons Ratio (y) = 0.47528 0.20311
# Poissons Ratio (z) = 0.18414 0.14657
#
# Static dielectric constant tensor:
#      x y z
#    x 3.943260 0.000000 -0.140040 
#    y 0.000000 3.774680 0.000000 
#    z -0.140040 0.000000 4.093850 
# 
# 
# High freq. dielectric constant tensor:
#      x y z
#    x 1.843600 0.000000 -0.010970 
#    y 0.000000 1.837660 0.000000 
#    z -0.010970 0.000000 1.844170 
# 
# From -- ./inp_files/22694.got.cif
#   From: 2010.06.25/outbox.cif.g09.slc.cpg/sg9_12_cif.got.tgz:22694.got - 2010.06.27 21:40:51.
