data_PCOD8056712
_publ_section_title
;
Structure prediction by ZEFSAII (Michael W. Deem and Ramdas Pophale) SiO2 
 PCOD8056712
Probable space group: C C
;
_chemical_formula_sum "Si O2"
_cell_formula_units_Z 24
_cell_length_a 14.315586
_cell_length_b 8.195222
_cell_length_c 9.710366
_cell_angle_alpha 90.000000
_cell_angle_beta 71.909147
_cell_angle_gamma 90.000000
_cell_volume 1082.897664
_symmetry_space_group_name_H-M "C C"
_symmetry_group_IT_number 9
_symmetry_cell_setting 'monoclinic'
loop_
_space_group_symop_operation_xyz
x,y,z
x,-y,1/2+z
1/2+x,1/2+y,z
1/2+x,1/2-y,1/2+z
loop_
_atom_site_type_symbol
_atom_site_label
_atom_site_fract_x
_atom_site_fract_y
_atom_site_fract_z
Si Si1 0.471140 0.166348 0.471350
Si Si2 0.173622 0.181953 0.951311
Si Si3 0.278768 0.321469 0.660560
Si Si4 0.136812 0.188942 0.502755
Si Si5 0.242878 0.309801 0.199253
Si Si6 0.446257 0.145268 0.166727
O O1 0.572911 0.262564 0.426824
O O2 0.388037 0.292669 0.556463
O O3 0.449539 0.105039 0.327124
O O4 0.477336 0.014547 0.570060
O O5 0.257033 0.196667 0.795690
O O6 0.166648 0.998498 0.009036
O O7 0.201990 0.298333 0.064067
O O8 0.202545 0.298465 0.572306
O O9 0.269956 0.504518 0.721608
O O10 0.156280 0.248231 0.338561
O O11 0.022417 0.211215 0.592151
O O12 0.337819 0.197081 0.173156
#
# Coordination Sequence:
#
# PCOD8056712 Si02
#       6
#     4   4   4   4   4   4
#     4  12  27  47  73 106 144 186 238 293 352 421
#     4  12  27  46  75 104 141 187 234 296 352 419
#     4  12  25  48  72 104 142 184 239 289 355 421
#     4  12  25  48  72 104 142 184 239 289 355 421
#     4  12  27  46  75 104 141 187 234 296 352 419
#     4  12  27  47  73 106 144 186 238 293 352 421
#
# _framework density 22.162758
#
# number of rings (size 3 to 8) (size 9 to 14) (size 15 to 20)
#    0.000    0.000    3.333    7.000    4.667    0.000 
#    0.000    0.000    0.000    0.000    0.000    0.000 
#    0.000    0.000    0.000    0.000    0.000    0.000 
#
# Total GULP energy -148929.519493 kJ/mol
# GULP energy per Si atom -12410.793291 kJ/mol
# Density = 2.211231 g / cm^3
# Si number density = 22.162758 Si / 1000 Ang^3
#
#
#
# Elastic Constant Matrix: (Units=GPa)
#
#
# Indices 1 2 3 4 5 6 
#
# 1 85.1765 1.7386 35.4263 0.0000 -1.1774 0.0000
# 2 1.7386 103.8971 17.1050 0.0000 -7.8502 0.0000
# 3 35.4263 17.1050 135.6277 0.0000 -3.6496 0.0000
# 4 0.0000 0.0000 0.0000 37.5125 0.0000 -1.8966
# 5 -1.1774 -7.8502 -3.6496 0.0000 38.6250 0.0000
# 6 0.0000 0.0000 0.0000 -1.8966 0.0000 28.6333
#
#
#
# Elastic Compliance Matrix: (Units=1/GPa)
#
#
# Indices 1 2 3 4 5 6 
#
# 1 0.013185 0.000364 -0.003486 0.000000 0.000147 0.000000
# 2 0.000364 0.009978 -0.001302 0.000000 0.001916 0.000000
# 3 -0.003486 -0.001302 0.008459 0.000000 0.000428 0.000000
# 4 0.000000 0.000000 0.000000 0.026747 0.000000 0.001772
# 5 0.000147 0.001916 0.000428 0.000000 0.026324 0.000000
# 6 0.000000 0.000000 0.000000 0.001772 0.000000 0.035042
#
#
# Mechanical properties :
#
#
# Convention : Reuss Voigt Hill
#
# Bulk Modulus (GPa) = 43.90787 48.13790 46.02289
# Shear Modulus (GPa) = 36.71767 38.98292 37.85029
#
# Velocity S-wave (km/s) = 4.07471 4.19852 4.13708
# Velocity P-wave (km/s) = 6.48014 6.72835 6.60541
#
# Compressibility (1/GPa) = 0.02277496
#
# Stress axis : x y z
#
# Youngs Moduli (GPa) = 75.84519 100.22116 118.21200
#
# Poissons Ratio (x) = -0.03651 0.41207
# Poissons Ratio (y) = -0.02763 0.15391
# Poissons Ratio (z) = 0.26439 0.13049
#
# Static dielectric constant tensor:
#      x y z
#    x 4.082100 0.000000 -0.180280 
#    y 0.000000 3.969450 0.000000 
#    z -0.180280 0.000000 4.175000 
# 
# 
# High freq. dielectric constant tensor:
#      x y z
#    x 1.880000 0.000000 -0.006010 
#    y 0.000000 1.875990 0.000000 
#    z -0.006010 0.000000 1.892070 
# 
# From -- ./inp_files/6725.got.cif
#   From: 2010.06.25/outbox.cif.g09.slc.cpg/sg9_4_cif.got.tgz:6725.got - 2010.06.27 21:40:51.
