data_PCOD8056046
_publ_section_title
;
Structure prediction by ZEFSAII (Michael W. Deem and Ramdas Pophale) SiO2 
 PCOD8056046
Probable space group: C C
;
_chemical_formula_sum "Si O2"
_cell_formula_units_Z 16
_cell_length_a 7.758142
_cell_length_b 12.744457
_cell_length_c 8.590685
_cell_angle_alpha 90.000000
_cell_angle_beta 76.909161
_cell_angle_gamma 90.000000
_cell_volume 827.315668
_symmetry_space_group_name_H-M "C C"
_symmetry_group_IT_number 9
_symmetry_cell_setting 'monoclinic'
loop_
_space_group_symop_operation_xyz
x,y,z
x,-y,1/2+z
1/2+x,1/2+y,z
1/2+x,1/2-y,1/2+z
loop_
_atom_site_type_symbol
_atom_site_label
_atom_site_fract_x
_atom_site_fract_y
_atom_site_fract_z
Si Si1 0.878290 0.211672 0.045170
Si Si2 0.174243 0.557119 0.263913
Si Si3 0.680917 0.148648 0.597458
Si Si4 0.496675 0.752584 0.689365
O O1 0.847369 0.099191 0.134812
O O2 0.691470 0.276817 0.082513
O O3 0.012816 0.276733 0.123894
O O4 0.953897 0.190251 0.857749
O O5 0.204585 0.578981 0.439028
O O6 0.151231 0.432797 0.245701
O O7 0.002066 0.622703 0.235199
O O8 0.851189 0.222948 0.590784
#
# Coordination Sequence:
#
# PCOD8056046 Si02
#       4
#     4   4   4   4
#     4   9  21  39  56  91 112 151 197 227 290 343
#     4   9  22  37  58  91 110 154 195 228 292 341
#     4  11  20  40  61  80 125 150 184 248 280 337
#     4   9  21  38  59  84 119 149 194 233 284 343
#
# _framework density 19.339655
#
# number of rings (size 3 to 8) (size 9 to 14) (size 15 to 20)
#    1.500    1.000    0.000    1.500    3.500    0.000 
#    4.500    2.500    0.000    0.000    0.000    0.000 
#    0.000    0.000    0.000    0.000    0.000    0.000 
#
# Total GULP energy -99108.610047 kJ/mol
# GULP energy per Si atom -12388.576256 kJ/mol
# Density = 1.929564 g / cm^3
# Si number density = 19.339655 Si / 1000 Ang^3
#
#
#
# Elastic Constant Matrix: (Units=GPa)
#
#
# Indices 1 2 3 4 5 6 
#
# 1 130.1927 30.7322 21.6005 0.0000 24.0084 0.0000
# 2 30.7322 54.1305 2.1640 0.0000 22.9021 0.0000
# 3 21.6005 2.1640 61.5752 0.0000 5.2030 0.0000
# 4 0.0000 0.0000 0.0000 32.9492 0.0000 6.6817
# 5 24.0084 22.9021 5.2030 0.0000 32.3818 0.0000
# 6 0.0000 0.0000 0.0000 6.6817 0.0000 22.9360
#
#
#
# Elastic Compliance Matrix: (Units=1/GPa)
#
#
# Indices 1 2 3 4 5 6 
#
# 1 0.009814 -0.003676 -0.002959 0.000000 -0.004201 0.000000
# 2 -0.003676 0.027766 0.001767 0.000000 -0.017196 0.000000
# 3 -0.002959 0.001767 0.017372 0.000000 -0.001847 0.000000
# 4 0.000000 0.000000 0.000000 0.032255 0.000000 -0.009397
# 5 -0.004201 -0.017196 -0.001847 0.000000 0.046455 0.000000
# 6 0.000000 0.000000 0.000000 -0.009397 0.000000 0.046337
#
#
# Mechanical properties :
#
#
# Convention : Reuss Voigt Hill
#
# Bulk Modulus (GPa) = 22.11607 39.43241 30.77424
# Shear Modulus (GPa) = 24.41319 30.41351 27.41335
#
# Velocity S-wave (km/s) = 3.55679 3.96990 3.76901
# Velocity P-wave (km/s) = 5.32242 6.43795 5.90658
#
# Compressibility (1/GPa) = 0.04521598
#
# Stress axis : x y z
#
# Youngs Moduli (GPa) = 101.89225 36.01562 57.56327
#
# Poissons Ratio (x) = 0.13240 0.17031
# Poissons Ratio (y) = 0.37459 -0.10171
# Poissons Ratio (z) = 0.30146 -0.06363
#
# Static dielectric constant tensor:
#      x y z
#    x 3.405500 0.000000 0.006270 
#    y 0.000000 3.213520 0.000000 
#    z 0.006270 0.000000 3.466350 
# 
# 
# High freq. dielectric constant tensor:
#      x y z
#    x 1.736010 0.000000 0.002010 
#    y 0.000000 1.728670 0.000000 
#    z 0.002010 0.000000 1.763170 
# 
# From -- ./inp_files/3531.got.cif
#   From: 2010.06.25/outbox.cif.g09.slc.cpg/sg9_2_cif.got.tgz:3531.got - 2010.06.27 21:40:51.
