data_PCOD8056954
_publ_section_title
;
Structure prediction by ZEFSAII (Michael W. Deem and Ramdas Pophale) SiO2 
 PCOD8056954
Probable space group: P 2/M
;
_chemical_formula_sum "Si O2"
_cell_formula_units_Z 32
_cell_length_a 23.086185
_cell_length_b 9.459697
_cell_length_c 14.311798
_cell_angle_alpha 90.000000
_cell_angle_beta 44.365700
_cell_angle_gamma 90.000000
_cell_volume 2185.481140
_symmetry_space_group_name_H-M "P 2/M"
_symmetry_group_IT_number 10
_symmetry_cell_setting 'monoclinic'
loop_
_space_group_symop_operation_xyz
x,y,z
-x,y,-z
-x,-y,-z
x,-y,z
loop_
_atom_site_type_symbol
_atom_site_label
_atom_site_fract_x
_atom_site_fract_y
_atom_site_fract_z
Si Si1 0.820023 0.168284 0.315404
Si Si2 0.051573 0.664591 0.532931
Si Si3 0.622662 0.841827 0.919472
Si Si4 0.020434 0.832096 0.748715
Si Si5 0.686132 0.664071 0.572982
Si Si6 0.081331 0.154291 0.967691
Si Si7 0.238678 0.661806 0.310244
Si Si8 0.455161 0.159647 0.194812
O O1 0.889939 0.203972 0.311481
O O2 0.737305 0.253409 0.435013
O O3 0.849292 0.226772 0.178811
O O4 0.803151 0.000000 0.332916
O O5 0.051148 0.500000 0.561504
O O6 0.009184 0.752921 0.664225
O O7 0.145194 0.718129 0.408458
O O8 0.000000 0.694932 0.500000
O O9 0.703519 0.743512 0.830643
O O10 0.584839 0.836818 0.860565
O O11 0.651085 0.000000 0.911570
O O12 0.551548 0.792422 0.074930
O O13 0.011185 0.000000 0.745737
O O14 0.947138 0.771690 0.902343
O O15 0.678481 0.500000 0.554988
O O16 0.731982 0.686349 0.618106
O O17 0.594115 0.731867 0.681916
O O18 0.115959 0.000000 0.954056
O O19 0.000000 0.134607 0.000000
O O20 0.244604 0.500000 0.273856
O O21 0.449274 0.000000 0.241872
#
# Coordination Sequence:
#
# PCOD8056954 Si02
#       8
#     4   4   4   4   4   4   4   4
#     4   9  15  24  39  56  75 101 127 153 190 233
#     4  10  20  32  42  53  75 105 133 163 200 236
#     4   8  14  24  38  52  67  90 122 157 188 223
#     4   9  16  27  43  58  72  93 126 167 198 226
#     4  10  17  23  34  53  77 101 128 159 186 216
#     4   7  12  23  38  56  74  93 121 154 191 232
#     4   9  17  27  37  50  69  96 128 160 193 227
#     4   8  14  24  35  50  71  95 123 151 184 225
#
# _framework density 14.642085
#
# number of rings (size 3 to 8) (size 9 to 14) (size 15 to 20)
#    0.000    3.250    1.250    2.625    0.000    1.750 
#    0.000    3.125    0.000    2.250    0.000    0.000 
#    0.000    0.000    0.000    1.125    0.000   22.750 
#
# Total GULP energy -396440.323893 kJ/mol
# GULP energy per Si atom -12388.760122 kJ/mol
# Density = 1.460876 g / cm^3
# Si number density = 14.642085 Si / 1000 Ang^3
#
#
#
# Elastic Constant Matrix: (Units=GPa)
#
#
# Indices 1 2 3 4 5 6 
#
# 1 29.2759 18.3459 33.0386 0.0000 0.0057 0.0000
# 2 18.3459 59.6021 63.0437 0.0000 -2.8419 0.0000
# 3 33.0386 63.0437 145.4115 0.0000 -8.9001 0.0000
# 4 0.0000 0.0000 0.0000 13.9925 0.0000 -6.0806
# 5 0.0057 -2.8419 -8.9001 0.0000 13.8202 0.0000
# 6 0.0000 0.0000 0.0000 -6.0806 0.0000 11.4910
#
#
#
# Elastic Compliance Matrix: (Units=1/GPa)
#
#
# Indices 1 2 3 4 5 6 
#
# 1 0.047630 -0.005721 -0.008760 0.000000 -0.006838 0.000000
# 2 -0.005721 0.031751 -0.012561 0.000000 -0.001558 0.000000
# 3 -0.008760 -0.012561 0.014736 0.000000 0.006911 0.000000
# 4 0.000000 0.000000 0.000000 0.092809 0.000000 0.049111
# 5 -0.006838 -0.001558 0.006911 0.000000 0.076491 0.000000
# 6 0.000000 0.000000 0.000000 0.049111 0.000000 0.113012
#
#
# Mechanical properties :
#
#
# Convention : Reuss Voigt Hill
#
# Bulk Modulus (GPa) = 24.97941 51.46065 38.22003
# Shear Modulus (GPa) = 11.26484 15.85150 13.55817
#
# Velocity S-wave (km/s) = 2.77672 3.29386 3.04628
# Velocity P-wave (km/s) = 5.23233 7.04897 6.20747
#
# Compressibility (1/GPa) = 0.04003297
#
# Stress axis : x y z
#
# Youngs Moduli (GPa) = 20.99511 31.49472 67.85910
#
# Poissons Ratio (x) = 0.18018 0.59445
# Poissons Ratio (y) = 0.12011 0.85241
# Poissons Ratio (z) = 0.18392 0.39562
#
# Static dielectric constant tensor:
#      x y z
#    x 2.354740 0.000000 -0.160520 
#    y 0.000000 2.767480 0.000000 
#    z -0.160520 0.000000 3.195000 
# 
# 
# High freq. dielectric constant tensor:
#      x y z
#    x 1.487310 0.000000 -0.016110 
#    y 0.000000 1.549790 0.000000 
#    z -0.016110 0.000000 1.574120 
# 
# From -- ./inp_files/72031.got.cif
#   From: 2010.06.25/outbox.cif.g09.slc.cpg/sg10_37_cif.got.tgz:72031.got - 2010.06.27 22:07:45.
