data_PCOD8056047
_publ_section_title
;
Structure prediction by ZEFSAII (Michael W. Deem and Ramdas Pophale) SiO2 
 PCOD8056047
Probable space group: C C
;
_chemical_formula_sum "Si O2"
_cell_formula_units_Z 32
_cell_length_a 16.060951
_cell_length_b 19.792288
_cell_length_c 15.208370
_cell_angle_alpha 90.000000
_cell_angle_beta 161.036099
_cell_angle_gamma 90.000000
_cell_volume 1571.073002
_symmetry_space_group_name_H-M "C C"
_symmetry_group_IT_number 9
_symmetry_cell_setting 'monoclinic'
loop_
_space_group_symop_operation_xyz
x,y,z
x,-y,1/2+z
1/2+x,1/2+y,z
1/2+x,1/2-y,1/2+z
loop_
_atom_site_type_symbol
_atom_site_label
_atom_site_fract_x
_atom_site_fract_y
_atom_site_fract_z
Si Si1 0.764030 0.292756 0.641140
Si Si2 0.755341 0.389155 0.788911
Si Si3 0.269358 0.560581 0.410081
Si Si4 0.266521 0.088866 0.007814
Si Si5 0.749846 0.490068 0.145975
Si Si6 0.253866 0.590477 0.190273
Si Si7 0.259334 0.598252 0.906457
Si Si8 0.744798 0.796369 0.550475
O O1 0.514438 0.249897 0.377151
O O2 0.763965 0.323503 0.737712
O O3 0.764095 0.348547 0.568197
O O4 0.729576 0.457193 0.705968
O O5 0.513867 0.379648 0.610236
O O6 0.013648 0.388628 0.101623
O O7 0.522855 0.593785 0.701986
O O8 0.266909 0.583081 0.307188
O O9 0.274012 0.481483 0.437404
O O10 0.019363 0.592992 0.202389
O O11 0.259998 0.021980 0.059904
O O12 0.003925 0.447017 0.406942
O O13 0.504222 0.442826 0.898770
O O14 0.243476 0.668169 0.145710
O O15 0.239938 0.642270 0.975391
O O16 0.996222 0.750496 0.790100
#
# Coordination Sequence:
#
# PCOD8056047 Si02
#       8
#     4   4   4   4   4   4   4   4
#     4  11  24  42  62  89 132 178 216 254 322 406
#     4  11  22  38  65 101 132 161 212 274 336 400
#     4  12  23  42  68 104 125 161 226 289 348 369
#     4  11  24  39  65  96 131 164 215 278 333 395
#     4  11  20  41  65 100 130 166 207 277 359 391
#     4  12  24  44  69  92 133 172 225 282 324 399
#     4  12  23  41  68 100 134 164 219 279 327 396
#     4  12  28  47  64  94 137 190 228 259 325 408
#
# _framework density 20.368245000000002
#
# number of rings (size 3 to 8) (size 9 to 14) (size 15 to 20)
#    0.000    0.500    2.500    6.750    0.000    7.000 
#    0.000    3.750    0.000    0.000    0.000    0.000 
#    0.000    0.000    0.000    0.000    0.000    0.000 
#
# Total GULP energy -198449.851993 kJ/mol
# GULP energy per Si atom -12403.115750 kJ/mol
# Density = 2.032189 g / cm^3
# Si number density = 20.368245 Si / 1000 Ang^3
#
#
#
# Elastic Constant Matrix: (Units=GPa)
#
#
# Indices 1 2 3 4 5 6 
#
# 1 112.5035 208.8725 115.0051 -0.0038 34.7188 0.0063
# 2 208.8725 730.2397 376.5295 -0.0172 125.3031 0.0186
# 3 115.0051 376.5295 347.3706 -0.0155 79.5357 0.0151
# 4 -0.0038 -0.0172 -0.0155 39.1795 -0.0020 18.2266
# 5 34.7188 125.3031 79.5357 -0.0020 57.3976 0.0015
# 6 0.0063 0.0186 0.0151 18.2266 0.0015 -5.4155
#
#
#
# Elastic Compliance Matrix: (Units=1/GPa)
#
#
# Indices 1 2 3 4 5 6 
#
# 1 0.019116 -0.005121 -0.001011 -0.000001 0.001018 0.000000
# 2 -0.005121 0.004904 -0.002751 0.000000 -0.003796 0.000001
# 3 -0.001011 -0.002751 0.006855 -0.000001 -0.002882 0.000005
# 4 -0.000001 0.000000 -0.000001 0.009948 0.000002 0.033481
# 5 0.001018 -0.003796 -0.002882 0.000002 0.029088 -0.000006
# 6 0.000000 0.000001 0.000005 0.033481 -0.000006 -0.071970
#
#
# Mechanical properties :
#
#
# Convention : Reuss Voigt Hill
#
# Bulk Modulus (GPa) = 76.28188 287.88089 182.08138
# Shear Modulus (GPa) = 249.03850 50.87942 149.95896
#
# Velocity S-wave (km/s) = 11.06948 5.00340 8.58975
# Velocity P-wave (km/s) = 14.17429 13.22965 13.71011
#
# Compressibility (1/GPa) = 0.01310927
#
# Stress axis : x y z
#
# Youngs Moduli (GPa) = 52.31319 203.90432 145.87043
#
# Poissons Ratio (x) = 1.04425 0.14741
# Poissons Ratio (y) = 0.26791 0.40132
# Poissons Ratio (z) = 0.05286 0.56098
#
# Static dielectric constant tensor:
#      x y z
#    x 3.423230 0.000020 0.166200 
#    y 0.000020 3.870760 -0.000010 
#    z 0.166200 -0.000010 3.903760 
# 
# 
# High freq. dielectric constant tensor:
#      x y z
#    x 1.810220 0.000000 0.003020 
#    y 0.000000 1.793330 0.000000 
#    z 0.003020 0.000000 1.824670 
# 
# From -- ./inp_files/2555.got.cif
#   From: 2010.06.25/outbox.cif.g09.slc.cpg/sg9_2_cif.got.tgz:2555.got - 2010.06.27 21:40:51.
