data_PCOD8056441
_publ_section_title
;
Structure prediction by ZEFSAII (Michael W. Deem and Ramdas Pophale) SiO2 
 PCOD8056441
Probable space group: C C
;
_chemical_formula_sum "Si O2"
_cell_formula_units_Z 28
_cell_length_a 15.306558
_cell_length_b 10.154992
_cell_length_c 8.943424
_cell_angle_alpha 90.000000
_cell_angle_beta 123.363387
_cell_angle_gamma 90.000000
_cell_volume 1161.050614
_symmetry_space_group_name_H-M "C C"
_symmetry_group_IT_number 9
_symmetry_cell_setting 'monoclinic'
loop_
_space_group_symop_operation_xyz
x,y,z
x,-y,1/2+z
1/2+x,1/2+y,z
1/2+x,1/2-y,1/2+z
loop_
_atom_site_type_symbol
_atom_site_label
_atom_site_fract_x
_atom_site_fract_y
_atom_site_fract_z
Si Si1 0.328790 0.363346 0.713600
Si Si2 0.660345 0.510235 0.936017
Si Si3 0.736559 0.065016 0.427486
Si Si4 0.536699 0.362898 0.057765
Si Si5 0.318327 0.209885 0.192638
Si Si6 0.856521 0.364852 0.033820
Si Si7 0.003175 0.405684 0.683856
O O1 0.286556 0.424689 0.518233
O O2 0.240740 0.384808 0.759169
O O3 0.358024 0.212240 0.694775
O O4 0.431181 0.425825 0.889147
O O5 0.567650 0.563253 0.741047
O O6 0.755304 0.457891 0.925797
O O7 0.623185 0.392433 0.011423
O O8 0.708059 0.632118 0.073722
O O9 0.809689 0.155477 0.597575
O O10 0.616042 0.069078 0.364322
O O11 0.516981 0.207157 0.069194
O O12 0.342778 0.240616 0.387957
O O13 0.418939 0.132751 0.228130
O O14 0.959494 0.451820 0.089288
#
# Coordination Sequence:
#
# PCOD8056441 Si02
#       7
#     4   4   4   4   4   4   4
#     4  12  28  48  75 112 156 201 254 323 379 460
#     4  11  24  45  79 109 148 197 255 312 381 453
#     4  12  26  50  76 111 159 200 256 321 388 452
#     4  12  24  47  75 114 147 204 251 319 383 457
#     4  11  24  48  74 109 153 197 257 316 379 462
#     4  11  27  48  74 111 151 200 256 312 384 462
#     4  11  27  44  79 108 152 203 251 317 384 456
#
# _framework density 24.116088000000001
#
# number of rings (size 3 to 8) (size 9 to 14) (size 15 to 20)
#    0.000    0.571    4.286    2.571    6.000    1.143 
#    2.571    0.000    0.000    0.000    0.000    0.000 
#    0.000    0.000    0.000    0.000    0.000    0.000 
#
# Total GULP energy -173460.479351 kJ/mol
# GULP energy per Si atom -12390.034239 kJ/mol
# Density = 2.406120 g / cm^3
# Si number density = 24.116088 Si / 1000 Ang^3
#
#
#
# Elastic Constant Matrix: (Units=GPa)
#
#
# Indices 1 2 3 4 5 6 
#
# 1 86.4585 36.7500 54.8079 0.0000 12.7476 0.0000
# 2 36.7500 107.7463 50.4350 0.0000 -5.6139 0.0000
# 3 54.8079 50.4350 135.8248 0.0000 3.6632 0.0000
# 4 0.0000 0.0000 0.0000 33.0365 0.0000 -2.8328
# 5 12.7476 -5.6139 3.6632 0.0000 40.7693 0.0000
# 6 0.0000 0.0000 0.0000 -2.8328 0.0000 35.8145
#
#
#
# Elastic Compliance Matrix: (Units=1/GPa)
#
#
# Indices 1 2 3 4 5 6 
#
# 1 0.017424 -0.003637 -0.005533 0.000000 -0.005452 0.000000
# 2 -0.003637 0.012146 -0.003126 0.000000 0.003090 0.000000
# 3 -0.005533 -0.003126 0.010747 0.000000 0.000334 0.000000
# 4 0.000000 0.000000 0.000000 0.030476 0.000000 0.002411
# 5 -0.005452 0.003090 0.000334 0.000000 0.026628 0.000000
# 6 0.000000 0.000000 0.000000 0.002411 0.000000 0.028112
#
#
# Mechanical properties :
#
#
# Convention : Reuss Voigt Hill
#
# Bulk Modulus (GPa) = 63.59560 68.22393 65.90976
# Shear Modulus (GPa) = 32.18203 34.45984 33.32094
#
# Velocity S-wave (km/s) = 3.65699 3.78420 3.72114
# Velocity P-wave (km/s) = 6.65277 6.88802 6.77141
#
# Compressibility (1/GPa) = 0.01572436
#
# Stress axis : x y z
#
# Youngs Moduli (GPa) = 57.39363 82.33383 93.05011
#
# Poissons Ratio (x) = 0.29943 0.51487
# Poissons Ratio (y) = 0.20873 0.29086
# Poissons Ratio (z) = 0.31758 0.25736
#
# Static dielectric constant tensor:
#      x y z
#    x 4.272700 0.000000 0.155920 
#    y 0.000000 4.355870 0.000000 
#    z 0.155920 0.000000 4.275100 
# 
# 
# High freq. dielectric constant tensor:
#      x y z
#    x 1.957000 0.000000 0.009130 
#    y 0.000000 1.947340 0.000000 
#    z 0.009130 0.000000 1.962380 
# 
# From -- ./inp_files/9195.got.cif
#   From: 2010.06.25/outbox.cif.g09.slc.cpg/sg9_5_cif.got.tgz:9195.got - 2010.06.27 21:40:51.
