data_PCOD8056161
_publ_section_title
;
Structure prediction by ZEFSAII (Michael W. Deem and Ramdas Pophale) SiO2 
 PCOD8056161
Probable space group: C C
;
_chemical_formula_sum "Si O2"
_cell_formula_units_Z 32
_cell_length_a 17.245553
_cell_length_b 11.129820
_cell_length_c 13.606745
_cell_angle_alpha 90.000000
_cell_angle_beta 34.234143
_cell_angle_gamma 90.000000
_cell_volume 1469.267330
_symmetry_space_group_name_H-M "C C"
_symmetry_group_IT_number 9
_symmetry_cell_setting 'monoclinic'
loop_
_space_group_symop_operation_xyz
x,y,z
x,-y,1/2+z
1/2+x,1/2+y,z
1/2+x,1/2-y,1/2+z
loop_
_atom_site_type_symbol
_atom_site_label
_atom_site_fract_x
_atom_site_fract_y
_atom_site_fract_z
Si Si1 0.145460 0.870985 0.118290
Si Si2 0.379872 0.281133 0.291701
Si Si3 0.220492 0.299960 0.987547
Si Si4 0.260391 0.508184 0.795385
Si Si5 0.468419 0.912773 0.551137
Si Si6 0.465212 0.739190 0.378532
Si Si7 0.727827 0.554487 0.877373
Si Si8 0.029013 0.005261 0.917049
O O1 0.993083 0.847187 0.237332
O O2 0.117405 0.899433 0.261628
O O3 0.251565 0.760590 0.994835
O O4 0.214860 0.986674 0.994795
O O5 0.321035 0.365204 0.267914
O O6 0.455571 0.170006 0.160516
O O7 0.236919 0.424481 0.913618
O O8 0.328670 0.297234 0.963047
O O9 0.234891 0.195358 0.891607
O O10 0.068813 0.295315 0.191258
O O11 0.370009 0.454781 0.601847
O O12 0.120799 0.533121 0.882267
O O13 0.426934 0.841251 0.496868
O O14 0.364373 0.023425 0.672824
O O15 0.534045 0.625121 0.360222
O O16 0.597209 0.506300 0.952996
#
# Coordination Sequence:
#
# PCOD8056161 Si02
#       8
#     4   4   4   4   4   4   4   4
#     4  11  23  43  71 101 135 180 228 287 340 411
#     4  11  22  43  69  99 137 178 230 285 347 398
#     4  12  26  44  68 100 146 178 218 289 357 406
#     4  12  24  44  67 103 139 181 227 286 348 410
#     4  11  24  41  72 102 132 173 239 294 325 402
#     4  12  23  43  70 105 129 178 243 278 328 416
#     4  11  24  45  68 100 143 179 223 284 357 400
#     4  12  24  43  73 100 133 185 232 273 346 423
#
# _framework density 21.779561000000001
#
# number of rings (size 3 to 8) (size 9 to 14) (size 15 to 20)
#    0.000    0.500    5.000    3.750    1.750    1.000 
#    0.000    2.500    0.000    0.000    0.000    0.000 
#    0.000    0.000    0.000    0.000    0.000    0.000 
#
# Total GULP energy -198467.338359 kJ/mol
# GULP energy per Si atom -12404.208647 kJ/mol
# Density = 2.172999 g / cm^3
# Si number density = 21.779561 Si / 1000 Ang^3
#
#
#
# Elastic Constant Matrix: (Units=GPa)
#
#
# Indices 1 2 3 4 5 6 
#
# 1 68.2337 14.9429 14.5805 0.0000 -3.5961 0.0000
# 2 14.9429 57.2519 24.2548 0.0000 4.5987 0.0000
# 3 14.5805 24.2548 97.7171 0.0000 -2.2553 0.0000
# 4 0.0000 0.0000 0.0000 37.6153 0.0000 4.9946
# 5 -3.5961 4.5987 -2.2553 0.0000 40.8023 0.0000
# 6 0.0000 0.0000 0.0000 4.9946 0.0000 29.8933
#
#
#
# Elastic Compliance Matrix: (Units=1/GPa)
#
#
# Indices 1 2 3 4 5 6 
#
# 1 0.015854 -0.003679 -0.001412 0.000000 0.001734 0.000000
# 2 -0.003679 0.020625 -0.004638 0.000000 -0.002905 0.000000
# 3 -0.001412 -0.004638 0.011619 0.000000 0.001040 0.000000
# 4 0.000000 0.000000 0.000000 0.027188 0.000000 -0.004543
# 5 0.001734 -0.002905 0.001040 0.000000 0.025046 0.000000
# 6 0.000000 0.000000 0.000000 -0.004543 0.000000 0.034211
#
#
# Mechanical properties :
#
#
# Convention : Reuss Voigt Hill
#
# Bulk Modulus (GPa) = 34.91502 36.75101 35.83301
# Shear Modulus (GPa) = 30.57183 32.95714 31.76449
#
# Velocity S-wave (km/s) = 3.75065 3.89423 3.82311
# Velocity P-wave (km/s) = 5.90105 6.09350 5.99805
#
# Compressibility (1/GPa) = 0.02864097
#
# Stress axis : x y z
#
# Youngs Moduli (GPa) = 63.07403 48.48499 86.06225
#
# Poissons Ratio (x) = 0.17837 0.12156
# Poissons Ratio (y) = 0.23205 0.39912
# Poissons Ratio (z) = 0.08909 0.22485
#
# Static dielectric constant tensor:
#      x y z
#    x 3.765640 0.000000 -0.004580 
#    y 0.000000 3.806830 0.000000 
#    z -0.004580 0.000000 4.165130 
# 
# 
# High freq. dielectric constant tensor:
#      x y z
#    x 1.847440 0.000000 -0.002940 
#    y 0.000000 1.845300 0.000000 
#    z -0.002940 0.000000 1.878580 
# 
# From -- ./inp_files/9052.got.cif
#   From: 2010.06.25/outbox.cif.g09.slc.cpg/sg9_5_cif.got.tgz:9052.got - 2010.06.27 21:40:51.
