data_PCOD8056472
_publ_section_title
;
Structure prediction by ZEFSAII (Michael W. Deem and Ramdas Pophale) SiO2 
 PCOD8056472
Probable space group: C C
;
_chemical_formula_sum "Si O2"
_cell_formula_units_Z 32
_cell_length_a 14.918531
_cell_length_b 9.517757
_cell_length_c 11.382697
_cell_angle_alpha 90.000000
_cell_angle_beta 57.344795
_cell_angle_gamma 90.000000
_cell_volume 1360.765617
_symmetry_space_group_name_H-M "C C"
_symmetry_group_IT_number 9
_symmetry_cell_setting 'monoclinic'
loop_
_space_group_symop_operation_xyz
x,y,z
x,-y,1/2+z
1/2+x,1/2+y,z
1/2+x,1/2-y,1/2+z
loop_
_atom_site_type_symbol
_atom_site_label
_atom_site_fract_x
_atom_site_fract_y
_atom_site_fract_z
Si Si1 0.882130 0.128613 0.708150
Si Si2 0.048873 0.038849 0.222293
Si Si3 0.240427 0.636497 0.240858
Si Si4 0.058107 0.506131 0.743802
Si Si5 0.844835 0.410621 0.814432
Si Si6 0.921052 0.745705 0.951857
Si Si7 0.192244 0.731330 0.526257
Si Si8 0.264411 0.927840 0.134353
O O1 0.811742 0.244125 0.830459
O O2 0.940334 0.226162 0.572977
O O3 0.813744 0.001950 0.700134
O O4 0.985480 0.080209 0.702255
O O5 0.101449 0.150687 0.096162
O O6 0.957331 0.115143 0.359786
O O7 0.139415 0.964050 0.236177
O O8 0.122080 0.596990 0.284256
O O9 0.234691 0.717039 0.366609
O O10 0.288370 0.759641 0.123870
O O11 0.145356 0.582478 0.601091
O O12 0.973479 0.420556 0.726795
O O13 0.992568 0.614562 0.868856
O O14 0.814774 0.493686 0.713789
O O15 0.800408 0.471081 0.972889
O O16 0.793652 0.721959 0.031538
#
# Coordination Sequence:
#
# PCOD8056472 Si02
#       8
#     4   4   4   4   4   4   4   4
#     4  12  27  45  76 112 151 197 256 320 378 456
#     4  11  26  46  74 107 147 203 246 315 378 456
#     4  12  27  45  76 112 151 197 256 320 378 456
#     4  11  26  46  74 107 147 203 246 315 378 456
#     4  12  29  51  78 112 158 204 258 315 383 462
#     4  11  24  47  73 104 152 194 252 309 390 445
#     4  11  24  47  73 104 152 194 252 309 390 445
#     4  12  29  51  78 112 158 204 258 315 383 462
#
# _framework density 23.516172000000001
#
# number of rings (size 3 to 8) (size 9 to 14) (size 15 to 20)
#    0.000    0.500    2.500    4.500   14.000    0.000 
#    0.000    0.000    0.000    0.000    0.000    0.000 
#    0.000    0.000    0.000    0.000    0.000    0.000 
#
# Total GULP energy -198219.647058 kJ/mol
# GULP energy per Si atom -12388.727941 kJ/mol
# Density = 2.346265 g / cm^3
# Si number density = 23.516172 Si / 1000 Ang^3
#
#
#
# Elastic Constant Matrix: (Units=GPa)
#
#
# Indices 1 2 3 4 5 6 
#
# 1 142.6393 54.9237 25.8478 0.0000 3.3386 0.0000
# 2 54.9237 134.8304 18.1242 0.0000 5.2534 0.0000
# 3 25.8478 18.1242 95.9304 0.0000 13.3792 0.0000
# 4 0.0000 0.0000 0.0000 -11.2967 0.0000 4.7904
# 5 3.3386 5.2534 13.3792 0.0000 39.2654 0.0000
# 6 0.0000 0.0000 0.0000 4.7904 0.0000 43.5366
#
#
#
# Elastic Compliance Matrix: (Units=1/GPa)
#
#
# Indices 1 2 3 4 5 6 
#
# 1 0.008578 -0.003273 -0.001735 0.000000 0.000300 0.000000
# 2 -0.003273 0.008870 -0.000701 0.000000 -0.000670 0.000000
# 3 -0.001735 -0.000701 0.011539 0.000000 -0.003690 0.000000
# 4 0.000000 0.000000 0.000000 -0.084575 0.000000 0.009306
# 5 0.000300 -0.000670 -0.003690 0.000000 0.026789 0.000000
# 6 0.000000 0.000000 0.000000 0.009306 0.000000 0.021945
#
#
# Mechanical properties :
#
#
# Convention : Reuss Voigt Hill
#
# Bulk Modulus (GPa) = 56.91301 63.46572 60.18937
# Shear Modulus (GPa) = 479.84433 32.60135 256.22284
#
# Velocity S-wave (km/s) = 14.30006 3.72739 10.44952
# Velocity P-wave (km/s) = 17.23107 6.75065 13.08589
#
# Compressibility (1/GPa) = 0.01757068
#
# Stress axis : x y z
#
# Youngs Moduli (GPa) = 116.57362 112.73685 86.66478
#
# Poissons Ratio (x) = 0.36897 0.15035
# Poissons Ratio (y) = 0.38153 0.06072
# Poissons Ratio (z) = 0.20223 0.07898
#
# Static dielectric constant tensor:
#      x y z
#    x 4.356690 0.000000 0.087730 
#    y 0.000000 4.773500 0.000000 
#    z 0.087730 0.000000 4.377930 
# 
# 
# High freq. dielectric constant tensor:
#      x y z
#    x 1.937970 0.000000 0.005230 
#    y 0.000000 1.956900 0.000000 
#    z 0.005230 0.000000 1.922860 
# 
# From -- ./inp_files/17902.got.cif
#   From: 2010.06.25/outbox.cif.g09.slc.cpg/sg9_9_cif.got.tgz:17902.got - 2010.06.27 21:40:51.
