data_PCOD8056535
_publ_section_title
;
Structure prediction by ZEFSAII (Michael W. Deem and Ramdas Pophale) SiO2 
 PCOD8056535
Probable space group: C C
;
_chemical_formula_sum "Si O2"
_cell_formula_units_Z 28
_cell_length_a 8.986420
_cell_length_b 11.506691
_cell_length_c 11.575823
_cell_angle_alpha 90.000000
_cell_angle_beta 93.287292
_cell_angle_gamma 90.000000
_cell_volume 1195.016348
_symmetry_space_group_name_H-M "C C"
_symmetry_group_IT_number 9
_symmetry_cell_setting 'monoclinic'
loop_
_space_group_symop_operation_xyz
x,y,z
x,-y,1/2+z
1/2+x,1/2+y,z
1/2+x,1/2-y,1/2+z
loop_
_atom_site_type_symbol
_atom_site_label
_atom_site_fract_x
_atom_site_fract_y
_atom_site_fract_z
Si Si1 0.608610 0.960198 0.426790
Si Si2 0.875021 0.423944 0.771496
Si Si3 0.902182 0.926670 0.001363
Si Si4 0.057927 0.133005 0.917277
Si Si5 0.365140 0.168450 0.038783
Si Si6 0.274620 0.766555 0.956483
Si Si7 0.150910 0.887384 0.173909
O O1 0.468334 0.937038 0.502453
O O2 0.680476 0.837233 0.392513
O O3 0.540270 0.031193 0.315363
O O4 0.729617 0.035618 0.504008
O O5 0.891911 0.319824 0.678223
O O6 0.774083 0.379394 0.874099
O O7 0.786151 0.526386 0.704656
O O8 0.906817 0.788758 0.975509
O O9 0.999591 0.950564 0.121548
O O10 0.981476 0.004378 0.905459
O O11 0.107987 0.175521 0.792338
O O12 0.946316 0.225476 0.970708
O O13 0.198104 0.128438 0.007727
O O14 0.207364 0.794691 0.079907
#
# Coordination Sequence:
#
# PCOD8056535 Si02
#       7
#     4   4   4   4   4   4   4
#     4  11  26  47  72 108 153 193 255 308 376 451
#     4  12  25  45  77 107 150 196 249 314 377 449
#     4  11  25  47  70 110 148 193 255 307 373 459
#     4  11  25  48  73 109 154 199 252 314 380 456
#     4  12  24  46  75 107 152 198 246 314 378 448
#     4  11  26  47  73 113 149 200 259 309 387 455
#     4  12  23  46  76 106 156 197 252 318 381 448
#
# _framework density 23.430643
#
# number of rings (size 3 to 8) (size 9 to 14) (size 15 to 20)
#    0.000    0.571    4.286    3.429    0.000    4.571 
#    5.143    0.000    0.000    0.000    0.000    0.000 
#    0.000    0.000    0.000    0.000    0.000    0.000 
#
# Total GULP energy -173529.379160 kJ/mol
# GULP energy per Si atom -12394.955654 kJ/mol
# Density = 2.337731 g / cm^3
# Si number density = 23.430643 Si / 1000 Ang^3
#
#
#
# Elastic Constant Matrix: (Units=GPa)
#
#
# Indices 1 2 3 4 5 6 
#
# 1 168.2421 50.9801 62.4388 0.0000 25.0764 0.0000
# 2 50.9801 109.2450 53.3000 0.0000 1.8017 0.0000
# 3 62.4388 53.3000 130.0530 0.0000 0.4814 0.0000
# 4 0.0000 0.0000 0.0000 34.0006 0.0000 4.9333
# 5 25.0764 1.8017 0.4814 0.0000 43.4682 0.0000
# 6 0.0000 0.0000 0.0000 4.9333 0.0000 41.6664
#
#
#
# Elastic Compliance Matrix: (Units=1/GPa)
#
#
# Indices 1 2 3 4 5 6 
#
# 1 0.008532 -0.002391 -0.003099 0.000000 -0.004789 0.000000
# 2 -0.002391 0.012119 -0.003822 0.000000 0.000919 0.000000
# 3 -0.003099 -0.003822 0.010737 0.000000 0.001827 0.000000
# 4 0.000000 0.000000 0.000000 0.029925 0.000000 -0.003543
# 5 -0.004789 0.000919 0.001827 0.000000 0.025710 0.000000
# 6 0.000000 0.000000 0.000000 -0.003543 0.000000 0.024420
#
#
# Mechanical properties :
#
#
# Convention : Reuss Voigt Hill
#
# Bulk Modulus (GPa) = 78.34478 82.33089 80.33784
# Shear Modulus (GPa) = 37.22428 39.88175 38.55302
#
# Velocity S-wave (km/s) = 3.99018 4.13015 4.06077
# Velocity P-wave (km/s) = 7.39852 7.61305 7.50656
#
# Compressibility (1/GPa) = 0.01276409
#
# Stress axis : x y z
#
# Youngs Moduli (GPa) = 117.20588 82.51387 93.13860
#
# Poissons Ratio (x) = 0.19727 0.28861
# Poissons Ratio (y) = 0.28020 0.35602
# Poissons Ratio (z) = 0.36319 0.31541
#
# Static dielectric constant tensor:
#      x y z
#    x 4.585950 0.000000 0.136290 
#    y 0.000000 4.211240 0.000000 
#    z 0.136290 0.000000 4.174500 
# 
# 
# High freq. dielectric constant tensor:
#      x y z
#    x 1.952680 0.000000 0.009950 
#    y 0.000000 1.931060 0.000000 
#    z 0.009950 0.000000 1.901160 
# 
# From -- ./inp_files/14224.got.cif
#   From: 2010.06.25/outbox.cif.g09.slc.cpg/sg9_8_cif.got.tgz:14224.got - 2010.06.27 21:40:51.
