data_PCOD8056197
_publ_section_title
;
Structure prediction by ZEFSAII (Michael W. Deem and Ramdas Pophale) SiO2 
 PCOD8056197
Probable space group: C C
;
_chemical_formula_sum "Si O2"
_cell_formula_units_Z 32
_cell_length_a 14.179337
_cell_length_b 10.943789
_cell_length_c 15.880520
_cell_angle_alpha 90.000000
_cell_angle_beta 27.401987
_cell_angle_gamma 90.000000
_cell_volume 1134.132565
_symmetry_space_group_name_H-M "C C"
_symmetry_group_IT_number 9
_symmetry_cell_setting 'monoclinic'
loop_
_space_group_symop_operation_xyz
x,y,z
x,-y,1/2+z
1/2+x,1/2+y,z
1/2+x,1/2-y,1/2+z
loop_
_atom_site_type_symbol
_atom_site_label
_atom_site_fract_x
_atom_site_fract_y
_atom_site_fract_z
Si Si1 0.227600 0.486065 0.911510
Si Si2 0.749108 0.771827 0.657194
Si Si3 0.950574 0.982179 0.412935
Si Si4 0.792217 0.394797 0.723745
Si Si5 0.890821 0.548397 0.461548
Si Si6 0.958165 0.271733 0.156899
Si Si7 0.193511 0.955972 0.457672
Si Si8 0.750001 0.892645 0.228871
O O1 0.347209 0.512586 0.903036
O O2 0.353570 0.532534 0.726814
O O3 0.159821 0.342804 0.958120
O O4 0.022529 0.570721 0.067279
O O5 0.725647 0.634623 0.641112
O O6 0.565882 0.863265 0.787410
O O7 0.785600 0.748485 0.725267
O O8 0.941246 0.843494 0.458631
O O9 0.836740 0.076189 0.567939
O O10 0.187233 0.039111 0.223717
O O11 0.648874 0.452673 0.913617
O O12 0.761104 0.250290 0.740931
O O13 0.759742 0.527249 0.484874
O O14 0.006304 0.436679 0.420517
O O15 0.878248 0.361704 0.291707
O O16 0.014843 0.133102 0.138195
#
# Coordination Sequence:
#
# PCOD8056197 Si02
#       8
#     4   4   4   4   4   4   4   4
#     4  11  26  48  73 111 150 201 254 312 382 457
#     4  11  22  45  74 102 149 192 250 313 363 444
#     4  11  26  48  73 111 150 201 254 312 382 457
#     4  11  24  47  73 109 156 196 247 319 386 454
#     4  11  26  47  72 112 147 196 252 312 376 450
#     4  11  22  45  74 102 149 192 250 313 363 444
#     4  11  26  47  72 112 147 196 252 312 376 450
#     4  11  24  47  73 109 156 196 247 319 386 454
#
# _framework density 28.215396999999999
#
# number of rings (size 3 to 8) (size 9 to 14) (size 15 to 20)
#    0.000    1.000    2.500    4.500    7.000    0.000 
#    4.500    5.000    0.000    0.000    0.000    0.000 
#    0.000    0.000    0.000    0.000    0.000    0.000 
#
# Total GULP energy -198331.028185 kJ/mol
# GULP energy per Si atom -12395.689262 kJ/mol
# Density = 2.815118 g / cm^3
# Si number density = 28.215397 Si / 1000 Ang^3
#
#
#
# Elastic Constant Matrix: (Units=GPa)
#
#
# Indices 1 2 3 4 5 6 
#
# 1 185.3233 39.0228 37.7538 0.0164 -18.2509 -0.0005
# 2 39.0228 218.0566 22.1036 0.0028 -15.0718 0.0128
# 3 37.7538 22.1036 105.0272 -0.0583 -3.5848 0.0279
# 4 0.0164 0.0028 -0.0583 46.0346 0.0271 -1.2527
# 5 -18.2509 -15.0718 -3.5848 0.0271 37.6702 -0.0063
# 6 -0.0005 0.0128 0.0279 -1.2527 -0.0063 56.1705
#
#
#
# Elastic Compliance Matrix: (Units=1/GPa)
#
#
# Indices 1 2 3 4 5 6 
#
# 1 0.006204 -0.000734 -0.001990 -0.000006 0.002523 0.000001
# 2 -0.000734 0.004896 -0.000714 -0.000002 0.001535 -0.000001
# 3 -0.001990 -0.000714 0.010378 0.000014 -0.000262 -0.000005
# 4 -0.000006 -0.000002 0.000014 0.021736 -0.000018 0.000485
# 5 0.002523 0.001535 -0.000262 -0.000018 0.028358 0.000003
# 6 0.000001 -0.000001 -0.000005 0.000485 0.000003 0.017814
#
#
# Mechanical properties :
#
#
# Convention : Reuss Voigt Hill
#
# Bulk Modulus (GPa) = 68.48247 78.46308 73.47277
# Shear Modulus (GPa) = 49.44188 55.27686 52.35937
#
# Velocity S-wave (km/s) = 4.19059 4.43098 4.31246
# Velocity P-wave (km/s) = 6.90932 7.35167 7.13393
#
# Compressibility (1/GPa) = 0.01460228
#
# Stress axis : x y z
#
# Youngs Moduli (GPa) = 161.17692 204.25462 96.35874
#
# Poissons Ratio (x) = 0.14998 0.19172
# Poissons Ratio (y) = 0.11835 0.06880
# Poissons Ratio (z) = 0.32068 0.14584
#
# Static dielectric constant tensor:
#      x y z
#    x 4.784940 0.000020 0.069880 
#    y 0.000020 5.104280 0.000050 
#    z 0.069880 0.000050 6.861130 
# 
# 
# High freq. dielectric constant tensor:
#      x y z
#    x 2.126330 0.000000 0.001980 
#    y 0.000000 2.169570 0.000010 
#    z 0.001980 0.000010 2.227880 
# 
# From -- ./inp_files/30711.got.cif
#   From: 2010.06.25/outbox.cif.g09.slc.cpg/sg9_16_cif.got.tgz:30711.got - 2010.06.27 21:40:51.
