data_PCOD8056614
_publ_section_title
;
Structure prediction by ZEFSAII (Michael W. Deem and Ramdas Pophale) SiO2 
 PCOD8056614
Probable space group: C C
;
_chemical_formula_sum "Si O2"
_cell_formula_units_Z 28
_cell_length_a 15.333165
_cell_length_b 7.357918
_cell_length_c 17.268115
_cell_angle_alpha 90.000000
_cell_angle_beta 34.491397
_cell_angle_gamma 90.000000
_cell_volume 1103.226832
_symmetry_space_group_name_H-M "C C"
_symmetry_group_IT_number 9
_symmetry_cell_setting 'monoclinic'
loop_
_space_group_symop_operation_xyz
x,y,z
x,-y,1/2+z
1/2+x,1/2+y,z
1/2+x,1/2-y,1/2+z
loop_
_atom_site_type_symbol
_atom_site_label
_atom_site_fract_x
_atom_site_fract_y
_atom_site_fract_z
Si Si1 0.416060 0.098371 0.004030
Si Si2 0.623020 0.169533 0.118526
Si Si3 0.683313 0.771958 0.062434
Si Si4 0.679355 0.250137 0.908232
Si Si5 0.868880 0.890754 0.778496
Si Si6 0.745846 0.587127 0.767153
Si Si7 0.470776 0.253727 0.381910
O O1 0.283250 0.223042 0.064705
O O2 0.355014 0.979842 0.119410
O O3 0.553153 0.223461 0.933938
O O4 0.485544 0.959410 0.890447
O O5 0.515863 0.275814 0.258204
O O6 0.583256 0.955565 0.146404
O O7 0.601433 0.259798 0.049924
O O8 0.798251 0.179506 0.019670
O O9 0.555794 0.613395 0.143847
O O10 0.797591 0.797305 0.906852
O O11 0.753829 0.444218 0.832623
O O12 0.811064 0.096627 0.810540
O O13 0.812392 0.779513 0.745351
O O14 0.574024 0.618904 0.860825
#
# Coordination Sequence:
#
# PCOD8056614 Si02
#       7
#     4   4   4   4   4   4   4
#     4  12  27  48  75 114 151 204 256 320 387 458
#     4  11  27  48  76 110 157 201 260 315 387 463
#     4  11  27  47  79 109 157 203 254 316 390 458
#     4  11  28  48  78 115 150 202 264 315 388 462
#     4  11  26  51  76 110 157 203 251 318 382 459
#     4  12  27  47  77 111 153 199 255 319 386 450
#     4  12  26  49  75 111 155 204 250 321 384 462
#
# _framework density 25.380094
#
# number of rings (size 3 to 8) (size 9 to 14) (size 15 to 20)
#    0.000    0.571    2.857    3.429   14.000    1.143 
#    0.000    0.000    0.000    0.000    0.000    0.000 
#    0.000    0.000    0.000    0.000    0.000    0.000 
#
# Total GULP energy -173696.845209 kJ/mol
# GULP energy per Si atom -12406.917515 kJ/mol
# Density = 2.532233 g / cm^3
# Si number density = 25.380094 Si / 1000 Ang^3
#
#
#
# Elastic Constant Matrix: (Units=GPa)
#
#
# Indices 1 2 3 4 5 6 
#
# 1 114.7534 23.9116 9.3978 0.0000 3.6743 0.0000
# 2 23.9116 84.9680 19.1513 0.0000 12.2068 0.0000
# 3 9.3978 19.1513 87.1798 0.0000 11.1696 0.0000
# 4 0.0000 0.0000 0.0000 30.0146 0.0000 3.8718
# 5 3.6743 12.2068 11.1696 0.0000 48.4075 0.0000
# 6 0.0000 0.0000 0.0000 3.8718 0.0000 41.6709
#
#
#
# Elastic Compliance Matrix: (Units=1/GPa)
#
#
# Indices 1 2 3 4 5 6 
#
# 1 0.009274 -0.002513 -0.000452 0.000000 0.000034 0.000000
# 2 -0.002513 0.013382 -0.002330 0.000000 -0.002646 0.000000
# 3 -0.000452 -0.002330 0.012315 0.000000 -0.002220 0.000000
# 4 0.000000 0.000000 0.000000 0.033721 0.000000 -0.003133
# 5 0.000034 -0.002646 -0.002220 0.000000 0.021835 0.000000
# 6 0.000000 0.000000 0.000000 -0.003133 0.000000 0.024289
#
#
# Mechanical properties :
#
#
# Convention : Reuss Voigt Hill
#
# Bulk Modulus (GPa) = 41.01435 43.53583 42.27509
# Shear Modulus (GPa) = 37.44418 39.64798 38.54608
#
# Velocity S-wave (km/s) = 3.84518 3.95672 3.90135
# Velocity P-wave (km/s) = 5.99241 6.16968 6.08169
#
# Compressibility (1/GPa) = 0.02438171
#
# Stress axis : x y z
#
# Youngs Moduli (GPa) = 107.82970 74.72976 81.19870
#
# Poissons Ratio (x) = 0.18778 0.03671
# Poissons Ratio (y) = 0.27096 0.18917
# Poissons Ratio (z) = 0.04875 0.17410
#
# Static dielectric constant tensor:
#      x y z
#    x 4.742890 0.000000 0.103830 
#    y 0.000000 4.646330 0.000000 
#    z 0.103830 0.000000 4.510190 
# 
# 
# High freq. dielectric constant tensor:
#      x y z
#    x 2.029930 0.000000 -0.001520 
#    y 0.000000 2.020020 0.000000 
#    z -0.001520 0.000000 2.012220 
# 
# From -- ./inp_files/25746.got.cif
#   From: 2010.06.25/outbox.cif.g09.slc.cpg/sg9_13_cif.got.tgz:25746.got - 2010.06.27 21:40:51.
