data_PCOD8056846
_publ_section_title
;
Structure prediction by ZEFSAII (Michael W. Deem and Ramdas Pophale) SiO2 
 PCOD8056846
Probable space group: P 2/M
;
_chemical_formula_sum "Si O2"
_cell_formula_units_Z 28
_cell_length_a 19.951042
_cell_length_b 21.667597
_cell_length_c 5.238192
_cell_angle_alpha 90.000000
_cell_angle_beta 64.133091
_cell_angle_gamma 90.000000
_cell_volume 2037.551120
_symmetry_space_group_name_H-M "P 2/M"
_symmetry_group_IT_number 10
_symmetry_cell_setting 'monoclinic'
loop_
_space_group_symop_operation_xyz
x,y,z
-x,y,-z
-x,-y,-z
x,-y,z
loop_
_atom_site_type_symbol
_atom_site_label
_atom_site_fract_x
_atom_site_fract_y
_atom_site_fract_z
Si Si1 0.922905 0.429225 0.420942
Si Si2 0.202096 0.927196 0.257921
Si Si3 0.457649 0.073651 0.320515
Si Si4 0.911395 0.825816 0.626100
Si Si5 0.290592 0.072875 0.607884
Si Si6 0.912937 0.758333 0.120010
Si Si7 0.087300 0.378927 0.057302
O O1 0.939776 0.500000 0.460067
O O2 0.876001 0.397533 0.730829
O O3 0.999212 0.390722 0.251172
O O4 0.880147 0.423211 0.221749
O O5 0.122796 0.893074 0.371524
O O6 0.243583 0.903774 0.443582
O O7 0.185728 0.000000 0.288644
O O8 0.252439 0.907051 0.934791
O O9 0.500000 0.098725 0.500000
O O10 0.373858 0.100657 0.459332
O O11 0.456521 0.000000 0.323673
O O12 0.500000 0.098505 0.000000
O O13 0.883087 0.778834 0.448816
O O14 0.000000 0.832437 0.500000
O O15 0.880632 0.801484 0.948634
O O16 0.296478 0.000000 0.582329
O O17 0.892795 0.689322 0.068236
O O18 0.000000 0.766579 0.000000
#
# Coordination Sequence:
#
# PCOD8056846 Si02
#       7
#     4   4   4   4   4   4   4
#     4  10  17  23  34  53  73  91 109 127 156 210
#     4  10  19  32  45  56  72  93 118 150 194 243
#     4   9  15  23  37  59  83 100 115 133 151 185
#     4  10  21  31  43  57  68  84 118 164 202 238
#     4   9  17  28  43  59  76  99 118 133 167 221
#     4  10  18  29  41  53  68  85 112 146 190 230
#     4  10  16  24  36  48  68  92 108 131 165 210
#
# _framework density 13.741986000000001
#
# number of rings (size 3 to 8) (size 9 to 14) (size 15 to 20)
#    0.000    2.286    1.429    4.714    4.000    3.714 
#    0.000    0.000    0.000    5.143    0.000    0.000 
#    0.000    0.000    0.000    0.000    0.000    0.000 
#
# Total GULP energy -346877.139559 kJ/mol
# GULP energy per Si atom -12388.469270 kJ/mol
# Density = 1.371071 g / cm^3
# Si number density = 13.741986 Si / 1000 Ang^3
#
#
#
# Elastic Constant Matrix: (Units=GPa)
#
#
# Indices 1 2 3 4 5 6 
#
# 1 64.8779 27.2593 40.2593 0.0000 20.0095 0.0000
# 2 27.2593 52.8992 22.9940 0.0000 2.8022 0.0000
# 3 40.2593 22.9940 82.5428 0.0000 32.1891 0.0000
# 4 0.0000 0.0000 0.0000 11.9836 0.0000 8.1771
# 5 20.0095 2.8022 32.1891 0.0000 29.7824 0.0000
# 6 0.0000 0.0000 0.0000 8.1771 0.0000 7.2766
#
#
#
# Elastic Compliance Matrix: (Units=1/GPa)
#
#
# Indices 1 2 3 4 5 6 
#
# 1 0.026896 -0.010680 -0.006029 0.000000 -0.010549 0.000000
# 2 -0.010680 0.026820 -0.007046 0.000000 0.012268 0.000000
# 3 -0.006029 -0.007046 0.026240 0.000000 -0.023647 0.000000
# 4 0.000000 0.000000 0.000000 0.357845 0.000000 -0.402131
# 5 -0.010549 0.012268 -0.023647 0.000000 0.065067 0.000000
# 6 0.000000 0.000000 0.000000 -0.402131 0.000000 0.589325
#
#
# Mechanical properties :
#
#
# Convention : Reuss Voigt Hill
#
# Bulk Modulus (GPa) = 30.82147 42.37167 36.59657
# Shear Modulus (GPa) = 4.34586 17.12902 10.73744
#
# Velocity S-wave (km/s) = 1.78026 3.53437 2.79832
# Velocity P-wave (km/s) = 5.16751 6.89611 6.09342
#
# Compressibility (1/GPa) = 0.03244492
#
# Stress axis : x y z
#
# Youngs Moduli (GPa) = 37.18074 37.28521 38.10980
#
# Poissons Ratio (x) = 0.39820 0.22977
# Poissons Ratio (y) = 0.39709 0.26853
# Poissons Ratio (z) = 0.22417 0.26272
#
# Static dielectric constant tensor:
#      x y z
#    x 2.897890 0.000000 0.723680 
#    y 0.000000 2.493670 0.000000 
#    z 0.723680 0.000000 3.327980 
# 
# 
# High freq. dielectric constant tensor:
#      x y z
#    x 1.494040 0.000000 0.050680 
#    y 0.000000 1.490980 0.000000 
#    z 0.050680 0.000000 1.527050 
# 
# From -- ./inp_files/12881.got.cif
#   From: 2010.06.25/outbox.cif.g09.slc.cpg/sg10_7_cif.got.tgz:12881.got - 2010.06.27 22:07:45.
