data_PCOD8056797
_publ_section_title
;
Structure prediction by ZEFSAII (Michael W. Deem and Ramdas Pophale) SiO2 
 PCOD8056797
Probable space group: C C
;
_chemical_formula_sum "Si O2"
_cell_formula_units_Z 14
_cell_length_a 15.000000
_cell_length_b 12.000000
_cell_length_c 21.000000
_cell_angle_alpha 90.000000
_cell_angle_beta 20.000000
_cell_angle_gamma 90.000000
_cell_volume 1292.836142
_symmetry_space_group_name_H-M "C C"
_symmetry_group_IT_number 9
_symmetry_cell_setting 'monoclinic'
loop_
_space_group_symop_operation_xyz
x,y,z
x,-y,1/2+z
1/2+x,1/2+y,z
1/2+x,1/2-y,1/2+z
loop_
_atom_site_type_symbol
_atom_site_label
_atom_site_fract_x
_atom_site_fract_y
_atom_site_fract_z
Si Si1 0.895420 0.584335 0.273490
Si Si2 0.650056 0.145455 0.573662
Si Si3 0.878557 0.853505 0.786510
Si Si4 0.399010 0.586788 0.527383
Si Si5 0.874144 0.502820 0.925232
Si Si6 0.435609 0.354859 0.434605
Si Si7 0.402568 0.144543 0.528610
O O1 0.645705 0.630790 0.402457
O O2 0.005287 0.471931 0.168794
O O3 0.818014 0.564997 0.398583
O O4 0.140149 0.669238 0.107190
O O5 0.415726 0.232939 0.729786
O O6 0.847967 0.155384 0.382457
O O7 0.825394 0.169904 0.519200
O O8 0.134362 0.917768 0.596252
O O9 0.617226 0.908071 0.932164
O O10 0.143933 0.571984 0.742647
O O11 0.468957 0.471837 0.446488
O O12 0.888461 0.419779 0.973122
O O13 0.503872 0.266811 0.442936
O O14 0.622428 0.350046 0.248813
#
# Coordination Sequence:
#
# PCOD8056797 Si02
#       7
#     4   4   4   4   4   4   4
#     4  10  20  39  59  83 116 149 181 232 281 326
#     4  10  22  36  59  86 112 146 193 226 273 340
#     4  12  22  38  59  84 114 148 185 234 279 326
#     4  10  20  39  59  83 116 149 181 232 281 326
#     4  10  22  36  58  86 112 144 192 228 274 340
#     4  10  22  36  59  86 112 146 193 226 273 340
#     4  12  22  38  59  84 114 148 185 234 279 326
#
# _framework density 10.828905000000001
#
# number of rings (size 3 to 8) (size 9 to 14) (size 15 to 20)
#    0.000    1.714    0.000    8.571    0.000    0.000 
#    0.000    8.571    0.000    0.000    0.000    0.000 
#    0.000    0.000    0.000    0.000    0.000    0.000 
#
# Total GULP energy -173516.238424 kJ/mol
# GULP energy per Si atom -12394.017030 kJ/mol
# Density = 1.080426 g / cm^3
# Si number density = 10.828905 Si / 1000 Ang^3
#
#
#
# Elastic Constant Matrix: (Units=GPa)
#
#
# Indices 1 2 3 4 5 6 
#
# 1 114.0592 15.1490 90.3648 0.5255 -5.7159 2.3091
# 2 15.1490 38.3691 25.2719 -0.4643 10.2212 -0.1596
# 3 90.3648 25.2719 172.6930 -1.5448 16.9093 -6.9391
# 4 0.5255 -0.4643 -1.5448 26.7738 -0.1093 12.6600
# 5 -5.7159 10.2212 16.9093 -0.1093 53.0652 -0.8152
# 6 2.3091 -0.1596 -6.9391 12.6600 -0.8152 55.8302
#
#
#
# Elastic Compliance Matrix: (Units=1/GPa)
#
#
# Indices 1 2 3 4 5 6 
#
# 1 0.016250 -0.001954 -0.008765 -0.000041 0.004894 -0.001686
# 2 -0.001954 0.030102 -0.002895 0.000559 -0.005091 -0.000394
# 3 -0.008765 -0.002895 0.011255 -0.000052 -0.003947 0.001707
# 4 -0.000041 0.000559 -0.000052 0.041846 -0.000155 -0.009494
# 5 0.004894 -0.005091 -0.003947 -0.000155 0.021604 -0.000357
# 6 -0.001686 -0.000394 0.001707 -0.009494 -0.000357 0.020340
#
#
# Mechanical properties :
#
#
# Convention : Reuss Voigt Hill
#
# Bulk Modulus (GPa) = 32.91619 65.18808 49.05213
# Shear Modulus (GPa) = 27.97159 40.08954 34.03056
#
# Velocity S-wave (km/s) = 3.59768 4.30704 3.96824
# Velocity P-wave (km/s) = 5.69991 7.40936 6.61013
#
# Compressibility (1/GPa) = 0.03038018
#
# Stress axis : x y z
#
# Youngs Moduli (GPa) = 61.53696 33.21999 88.84865
#
# Poissons Ratio (x) = 0.06492 0.77872
# Poissons Ratio (y) = 0.12027 0.25720
# Poissons Ratio (z) = 0.53935 0.09617
#
# Static dielectric constant tensor:
#      x y z
#    x 3.769290 0.004080 0.020110 
#    y 0.004080 3.639310 0.000360 
#    z 0.020110 0.000360 3.973860 
# 
# 
# High freq. dielectric constant tensor:
#      x y z
#    x 1.852200 -0.000010 0.001360 
#    y -0.000010 1.808470 0.000050 
#    z 0.001360 0.000050 1.864190 
# 
# From -- ./inp_files/33781.got.cif
#   From: 2010.06.25/outbox.ucp.g09.slc.cvg/sg9_17_cif.got.tgz:33781.got - 2010.06.28 13:32:59.
