data_PCOD8056255
_publ_section_title
;
Structure prediction by ZEFSAII (Michael W. Deem and Ramdas Pophale) SiO2 
 PCOD8056255
Probable space group: C C
;
_chemical_formula_sum "Si O2"
_cell_formula_units_Z 32
_cell_length_a 8.630230
_cell_length_b 12.332741
_cell_length_c 14.858989
_cell_angle_alpha 90.000000
_cell_angle_beta 57.824890
_cell_angle_gamma 90.000000
_cell_volume 1338.626771
_symmetry_space_group_name_H-M "C C"
_symmetry_group_IT_number 9
_symmetry_cell_setting 'monoclinic'
loop_
_space_group_symop_operation_xyz
x,y,z
x,-y,1/2+z
1/2+x,1/2+y,z
1/2+x,1/2-y,1/2+z
loop_
_atom_site_type_symbol
_atom_site_label
_atom_site_fract_x
_atom_site_fract_y
_atom_site_fract_z
Si Si1 0.272410 0.762119 0.907820
Si Si2 0.730361 0.388749 0.735921
Si Si3 0.092354 0.496778 0.866116
Si Si4 0.116857 0.435017 0.662046
Si Si5 0.658552 0.125580 0.528233
Si Si6 0.472688 0.575118 0.776018
Si Si7 0.383636 0.816402 0.515245
Si Si8 0.786931 0.299740 0.091688
O O1 0.241525 0.812127 0.819245
O O2 0.427368 0.668813 0.861853
O O3 0.338512 0.836454 0.971700
O O4 0.077927 0.713144 0.000713
O O5 0.558734 0.469823 0.799146
O O6 0.723560 0.328311 0.640991
O O7 0.928447 0.444954 0.663990
O O8 0.049822 0.432418 0.787372
O O9 0.283340 0.557391 0.780303
O O10 0.157951 0.429694 0.931590
O O11 0.922828 0.577395 0.941213
O O12 0.216848 0.542219 0.591018
O O13 0.236469 0.327470 0.610586
O O14 0.811553 0.219212 0.474799
O O15 0.456906 0.178725 0.605434
O O16 0.621395 0.620328 0.661742
#
# Coordination Sequence:
#
# PCOD8056255 Si02
#       8
#     4   4   4   4   4   4   4   4
#     4  11  23  43  73 103 142 192 239 295 368 425
#     4  12  23  46  71 104 143 190 241 294 366 431
#     4  11  26  48  71 110 146 188 249 297 363 437
#     4  12  25  44  73 104 148 190 239 301 354 432
#     4  12  27  48  72 108 149 186 247 302 354 441
#     4  11  24  44  72 103 143 188 245 297 359 439
#     4  11  25  46  73 106 147 188 243 299 360 434
#     4  12  25  47  71 104 150 190 243 303 364 433
#
# _framework density 23.905093999999998
#
# number of rings (size 3 to 8) (size 9 to 14) (size 15 to 20)
#    0.000    0.500    5.000    2.250    7.000    2.000 
#    0.000    0.000    0.000    0.000    0.000    0.000 
#    0.000    0.000    0.000    0.000    0.000    0.000 
#
# Total GULP energy -198274.137024 kJ/mol
# GULP energy per Si atom -12392.133564 kJ/mol
# Density = 2.385069 g / cm^3
# Si number density = 23.905094 Si / 1000 Ang^3
#
#
#
# Elastic Constant Matrix: (Units=GPa)
#
#
# Indices 1 2 3 4 5 6 
#
# 1 56.8466 34.8278 24.8094 0.0000 -4.0917 0.0000
# 2 34.8278 119.6166 42.5914 0.0000 12.0965 0.0000
# 3 24.8094 42.5914 117.3593 0.0000 18.0987 0.0000
# 4 0.0000 0.0000 0.0000 40.6864 0.0000 -10.5650
# 5 -4.0917 12.0965 18.0987 0.0000 39.4200 0.0000
# 6 0.0000 0.0000 0.0000 -10.5650 0.0000 42.4972
#
#
#
# Elastic Compliance Matrix: (Units=1/GPa)
#
#
# Indices 1 2 3 4 5 6 
#
# 1 0.023351 -0.006106 -0.003641 0.000000 0.005969 0.000000
# 2 -0.006106 0.011275 -0.002335 0.000000 -0.003022 0.000000
# 3 -0.003641 -0.002335 0.010854 0.000000 -0.004645 0.000000
# 4 0.000000 0.000000 0.000000 0.026274 0.000000 0.006532
# 5 0.005969 -0.003022 -0.004645 0.000000 0.029047 0.000000
# 6 0.000000 0.000000 0.000000 0.006532 0.000000 0.025155
#
#
# Mechanical properties :
#
#
# Convention : Reuss Voigt Hill
#
# Bulk Modulus (GPa) = 46.91322 55.36443 51.13882
# Shear Modulus (GPa) = 31.80143 37.29364 34.54753
#
# Velocity S-wave (km/s) = 3.65131 3.95406 3.80570
# Velocity P-wave (km/s) = 6.11911 6.63751 6.38357
#
# Compressibility (1/GPa) = 0.02131596
#
# Stress axis : x y z
#
# Youngs Moduli (GPa) = 42.82513 88.69259 92.12999
#
# Poissons Ratio (x) = 0.54157 0.33543
# Poissons Ratio (y) = 0.26150 0.21513
# Poissons Ratio (z) = 0.15592 0.20710
#
# Static dielectric constant tensor:
#      x y z
#    x 4.349840 0.000000 -0.213150 
#    y 0.000000 4.424560 0.000000 
#    z -0.213150 0.000000 4.317700 
# 
# 
# High freq. dielectric constant tensor:
#      x y z
#    x 1.938550 0.000000 -0.009780 
#    y 0.000000 1.951530 0.000000 
#    z -0.009780 0.000000 1.960870 
# 
# From -- ./inp_files/22863.got.cif
#   From: 2010.06.25/outbox.cif.g09.slc.cpg/sg9_12_cif.got.tgz:22863.got - 2010.06.27 21:40:51.
