data_PCOD8056748
_publ_section_title
;
Structure prediction by ZEFSAII (Michael W. Deem and Ramdas Pophale) SiO2 
 PCOD8056748
Probable space group: C C
;
_chemical_formula_sum "Si O2"
_cell_formula_units_Z 32
_cell_length_a 5.352671
_cell_length_b 18.530637
_cell_length_c 13.460409
_cell_angle_alpha 90.000000
_cell_angle_beta 66.580884
_cell_angle_gamma 90.000000
_cell_volume 1225.132346
_symmetry_space_group_name_H-M "C C"
_symmetry_group_IT_number 9
_symmetry_cell_setting 'monoclinic'
loop_
_space_group_symop_operation_xyz
x,y,z
x,-y,1/2+z
1/2+x,1/2+y,z
1/2+x,1/2-y,1/2+z
loop_
_atom_site_type_symbol
_atom_site_label
_atom_site_fract_x
_atom_site_fract_y
_atom_site_fract_z
Si Si1 0.851770 0.161658 0.020730
Si Si2 0.311504 0.915498 0.346723
Si Si3 0.998167 0.557250 0.401560
Si Si4 0.259876 0.942589 0.140160
Si Si5 0.462699 0.584292 0.194714
Si Si6 0.802723 0.823932 0.229325
Si Si7 0.718925 0.675785 0.312121
Si Si8 0.344473 0.254567 0.020665
O O1 0.780330 0.113365 0.130561
O O2 0.583879 0.199599 0.020536
O O3 0.079817 0.216353 0.021089
O O4 0.000840 0.113550 0.910803
O O5 0.529283 0.851205 0.329312
O O6 0.395954 0.949898 0.226533
O O7 0.349595 0.980369 0.417811
O O8 0.972499 0.581524 0.520818
O O9 0.884239 0.618211 0.347578
O O10 0.306852 0.550301 0.315122
O O11 0.039664 0.881290 0.194515
O O12 0.141819 0.019174 0.123940
O O13 0.646271 0.648524 0.211904
O O14 0.893681 0.749759 0.270635
O O15 0.739970 0.806493 0.124702
O O16 0.446814 0.693717 0.416390
#
# Coordination Sequence:
#
# PCOD8056748 Si02
#       8
#     4   4   4   4   4   4   4   4
#     4  12  28  53  81 118 164 212 265 333 402 481
#     4  12  27  48  79 113 159 212 264 334 401 482
#     4  12  27  48  75 113 155 209 271 330 405 480
#     4  12  27  48  75 113 155 209 271 330 405 480
#     4  12  27  48  79 113 159 212 264 334 401 482
#     4  12  26  47  75 113 156 202 268 325 403 473
#     4  12  26  47  75 113 156 202 268 325 403 473
#     4  12  28  49  77 118 162 212 265 331 400 467
#
# _framework density 26.119627999999999
#
# number of rings (size 3 to 8) (size 9 to 14) (size 15 to 20)
#    0.000    0.000    7.500    1.500    5.250    1.000 
#    2.250    0.000    0.000    0.000    0.000    0.000 
#    0.000    0.000    0.000    0.000    0.000    0.000 
#
# Total GULP energy -198375.542374 kJ/mol
# GULP energy per Si atom -12398.471398 kJ/mol
# Density = 2.606018 g / cm^3
# Si number density = 26.119628 Si / 1000 Ang^3
#
#
#
# Elastic Constant Matrix: (Units=GPa)
#
#
# Indices 1 2 3 4 5 6 
#
# 1 38.5689 8.2342 5.0812 0.0000 -1.2062 0.0000
# 2 8.2342 128.8005 20.9996 0.0000 -1.2049 0.0000
# 3 5.0812 20.9996 168.9034 0.0000 -3.7675 0.0000
# 4 0.0000 0.0000 0.0000 27.3608 0.0000 -0.0906
# 5 -1.2062 -1.2049 -3.7675 0.0000 28.8089 0.0000
# 6 0.0000 0.0000 0.0000 -0.0906 0.0000 24.3537
#
#
#
# Elastic Compliance Matrix: (Units=1/GPa)
#
#
# Indices 1 2 3 4 5 6 
#
# 1 0.026371 -0.001583 -0.000575 0.000000 0.000963 0.000000
# 2 -0.001583 0.008021 -0.000946 0.000000 0.000145 0.000000
# 3 -0.000575 -0.000946 0.006072 0.000000 0.000730 0.000000
# 4 0.000000 0.000000 0.000000 0.036549 0.000000 0.000136
# 5 0.000963 0.000145 0.000730 0.000000 0.034853 0.000000
# 6 0.000000 0.000000 0.000000 0.000136 0.000000 0.041062
#
#
# Mechanical properties :
#
#
# Convention : Reuss Voigt Hill
#
# Bulk Modulus (GPa) = 29.19284 44.98919 37.09102
# Shear Modulus (GPa) = 29.31590 36.23521 32.77555
#
# Velocity S-wave (km/s) = 3.35381 3.72866 3.54619
# Velocity P-wave (km/s) = 5.11843 5.98322 5.56764
#
# Compressibility (1/GPa) = 0.03425497
#
# Stress axis : x y z
#
# Youngs Moduli (GPa) = 37.91976 124.67565 164.69597
#
# Poissons Ratio (x) = 0.19738 0.09471
# Poissons Ratio (y) = 0.06003 0.15586
# Poissons Ratio (z) = 0.02181 0.11799
#
# Static dielectric constant tensor:
#      x y z
#    x 4.239800 0.000000 -0.065440 
#    y 0.000000 4.833430 0.000000 
#    z -0.065440 0.000000 6.273490 
# 
# 
# High freq. dielectric constant tensor:
#      x y z
#    x 2.011410 0.000000 -0.002180 
#    y 0.000000 2.060590 0.000000 
#    z -0.002180 0.000000 2.083340 
# 
# From -- ./inp_files/22038.got.cif
#   From: 2010.06.25/outbox.cif.g09.slc.cpg/sg9_12_cif.got.tgz:22038.got - 2010.06.27 21:40:51.
