data_PCOD8056784
_publ_section_title
;
Structure prediction by ZEFSAII (Michael W. Deem and Ramdas Pophale) SiO2 
 PCOD8056784
Probable space group: C C
;
_chemical_formula_sum "Si O2"
_cell_formula_units_Z 24
_cell_length_a 10.499438
_cell_length_b 12.800103
_cell_length_c 8.347587
_cell_angle_alpha 90.000000
_cell_angle_beta 121.513266
_cell_angle_gamma 90.000000
_cell_volume 956.411132
_symmetry_space_group_name_H-M "C C"
_symmetry_group_IT_number 9
_symmetry_cell_setting 'monoclinic'
loop_
_space_group_symop_operation_xyz
x,y,z
x,-y,1/2+z
1/2+x,1/2+y,z
1/2+x,1/2-y,1/2+z
loop_
_atom_site_type_symbol
_atom_site_label
_atom_site_fract_x
_atom_site_fract_y
_atom_site_fract_z
Si Si1 0.931870 0.113122 0.082980
Si Si2 0.613389 0.514448 0.454981
Si Si3 0.287708 0.829675 0.483993
Si Si4 0.069054 0.647101 0.355864
Si Si5 0.871811 0.331683 0.194946
Si Si6 0.628854 0.956348 0.227642
O O1 0.924255 0.237896 0.110143
O O2 0.779660 0.089417 0.895618
O O3 0.958663 0.051676 0.268452
O O4 0.069909 0.067735 0.067652
O O5 0.721476 0.445863 0.411047
O O6 0.704979 0.620631 0.557180
O O7 0.151978 0.754552 0.436433
O O8 0.396116 0.825857 0.709781
O O9 0.374414 0.792779 0.380858
O O10 0.132411 0.582687 0.244022
O O11 0.095731 0.573677 0.525245
O O12 0.992240 0.422043 0.251582
#
# Coordination Sequence:
#
# PCOD8056784 Si02
#       6
#     4   4   4   4   4   4
#     4  12  29  49  84 121 164 216 281 339 415 497
#     4  12  27  54  81 119 167 220 277 344 411 499
#     4  12  30  51  81 118 163 217 274 341 421 492
#     4  12  30  50  81 116 161 212 268 338 414 494
#     4  12  28  52  82 118 162 219 273 344 415 490
#     4  12  28  52  79 118 159 210 269 340 408 492
#
# _framework density 25.093810999999999
#
# number of rings (size 3 to 8) (size 9 to 14) (size 15 to 20)
#    0.000    0.000    3.333    4.000   18.667    0.000 
#    0.000    0.000    0.000    0.000    0.000    0.000 
#    0.000    0.000    0.000    0.000    0.000    0.000 
#
# Total GULP energy -148769.177242 kJ/mol
# GULP energy per Si atom -12397.431437 kJ/mol
# Density = 2.503670 g / cm^3
# Si number density = 25.093811 Si / 1000 Ang^3
#
#
#
# Elastic Constant Matrix: (Units=GPa)
#
#
# Indices 1 2 3 4 5 6 
#
# 1 69.8974 28.4993 41.5106 0.0000 3.7961 0.0000
# 2 28.4993 141.2513 66.9318 0.0000 6.0856 0.0000
# 3 41.5106 66.9318 174.6276 0.0000 30.9723 0.0000
# 4 0.0000 0.0000 0.0000 38.9718 0.0000 0.3196
# 5 3.7961 6.0856 30.9723 0.0000 36.7653 0.0000
# 6 0.0000 0.0000 0.0000 0.3196 0.0000 57.0817
#
#
#
# Elastic Compliance Matrix: (Units=1/GPa)
#
#
# Indices 1 2 3 4 5 6 
#
# 1 0.017129 -0.001784 -0.003676 0.000000 0.001623 0.000000
# 2 -0.001784 0.008917 -0.003250 0.000000 0.001446 0.000000
# 3 -0.003676 -0.003250 0.009033 0.000000 -0.006692 0.000000
# 4 0.000000 0.000000 0.000000 0.025661 0.000000 -0.000144
# 5 0.001623 0.001446 -0.006692 0.000000 0.032430 0.000000
# 6 0.000000 0.000000 0.000000 -0.000144 0.000000 0.017520
#
#
# Mechanical properties :
#
#
# Convention : Reuss Voigt Hill
#
# Bulk Modulus (GPa) = 56.62897 73.29552 64.96224
# Shear Modulus (GPa) = 37.31442 43.15276 40.23359
#
# Velocity S-wave (km/s) = 3.86034 4.15137 4.00850
# Velocity P-wave (km/s) = 6.51810 7.22845 6.88245
#
# Compressibility (1/GPa) = 0.01765881
#
# Stress axis : x y z
#
# Youngs Moduli (GPa) = 58.38073 112.14042 110.70590
#
# Poissons Ratio (x) = 0.20008 0.40693
# Poissons Ratio (y) = 0.10416 0.35983
# Poissons Ratio (z) = 0.21459 0.36449
#
# Static dielectric constant tensor:
#      x y z
#    x 4.335900 0.000000 -0.013320 
#    y 0.000000 4.647340 0.000000 
#    z -0.013320 0.000000 4.534920 
# 
# 
# High freq. dielectric constant tensor:
#      x y z
#    x 1.993130 0.000000 0.004360 
#    y 0.000000 2.009930 0.000000 
#    z 0.004360 0.000000 2.014410 
# 
# From -- ./inp_files/6926.got.cif
#   From: 2010.06.25/outbox.cif.g09.slc.cpg/sg9_4_cif.got.tgz:6926.got - 2010.06.27 21:40:51.
