data_PCOD8056807
_publ_section_title
;
Structure prediction by ZEFSAII (Michael W. Deem and Ramdas Pophale) SiO2 
 PCOD8056807
Probable space group: P 2/M
;
_chemical_formula_sum "Si O2"
_cell_formula_units_Z 32
_cell_length_a 12.303694
_cell_length_b 14.413422
_cell_length_c 15.102312
_cell_angle_alpha 90.000000
_cell_angle_beta 119.342652
_cell_angle_gamma 90.000000
_cell_volume 2334.616025
_symmetry_space_group_name_H-M "P 2/M"
_symmetry_group_IT_number 10
_symmetry_cell_setting 'monoclinic'
loop_
_space_group_symop_operation_xyz
x,y,z
-x,y,-z
-x,-y,-z
x,-y,z
loop_
_atom_site_type_symbol
_atom_site_label
_atom_site_fract_x
_atom_site_fract_y
_atom_site_fract_z
Si Si1 0.409005 0.291062 0.657263
Si Si2 0.644343 0.396360 0.534943
Si Si3 0.671395 0.608804 0.011341
Si Si4 0.301859 0.291277 0.272610
Si Si5 0.613998 0.101528 0.425943
Si Si6 0.855757 0.608689 0.937040
Si Si7 0.409089 0.390003 0.834640
Si Si8 0.674368 0.898401 0.643471
O O1 0.336862 0.343247 0.549696
O O2 0.557946 0.302796 0.707657
O O3 0.364955 0.183343 0.636904
O O4 0.361819 0.334991 0.729944
O O5 0.500000 0.398759 0.500000
O O6 0.698674 0.500000 0.547661
O O7 0.716761 0.344476 0.642256
O O8 0.653868 0.500000 0.007267
O O9 0.677910 0.640808 0.116708
O O10 0.794324 0.638382 0.006385
O O11 0.548640 0.645840 0.912209
O O12 0.205031 0.332719 0.165050
O O13 0.264092 0.183534 0.274057
O O14 0.471951 0.104820 0.398841
O O15 0.696735 0.118088 0.547391
O O16 0.645921 0.000000 0.397165
O O17 0.833315 0.500000 0.908935
O O18 0.000000 0.633961 0.000000
O O19 0.403466 0.500000 0.812911
O O20 0.727986 0.000000 0.692849
#
# Coordination Sequence:
#
# PCOD8056807 Si02
#       8
#     4   4   4   4   4   4   4   4
#     4  10  15  21  35  57  79 106 127 150 193 238
#     4   9  16  21  28  49  81 106 122 143 187 243
#     4   8  15  27  38  53  74 100 135 169 193 217
#     4  10  16  24  36  53  78 105 129 159 195 230
#     4   8  13  21  32  50  78 106 131 153 176 230
#     4  10  19  29  41  56  76 105 138 167 193 223
#     4   9  15  23  38  56  78 103 128 161 194 225
#     4   8  13  22  35  50  73 105 132 155 187 228
#
# _framework density 13.70675
#
# number of rings (size 3 to 8) (size 9 to 14) (size 15 to 20)
#    0.000    3.000    2.500    2.250    0.000    1.000 
#    0.000    0.000    0.000    0.375    0.000    3.500 
#    0.000    5.000    0.000    2.750    0.000    0.250 
#
# Total GULP energy -396487.127582 kJ/mol
# GULP energy per Si atom -12390.222737 kJ/mol
# Density = 1.367555 g / cm^3
# Si number density = 13.706750 Si / 1000 Ang^3
#
#
#
# Elastic Constant Matrix: (Units=GPa)
#
#
# Indices 1 2 3 4 5 6 
#
# 1 53.8055 26.9755 38.5003 0.0000 -11.2441 0.0000
# 2 26.9755 102.6917 55.4786 0.0000 -11.9594 0.0000
# 3 38.5003 55.4786 88.8211 0.0000 -21.8675 0.0000
# 4 0.0000 0.0000 0.0000 16.3819 0.0000 -0.0173
# 5 -11.2441 -11.9594 -21.8675 0.0000 19.6316 0.0000
# 6 0.0000 0.0000 0.0000 -0.0173 0.0000 5.0349
#
#
#
# Elastic Compliance Matrix: (Units=1/GPa)
#
#
# Indices 1 2 3 4 5 6 
#
# 1 0.027208 -0.001259 -0.010141 0.000000 0.003522 0.000000
# 2 -0.001259 0.014800 -0.009171 0.000000 -0.001921 0.000000
# 3 -0.010141 -0.009171 0.025597 0.000000 0.017117 0.000000
# 4 0.000000 0.000000 0.000000 0.061043 0.000000 0.000209
# 5 0.003522 -0.001921 0.017117 0.000000 0.070852 0.000000
# 6 0.000000 0.000000 0.000000 0.000209 0.000000 0.198613
#
#
# Mechanical properties :
#
#
# Convention : Reuss Voigt Hill
#
# Bulk Modulus (GPa) = 37.78779 54.13635 45.96207
# Shear Modulus (GPa) = 11.15886 16.50061 13.82973
#
# Velocity S-wave (km/s) = 2.85636 3.47339 3.17988
# Velocity P-wave (km/s) = 6.20540 7.46109 6.86203
#
# Compressibility (1/GPa) = 0.02646358
#
# Stress axis : x y z
#
# Youngs Moduli (GPa) = 36.75324 67.56959 39.06752
#
# Poissons Ratio (x) = 0.08505 0.39617
# Poissons Ratio (y) = 0.04626 0.35830
# Poissons Ratio (z) = 0.37270 0.61970
#
# Static dielectric constant tensor:
#      x y z
#    x 2.425160 0.000000 -0.255730 
#    y 0.000000 2.924410 0.000000 
#    z -0.255730 0.000000 2.629020 
# 
# 
# High freq. dielectric constant tensor:
#      x y z
#    x 1.466800 0.000000 -0.024130 
#    y 0.000000 1.516860 0.000000 
#    z -0.024130 0.000000 1.510590 
# 
# From -- ./inp_files/51275.got.cif
#   From: 2010.06.25/outbox.cif.g09.slc.cpg/sg10_26_cif.got.tgz:51275.got - 2010.06.27 22:07:45.
