data_PCOD8056836
_publ_section_title
;
Structure prediction by ZEFSAII (Michael W. Deem and Ramdas Pophale) SiO2 
 PCOD8056836
Probable space group: P 2/M
;
_chemical_formula_sum "Si O2"
_cell_formula_units_Z 24
_cell_length_a 5.348107
_cell_length_b 21.640866
_cell_length_c 15.073777
_cell_angle_alpha 90.000000
_cell_angle_beta 122.156621
_cell_angle_gamma 90.000000
_cell_volume 1476.975225
_symmetry_space_group_name_H-M "P 2/M"
_symmetry_group_IT_number 10
_symmetry_cell_setting 'monoclinic'
loop_
_space_group_symop_operation_xyz
x,y,z
-x,y,-z
-x,-y,-z
x,-y,z
loop_
_atom_site_type_symbol
_atom_site_label
_atom_site_fract_x
_atom_site_fract_y
_atom_site_fract_z
Si Si1 0.858678 0.927430 0.739078
Si Si2 0.588534 0.377753 0.892361
Si Si3 0.825322 0.072831 0.383572
Si Si4 0.411158 0.765811 0.107433
Si Si5 0.066132 0.183646 0.877427
Si Si6 0.934546 0.428318 0.123024
O O1 0.516247 0.907000 0.675509
O O2 0.010466 0.906989 0.675541
O O3 0.021165 0.888848 0.847430
O O4 0.900391 0.000000 0.766877
O O5 0.633321 0.305958 0.922205
O O6 0.241683 0.396370 0.828096
O O7 0.742565 0.396375 0.828094
O O8 0.747604 0.417639 0.998402
O O9 0.000000 0.102499 0.500000
O O10 0.841212 0.000000 0.394128
O O11 0.758159 0.783471 0.171122
O O12 0.255254 0.783479 0.171124
O O13 0.253351 0.807292 0.002235
O O14 0.976505 0.500000 0.151004
#
# Coordination Sequence:
#
# PCOD8056836 Si02
#       6
#     4   4   4   4   4   4
#     4  10  19  30  45  64  83 101 123 159 205 245
#     4  10  16  25  36  48  67  95 129 162 203 233
#     4   9  17  30  47  65  83 101 119 142 187 253
#     4  10  19  30  42  54  73 108 144 174 204 221
#     4  10  18  30  42  57  76  99 135 172 202 234
#     4  10  16  22  33  51  70  88 115 162 217 240
#
# _framework density 16.249424999999999
#
# number of rings (size 3 to 8) (size 9 to 14) (size 15 to 20)
#    0.000    2.167    0.000    9.000    0.000    2.000 
#    0.000    3.333    0.000    0.000    0.000    0.000 
#    0.000    0.000    0.000    0.000    0.000    0.000 
#
# Total GULP energy -297326.347904 kJ/mol
# GULP energy per Si atom -12388.597829 kJ/mol
# Density = 1.621244 g / cm^3
# Si number density = 16.249425 Si / 1000 Ang^3
#
#
#
# Elastic Constant Matrix: (Units=GPa)
#
#
# Indices 1 2 3 4 5 6 
#
# 1 201.6207 49.9640 20.7186 0.0000 4.1440 0.0000
# 2 49.9640 97.4513 37.4110 0.0000 0.3014 0.0000
# 3 20.7186 37.4110 33.2981 0.0000 0.0036 0.0000
# 4 0.0000 0.0000 0.0000 1.4959 0.0000 0.4776
# 5 4.1440 0.3014 0.0036 0.0000 6.7540 0.0000
# 6 0.0000 0.0000 0.0000 0.4776 0.0000 20.8037
#
#
#
# Elastic Compliance Matrix: (Units=1/GPa)
#
#
# Indices 1 2 3 4 5 6 
#
# 1 0.005763 -0.002757 -0.000488 0.000000 -0.003413 0.000000
# 2 -0.002757 0.019367 -0.020044 0.000000 0.000838 0.000000
# 3 -0.000488 -0.020044 0.052855 0.000000 0.001166 0.000000
# 4 0.000000 0.000000 0.000000 0.673423 0.000000 -0.015459
# 5 -0.003413 0.000838 0.001166 0.000000 0.150117 0.000000
# 6 0.000000 0.000000 0.000000 -0.015459 0.000000 0.048423
#
#
# Mechanical properties :
#
#
# Convention : Reuss Voigt Hill
#
# Bulk Modulus (GPa) = 31.83969 60.95080 46.39525
# Shear Modulus (GPa) = 4.96526 20.76249 12.86388
#
# Velocity S-wave (km/s) = 1.74994 3.57842 2.81668
# Velocity P-wave (km/s) = 4.87031 7.39354 6.26037
#
# Compressibility (1/GPa) = 0.03140734
#
# Stress axis : x y z
#
# Youngs Moduli (GPa) = 173.51106 51.63361 18.91960
#
# Poissons Ratio (x) = 0.14235 0.00924
# Poissons Ratio (y) = 0.47835 0.37923
# Poissons Ratio (z) = 0.08471 1.03495
#
# Static dielectric constant tensor:
#      x y z
#    x 5.060450 0.000000 0.065190 
#    y 0.000000 2.920380 0.000000 
#    z 0.065190 0.000000 2.435150 
# 
# 
# High freq. dielectric constant tensor:
#      x y z
#    x 1.675930 0.000000 0.003750 
#    y 0.000000 1.615000 0.000000 
#    z 0.003750 0.000000 1.525090 
# 
# From -- ./inp_files/59583.got.cif
#   From: 2010.06.25/outbox.cif.g09.slc.cpg/sg10_30_cif.got.tgz:59583.got - 2010.06.27 22:07:45.
