data_PCOD8056462
_publ_section_title
;
Structure prediction by ZEFSAII (Michael W. Deem and Ramdas Pophale) SiO2 
 PCOD8056462
Probable space group: C C
;
_chemical_formula_sum "Si O2"
_cell_formula_units_Z 32
_cell_length_a 9.000746
_cell_length_b 11.899307
_cell_length_c 12.372714
_cell_angle_alpha 90.000000
_cell_angle_beta 75.458092
_cell_angle_gamma 90.000000
_cell_volume 1282.698141
_symmetry_space_group_name_H-M "C C"
_symmetry_group_IT_number 9
_symmetry_cell_setting 'monoclinic'
loop_
_space_group_symop_operation_xyz
x,y,z
x,-y,1/2+z
1/2+x,1/2+y,z
1/2+x,1/2-y,1/2+z
loop_
_atom_site_type_symbol
_atom_site_label
_atom_site_fract_x
_atom_site_fract_y
_atom_site_fract_z
Si Si1 0.205370 0.845003 0.973720
Si Si2 0.910987 0.538822 0.930780
Si Si3 0.235938 0.433825 0.905026
Si Si4 0.423549 0.362275 0.435488
Si Si5 0.166324 0.851907 0.735740
Si Si6 0.861163 0.814822 0.681539
Si Si7 0.234514 0.090747 0.762031
Si Si8 0.385335 0.728957 0.552172
O O1 0.132461 0.856803 0.867997
O O2 0.270152 0.964080 0.002557
O O3 0.344223 0.757727 0.933919
O O4 0.050233 0.814563 0.067680
O O5 0.914012 0.662696 0.974945
O O6 0.061730 0.473661 0.942222
O O7 0.882335 0.551870 0.806847
O O8 0.344110 0.542252 0.879439
O O9 0.282266 0.357241 0.999953
O O10 0.250115 0.375467 0.786170
O O11 0.392552 0.387877 0.568431
O O12 0.602384 0.361226 0.368409
O O13 0.304588 0.769571 0.677044
O O14 0.022945 0.793684 0.706596
O O15 0.187815 0.983368 0.697695
O O16 0.785156 0.691320 0.669952
#
# Coordination Sequence:
#
# PCOD8056462 Si02
#       8
#     4   4   4   4   4   4   4   4
#     4  11  25  48  72 111 154 192 254 320 375 452
#     4  11  24  46  78 103 153 194 245 322 370 440
#     4  12  25  51  76 111 159 197 250 324 378 458
#     4  12  27  48  78 116 154 202 258 318 384 456
#     4  11  26  46  77 108 148 210 249 309 396 439
#     4  12  26  48  78 112 148 207 252 310 392 451
#     4  11  24  51  77 109 154 195 260 320 370 465
#     4  12  25  48  76 108 152 199 250 311 381 455
#
# _framework density 24.947413000000001
#
# number of rings (size 3 to 8) (size 9 to 14) (size 15 to 20)
#    0.000    0.500    5.000    2.250    3.500    4.000 
#    0.000    0.000    0.000    0.000    0.000    0.000 
#    0.000    0.000    0.000    0.000    0.000    0.000 
#
# Total GULP energy -198318.306724 kJ/mol
# GULP energy per Si atom -12394.894170 kJ/mol
# Density = 2.489063 g / cm^3
# Si number density = 24.947413 Si / 1000 Ang^3
#
#
#
# Elastic Constant Matrix: (Units=GPa)
#
#
# Indices 1 2 3 4 5 6 
#
# 1 133.5261 37.7854 6.4506 0.0000 -16.2060 0.0000
# 2 37.7854 109.7945 9.5651 0.0000 -17.6776 0.0000
# 3 6.4506 9.5651 51.6559 0.0000 -11.5155 0.0000
# 4 0.0000 0.0000 0.0000 32.4863 0.0000 1.3797
# 5 -16.2060 -17.6776 -11.5155 0.0000 23.2295 0.0000
# 6 0.0000 0.0000 0.0000 1.3797 0.0000 48.0110
#
#
#
# Elastic Compliance Matrix: (Units=1/GPa)
#
#
# Indices 1 2 3 4 5 6 
#
# 1 0.008664 -0.002292 0.000338 0.000000 0.004468 0.000000
# 2 -0.002292 0.010987 -0.000271 0.000000 0.006628 0.000000
# 3 0.000338 -0.000271 0.021780 0.000000 0.010827 0.000000
# 4 0.000000 0.000000 0.000000 0.030820 0.000000 -0.000886
# 5 0.004468 0.006628 0.010827 0.000000 0.056577 0.000000
# 6 0.000000 0.000000 0.000000 -0.000886 0.000000 0.020854
#
#
# Mechanical properties :
#
#
# Convention : Reuss Voigt Hill
#
# Bulk Modulus (GPa) = 27.03899 44.73097 35.88498
# Shear Modulus (GPa) = 30.03756 36.82372 33.43064
#
# Velocity S-wave (km/s) = 3.47369 3.84611 3.66463
# Velocity P-wave (km/s) = 5.19139 6.13942 5.68520
#
# Compressibility (1/GPa) = 0.03698364
#
# Stress axis : x y z
#
# Youngs Moduli (GPa) = 115.42556 91.01341 45.91283
#
# Poissons Ratio (x) = 0.20857 -0.01554
# Poissons Ratio (y) = 0.26452 0.01243
# Poissons Ratio (z) = -0.03907 0.02464
#
# Static dielectric constant tensor:
#      x y z
#    x 4.559060 0.000000 0.000170 
#    y 0.000000 4.768370 0.000000 
#    z 0.000170 0.000000 4.539730 
# 
# 
# High freq. dielectric constant tensor:
#      x y z
#    x 2.003060 0.000000 0.002440 
#    y 0.000000 2.009130 0.000000 
#    z 0.002440 0.000000 1.986790 
# 
# From -- ./inp_files/22803.got.cif
#   From: 2010.06.25/outbox.cif.g09.slc.cpg/sg9_12_cif.got.tgz:22803.got - 2010.06.27 21:40:51.
