data_PCOD8056119
_publ_section_title
;
Structure prediction by ZEFSAII (Michael W. Deem and Ramdas Pophale) SiO2 
 PCOD8056119
Probable space group: C C
;
_chemical_formula_sum "Si O2"
_cell_formula_units_Z 24
_cell_length_a 13.146348
_cell_length_b 12.709695
_cell_length_c 14.967721
_cell_angle_alpha 90.000000
_cell_angle_beta 151.440726
_cell_angle_gamma 90.000000
_cell_volume 1195.598337
_symmetry_space_group_name_H-M "C C"
_symmetry_group_IT_number 9
_symmetry_cell_setting 'monoclinic'
loop_
_space_group_symop_operation_xyz
x,y,z
x,-y,1/2+z
1/2+x,1/2+y,z
1/2+x,1/2-y,1/2+z
loop_
_atom_site_type_symbol
_atom_site_label
_atom_site_fract_x
_atom_site_fract_y
_atom_site_fract_z
Si Si1 0.301380 0.319517 0.401420
Si Si2 0.014088 0.502087 0.112557
Si Si3 0.859425 0.887520 0.775139
Si Si4 0.263326 0.112482 0.275172
Si Si5 0.283435 0.997909 0.612535
Si Si6 0.073860 0.319516 0.401383
O O1 0.128747 0.392303 0.221022
O O2 0.360198 0.224540 0.379857
O O3 0.508426 0.386314 0.587207
O O4 0.202046 0.271402 0.415828
O O5 0.187615 0.590171 0.220301
O O6 0.886450 0.544107 0.100233
O O7 0.851679 0.481626 0.905497
O O8 0.971923 0.775463 0.879821
O O9 0.738375 0.886319 0.587166
O O10 0.031722 0.981632 0.905466
O O11 0.325420 0.090168 0.220301
O O12 0.385691 0.107701 0.720981
#
# Coordination Sequence:
#
# PCOD8056119 Si02
#       6
#     4   4   4   4   4   4
#     4  11  22  38  65  94 123 163 210 258 306 365
#     4  11  24  40  62  95 129 165 205 255 319 372
#     4  12  22  40  65  95 126 160 209 263 307 365
#     4  12  22  40  65  95 126 160 209 263 307 365
#     4  11  24  40  62  95 129 165 205 255 319 372
#     4  11  22  38  65  94 123 163 210 258 306 365
#
# _framework density 20.073630999999999
#
# number of rings (size 3 to 8) (size 9 to 14) (size 15 to 20)
#    0.000    0.667    6.667    3.000    0.000    0.000 
#    0.000    1.667    0.000    0.000    0.000    0.000 
#    0.000    0.000    0.000    0.000    0.000    0.000 
#
# Total GULP energy -148828.944378 kJ/mol
# GULP energy per Si atom -12402.412032 kJ/mol
# Density = 2.002794 g / cm^3
# Si number density = 20.073631 Si / 1000 Ang^3
#
#
#
# Elastic Constant Matrix: (Units=GPa)
#
#
# Indices 1 2 3 4 5 6 
#
# 1 171.8260 65.6274 59.1239 -0.0142 3.5543 0.0006
# 2 65.6274 65.5499 23.0326 -0.0310 3.0136 -0.0053
# 3 59.1239 23.0326 123.3696 -0.0419 -0.1307 -0.0095
# 4 -0.0142 -0.0310 -0.0419 32.6281 -0.0096 0.3475
# 5 3.5543 3.0136 -0.1307 -0.0096 31.5495 0.0010
# 6 0.0006 -0.0053 -0.0095 0.3475 0.0010 37.6708
#
#
#
# Elastic Compliance Matrix: (Units=1/GPa)
#
#
# Indices 1 2 3 4 5 6 
#
# 1 0.010547 -0.009385 -0.003303 -0.000009 -0.000305 -0.000002
# 2 -0.009385 0.024756 -0.000126 0.000019 -0.001308 0.000003
# 3 -0.003303 -0.000126 0.009712 0.000011 0.000424 0.000002
# 4 -0.000009 0.000019 0.000011 0.030651 0.000009 -0.000283
# 5 -0.000305 -0.001308 0.000424 0.000009 0.031857 -0.000001
# 6 -0.000002 0.000003 0.000002 -0.000283 -0.000001 0.026548
#
#
# Mechanical properties :
#
#
# Convention : Reuss Voigt Hill
#
# Bulk Modulus (GPa) = 51.57615 72.92372 62.24993
# Shear Modulus (GPa) = 30.09102 34.56712 32.32907
#
# Velocity S-wave (km/s) = 3.87593 4.15422 4.01749
# Velocity P-wave (km/s) = 6.76607 7.70824 7.25248
#
# Compressibility (1/GPa) = 0.01938881
#
# Stress axis : x y z
#
# Youngs Moduli (GPa) = 94.81208 40.39429 102.96055
#
# Poissons Ratio (x) = 0.37910 0.34006
# Poissons Ratio (y) = 0.88982 0.01292
# Poissons Ratio (z) = 0.31315 0.00507
#
# Static dielectric constant tensor:
#      x y z
#    x 3.742030 -0.000010 -0.013220 
#    y -0.000010 3.310170 -0.000010 
#    z -0.013220 -0.000010 3.927700 
# 
# 
# High freq. dielectric constant tensor:
#      x y z
#    x 1.775540 0.000000 -0.002560 
#    y 0.000000 1.751190 0.000000 
#    z -0.002560 0.000000 1.811580 
# 
# From -- ./inp_files/16769.got.cif
#   From: 2010.06.25/outbox.cif.g09.slc.cpg/sg9_9_cif.got.tgz:16769.got - 2010.06.27 21:40:51.
