data_PCOD8056469
_publ_section_title
;
Structure prediction by ZEFSAII (Michael W. Deem and Ramdas Pophale) SiO2 
 PCOD8056469
Probable space group: C C
;
_chemical_formula_sum "Si O2"
_cell_formula_units_Z 32
_cell_length_a 14.620991
_cell_length_b 11.759306
_cell_length_c 11.857075
_cell_angle_alpha 90.000000
_cell_angle_beta 137.345107
_cell_angle_gamma 90.000000
_cell_volume 1381.329273
_symmetry_space_group_name_H-M "C C"
_symmetry_group_IT_number 9
_symmetry_cell_setting 'monoclinic'
loop_
_space_group_symop_operation_xyz
x,y,z
x,-y,1/2+z
1/2+x,1/2+y,z
1/2+x,1/2-y,1/2+z
loop_
_atom_site_type_symbol
_atom_site_label
_atom_site_fract_x
_atom_site_fract_y
_atom_site_fract_z
Si Si1 0.569370 0.079304 0.922970
Si Si2 0.709238 0.694678 0.897549
Si Si3 0.878118 0.244951 0.339055
Si Si4 0.859364 0.015425 0.252061
Si Si5 0.068995 0.957686 0.757120
Si Si6 0.930924 0.193780 0.956697
Si Si7 0.470173 0.161483 0.285165
Si Si8 0.730871 0.741606 0.468700
O O1 0.489393 0.155803 0.943561
O O2 0.611990 0.162646 0.857796
O O3 0.482126 0.975504 0.794896
O O4 0.699940 0.032425 0.103206
O O5 0.769645 0.739716 0.836873
O O6 0.645803 0.574341 0.805641
O O7 0.590755 0.781020 0.824356
O O8 0.823935 0.688903 0.098205
O O9 0.930514 0.113134 0.396143
O O10 0.816505 0.240954 0.158188
O O11 0.926499 0.016395 0.188490
O O12 0.868549 0.891389 0.310265
O O13 0.167404 0.882889 0.924124
O O14 0.046700 0.878515 0.626121
O O15 0.985014 0.296873 0.928478
O O16 0.821345 0.246068 0.940551
#
# Coordination Sequence:
#
# PCOD8056469 Si02
#       8
#     4   4   4   4   4   4   4   4
#     4  11  24  47  72 108 150 189 255 310 387 456
#     4  12  31  48  79 109 159 203 258 322 385 463
#     4  11  26  48  73 107 142 199 252 315 379 461
#     4  11  25  45  73 105 149 197 254 312 380 465
#     4  12  26  48  75 110 151 204 259 312 390 468
#     4  12  27  45  77 108 154 197 253 321 387 464
#     4  12  30  50  74 116 156 200 255 323 394 461
#     4  11  25  47  75 109 143 199 252 319 384 466
#
# _framework density 23.166091000000002
#
# number of rings (size 3 to 8) (size 9 to 14) (size 15 to 20)
#    0.000    0.500    5.000    1.500   14.000    0.000 
#    0.000    0.000    0.000    0.000    0.000    0.000 
#    0.000    0.000    0.000    0.000    0.000    0.000 
#
# Total GULP energy -198335.363935 kJ/mol
# GULP energy per Si atom -12395.960246 kJ/mol
# Density = 2.311336 g / cm^3
# Si number density = 23.166091 Si / 1000 Ang^3
#
#
#
# Elastic Constant Matrix: (Units=GPa)
#
#
# Indices 1 2 3 4 5 6 
#
# 1 141.7107 19.5120 24.8322 0.0000 -17.5875 0.0000
# 2 19.5120 80.0019 2.4752 0.0000 -4.6556 0.0000
# 3 24.8322 2.4752 60.6890 0.0000 2.7809 0.0000
# 4 0.0000 0.0000 0.0000 35.0679 0.0000 2.3633
# 5 -17.5875 -4.6556 2.7809 0.0000 34.1980 0.0000
# 6 0.0000 0.0000 0.0000 2.3633 0.0000 31.4012
#
#
#
# Elastic Compliance Matrix: (Units=1/GPa)
#
#
# Indices 1 2 3 4 5 6 
#
# 1 0.008469 -0.001697 -0.003598 0.000000 0.004417 0.000000
# 2 -0.001697 0.012961 0.000125 0.000000 0.000881 0.000000
# 3 -0.003598 0.000125 0.018096 0.000000 -0.003305 0.000000
# 4 0.000000 0.000000 0.000000 0.028661 0.000000 -0.002157
# 5 0.004417 0.000881 -0.003305 0.000000 0.031902 0.000000
# 6 0.000000 0.000000 0.000000 -0.002157 0.000000 0.032008
#
#
# Mechanical properties :
#
#
# Convention : Reuss Voigt Hill
#
# Bulk Modulus (GPa) = 34.26318 41.78226 38.02272
# Shear Modulus (GPa) = 32.85863 35.83890 34.34877
#
# Velocity S-wave (km/s) = 3.77024 3.93751 3.85478
# Velocity P-wave (km/s) = 5.81165 6.22472 6.02173
#
# Compressibility (1/GPa) = 0.02918585
#
# Stress axis : x y z
#
# Youngs Moduli (GPa) = 118.07660 77.15424 55.26026
#
# Poissons Ratio (x) = 0.13094 0.19885
# Poissons Ratio (y) = 0.20040 -0.00693
# Poissons Ratio (z) = 0.42490 -0.00968
#
# Static dielectric constant tensor:
#      x y z
#    x 4.234370 0.000000 0.106640 
#    y 0.000000 4.998070 0.000000 
#    z 0.106640 0.000000 4.092370 
# 
# 
# High freq. dielectric constant tensor:
#      x y z
#    x 1.921990 0.000000 0.006420 
#    y 0.000000 1.940290 0.000000 
#    z 0.006420 0.000000 1.901960 
# 
# From -- ./inp_files/18289.got.cif
#   From: 2010.06.25/outbox.cif.g09.slc.cpg/sg9_10_cif.got.tgz:18289.got - 2010.06.27 21:40:51.
