data_PCOD8056737
_publ_section_title
;
Structure prediction by ZEFSAII (Michael W. Deem and Ramdas Pophale) SiO2 
 PCOD8056737
Probable space group: C C
;
_chemical_formula_sum "Si O2"
_cell_formula_units_Z 16
_cell_length_a 9.597288
_cell_length_b 10.016662
_cell_length_c 8.909490
_cell_angle_alpha 90.000000
_cell_angle_beta 136.472207
_cell_angle_gamma 90.000000
_cell_volume 589.872955
_symmetry_space_group_name_H-M "C C"
_symmetry_group_IT_number 9
_symmetry_cell_setting 'monoclinic'
loop_
_space_group_symop_operation_xyz
x,y,z
x,-y,1/2+z
1/2+x,1/2+y,z
1/2+x,1/2-y,1/2+z
loop_
_atom_site_type_symbol
_atom_site_label
_atom_site_fract_x
_atom_site_fract_y
_atom_site_fract_z
Si Si1 0.253420 0.943317 0.973140
Si Si2 0.007849 0.912383 0.051580
Si Si3 0.925539 0.305893 0.735572
Si Si4 0.178712 0.399508 0.181484
O O1 0.478922 0.886389 0.126698
O O2 0.120451 0.960328 0.718211
O O3 0.141170 0.858229 0.014608
O O4 0.259660 0.095694 0.038800
O O5 0.988996 0.789476 0.148903
O O6 0.794745 0.964466 0.815139
O O7 0.831052 0.227041 0.808142
O O8 0.112571 0.392839 0.951496
#
# Coordination Sequence:
#
# PCOD8056737 Si02
#       4
#     4   4   4   4
#     4  12  27  50  79 120 161 214 271 329 405 482
#     4  12  26  49  83 117 162 215 267 332 404 479
#     4  12  25  54  81 109 170 212 254 343 402 458
#     4  12  26  49  83 118 161 211 268 332 397 481
#
# _framework density 27.124483999999999
#
# number of rings (size 3 to 8) (size 9 to 14) (size 15 to 20)
#    0.000    0.000    7.500    1.500    0.000    0.000 
#    4.500    2.500    0.000    0.000    0.000    0.000 
#    0.000    0.000    0.000    0.000    0.000    0.000 
#
# Total GULP energy -99116.382177 kJ/mol
# GULP energy per Si atom -12389.547772 kJ/mol
# Density = 2.706275 g / cm^3
# Si number density = 27.124484 Si / 1000 Ang^3
#
#
#
# Elastic Constant Matrix: (Units=GPa)
#
#
# Indices 1 2 3 4 5 6 
#
# 1 214.3923 34.7462 54.6855 0.0000 -5.4003 0.0000
# 2 34.7462 78.1690 42.4620 0.0000 -5.7975 0.0000
# 3 54.6855 42.4620 164.2497 0.0000 3.6522 0.0000
# 4 0.0000 0.0000 0.0000 36.4469 0.0000 -6.5616
# 5 -5.4003 -5.7975 3.6522 0.0000 35.7433 0.0000
# 6 0.0000 0.0000 0.0000 -6.5616 0.0000 32.9938
#
#
#
# Elastic Compliance Matrix: (Units=1/GPa)
#
#
# Indices 1 2 3 4 5 6 
#
# 1 0.005283 -0.001552 -0.001373 0.000000 0.000687 0.000000
# 2 -0.001552 0.015626 -0.003582 0.000000 0.002666 0.000000
# 3 -0.001373 -0.003582 0.007506 0.000000 -0.001556 0.000000
# 4 0.000000 0.000000 0.000000 0.028456 0.000000 0.005659
# 5 0.000687 0.002666 -0.001556 0.000000 0.028672 0.000000
# 6 0.000000 0.000000 0.000000 0.005659 0.000000 0.031434
#
#
# Mechanical properties :
#
#
# Convention : Reuss Voigt Hill
#
# Bulk Modulus (GPa) = 64.92919 80.06647 72.49783
# Shear Modulus (GPa) = 37.00236 42.69796 39.85016
#
# Velocity S-wave (km/s) = 3.69747 3.97186 3.83712
# Velocity P-wave (km/s) = 6.49753 7.11452 6.81301
#
# Compressibility (1/GPa) = 0.01540139
#
# Stress axis : x y z
#
# Youngs Moduli (GPa) = 189.27279 63.99510 133.22311
#
# Poissons Ratio (x) = 0.09929 0.18294
# Poissons Ratio (y) = 0.29367 0.47726
# Poissons Ratio (z) = 0.25991 0.22926
#
# Static dielectric constant tensor:
#      x y z
#    x 5.002400 0.000000 0.094180 
#    y 0.000000 4.558960 0.000000 
#    z 0.094180 0.000000 5.343900 
# 
# 
# High freq. dielectric constant tensor:
#      x y z
#    x 2.105760 0.000000 0.007840 
#    y 0.000000 2.059140 0.000000 
#    z 0.007840 0.000000 2.111660 
# 
# From -- ./inp_files/4728.got.cif
#   From: 2010.06.25/outbox.cif.g09.slc.cpg/sg9_3_cif.got.tgz:4728.got - 2010.06.27 21:40:51.
