data_PCOD8056718
_publ_section_title
;
Structure prediction by ZEFSAII (Michael W. Deem and Ramdas Pophale) SiO2 
 PCOD8056718
Probable space group: C C
;
_chemical_formula_sum "Si O2"
_cell_formula_units_Z 32
_cell_length_a 8.320034
_cell_length_b 14.802516
_cell_length_c 11.415345
_cell_angle_alpha 90.000000
_cell_angle_beta 94.917070
_cell_angle_gamma 90.000000
_cell_volume 1400.710695
_symmetry_space_group_name_H-M "C C"
_symmetry_group_IT_number 9
_symmetry_cell_setting 'monoclinic'
loop_
_space_group_symop_operation_xyz
x,y,z
x,-y,1/2+z
1/2+x,1/2+y,z
1/2+x,1/2-y,1/2+z
loop_
_atom_site_type_symbol
_atom_site_label
_atom_site_fract_x
_atom_site_fract_y
_atom_site_fract_z
Si Si1 0.544360 0.560574 0.492610
Si Si2 0.181957 0.837252 0.791423
Si Si3 0.681766 0.723566 0.628479
Si Si4 0.166237 0.868204 0.526220
Si Si5 0.017352 0.371114 0.472963
Si Si6 0.539969 0.208684 0.364254
Si Si7 0.679249 0.942043 0.021588
Si Si8 0.024020 0.336614 0.219637
O O1 0.557653 0.614851 0.372019
O O2 0.621572 0.621964 0.599448
O O3 0.636589 0.467269 0.472248
O O4 0.366678 0.534875 0.524550
O O5 0.141487 0.879533 0.663023
O O6 0.365560 0.839346 0.848198
O O7 0.150263 0.732120 0.781592
O O8 0.642396 0.791396 0.518165
O O9 0.599863 0.758848 0.741761
O O10 0.874577 0.715101 0.650702
O O11 0.351177 0.839695 0.521138
O O12 0.053254 0.791652 0.458407
O O13 0.080280 0.466122 0.521496
O O14 0.975133 0.389860 0.333725
O O15 0.649843 0.125373 0.411974
O O16 0.627359 0.896003 0.138599
#
# Coordination Sequence:
#
# PCOD8056718 Si02
#       8
#     4   4   4   4   4   4   4   4
#     4  12  29  47  70 109 149 192 249 295 356 434
#     4  12  26  47  77 104 148 193 242 298 367 431
#     4  12  25  48  76 106 148 189 240 307 364 433
#     4  12  27  48  76 109 146 191 241 302 370 430
#     4  12  27  48  76 109 146 191 241 302 370 430
#     4  12  25  48  76 106 148 189 240 307 364 433
#     4  12  29  47  70 109 149 192 249 295 356 434
#     4  12  26  47  77 104 148 193 242 298 367 431
#
# _framework density 22.845544
#
# number of rings (size 3 to 8) (size 9 to 14) (size 15 to 20)
#    0.000    0.000    5.000    4.500    7.000    3.000 
#    0.000    0.000    0.000    0.000    0.000    0.000 
#    0.000    0.000    0.000    0.000    0.000    0.000 
#
# Total GULP energy -198371.224753 kJ/mol
# GULP energy per Si atom -12398.201547 kJ/mol
# Density = 2.279355 g / cm^3
# Si number density = 22.845544 Si / 1000 Ang^3
#
#
#
# Elastic Constant Matrix: (Units=GPa)
#
#
# Indices 1 2 3 4 5 6 
#
# 1 72.5467 5.3244 48.9933 0.0000 -7.5095 0.0000
# 2 5.3244 87.6082 33.2380 0.0000 9.6568 0.0000
# 3 48.9933 33.2380 120.7005 0.0000 -0.3337 0.0000
# 4 0.0000 0.0000 0.0000 31.0042 0.0000 7.5221
# 5 -7.5095 9.6568 -0.3337 0.0000 36.2819 0.0000
# 6 0.0000 0.0000 0.0000 7.5221 0.0000 31.7943
#
#
#
# Elastic Compliance Matrix: (Units=1/GPa)
#
#
# Indices 1 2 3 4 5 6 
#
# 1 0.019741 0.001610 -0.008446 0.000000 0.003580 0.000000
# 2 0.001610 0.013318 -0.004330 0.000000 -0.003251 0.000000
# 3 -0.008446 -0.004330 0.012904 0.000000 -0.000477 0.000000
# 4 0.000000 0.000000 0.000000 0.034218 0.000000 -0.008095
# 5 0.003580 -0.003251 -0.000477 0.000000 0.029164 0.000000
# 6 0.000000 0.000000 0.000000 -0.008095 0.000000 0.033367
#
#
# Mechanical properties :
#
#
# Convention : Reuss Voigt Hill
#
# Bulk Modulus (GPa) = 42.31804 50.66298 46.49051
# Shear Modulus (GPa) = 28.91488 32.70273 30.80881
#
# Velocity S-wave (km/s) = 3.56148 3.78758 3.67627
# Velocity P-wave (km/s) = 5.95617 6.43056 6.19791
#
# Compressibility (1/GPa) = 0.02363058
#
# Stress axis : x y z
#
# Youngs Moduli (GPa) = 50.65658 75.08792 77.49236
#
# Poissons Ratio (x) = -0.12091 0.65454
# Poissons Ratio (y) = -0.08157 0.33554
# Poissons Ratio (z) = 0.42787 0.32513
#
# Static dielectric constant tensor:
#      x y z
#    x 4.060230 0.000000 -0.042230 
#    y 0.000000 4.108520 0.000000 
#    z -0.042230 0.000000 4.645290 
# 
# 
# High freq. dielectric constant tensor:
#      x y z
#    x 1.906580 0.000000 -0.001710 
#    y 0.000000 1.907980 0.000000 
#    z -0.001710 0.000000 1.920240 
# 
# From -- ./inp_files/14643.got.cif
#   From: 2010.06.25/outbox.cif.g09.slc.cpg/sg9_8_cif.got.tgz:14643.got - 2010.06.27 21:40:51.
