data_PCOD8056543
_publ_section_title
;
Structure prediction by ZEFSAII (Michael W. Deem and Ramdas Pophale) SiO2 
 PCOD8056543
Probable space group: C C
;
_chemical_formula_sum "Si O2"
_cell_formula_units_Z 20
_cell_length_a 5.029240
_cell_length_b 15.452470
_cell_length_c 10.664385
_cell_angle_alpha 90.000000
_cell_angle_beta 81.674159
_cell_angle_gamma 90.000000
_cell_volume 820.039143
_symmetry_space_group_name_H-M "C C"
_symmetry_group_IT_number 9
_symmetry_cell_setting 'monoclinic'
loop_
_space_group_symop_operation_xyz
x,y,z
x,-y,1/2+z
1/2+x,1/2+y,z
1/2+x,1/2-y,1/2+z
loop_
_atom_site_type_symbol
_atom_site_label
_atom_site_fract_x
_atom_site_fract_y
_atom_site_fract_z
Si Si1 0.253080 0.815140 0.868970
Si Si2 0.850199 0.135236 0.774687
Si Si3 0.218064 0.358464 0.007251
Si Si4 0.196406 0.543252 0.021514
Si Si5 0.143919 0.968537 0.688055
O O1 0.405404 0.738049 0.783640
O O2 0.236788 0.899257 0.783898
O O3 0.429603 0.830585 0.979507
O O4 0.954392 0.793626 0.944141
O O5 0.678976 0.129935 0.659266
O O6 0.689189 0.115249 0.913763
O O7 0.094086 0.065618 0.748331
O O8 0.305006 0.453906 0.950520
O O9 0.383506 0.567409 0.128828
O O10 0.890587 0.523730 0.077093
#
# Coordination Sequence:
#
# PCOD8056543 Si02
#       5
#     4   4   4   4   4
#     4  12  27  46  76 105 157 189 262 311 371 451
#     4  11  28  48  79 109 154 203 249 316 385 446
#     4  11  26  49  69 114 145 196 254 312 369 463
#     4  11  25  47  78 101 151 199 250 304 392 437
#     4  11  26  48  74 109 145 203 253 311 375 455
#
# _framework density 24.38908
#
# number of rings (size 3 to 8) (size 9 to 14) (size 15 to 20)
#    0.000    0.800    2.000    3.600    8.400    6.400 
#    0.000    0.000    0.000    0.000    0.000    0.000 
#    0.000    0.000    0.000    0.000    0.000    0.000 
#
# Total GULP energy -123901.147407 kJ/mol
# GULP energy per Si atom -12390.114741 kJ/mol
# Density = 2.433357 g / cm^3
# Si number density = 24.389080 Si / 1000 Ang^3
#
#
#
# Elastic Constant Matrix: (Units=GPa)
#
#
# Indices 1 2 3 4 5 6 
#
# 1 124.9904 42.5507 49.8294 0.0000 8.6180 0.0000
# 2 42.5507 139.7957 58.8165 0.0000 7.0550 0.0000
# 3 49.8294 58.8165 104.7454 0.0000 12.1260 0.0000
# 4 0.0000 0.0000 0.0000 29.3249 0.0000 -8.5865
# 5 8.6180 7.0550 12.1260 0.0000 41.6973 0.0000
# 6 0.0000 0.0000 0.0000 -8.5865 0.0000 24.6968
#
#
#
# Elastic Compliance Matrix: (Units=1/GPa)
#
#
# Indices 1 2 3 4 5 6 
#
# 1 0.010091 -0.001375 -0.003946 0.000000 -0.000705 0.000000
# 2 -0.001375 0.009554 -0.004715 0.000000 0.000039 0.000000
# 3 -0.003946 -0.004715 0.014369 0.000000 -0.002565 0.000000
# 4 0.000000 0.000000 0.000000 0.037966 0.000000 0.013200
# 5 -0.000705 0.000039 -0.002565 0.000000 0.024868 0.000000
# 6 0.000000 0.000000 0.000000 0.013200 0.000000 0.045080
#
#
# Mechanical properties :
#
#
# Convention : Reuss Voigt Hill
#
# Bulk Modulus (GPa) = 71.73613 74.65829 73.19721
# Shear Modulus (GPa) = 30.00367 33.69947 31.85157
#
# Velocity S-wave (km/s) = 3.51124 3.72121 3.61775
# Velocity P-wave (km/s) = 6.77610 7.01007 6.89407
#
# Compressibility (1/GPa) = 0.01393998
#
# Stress axis : x y z
#
# Youngs Moduli (GPa) = 99.10038 104.67240 69.59566
#
# Poissons Ratio (x) = 0.14397 0.27465
# Poissons Ratio (y) = 0.13631 0.32812
# Poissons Ratio (z) = 0.39109 0.49350
#
# Static dielectric constant tensor:
#      x y z
#    x 4.261010 0.000000 0.026380 
#    y 0.000000 4.626810 0.000000 
#    z 0.026380 0.000000 4.439580 
# 
# 
# High freq. dielectric constant tensor:
#      x y z
#    x 1.959130 0.000000 0.002830 
#    y 0.000000 1.967910 0.000000 
#    z 0.002830 0.000000 1.981410 
# 
# From -- ./inp_files/12877.got.cif
#   From: 2010.06.25/outbox.cif.g09.slc.cpg/sg9_7_cif.got.tgz:12877.got - 2010.06.27 21:40:51.
