data_PCOD8056869
_publ_section_title
;
Structure prediction by ZEFSAII (Michael W. Deem and Ramdas Pophale) SiO2 
 PCOD8056869
Probable space group: P 2/M
;
_chemical_formula_sum "Si O2"
_cell_formula_units_Z 32
_cell_length_a 29.772465
_cell_length_b 9.072946
_cell_length_c 23.662609
_cell_angle_alpha 90.000000
_cell_angle_beta 16.320802
_cell_angle_gamma 90.000000
_cell_volume 1796.203331
_symmetry_space_group_name_H-M "P 2/M"
_symmetry_group_IT_number 10
_symmetry_cell_setting 'monoclinic'
loop_
_space_group_symop_operation_xyz
x,y,z
-x,y,-z
-x,-y,-z
x,-y,z
loop_
_atom_site_type_symbol
_atom_site_label
_atom_site_fract_x
_atom_site_fract_y
_atom_site_fract_z
Si Si1 0.377197 0.674072 0.274470
Si Si2 0.268213 0.171885 0.515822
Si Si3 0.087440 0.832678 0.073185
Si Si4 0.847236 0.175311 0.545351
Si Si5 0.592715 0.672427 0.331295
Si Si6 0.842348 0.166725 0.883164
Si Si7 0.640972 0.336867 0.875173
Si Si8 0.490903 0.173354 0.679100
O O1 0.342623 0.500000 0.313591
O O2 0.360669 0.733094 0.357641
O O3 0.253686 0.755902 0.383304
O O4 0.559439 0.708070 0.033320
O O5 0.350754 0.205102 0.476250
O O6 0.083479 0.219721 0.744971
O O7 0.281763 0.000000 0.482932
O O8 0.075334 0.819494 0.155114
O O9 0.124794 0.000000 0.009659
O O10 0.226392 0.730235 0.880758
O O11 0.781861 0.226337 0.685620
O O12 0.030861 0.232963 0.315197
O O13 0.836023 0.000000 0.554139
O O14 0.500000 0.712355 0.500000
O O15 0.598476 0.500000 0.312532
O O16 0.495795 0.748428 0.397344
O O17 0.815235 0.000000 0.897670
O O18 0.665575 0.239643 0.098731
O O19 0.716234 0.500000 0.787900
O O20 0.500000 0.334247 0.000000
O O21 0.464659 0.000000 0.699305
#
# Coordination Sequence:
#
# PCOD8056869 Si02
#       8
#     4   4   4   4   4   4   4   4
#     4  10  19  29  43  65  98 134 164 203 257 308
#     4  10  19  33  53  77 103 130 166 211 252 296
#     4   9  17  32  53  77 103 130 165 208 247 290
#     4  10  16  25  44  68  94 124 166 216 257 297
#     4  10  21  37  56  79 106 135 168 202 236 286
#     4   8  14  27  46  70  98 124 156 206 254 291
#     4   8  16  28  38  58  93 128 164 208 254 302
#     4   9  19  35  55  77 103 134 165 203 252 297
#
# _framework density 17.815356000000001
#
# number of rings (size 3 to 8) (size 9 to 14) (size 15 to 20)
#    0.000    2.750    1.250    2.625    0.000    4.750 
#    0.000    1.250    0.000    4.500    0.000    5.250 
#    0.000    0.000    0.000    0.000    0.000    0.000 
#
# Total GULP energy -396564.403092 kJ/mol
# GULP energy per Si atom -12392.637597 kJ/mol
# Density = 1.777481 g / cm^3
# Si number density = 17.815356 Si / 1000 Ang^3
#
#
#
# Elastic Constant Matrix: (Units=GPa)
#
#
# Indices 1 2 3 4 5 6 
#
# 1 72.5883 33.2961 52.6721 0.0000 -1.7405 0.0000
# 2 33.2961 67.5191 43.3294 0.0000 12.2678 0.0000
# 3 52.6721 43.3294 110.9730 0.0000 10.0737 0.0000
# 4 0.0000 0.0000 0.0000 23.4692 0.0000 11.6860
# 5 -1.7405 12.2678 10.0737 0.0000 29.3648 0.0000
# 6 0.0000 0.0000 0.0000 11.6860 0.0000 13.9243
#
#
#
# Elastic Compliance Matrix: (Units=1/GPa)
#
#
# Indices 1 2 3 4 5 6 
#
# 1 0.024014 -0.007301 -0.009241 0.000000 0.007644 0.000000
# 2 -0.007301 0.022984 -0.004746 0.000000 -0.008407 0.000000
# 3 -0.009241 -0.004746 0.015606 0.000000 -0.003919 0.000000
# 4 0.000000 0.000000 0.000000 0.073197 0.000000 -0.061431
# 5 0.007644 -0.008407 -0.003919 0.000000 0.039364 0.000000
# 6 0.000000 0.000000 0.000000 -0.061431 0.000000 0.123373
#
#
# Mechanical properties :
#
#
# Convention : Reuss Voigt Hill
#
# Bulk Modulus (GPa) = 49.92822 56.63063 53.27943
# Shear Modulus (GPa) = 14.37649 21.47048 17.92349
#
# Velocity S-wave (km/s) = 2.84381 3.47532 3.17530
# Velocity P-wave (km/s) = 6.23452 6.92534 6.58899
#
# Compressibility (1/GPa) = 0.02002875
#
# Stress axis : x y z
#
# Youngs Moduli (GPa) = 41.64194 43.50900 64.07667
#
# Poissons Ratio (x) = 0.31764 0.59216
# Poissons Ratio (y) = 0.30401 0.30409
# Poissons Ratio (z) = 0.38483 0.20648
#
# Static dielectric constant tensor:
#      x y z
#    x 3.009500 0.000000 0.103580 
#    y 0.000000 3.221570 0.000000 
#    z 0.103580 0.000000 3.568970 
# 
# 
# High freq. dielectric constant tensor:
#      x y z
#    x 1.651380 0.000000 0.007720 
#    y 0.000000 1.677480 0.000000 
#    z 0.007720 0.000000 1.697340 
# 
# From -- ./inp_files/86758.got.cif
#   From: 2010.06.25/outbox.cif.g09.slc.cpg/sg10_44_cif.got.tgz:86758.got - 2010.06.27 22:07:45.
