data_PCOD8056215
_publ_section_title
;
Structure prediction by ZEFSAII (Michael W. Deem and Ramdas Pophale) SiO2 
 PCOD8056215
Probable space group: C C
;
_chemical_formula_sum "Si O2"
_cell_formula_units_Z 28
_cell_length_a 6.660013
_cell_length_b 19.720988
_cell_length_c 11.732992
_cell_angle_alpha 90.000000
_cell_angle_beta 124.593750
_cell_angle_gamma 90.000000
_cell_volume 1268.577453
_symmetry_space_group_name_H-M "C C"
_symmetry_group_IT_number 9
_symmetry_cell_setting 'monoclinic'
loop_
_space_group_symop_operation_xyz
x,y,z
x,-y,1/2+z
1/2+x,1/2+y,z
1/2+x,1/2-y,1/2+z
loop_
_atom_site_type_symbol
_atom_site_label
_atom_site_fract_x
_atom_site_fract_y
_atom_site_fract_z
Si Si1 0.998050 0.623195 0.575140
Si Si2 0.861641 0.389593 0.779482
Si Si3 0.207108 0.721872 0.279649
Si Si4 0.717519 0.249987 0.029771
Si Si5 0.449568 0.958291 0.279424
Si Si6 0.554439 0.374005 0.279337
Si Si7 0.906835 0.123295 0.983693
O O1 0.847565 0.614269 0.411111
O O2 0.937804 0.696380 0.610335
O O3 0.919115 0.566512 0.640037
O O4 0.284368 0.617973 0.641510
O O5 0.973972 0.461118 0.779677
O O6 0.584451 0.385845 0.647657
O O7 0.016481 0.327330 0.779486
O O8 0.472818 0.708605 0.419176
O O9 0.195383 0.708392 0.140675
O O10 0.151747 0.800643 0.279045
O O11 0.776527 0.196518 0.948904
O O12 0.220115 0.933117 0.279452
O O13 0.697911 0.933323 0.418588
O O14 0.560358 0.381810 0.417290
#
# Coordination Sequence:
#
# PCOD8056215 Si02
#       7
#     4   4   4   4   4   4   4
#     4  11  25  46  71 102 140 184 239 297 353 424
#     4  12  28  42  72 111 141 181 251 295 347 435
#     4  12  23  41  73 105 138 184 234 294 360 416
#     4  12  22  44  72 106 142 180 242 300 362 416
#     4  11  27  48  69  98 146 199 223 292 372 428
#     4  11  22  49  72  94 141 190 232 281 371 425
#     4  11  25  46  71 102 140 184 239 297 353 424
#
# _framework density 22.071967000000001
#
# number of rings (size 3 to 8) (size 9 to 14) (size 15 to 20)
#    0.000    0.571    2.857    5.143    4.000    0.000 
#    5.143    0.000    0.000    0.000    0.000    0.000 
#    0.000    0.000    0.000    0.000    0.000    0.000 
#
# Total GULP energy -173691.151842 kJ/mol
# GULP energy per Si atom -12406.510846 kJ/mol
# Density = 2.202173 g / cm^3
# Si number density = 22.071967 Si / 1000 Ang^3
#
#
#
# Elastic Constant Matrix: (Units=GPa)
#
#
# Indices 1 2 3 4 5 6 
#
# 1 103.7347 9.3904 49.5489 0.0000 -0.2581 0.0000
# 2 9.3904 88.5583 9.8039 0.0000 0.1272 0.0000
# 3 49.5489 9.8039 164.3993 0.0000 -0.3278 0.0000
# 4 0.0000 0.0000 0.0000 31.3758 0.0000 -0.0127
# 5 -0.2581 0.1272 -0.3278 0.0000 18.7966 0.0000
# 6 0.0000 0.0000 0.0000 -0.0127 0.0000 25.5178
#
#
#
# Elastic Compliance Matrix: (Units=1/GPa)
#
#
# Indices 1 2 3 4 5 6 
#
# 1 0.011321 -0.000828 -0.003363 0.000000 0.000102 0.000000
# 2 -0.000828 0.011428 -0.000432 0.000000 -0.000096 0.000000
# 3 -0.003363 -0.000432 0.007122 0.000000 0.000081 0.000000
# 4 0.000000 0.000000 0.000000 0.031872 0.000000 0.000016
# 5 0.000102 -0.000096 0.000081 0.000000 0.053205 0.000000
# 6 0.000000 0.000000 0.000000 0.000016 0.000000 0.039188
#
#
# Mechanical properties :
#
#
# Convention : Reuss Voigt Hill
#
# Bulk Modulus (GPa) = 48.48401 54.90874 51.69637
# Shear Modulus (GPa) = 29.36734 34.33463 31.85099
#
# Velocity S-wave (km/s) = 3.65160 3.94836 3.80287
# Velocity P-wave (km/s) = 6.30816 6.76145 6.53873
#
# Compressibility (1/GPa) = 0.02062536
#
# Stress axis : x y z
#
# Youngs Moduli (GPa) = 88.32863 87.50590 140.40732
#
# Poissons Ratio (x) = 0.07249 0.47213
# Poissons Ratio (y) = 0.07317 0.06066
# Poissons Ratio (z) = 0.29701 0.03780
#
# Static dielectric constant tensor:
#      x y z
#    x 4.034950 0.000000 -0.001190 
#    y 0.000000 3.849420 0.000000 
#    z -0.001190 0.000000 4.116950 
# 
# 
# High freq. dielectric constant tensor:
#      x y z
#    x 1.876970 0.000000 -0.000060 
#    y 0.000000 1.863570 0.000000 
#    z -0.000060 0.000000 1.882720 
# 
# From -- ./inp_files/13275.got.cif
#   From: 2010.06.25/outbox.cif.g09.slc.cpg/sg9_7_cif.got.tgz:13275.got - 2010.06.27 21:40:51.
