data_PCOD8056062
_publ_section_title
;
Structure prediction by ZEFSAII (Michael W. Deem and Ramdas Pophale) SiO2 
 PCOD8056062
Probable space group: C C
;
_chemical_formula_sum "Si O2"
_cell_formula_units_Z 28
_cell_length_a 6.754030
_cell_length_b 31.646475
_cell_length_c 5.220285
_cell_angle_alpha 90.000000
_cell_angle_beta 79.244994
_cell_angle_gamma 90.000000
_cell_volume 1096.190335
_symmetry_space_group_name_H-M "C C"
_symmetry_group_IT_number 9
_symmetry_cell_setting 'monoclinic'
loop_
_space_group_symop_operation_xyz
x,y,z
x,-y,1/2+z
1/2+x,1/2+y,z
1/2+x,1/2-y,1/2+z
loop_
_atom_site_type_symbol
_atom_site_label
_atom_site_fract_x
_atom_site_fract_y
_atom_site_fract_z
Si Si1 0.621060 0.384543 0.056100
Si Si2 0.685152 0.654069 0.045289
Si Si3 0.672577 0.797477 0.819339
Si Si4 0.572923 0.022556 0.274844
Si Si5 0.530218 0.115570 0.243223
Si Si6 0.591944 0.477635 0.942021
Si Si7 0.447351 0.228093 0.874109
O O1 0.552297 0.364329 0.342203
O O2 0.522636 0.430364 0.031879
O O3 0.557612 0.353289 0.837677
O O4 0.865552 0.388151 0.012740
O O5 0.898845 0.628253 0.021963
O O6 0.738766 0.703448 0.995430
O O7 0.693161 0.847541 0.759691
O O8 0.595443 0.773807 0.580568
O O9 0.888217 0.777010 0.835478
O O10 0.526329 0.792685 0.095751
O O11 0.640912 0.070518 0.190823
O O12 0.661451 0.992513 0.027323
O O13 0.331980 0.019138 0.351303
O O14 0.505126 0.508877 0.184624
#
# Coordination Sequence:
#
# PCOD8056062 Si02
#       7
#     4   4   4   4   4   4   4
#     4   9  15  24  39  54  85 121 160 195 239 303
#     4   9  16  27  41  60  86 121 166 201 239 301
#     4  11  22  37  57  79 108 144 182 223 269 321
#     4   9  17  22  35  57  88 125 161 195 239 307
#     4   8  18  27  44  61  95 131 166 198 259 313
#     4   9  15  20  29  50  78 114 156 191 225 287
#     4  11  21  37  55  79 104 140 183 225 268 318
#
# _framework density 25.543008
#
# number of rings (size 3 to 8) (size 9 to 14) (size 15 to 20)
#    0.857    1.714    1.429    1.714    6.000    0.000 
#    0.000    0.000    0.000    0.000    0.000    0.000 
#    0.000    0.000    0.000   84.857    0.000    0.000 
#
# Total GULP energy -173474.003866 kJ/mol
# GULP energy per Si atom -12391.000276 kJ/mol
# Density = 2.548487 g / cm^3
# Si number density = 25.543008 Si / 1000 Ang^3
#
#
#
# Elastic Constant Matrix: (Units=GPa)
#
#
# Indices 1 2 3 4 5 6 
#
# 1 21.7692 24.1377 22.8075 0.0000 8.0108 0.0000
# 2 24.1377 102.5298 31.8842 0.0000 10.1709 0.0000
# 3 22.8075 31.8842 167.7073 0.0000 22.8545 0.0000
# 4 0.0000 0.0000 0.0000 27.8701 0.0000 13.5309
# 5 8.0108 10.1709 22.8545 0.0000 22.7706 0.0000
# 6 0.0000 0.0000 0.0000 13.5309 0.0000 9.2544
#
#
#
# Elastic Compliance Matrix: (Units=1/GPa)
#
#
# Indices 1 2 3 4 5 6 
#
# 1 0.071989 -0.013942 -0.005256 0.000000 -0.013823 0.000000
# 2 -0.013942 0.013255 -0.000563 0.000000 -0.000451 0.000000
# 3 -0.005256 -0.000563 0.007528 0.000000 -0.005455 0.000000
# 4 0.000000 0.000000 0.000000 0.123663 0.000000 -0.180809
# 5 -0.013823 -0.000451 -0.005455 0.000000 0.054456 0.000000
# 6 0.000000 0.000000 0.000000 -0.180809 0.000000 0.372419
#
#
# Mechanical properties :
#
#
# Convention : Reuss Voigt Hill
#
# Bulk Modulus (GPa) = 18.77886 49.96280 34.37083
# Shear Modulus (GPa) = 7.13692 26.19081 16.66387
#
# Velocity S-wave (km/s) = 1.67336 3.20560 2.55695
# Velocity P-wave (km/s) = 3.33187 5.77095 4.71197
#
# Compressibility (1/GPa) = 0.05325137
#
# Stress axis : x y z
#
# Youngs Moduli (GPa) = 13.89103 75.44204 132.83891
#
# Poissons Ratio (x) = 1.05182 0.69817
# Poissons Ratio (y) = 0.19367 0.07472
# Poissons Ratio (z) = 0.07301 0.04244
#
# Static dielectric constant tensor:
#      x y z
#    x 3.856810 0.000000 0.090930 
#    y 0.000000 4.526120 0.000000 
#    z 0.090930 0.000000 4.622890 
# 
# 
# High freq. dielectric constant tensor:
#      x y z
#    x 1.983930 0.000000 0.005820 
#    y 0.000000 2.021490 0.000000 
#    z 0.005820 0.000000 2.024900 
# 
# From -- ./inp_files/1154.got.cif
#   From: 2010.06.25/outbox.cif.g09.slc.cpg/sg9_1_cif.got.tgz:1154.got - 2010.06.27 21:40:51.
