data_PCOD8056912
_publ_section_title
;
Structure prediction by ZEFSAII (Michael W. Deem and Ramdas Pophale) SiO2 
 PCOD8056912
Probable space group: P 2/M
;
_chemical_formula_sum "Si O2"
_cell_formula_units_Z 26
_cell_length_a 12.177386
_cell_length_b 8.036746
_cell_length_c 16.754605
_cell_angle_alpha 90.000000
_cell_angle_beta 116.731057
_cell_angle_gamma 90.000000
_cell_volume 1464.475365
_symmetry_space_group_name_H-M "P 2/M"
_symmetry_group_IT_number 10
_symmetry_cell_setting 'monoclinic'
loop_
_space_group_symop_operation_xyz
x,y,z
-x,y,-z
-x,-y,-z
x,-y,z
loop_
_atom_site_type_symbol
_atom_site_label
_atom_site_fract_x
_atom_site_fract_y
_atom_site_fract_z
Si Si1 0.119636 0.179801 0.984341
Si Si2 0.076034 0.309835 0.641138
Si Si3 0.994672 0.188633 0.222125
Si Si4 0.166783 0.190321 0.510979
Si Si5 0.443216 0.181095 0.568769
Si Si6 0.164957 0.500000 0.259014
Si Si7 0.439529 0.500000 0.391903
Si Si8 0.853612 0.500000 0.933535
O O1 0.084421 0.222407 0.882332
O O2 0.188652 0.000000 0.010924
O O3 0.203101 0.332132 0.044845
O O4 0.000000 0.167248 0.000000
O O5 0.112561 0.500000 0.667760
O O6 0.167351 0.231209 0.605561
O O7 0.092551 0.208330 0.729076
O O8 0.934017 0.302629 0.565982
O O9 0.098637 0.330031 0.263754
O O10 0.050564 0.000000 0.237961
O O11 0.299456 0.227225 0.516767
O O12 0.127842 0.000000 0.484746
O O13 0.500000 0.167014 0.500000
O O14 0.513088 0.331743 0.637573
O O15 0.459745 0.000000 0.617241
O O16 0.293612 0.500000 0.346651
O O17 0.181515 0.500000 0.169718
O O18 0.500000 0.500000 0.500000
O O19 0.000000 0.500000 0.000000
#
# Coordination Sequence:
#
# PCOD8056912 Si02
#       8
#     4   4   4   4   4   2   2   2
#     4   9  16  28  46  70 101 138 164 198 253 311
#     4  11  22  31  49  76 103 135 175 214 266 321
#     4  11  21  32  49  75 108 139 175 209 251 319
#     4  10  20  36  52  69  99 136 178 222 268 308
#     4   9  20  36  54  71  90 129 177 219 258 294
#     4  12  22  34  49  78 102 148 178 213 266 303
#     4  10  24  36  49  68 104 134 181 226 251 295
#     4  10  16  30  50  68 105 134 170 206 252 325
#
# _framework density 17.753796999999999
#
# number of rings (size 3 to 8) (size 9 to 14) (size 15 to 20)
#    0.000    1.846    3.846    2.769    6.462    0.615 
#    0.000    0.000    0.000    0.000    0.000    0.000 
#    0.000    2.462    0.000    6.923    0.000    0.154 
#
# Total GULP energy -322142.281245 kJ/mol
# GULP energy per Si atom -12390.087740 kJ/mol
# Density = 1.771339 g / cm^3
# Si number density = 17.753797 Si / 1000 Ang^3
#
#
#
# Elastic Constant Matrix: (Units=GPa)
#
#
# Indices 1 2 3 4 5 6 
#
# 1 78.7009 18.0267 23.1766 0.0000 -10.1646 0.0000
# 2 18.0267 139.4444 11.0297 0.0000 5.8615 0.0000
# 3 23.1766 11.0297 73.3560 0.0000 -24.6897 0.0000
# 4 0.0000 0.0000 0.0000 23.0775 0.0000 -4.9790
# 5 -10.1646 5.8615 -24.6897 0.0000 23.2177 0.0000
# 6 0.0000 0.0000 0.0000 -4.9790 0.0000 21.8649
#
#
#
# Elastic Compliance Matrix: (Units=1/GPa)
#
#
# Indices 1 2 3 4 5 6 
#
# 1 0.014483 -0.001767 -0.003155 0.000000 0.003431 0.000000
# 2 -0.001767 0.007812 -0.002399 0.000000 -0.005297 0.000000
# 3 -0.003155 -0.002399 0.022939 0.000000 0.023617 0.000000
# 4 0.000000 0.000000 0.000000 0.045571 0.000000 0.010377
# 5 0.003431 -0.005297 0.023617 0.000000 0.071025 0.000000
# 6 0.000000 0.000000 0.000000 0.010377 0.000000 0.048099
#
#
# Mechanical properties :
#
#
# Convention : Reuss Voigt Hill
#
# Bulk Modulus (GPa) = 32.68916 43.99639 38.34277
# Shear Modulus (GPa) = 21.29750 29.58324 25.44037
#
# Velocity S-wave (km/s) = 3.46729 4.08647 3.78954
# Velocity P-wave (km/s) = 5.87213 6.86300 6.38681
#
# Compressibility (1/GPa) = 0.03059118
#
# Stress axis : x y z
#
# Youngs Moduli (GPa) = 69.04414 128.00519 43.59425
#
# Poissons Ratio (x) = 0.22619 0.13756
# Poissons Ratio (y) = 0.12200 0.10459
# Poissons Ratio (z) = 0.21786 0.30711
#
# Static dielectric constant tensor:
#      x y z
#    x 3.050420 0.000000 -0.349310 
#    y 0.000000 4.834970 0.000000 
#    z -0.349310 0.000000 3.086330 
# 
# 
# High freq. dielectric constant tensor:
#      x y z
#    x 1.637120 0.000000 -0.034450 
#    y 0.000000 1.728740 0.000000 
#    z -0.034450 0.000000 1.651180 
# 
# From -- ./inp_files/63594.got.cif
#   From: 2010.06.25/outbox.cif.g09.slc.cpg/sg10_32_cif.got.tgz:63594.got - 2010.06.27 22:07:45.
