data_PCOD8056241
_publ_section_title
;
Structure prediction by ZEFSAII (Michael W. Deem and Ramdas Pophale) SiO2 
 PCOD8056241
Probable space group: C C
;
_chemical_formula_sum "Si O2"
_cell_formula_units_Z 32
_cell_length_a 25.452934
_cell_length_b 7.691905
_cell_length_c 8.663619
_cell_angle_alpha 90.000000
_cell_angle_beta 119.979721
_cell_angle_gamma 90.000000
_cell_volume 1469.232239
_symmetry_space_group_name_H-M "C C"
_symmetry_group_IT_number 9
_symmetry_cell_setting 'monoclinic'
loop_
_space_group_symop_operation_xyz
x,y,z
x,-y,1/2+z
1/2+x,1/2+y,z
1/2+x,1/2-y,1/2+z
loop_
_atom_site_type_symbol
_atom_site_label
_atom_site_fract_x
_atom_site_fract_y
_atom_site_fract_z
Si Si1 0.029190 0.686842 0.005050
Si Si2 0.647973 0.326237 0.319498
Si Si3 0.276336 0.821911 0.368633
Si Si4 0.862484 0.981855 0.105342
Si Si5 0.777353 0.302394 0.003916
Si Si6 0.031395 0.662592 0.643854
Si Si7 0.950554 0.987086 0.484532
Si Si8 0.649142 0.299115 0.687769
O O1 0.094912 0.704900 0.179445
O O2 0.999788 0.514085 0.037422
O O3 0.036828 0.666441 0.834614
O O4 0.984806 0.843516 0.976595
O O5 0.711761 0.263900 0.342898
O O6 0.651138 0.320219 0.507814
O O7 0.632426 0.520158 0.244290
O O8 0.325774 0.685484 0.497645
O O9 0.271935 0.825452 0.178589
O O10 0.295153 0.013155 0.454888
O O11 0.826746 0.161008 0.028056
O O12 0.882830 0.962467 0.312546
O O13 0.930406 0.990507 0.131900
O O14 0.713883 0.232559 0.843290
O O15 0.098031 0.663972 0.664501
O O16 0.992802 0.821695 0.521130
#
# Coordination Sequence:
#
# PCOD8056241 Si02
#       8
#     4   4   4   4   4   4   4   4
#     4  12  27  46  73 106 140 188 238 294 359 419
#     4  11  23  42  72 104 146 184 233 296 360 417
#     4  11  25  45  72 105 143 185 237 293 353 421
#     4  12  28  48  74 103 143 192 236 290 348 426
#     4  11  25  45  72 106 141 187 236 293 355 417
#     4  12  27  46  73 105 142 186 239 295 354 426
#     4  12  28  50  72 103 145 188 240 290 350 420
#     4  11  23  42  72 104 146 184 233 297 357 420
#
# _framework density 21.780083000000001
#
# number of rings (size 3 to 8) (size 9 to 14) (size 15 to 20)
#    0.000    0.500    3.750    5.250    8.750    2.000 
#    0.000    0.000    0.000    0.000    0.000    0.000 
#    0.000    0.000    0.000    0.000    0.000    0.000 
#
# Total GULP energy -198451.158179 kJ/mol
# GULP energy per Si atom -12403.197386 kJ/mol
# Density = 2.173051 g / cm^3
# Si number density = 21.780083 Si / 1000 Ang^3
#
#
#
# Elastic Constant Matrix: (Units=GPa)
#
#
# Indices 1 2 3 4 5 6 
#
# 1 101.3710 47.9926 60.2543 0.0000 -1.7232 0.0000
# 2 47.9926 123.8579 85.2763 0.0000 8.0337 0.0000
# 3 60.2543 85.2763 131.3486 0.0000 0.2126 0.0000
# 4 0.0000 0.0000 0.0000 25.7601 0.0000 -13.3778
# 5 -1.7232 8.0337 0.2126 0.0000 34.6395 0.0000
# 6 0.0000 0.0000 0.0000 -13.3778 0.0000 19.5365
#
#
#
# Elastic Compliance Matrix: (Units=1/GPa)
#
#
# Indices 1 2 3 4 5 6 
#
# 1 0.013823 -0.001925 -0.005093 0.000000 0.001165 0.000000
# 2 -0.001925 0.015262 -0.009020 0.000000 -0.003580 0.000000
# 3 -0.005093 -0.009020 0.015803 0.000000 0.001741 0.000000
# 4 0.000000 0.000000 0.000000 0.060243 0.000000 0.041252
# 5 0.001165 -0.003580 0.001741 0.000000 0.029746 0.000000
# 6 0.000000 0.000000 0.000000 0.041252 0.000000 0.079433
#
#
# Mechanical properties :
#
#
# Convention : Reuss Voigt Hill
#
# Bulk Modulus (GPa) = 78.05184 82.62486 80.33835
# Shear Modulus (GPa) = 19.94751 26.85752 23.40252
#
# Velocity S-wave (km/s) = 3.02960 3.51539 3.28150
# Velocity P-wave (km/s) = 6.93917 7.38212 7.16407
#
# Compressibility (1/GPa) = 0.01281200
#
# Stress axis : x y z
#
# Youngs Moduli (GPa) = 72.34094 65.52208 63.27944
#
# Poissons Ratio (x) = 0.12614 0.32230
# Poissons Ratio (y) = 0.13927 0.57076
# Poissons Ratio (z) = 0.36845 0.59099
#
# Static dielectric constant tensor:
#      x y z
#    x 3.987480 0.000000 -0.056810 
#    y 0.000000 3.948630 0.000000 
#    z -0.056810 0.000000 4.121300 
# 
# 
# High freq. dielectric constant tensor:
#      x y z
#    x 1.863310 0.000000 -0.008020 
#    y 0.000000 1.861960 0.000000 
#    z -0.008020 0.000000 1.877790 
# 
# From -- ./inp_files/12076.got.cif
#   From: 2010.06.25/outbox.cif.g09.slc.cpg/sg9_7_cif.got.tgz:12076.got - 2010.06.27 21:40:51.
