data_PCOD8056953
_publ_section_title
;
Structure prediction by ZEFSAII (Michael W. Deem and Ramdas Pophale) SiO2 
 PCOD8056953
Probable space group: P 2/M
;
_chemical_formula_sum "Si O2"
_cell_formula_units_Z 32
_cell_length_a 21.607555
_cell_length_b 9.130092
_cell_length_c 17.992315
_cell_angle_alpha 90.000000
_cell_angle_beta 143.976621
_cell_angle_gamma 90.000000
_cell_volume 2087.518417
_symmetry_space_group_name_H-M "P 2/M"
_symmetry_group_IT_number 10
_symmetry_cell_setting 'monoclinic'
loop_
_space_group_symop_operation_xyz
x,y,z
-x,y,-z
-x,-y,-z
x,-y,z
loop_
_atom_site_type_symbol
_atom_site_label
_atom_site_fract_x
_atom_site_fract_y
_atom_site_fract_z
Si Si1 0.374787 0.162879 0.890555
Si Si2 0.390771 0.827884 0.192663
Si Si3 0.801201 0.172919 0.709971
Si Si4 0.787574 0.169859 0.867034
Si Si5 0.627608 0.831205 0.431220
Si Si6 0.991624 0.664913 0.079989
Si Si7 0.606702 0.169063 0.249183
Si Si8 0.610012 0.327673 0.953978
O O1 0.325651 0.200559 0.760515
O O2 0.333665 0.271699 0.915072
O O3 0.341590 0.000000 0.882838
O O4 0.500000 0.174117 0.000000
O O5 0.508954 0.767564 0.323848
O O6 0.393583 0.000000 0.177626
O O7 0.319906 0.791047 0.195041
O O8 0.341367 0.746670 0.072676
O O9 0.709340 0.240942 0.568362
O O10 0.909844 0.248038 0.790183
O O11 0.815469 0.000000 0.713063
O O12 0.771015 0.213608 0.765091
O O13 0.882650 0.258498 0.997504
O O14 0.816659 0.000000 0.902458
O O15 0.670967 0.808763 0.388534
O O16 0.621574 0.000000 0.447258
O O17 0.992286 0.500000 0.111628
O O18 0.000000 0.668922 0.000000
O O19 0.564281 0.000000 0.204931
O O20 0.510946 0.281692 0.158760
O O21 0.623811 0.500000 0.961916
#
# Coordination Sequence:
#
# PCOD8056953 Si02
#       8
#     4   4   4   4   4   4   4   4
#     4   8  13  22  36  51  70 100 134 164 195 234
#     4   9  17  29  41  55  81 113 140 164 198 243
#     4   9  16  27  44  64  83 103 133 171 205 236
#     4   9  17  28  44  63  80 103 136 173 206 237
#     4   8  14  25  41  60  83 110 136 164 197 236
#     4   9  17  29  44  60  79 103 131 167 210 248
#     4   8  14  25  38  52  74 105 136 162 195 238
#     4  10  17  23  34  53  76 102 134 169 201 232
#
# _framework density 15.329205999999999
#
# number of rings (size 3 to 8) (size 9 to 14) (size 15 to 20)
#    0.000    3.250    0.000    3.000    0.000    4.750 
#    0.000    5.000    0.000    0.000    0.000    7.000 
#    0.000    1.000    0.000   11.500    0.000    5.250 
#
# Total GULP energy -396446.198754 kJ/mol
# GULP energy per Si atom -12388.943711 kJ/mol
# Density = 1.529432 g / cm^3
# Si number density = 15.329206 Si / 1000 Ang^3
#
#
#
# Elastic Constant Matrix: (Units=GPa)
#
#
# Indices 1 2 3 4 5 6 
#
# 1 62.2394 32.1898 66.3897 0.0000 -14.9126 0.0000
# 2 32.1898 62.5728 34.2271 0.0000 -5.8542 0.0000
# 3 66.3897 34.2271 89.8295 0.0000 -8.0303 0.0000
# 4 0.0000 0.0000 0.0000 8.0676 0.0000 -1.2863
# 5 -14.9126 -5.8542 -8.0303 0.0000 18.2707 0.0000
# 6 0.0000 0.0000 0.0000 -1.2863 0.0000 13.6357
#
#
#
# Elastic Compliance Matrix: (Units=1/GPa)
#
#
# Indices 1 2 3 4 5 6 
#
# 1 0.125422 -0.013963 -0.081839 0.000000 0.061927 0.000000
# 2 -0.013963 0.021927 0.001638 0.000000 -0.003651 0.000000
# 3 -0.081839 0.001638 0.067729 0.000000 -0.036504 0.000000
# 4 0.000000 0.000000 0.000000 0.125846 0.000000 0.011872
# 5 0.061927 -0.003651 -0.036504 0.000000 0.088063 0.000000
# 6 0.000000 0.000000 0.000000 0.011872 0.000000 0.074457
#
#
# Mechanical properties :
#
#
# Convention : Reuss Voigt Hill
#
# Bulk Modulus (GPa) = 37.38151 53.36168 45.37159
# Shear Modulus (GPa) = 7.13586 13.45046 10.29316
#
# Velocity S-wave (km/s) = 2.15990 2.96538 2.59409
# Velocity P-wave (km/s) = 5.53706 6.82720 6.21569
#
# Compressibility (1/GPa) = 0.02675119
#
# Stress axis : x y z
#
# Youngs Moduli (GPa) = 7.97308 45.60682 14.76478
#
# Poissons Ratio (x) = 0.63679 1.20833
# Poissons Ratio (y) = 0.11132 -0.02419
# Poissons Ratio (z) = 0.65251 -0.07472
#
# Static dielectric constant tensor:
#      x y z
#    x 2.987720 0.000000 -0.353610 
#    y 0.000000 2.806350 0.000000 
#    z -0.353610 0.000000 3.018280 
# 
# 
# High freq. dielectric constant tensor:
#      x y z
#    x 1.566370 0.000000 -0.029660 
#    y 0.000000 1.573370 0.000000 
#    z -0.029660 0.000000 1.557870 
# 
# From -- ./inp_files/52813.got.cif
#   From: 2010.06.25/outbox.cif.g09.slc.cpg/sg10_27_cif.got.tgz:52813.got - 2010.06.27 22:07:45.
