data_PCOD8056838
_publ_section_title
;
Structure prediction by ZEFSAII (Michael W. Deem and Ramdas Pophale) SiO2 
 PCOD8056838
Probable space group: P 2/M
;
_chemical_formula_sum "Si O2"
_cell_formula_units_Z 28
_cell_length_a 20.457584
_cell_length_b 18.066963
_cell_length_c 8.894091
_cell_angle_alpha 90.000000
_cell_angle_beta 150.402581
_cell_angle_gamma 90.000000
_cell_volume 1623.612796
_symmetry_space_group_name_H-M "P 2/M"
_symmetry_group_IT_number 10
_symmetry_cell_setting 'monoclinic'
loop_
_space_group_symop_operation_xyz
x,y,z
-x,y,-z
-x,-y,-z
x,-y,z
loop_
_atom_site_type_symbol
_atom_site_label
_atom_site_fract_x
_atom_site_fract_y
_atom_site_fract_z
Si Si1 0.641470 0.694477 0.707611
Si Si2 0.641470 0.305523 0.358270
Si Si3 0.863560 0.584384 0.154327
Si Si4 0.863560 0.584384 0.799912
Si Si5 0.358095 0.142179 0.641332
Si Si6 0.647033 0.000000 0.865277
Si Si7 0.647033 0.000000 0.222858
Si Si8 0.358095 0.142179 0.291046
O O1 0.500000 0.683122 0.500000
O O2 0.617393 0.680353 0.484787
O O3 0.705404 0.776590 0.861176
O O4 0.745295 0.635357 0.981517
O O5 0.745295 0.364643 0.499663
O O6 0.705404 0.223410 0.460443
O O7 0.500000 0.316877 0.000000
O O8 0.831974 0.500000 0.137413
O O9 0.000000 0.611481 0.500000
O O10 0.877859 0.593598 0.005718
O O11 0.831973 0.500000 0.690481
O O12 0.000000 0.611480 0.000000
O O13 0.280043 0.074785 0.569463
O O14 0.370777 0.122413 0.491553
O O15 0.500000 0.148037 0.000000
O O16 0.500000 0.000000 0.500000
O O17 0.719957 0.925215 0.949292
O O18 0.644455 0.000000 0.038911
O O19 0.500000 0.000000 0.000000
O O20 0.500000 0.148037 0.500000
#
# Coordination Sequence:
#
# PCOD8056838 Si02
#       8
#     4   4   4   4   4   2   2   4
#     4   9  18  30  45  67  94 121 150 186 226 268
#     4   9  18  30  45  67  94 121 150 186 226 268
#     4   9  18  33  50  68  91 119 152 188 224 266
#     4   9  18  33  50  68  91 119 152 188 224 266
#     4   9  15  24  37  55  82 114 145 177 216 259
#     4  10  16  22  34  54  81 112 145 178 214 256
#     4  10  16  22  34  54  81 112 145 178 214 256
#     4   9  15  24  37  55  82 114 145 177 216 259
#
# _framework density 17.245491000000001
#
# number of rings (size 3 to 8) (size 9 to 14) (size 15 to 20)
#    0.000    2.857    0.000    3.857    0.000    2.857 
#    0.000    0.000    0.000    0.000    0.000    1.000 
#    0.000    0.000    0.000    0.000    0.000    0.000 
#
# Total GULP energy -346898.899892 kJ/mol
# GULP energy per Si atom -12389.246425 kJ/mol
# Density = 1.720624 g / cm^3
# Si number density = 17.245491 Si / 1000 Ang^3
#
#
#
# Elastic Constant Matrix: (Units=GPa)
#
#
# Indices 1 2 3 4 5 6 
#
# 1 75.3453 56.8685 34.7251 0.0000 -3.4554 0.0000
# 2 56.8685 147.0633 66.1981 0.0000 8.4268 0.0000
# 3 34.7251 66.1981 72.7731 0.0000 1.1316 0.0000
# 4 0.0000 0.0000 0.0000 9.3330 0.0000 -8.4218
# 5 -3.4554 8.4268 1.1316 0.0000 22.5407 0.0000
# 6 0.0000 0.0000 0.0000 -8.4218 0.0000 18.6579
#
#
#
# Elastic Compliance Matrix: (Units=1/GPa)
#
#
# Indices 1 2 3 4 5 6 
#
# 1 0.020125 -0.006340 -0.003924 0.000000 0.005652 0.000000
# 2 -0.006340 0.013843 -0.009479 0.000000 -0.005671 0.000000
# 3 -0.003924 -0.009479 0.024210 0.000000 0.001727 0.000000
# 4 0.000000 0.000000 0.000000 0.180782 0.000000 0.081602
# 5 0.005652 -0.005671 0.001727 0.000000 0.047264 0.000000
# 6 0.000000 0.000000 0.000000 0.081602 0.000000 0.090430
#
#
# Mechanical properties :
#
#
# Convention : Reuss Voigt Hill
#
# Bulk Modulus (GPa) = 53.49864 67.86279 60.68071
# Shear Modulus (GPa) = 11.83796 19.26565 15.55180
#
# Velocity S-wave (km/s) = 2.62284 3.34599 3.00624
# Velocity P-wave (km/s) = 6.34520 7.37320 6.87843
#
# Compressibility (1/GPa) = 0.01869206
#
# Stress axis : x y z
#
# Youngs Moduli (GPa) = 49.68945 72.23773 41.30603
#
# Poissons Ratio (x) = 0.45797 0.16208
# Poissons Ratio (y) = 0.31502 0.39154
# Poissons Ratio (z) = 0.19498 0.68475
#
# Static dielectric constant tensor:
#      x y z
#    x 3.039830 0.000000 -0.160190 
#    y 0.000000 4.618780 0.000000 
#    z -0.160190 0.000000 2.862460 
# 
# 
# High freq. dielectric constant tensor:
#      x y z
#    x 1.651560 0.000000 -0.031890 
#    y 0.000000 1.694110 0.000000 
#    z -0.031890 0.000000 1.616240 
# 
# From -- ./inp_files/35397.got.cif
#   From: 2010.06.25/outbox.cif.g09.slc.cpg/sg10_18_cif.got.tgz:35397.got - 2010.06.27 22:07:45.
