data_PCOD8056882
_publ_section_title
;
Structure prediction by ZEFSAII (Michael W. Deem and Ramdas Pophale) SiO2 
 PCOD8056882
Probable space group: P 2/M
;
_chemical_formula_sum "Si O2"
_cell_formula_units_Z 18
_cell_length_a 8.680335
_cell_length_b 21.128271
_cell_length_c 7.555927
_cell_angle_alpha 90.000000
_cell_angle_beta 36.101442
_cell_angle_gamma 90.000000
_cell_volume 816.513257
_symmetry_space_group_name_H-M "P 2/M"
_symmetry_group_IT_number 10
_symmetry_cell_setting 'monoclinic'
loop_
_space_group_symop_operation_xyz
x,y,z
-x,y,-z
-x,-y,-z
x,-y,z
loop_
_atom_site_type_symbol
_atom_site_label
_atom_site_fract_x
_atom_site_fract_y
_atom_site_fract_z
Si Si1 0.907124 0.368982 0.385345
Si Si2 0.261024 0.500000 0.363836
Si Si3 0.586630 0.693331 0.119812
Si Si4 0.227970 0.927318 0.156842
Si Si5 0.737234 0.180352 0.146595
O O1 0.763683 0.437232 0.492204
O O2 0.682134 0.320680 0.523726
O O3 0.000000 0.356551 0.500000
O O4 0.178587 0.354058 0.029741
O O5 0.000000 0.500000 0.500000
O O6 0.500000 0.500000 0.000000
O O7 0.669302 0.765834 0.066060
O O8 0.500000 0.678534 0.000000
O O9 0.000000 0.905528 0.500000
O O10 0.191542 0.000000 0.132872
O O11 0.500000 0.915552 0.000000
O O12 0.211788 0.885995 0.996176
O O13 0.500000 0.170992 0.500000
O O14 0.000000 0.201337 0.000000
#
# Coordination Sequence:
#
# PCOD8056882 Si02
#       5
#     4   2   4   4   4
#     4   9  17  29  49  77 108 143 181 232 290 340
#     4  10  16  26  44  76 114 138 172 236 302 342
#     4  10  20  35  54  78 110 150 192 231 280 343
#     4  10  22  42  66  90 118 155 195 235 284 345
#     4  12  25  39  59  89 121 155 194 241 292 336
#
# _framework density 22.044958999999999
#
# number of rings (size 3 to 8) (size 9 to 14) (size 15 to 20)
#    0.000    1.778    0.000    6.667    0.000    3.556 
#    0.000    0.000    0.000    0.000    0.000   15.556 
#    0.000    0.000    0.000    0.000    0.000    0.000 
#
# Total GULP energy -223021.889881 kJ/mol
# GULP energy per Si atom -12390.104993 kJ/mol
# Density = 2.199478 g / cm^3
# Si number density = 22.044959 Si / 1000 Ang^3
#
#
#
# Elastic Constant Matrix: (Units=GPa)
#
#
# Indices 1 2 3 4 5 6 
#
# 1 39.7139 33.3080 43.1747 0.0000 -22.3187 0.0000
# 2 33.3080 124.3090 57.0867 0.0000 -10.5748 0.0000
# 3 43.1747 57.0867 190.5766 0.0000 -31.1789 0.0000
# 4 0.0000 0.0000 0.0000 39.9031 0.0000 -7.0388
# 5 -22.3187 -10.5748 -31.1789 0.0000 29.0222 0.0000
# 6 0.0000 0.0000 0.0000 -7.0388 0.0000 24.6993
#
#
#
# Elastic Compliance Matrix: (Units=1/GPa)
#
#
# Indices 1 2 3 4 5 6 
#
# 1 0.060156 -0.010997 -0.004151 0.000000 0.037795 0.000000
# 2 -0.010997 0.011344 -0.001958 0.000000 -0.006427 0.000000
# 3 -0.004151 -0.001958 0.007443 0.000000 0.004091 0.000000
# 4 0.000000 0.000000 0.000000 0.026387 0.000000 0.007520
# 5 0.037795 -0.006427 0.004091 0.000000 0.065575 0.000000
# 6 0.000000 0.000000 0.000000 0.007520 0.000000 0.042630
#
#
# Mechanical properties :
#
#
# Convention : Reuss Voigt Hill
#
# Bulk Modulus (GPa) = 22.35574 69.08203 45.71888
# Shear Modulus (GPa) = 19.03619 33.46026 26.24822
#
# Velocity S-wave (km/s) = 2.94175 3.90015 3.45435
# Velocity P-wave (km/s) = 4.65849 7.18933 6.05756
#
# Compressibility (1/GPa) = 0.04473125
#
# Stress axis : x y z
#
# Youngs Moduli (GPa) = 16.62339 88.15570 134.34686
#
# Poissons Ratio (x) = 0.96947 0.55762
# Poissons Ratio (y) = 0.18281 0.26306
# Poissons Ratio (z) = 0.06900 0.17262
#
# Static dielectric constant tensor:
#      x y z
#    x 3.552560 0.000000 -0.412180 
#    y 0.000000 6.186340 0.000000 
#    z -0.412180 0.000000 4.500360 
# 
# 
# High freq. dielectric constant tensor:
#      x y z
#    x 1.833260 0.000000 -0.034420 
#    y 0.000000 1.871530 0.000000 
#    z -0.034420 0.000000 1.889490 
# 
# From -- ./inp_files/20063.got.cif
#   From: 2010.06.25/outbox.cif.g09.slc.cpg/sg10_11_cif.got.tgz:20063.got - 2010.06.27 22:07:45.
