data_PCOD8056261
_publ_section_title
;
Structure prediction by ZEFSAII (Michael W. Deem and Ramdas Pophale) SiO2 
 PCOD8056261
Probable space group: C C
;
_chemical_formula_sum "Si O2"
_cell_formula_units_Z 28
_cell_length_a 8.325190
_cell_length_b 31.457404
_cell_length_c 9.488004
_cell_angle_alpha 90.000000
_cell_angle_beta 148.909649
_cell_angle_gamma 90.000000
_cell_volume 1283.125029
_symmetry_space_group_name_H-M "C C"
_symmetry_group_IT_number 9
_symmetry_cell_setting 'monoclinic'
loop_
_space_group_symop_operation_xyz
x,y,z
x,-y,1/2+z
1/2+x,1/2+y,z
1/2+x,1/2-y,1/2+z
loop_
_atom_site_type_symbol
_atom_site_label
_atom_site_fract_x
_atom_site_fract_y
_atom_site_fract_z
Si Si1 0.039810 0.990228 0.506530
Si Si2 0.748928 0.145329 0.315238
Si Si3 0.073503 0.354365 0.094162
Si Si4 0.166438 0.532131 0.991925
Si Si5 0.649414 0.219167 0.447798
Si Si6 0.447831 0.127203 0.812291
Si Si7 0.722792 0.603395 0.097581
O O1 0.108383 0.944413 0.489941
O O2 0.775663 0.986866 0.425574
O O3 0.355682 0.008575 0.809725
O O4 0.929510 0.023407 0.305394
O O5 0.782531 0.189394 0.423827
O O6 0.503716 0.113114 0.202100
O O7 0.082477 0.122304 0.568783
O O8 0.624857 0.154867 0.064279
O O9 0.435871 0.365733 0.345406
O O10 0.990829 0.349448 0.195450
O O11 0.009084 0.309795 0.967468
O O12 0.847244 0.389475 0.851283
O O13 0.116600 0.581951 0.935501
O O14 0.898210 0.250432 0.695271
#
# Coordination Sequence:
#
# PCOD8056261 Si02
#       7
#     4   4   4   4   4   4   4
#     4  12  27  45  65  96 135 181 231 290 342 381
#     4  11  25  42  72 103 131 180 219 271 337 413
#     4  11  23  44  72  98 130 180 224 271 333 399
#     4  12  28  44  64  96 137 182 227 293 337 384
#     4  11  23  46  72 102 136 170 218 271 332 414
#     4  12  25  45  67 100 141 175 230 279 333 397
#     4  11  23  44  68  93 132 182 233 269 328 408
#
# _framework density 21.821725000000001
#
# number of rings (size 3 to 8) (size 9 to 14) (size 15 to 20)
#    0.000    0.571    1.429    7.714    8.000    0.000 
#    0.000    4.286    0.000    0.000    0.000    0.000 
#    0.000    0.000    0.000    0.000    0.000    0.000 
#
# Total GULP energy -173678.242331 kJ/mol
# GULP energy per Si atom -12405.588738 kJ/mol
# Density = 2.177206 g / cm^3
# Si number density = 21.821725 Si / 1000 Ang^3
#
#
#
# Elastic Constant Matrix: (Units=GPa)
#
#
# Indices 1 2 3 4 5 6 
#
# 1 112.2554 55.3517 47.6221 0.0000 -10.7978 0.0000
# 2 55.3517 88.8938 44.1650 0.0000 -9.3945 0.0000
# 3 47.6221 44.1650 144.2418 0.0000 -5.5803 0.0000
# 4 0.0000 0.0000 0.0000 48.3920 0.0000 -0.2424
# 5 -10.7978 -9.3945 -5.5803 0.0000 48.5216 0.0000
# 6 0.0000 0.0000 0.0000 -0.2424 0.0000 15.9622
#
#
#
# Elastic Compliance Matrix: (Units=1/GPa)
#
#
# Indices 1 2 3 4 5 6 
#
# 1 0.013515 -0.007171 -0.002213 0.000000 0.001364 0.000000
# 2 -0.007171 0.017292 -0.002872 0.000000 0.001422 0.000000
# 3 -0.002213 -0.002872 0.008540 0.000000 -0.000066 0.000000
# 4 0.000000 0.000000 0.000000 0.020666 0.000000 0.000314
# 5 0.001364 0.001422 -0.000066 0.000000 0.021181 0.000000
# 6 0.000000 0.000000 0.000000 0.000314 0.000000 0.062653
#
#
# Mechanical properties :
#
#
# Convention : Reuss Voigt Hill
#
# Bulk Modulus (GPa) = 67.41431 71.07428 69.24430
# Shear Modulus (GPa) = 28.85107 35.79199 32.32153
#
# Velocity S-wave (km/s) = 3.64005 4.05433 3.85276
# Velocity P-wave (km/s) = 6.97330 7.38633 7.18279
#
# Compressibility (1/GPa) = 0.01483365
#
# Stress axis : x y z
#
# Youngs Moduli (GPa) = 73.99442 57.83079 117.09164
#
# Poissons Ratio (x) = 0.41472 0.25916
# Poissons Ratio (y) = 0.53063 0.33628
# Poissons Ratio (z) = 0.16378 0.16608
#
# Static dielectric constant tensor:
#      x y z
#    x 4.000090 0.000000 -0.036960 
#    y 0.000000 4.087940 0.000000 
#    z -0.036960 0.000000 4.237890 
# 
# 
# High freq. dielectric constant tensor:
#      x y z
#    x 1.859850 0.000000 -0.000090 
#    y 0.000000 1.843210 0.000000 
#    z -0.000090 0.000000 1.886640 
# 
# From -- ./inp_files/6585.got.cif
#   From: 2010.06.25/outbox.cif.g09.slc.cpg/sg9_4_cif.got.tgz:6585.got - 2010.06.27 21:40:51.
