data_PCOD8056036
_publ_section_title
;
Structure prediction by ZEFSAII (Michael W. Deem and Ramdas Pophale) SiO2 
 PCOD8056036
Probable space group: C C
;
_chemical_formula_sum "Si O2"
_cell_formula_units_Z 28
_cell_length_a 14.216071
_cell_length_b 21.916175
_cell_length_c 5.097248
_cell_angle_alpha 90.000000
_cell_angle_beta 68.966355
_cell_angle_gamma 90.000000
_cell_volume 1482.292341
_symmetry_space_group_name_H-M "C C"
_symmetry_group_IT_number 9
_symmetry_cell_setting 'monoclinic'
loop_
_space_group_symop_operation_xyz
x,y,z
x,-y,1/2+z
1/2+x,1/2+y,z
1/2+x,1/2-y,1/2+z
loop_
_atom_site_type_symbol
_atom_site_label
_atom_site_fract_x
_atom_site_fract_y
_atom_site_fract_z
Si Si1 0.669120 0.683736 0.222510
Si Si2 0.613628 0.827943 0.298050
Si Si3 0.724917 0.137407 0.195224
Si Si4 0.559823 0.639596 0.828847
Si Si5 0.894505 0.302316 0.600021
Si Si6 0.900810 0.960104 0.569127
Si Si7 0.887968 0.230983 0.106851
O O1 0.641017 0.755600 0.274990
O O2 0.615961 0.642862 0.496151
O O3 0.788504 0.669081 0.117745
O O4 0.637970 0.656053 0.976627
O O5 0.674333 0.862792 0.462910
O O6 0.494854 0.842193 0.456334
O O7 0.640246 0.863635 0.004705
O O8 0.803700 0.082544 0.130653
O O9 0.778596 0.201839 0.192289
O O10 0.507239 0.574217 0.922963
O O11 0.472245 0.688521 0.904189
O O12 0.910524 0.244061 0.389592
O O13 0.888119 0.289226 0.916231
O O14 0.896019 0.015204 0.369137
#
# Coordination Sequence:
#
# PCOD8056036 Si02
#       7
#     4   4   4   4   4   4   4
#     4  12  21  35  52  84 119 167 192 229 278 360
#     4  12  21  35  52  84 119 167 192 229 278 360
#     4  11  22  36  57  81 119 151 192 239 304 339
#     4  11  22  36  57  81 119 151 192 239 304 339
#     4  12  22  29  52  75 120 155 199 208 266 340
#     4  11  24  43  66  92 112 146 203 264 307 348
#     4  11  18  32  48  79 106 159 184 226 261 348
#
# _framework density 18.889662999999999
#
# number of rings (size 3 to 8) (size 9 to 14) (size 15 to 20)
#    0.000    0.571    5.714    4.286    0.000    4.571 
#    0.000    0.000    0.000    0.000    0.000   20.000 
#    0.000    0.000    0.000    0.000    0.000    0.000 
#
# Total GULP energy -173553.400304 kJ/mol
# GULP energy per Si atom -12396.671450 kJ/mol
# Density = 1.884667 g / cm^3
# Si number density = 18.889663 Si / 1000 Ang^3
#
#
#
# Elastic Constant Matrix: (Units=GPa)
#
#
# Indices 1 2 3 4 5 6 
#
# 1 91.9663 17.8351 6.1388 0.0000 -8.6570 0.0000
# 2 17.8351 46.7590 16.1175 0.0000 -5.0760 0.0000
# 3 6.1388 16.1175 72.0695 0.0000 -2.1981 0.0000
# 4 0.0000 0.0000 0.0000 27.1561 0.0000 5.4753
# 5 -8.6570 -5.0760 -2.1981 0.0000 36.9858 0.0000
# 6 0.0000 0.0000 0.0000 5.4753 0.0000 20.8904
#
#
#
# Elastic Compliance Matrix: (Units=1/GPa)
#
#
# Indices 1 2 3 4 5 6 
#
# 1 0.011916 -0.004312 0.000016 0.000000 0.002198 0.000000
# 2 -0.004312 0.025043 -0.005169 0.000000 0.002120 0.000000
# 3 0.000016 -0.005169 0.015036 0.000000 0.000188 0.000000
# 4 0.000000 0.000000 0.000000 0.038879 0.000000 -0.010190
# 5 0.002198 0.002120 0.000188 0.000000 0.027854 0.000000
# 6 0.000000 0.000000 0.000000 -0.010190 0.000000 0.050540
#
#
# Mechanical properties :
#
#
# Convention : Reuss Voigt Hill
#
# Bulk Modulus (GPa) = 30.24270 32.33085 31.28677
# Shear Modulus (GPa) = 25.09831 28.38668 26.74249
#
# Velocity S-wave (km/s) = 3.64906 3.88075 3.76669
# Velocity P-wave (km/s) = 5.81370 6.10189 5.95954
#
# Compressibility (1/GPa) = 0.03306583
#
# Stress axis : x y z
#
# Youngs Moduli (GPa) = 83.92359 39.93180 66.50826
#
# Poissons Ratio (x) = 0.17218 -0.00109
# Poissons Ratio (y) = 0.36187 0.34375
# Poissons Ratio (z) = -0.00138 0.20639
#
# Static dielectric constant tensor:
#      x y z
#    x 3.735350 0.000000 -0.084680 
#    y 0.000000 3.063240 0.000000 
#    z -0.084680 0.000000 3.696750 
# 
# 
# High freq. dielectric constant tensor:
#      x y z
#    x 1.752280 0.000000 0.001620 
#    y 0.000000 1.668100 0.000000 
#    z 0.001620 0.000000 1.761130 
# 
# From -- ./inp_files/2627.got.cif
#   From: 2010.06.25/outbox.cif.g09.slc.cpg/sg9_2_cif.got.tgz:2627.got - 2010.06.27 21:40:51.
