data_PCOD8056661
_publ_section_title
;
Structure prediction by ZEFSAII (Michael W. Deem and Ramdas Pophale) SiO2 
 PCOD8056661
Probable space group: C C
;
_chemical_formula_sum "Si O2"
_cell_formula_units_Z 32
_cell_length_a 8.653977
_cell_length_b 13.982943
_cell_length_c 11.936346
_cell_angle_alpha 90.000000
_cell_angle_beta 111.272940
_cell_angle_gamma 90.000000
_cell_volume 1345.977014
_symmetry_space_group_name_H-M "C C"
_symmetry_group_IT_number 9
_symmetry_cell_setting 'monoclinic'
loop_
_space_group_symop_operation_xyz
x,y,z
x,-y,1/2+z
1/2+x,1/2+y,z
1/2+x,1/2-y,1/2+z
loop_
_atom_site_type_symbol
_atom_site_label
_atom_site_fract_x
_atom_site_fract_y
_atom_site_fract_z
Si Si1 0.128600 0.151222 0.187730
Si Si2 0.302019 0.343611 0.189727
Si Si3 0.788025 0.626116 0.645295
Si Si4 0.808555 0.834758 0.725329
Si Si5 0.290676 0.992456 0.351889
Si Si6 0.057111 0.506250 0.096670
Si Si7 0.511412 0.564897 0.934771
Si Si8 0.429661 0.626549 0.488223
O O1 0.176884 0.262819 0.201707
O O2 0.971378 0.112375 0.219163
O O3 0.283711 0.091297 0.278482
O O4 0.097257 0.129490 0.050389
O O5 0.213030 0.438682 0.124673
O O6 0.419853 0.365044 0.324916
O O7 0.396970 0.319395 0.098200
O O8 0.831974 0.737591 0.660890
O O9 0.743646 0.595551 0.759548
O O10 0.628264 0.623493 0.523578
O O11 0.929993 0.551178 0.643968
O O12 0.634315 0.891907 0.660361
O O13 0.834328 0.815909 0.864997
O O14 0.158501 0.992944 0.415543
O O15 0.473647 0.978936 0.453324
O O16 0.384101 0.486982 0.957537
#
# Coordination Sequence:
#
# PCOD8056661 Si02
#       8
#     4   4   4   4   4   4   4   4
#     4  12  26  49  78 111 153 203 254 324 394 466
#     4  12  28  45  78 117 145 204 263 322 394 471
#     4  12  27  47  74 110 153 201 260 318 391 467
#     4  12  28  48  79 112 154 206 256 324 395 465
#     4  12  25  48  73 107 156 201 249 322 392 464
#     4  12  26  48  74 116 151 201 261 322 390 470
#     4  12  23  49  76 103 153 204 249 317 393 463
#     4  12  25  50  74 104 157 200 258 319 391 468
#
# _framework density 23.774550999999999
#
# number of rings (size 3 to 8) (size 9 to 14) (size 15 to 20)
#    0.000    0.000    7.500    0.750    7.000    3.000 
#    0.000    0.000    0.000    0.000    0.000    0.000 
#    0.000    0.000    0.000    0.000    0.000    0.000 
#
# Total GULP energy -198230.232080 kJ/mol
# GULP energy per Si atom -12389.389505 kJ/mol
# Density = 2.372044 g / cm^3
# Si number density = 23.774551 Si / 1000 Ang^3
#
#
#
# Elastic Constant Matrix: (Units=GPa)
#
#
# Indices 1 2 3 4 5 6 
#
# 1 81.3343 26.7214 35.9714 0.0000 7.2857 0.0000
# 2 26.7214 91.1477 36.9418 0.0000 8.3291 0.0000
# 3 35.9714 36.9418 180.0529 0.0000 28.4726 0.0000
# 4 0.0000 0.0000 0.0000 27.5456 0.0000 -4.1667
# 5 7.2857 8.3291 28.4726 0.0000 23.9206 0.0000
# 6 0.0000 0.0000 0.0000 -4.1667 0.0000 36.9987
#
#
#
# Elastic Compliance Matrix: (Units=1/GPa)
#
#
# Indices 1 2 3 4 5 6 
#
# 1 0.014364 -0.003302 -0.002072 0.000000 -0.000759 0.000000
# 2 -0.003302 0.012771 -0.001745 0.000000 -0.001364 0.000000
# 3 -0.002072 -0.001745 0.007551 0.000000 -0.007750 0.000000
# 4 0.000000 0.000000 0.000000 0.036933 0.000000 0.004159
# 5 -0.000759 -0.001364 -0.007750 0.000000 0.051736 0.000000
# 6 0.000000 0.000000 0.000000 0.004159 0.000000 0.027496
#
#
# Mechanical properties :
#
#
# Convention : Reuss Voigt Hill
#
# Bulk Modulus (GPa) = 48.90309 61.31158 55.10734
# Shear Modulus (GPa) = 29.08577 34.55301 31.81939
#
# Velocity S-wave (km/s) = 3.50151 3.81643 3.66236
# Velocity P-wave (km/s) = 6.07960 6.72792 6.41196
#
# Compressibility (1/GPa) = 0.02044860
#
# Stress axis : x y z
#
# Youngs Moduli (GPa) = 69.61757 78.30203 132.42532
#
# Poissons Ratio (x) = 0.25854 0.27442
# Poissons Ratio (y) = 0.22987 0.23107
# Poissons Ratio (z) = 0.14427 0.13663
#
# Static dielectric constant tensor:
#      x y z
#    x 4.131290 0.000000 0.165690 
#    y 0.000000 4.136340 0.000000 
#    z 0.165690 0.000000 4.503070 
# 
# 
# High freq. dielectric constant tensor:
#      x y z
#    x 1.930730 0.000000 0.005270 
#    y 0.000000 1.938760 0.000000 
#    z 0.005270 0.000000 1.960000 
# 
# From -- ./inp_files/14655.got.cif
#   From: 2010.06.25/outbox.cif.g09.slc.cpg/sg9_8_cif.got.tgz:14655.got - 2010.06.27 21:40:51.
