data_PCOD8056537
_publ_section_title
;
Structure prediction by ZEFSAII (Michael W. Deem and Ramdas Pophale) SiO2 
 PCOD8056537
Probable space group: C C
;
_chemical_formula_sum "Si O2"
_cell_formula_units_Z 32
_cell_length_a 21.628995
_cell_length_b 14.091404
_cell_length_c 8.559492
_cell_angle_alpha 90.000000
_cell_angle_beta 30.907896
_cell_angle_gamma 90.000000
_cell_volume 1340.028145
_symmetry_space_group_name_H-M "C C"
_symmetry_group_IT_number 9
_symmetry_cell_setting 'monoclinic'
loop_
_space_group_symop_operation_xyz
x,y,z
x,-y,1/2+z
1/2+x,1/2+y,z
1/2+x,1/2-y,1/2+z
loop_
_atom_site_type_symbol
_atom_site_label
_atom_site_fract_x
_atom_site_fract_y
_atom_site_fract_z
Si Si1 0.709080 0.314105 0.137070
Si Si2 0.904832 0.176425 0.790404
Si Si3 0.472814 0.720814 0.985635
Si Si4 0.319452 0.009242 0.272086
Si Si5 0.702518 0.962105 0.826543
Si Si6 0.654522 0.324315 0.603303
Si Si7 0.961475 0.410069 0.188024
Si Si8 0.744101 0.869738 0.048341
O O1 0.613578 0.297529 0.205421
O O2 0.652314 0.288266 0.429002
O O3 0.827409 0.249690 0.853450
O O4 0.743767 0.424014 0.051781
O O5 0.943603 0.232485 0.864791
O O6 0.021232 0.143482 0.441293
O O7 0.826778 0.083009 0.993481
O O8 0.431648 0.809829 0.176548
O O9 0.389505 0.634498 0.228935
O O10 0.244837 0.912363 0.414542
O O11 0.447899 0.985838 0.075934
O O12 0.352017 0.065021 0.043796
O O13 0.693444 0.943549 0.029515
O O14 0.703057 0.077031 0.797031
O O15 0.592276 0.910913 0.978951
O O16 0.692155 0.235851 0.632703
#
# Coordination Sequence:
#
# PCOD8056537 Si02
#       8
#     4   4   4   4   4   4   4   4
#     4  12  26  49  74 109 148 197 253 306 379 451
#     4  11  27  48  76 107 157 194 246 316 372 451
#     4  11  25  48  76 106 151 194 251 303 377 451
#     4  12  28  45  78 111 150 202 250 311 378 450
#     4  11  25  47  72 107 144 191 249 301 379 442
#     4  12  26  51  72 107 156 197 246 319 378 444
#     4  12  24  48  76 111 148 197 256 309 371 453
#     4  11  25  48  70 104 146 190 245 307 368 446
#
# _framework density 23.880098
#
# number of rings (size 3 to 8) (size 9 to 14) (size 15 to 20)
#    0.000    0.500    6.250    0.750    8.750    2.000 
#    0.000    0.000    0.000    0.000    0.000    0.000 
#    0.000    0.000    0.000    0.000    0.000    0.000 
#
# Total GULP energy -198361.269467 kJ/mol
# GULP energy per Si atom -12397.579342 kJ/mol
# Density = 2.382575 g / cm^3
# Si number density = 23.880098 Si / 1000 Ang^3
#
#
#
# Elastic Constant Matrix: (Units=GPa)
#
#
# Indices 1 2 3 4 5 6 
#
# 1 113.3606 37.0159 26.0857 0.0000 -31.2367 0.0000
# 2 37.0159 117.2307 26.4813 0.0000 -2.6405 0.0000
# 3 26.0857 26.4813 98.4329 0.0000 -16.5483 0.0000
# 4 0.0000 0.0000 0.0000 37.2225 0.0000 7.5930
# 5 -31.2367 -2.6405 -16.5483 0.0000 34.8153 0.0000
# 6 0.0000 0.0000 0.0000 7.5930 0.0000 34.5034
#
#
#
# Elastic Compliance Matrix: (Units=1/GPa)
#
#
# Indices 1 2 3 4 5 6 
#
# 1 0.013349 -0.003825 -0.000591 0.000000 0.011406 0.000000
# 2 -0.003825 0.010186 -0.002363 0.000000 -0.003782 0.000000
# 3 -0.000591 -0.002363 0.011773 0.000000 0.004886 0.000000
# 4 0.000000 0.000000 0.000000 0.028128 0.000000 -0.006190
# 5 0.011406 -0.003782 0.004886 0.000000 0.040992 0.000000
# 6 0.000000 0.000000 0.000000 -0.006190 0.000000 0.030345
#
#
# Mechanical properties :
#
#
# Convention : Reuss Voigt Hill
#
# Bulk Modulus (GPa) = 45.97363 56.46557 51.21960
# Shear Modulus (GPa) = 32.13752 37.27100 34.70426
#
# Velocity S-wave (km/s) = 3.67248 3.95493 3.81632
# Velocity P-wave (km/s) = 6.10544 6.67473 6.39642
#
# Compressibility (1/GPa) = 0.02175160
#
# Stress axis : x y z
#
# Youngs Moduli (GPa) = 74.91058 98.17069 84.94032
#
# Poissons Ratio (x) = 0.37546 0.05022
# Poissons Ratio (y) = 0.28650 0.20069
# Poissons Ratio (z) = 0.04429 0.23194
#
# Static dielectric constant tensor:
#      x y z
#    x 4.568540 0.000000 -0.117920 
#    y 0.000000 4.171990 0.000000 
#    z -0.117920 0.000000 4.166440 
# 
# 
# High freq. dielectric constant tensor:
#      x y z
#    x 1.958270 0.000000 -0.010720 
#    y 0.000000 1.946510 0.000000 
#    z -0.010720 0.000000 1.939890 
# 
# From -- ./inp_files/12252.got.cif
#   From: 2010.06.25/outbox.cif.g09.slc.cpg/sg9_7_cif.got.tgz:12252.got - 2010.06.27 21:40:51.
