data_PCOD8056616
_publ_section_title
;
Structure prediction by ZEFSAII (Michael W. Deem and Ramdas Pophale) SiO2 
 PCOD8056616
Probable space group: C C
;
_chemical_formula_sum "Si O2"
_cell_formula_units_Z 16
_cell_length_a 5.162180
_cell_length_b 16.801440
_cell_length_c 6.708738
_cell_angle_alpha 90.000000
_cell_angle_beta 65.972959
_cell_angle_gamma 90.000000
_cell_volume 531.446227
_symmetry_space_group_name_H-M "C C"
_symmetry_group_IT_number 9
_symmetry_cell_setting 'monoclinic'
loop_
_space_group_symop_operation_xyz
x,y,z
x,-y,1/2+z
1/2+x,1/2+y,z
1/2+x,1/2-y,1/2+z
loop_
_atom_site_type_symbol
_atom_site_label
_atom_site_fract_x
_atom_site_fract_y
_atom_site_fract_z
Si Si1 0.681540 0.814191 0.729460
Si Si2 0.084612 0.115186 0.530182
Si Si3 0.552356 0.816949 0.330506
Si Si4 0.603347 0.566384 0.968122
O O1 0.672721 0.782487 0.501933
O O2 0.817283 0.741377 0.810355
O O3 0.878199 0.893925 0.693950
O O4 0.361314 0.835917 0.886723
O O5 0.047403 0.106554 0.775796
O O6 0.791435 0.165687 0.581350
O O7 0.090254 0.027333 0.433682
O O8 0.413456 0.902583 0.437249
#
# Coordination Sequence:
#
# PCOD8056616 Si02
#       4
#     4   4   4   4
#     4  11  28  53  85 123 171 217 280 346 419 503
#     4  11  26  53  86 120 169 219 280 346 420 499
#     4  11  28  53  83 127 165 221 279 345 422 496
#     4  11  26  51  82 126 163 219 279 349 419 496
#
# _framework density 30.106524
#
# number of rings (size 3 to 8) (size 9 to 14) (size 15 to 20)
#    0.000    1.000    0.000    3.000    3.500   16.000 
#    9.000    0.000    0.000    0.000    0.000    0.000 
#    0.000    0.000    0.000    0.000    0.000    0.000 
#
# Total GULP energy -99151.912238 kJ/mol
# GULP energy per Si atom -12393.989030 kJ/mol
# Density = 3.003800 g / cm^3
# Si number density = 30.106524 Si / 1000 Ang^3
#
#
#
# Elastic Constant Matrix: (Units=GPa)
#
#
# Indices 1 2 3 4 5 6 
#
# 1 157.0076 102.1030 48.6848 0.0000 -53.7291 0.0000
# 2 102.1030 233.9297 89.5392 0.0000 -26.0814 0.0000
# 3 48.6848 89.5392 131.9756 0.0000 -62.4622 0.0000
# 4 0.0000 0.0000 0.0000 -9.8325 0.0000 16.7032
# 5 -53.7291 -26.0814 -62.4622 0.0000 68.6354 0.0000
# 6 0.0000 0.0000 0.0000 16.7032 0.0000 52.2292
#
#
#
# Elastic Compliance Matrix: (Units=1/GPa)
#
#
# Indices 1 2 3 4 5 6 
#
# 1 0.013394 -0.006591 0.005810 0.000000 0.013268 0.000000
# 2 -0.006591 0.009253 -0.008123 0.000000 -0.009035 0.000000
# 3 0.005810 -0.008123 0.020441 0.000000 0.020064 0.000000
# 4 0.000000 0.000000 0.000000 -0.065901 0.000000 0.021076
# 5 0.013268 -0.009035 0.020064 0.000000 0.039782 0.000000
# 6 0.000000 0.000000 0.000000 0.021076 0.000000 0.012406
#
#
# Mechanical properties :
#
#
# Convention : Reuss Voigt Hill
#
# Bulk Modulus (GPa) = 39.55542 111.50744 75.53143
# Shear Modulus (GPa) = 89.91355 41.04548 65.47951
#
# Velocity S-wave (km/s) = 5.47083 3.69635 4.66867
# Velocity P-wave (km/s) = 7.28517 7.43878 7.36237
#
# Compressibility (1/GPa) = 0.02528098
#
# Stress axis : x y z
#
# Youngs Moduli (GPa) = 74.66113 108.07147 48.92176
#
# Poissons Ratio (x) = 0.71225 -0.28424
# Poissons Ratio (y) = 0.49206 0.39739
# Poissons Ratio (z) = -0.43379 0.87785
#
# Static dielectric constant tensor:
#      x y z
#    x 6.359270 0.000000 0.034480 
#    y 0.000000 6.155820 0.000000 
#    z 0.034480 0.000000 6.157910 
# 
# 
# High freq. dielectric constant tensor:
#      x y z
#    x 2.244400 0.000000 0.007300 
#    y 0.000000 2.254250 0.000000 
#    z 0.007300 0.000000 2.260430 
# 
# From -- ./inp_files/3654.got.cif
#   From: 2010.06.25/outbox.cif.g09.slc.cpg/sg9_2_cif.got.tgz:3654.got - 2010.06.27 21:40:51.
