data_PCOD8056432
_publ_section_title
;
Structure prediction by ZEFSAII (Michael W. Deem and Ramdas Pophale) SiO2 
 PCOD8056432
Probable space group: C C
;
_chemical_formula_sum "Si O2"
_cell_formula_units_Z 32
_cell_length_a 9.254054
_cell_length_b 11.208084
_cell_length_c 14.672354
_cell_angle_alpha 90.000000
_cell_angle_beta 117.393886
_cell_angle_gamma 90.000000
_cell_volume 1351.169673
_symmetry_space_group_name_H-M "C C"
_symmetry_group_IT_number 9
_symmetry_cell_setting 'monoclinic'
loop_
_space_group_symop_operation_xyz
x,y,z
x,-y,1/2+z
1/2+x,1/2+y,z
1/2+x,1/2-y,1/2+z
loop_
_atom_site_type_symbol
_atom_site_label
_atom_site_fract_x
_atom_site_fract_y
_atom_site_fract_z
Si Si1 0.478560 0.392630 0.137280
Si Si2 0.121653 0.573298 0.763492
Si Si3 0.146310 0.301839 0.776639
Si Si4 0.610843 0.863923 0.062906
Si Si5 0.492456 0.092792 0.922739
Si Si6 0.501687 0.652540 0.446025
Si Si7 0.176105 0.958543 0.827712
Si Si8 0.904260 0.758036 0.365143
O O1 0.609101 0.285016 0.181532
O O2 0.303872 0.340866 0.117792
O O3 0.533079 0.504651 0.215771
O O4 0.478330 0.427187 0.030003
O O5 0.099579 0.434856 0.737165
O O6 0.051730 0.631590 0.650516
O O7 0.310038 0.614831 0.835781
O O8 0.016684 0.604635 0.820865
O O9 0.333986 0.304325 0.853796
O O10 0.038384 0.246324 0.826259
O O11 0.502449 0.758216 0.988445
O O12 0.587875 0.982978 0.995556
O O13 0.568935 0.213826 0.988295
O O14 0.298299 0.070050 0.880252
O O15 0.607187 0.577021 0.406281
O O16 0.270996 0.846484 0.812064
#
# Coordination Sequence:
#
# PCOD8056432 Si02
#       8
#     4   4   4   4   4   4   4   4
#     4  12  25  46  74 112 145 199 252 301 388 455
#     4  12  23  46  76 103 149 200 240 313 383 442
#     4  12  24  46  73 103 154 188 246 319 372 446
#     4  11  24  45  73 109 148 200 248 307 391 449
#     4  11  24  48  69 107 155 188 255 317 365 458
#     4  12  25  46  73 107 149 200 240 320 379 445
#     4  11  25  47  72 107 149 191 256 308 369 453
#     4  11  24  48  70 106 149 188 253 315 367 448
#
# _framework density 23.683185999999999
#
# number of rings (size 3 to 8) (size 9 to 14) (size 15 to 20)
#    0.000    0.500    7.500    1.500    0.000    2.000 
#    6.750    0.000    0.000    0.000    0.000    0.000 
#    0.000    0.000    0.000    0.000    0.000    0.000 
#
# Total GULP energy -198340.032199 kJ/mol
# GULP energy per Si atom -12396.252012 kJ/mol
# Density = 2.362928 g / cm^3
# Si number density = 23.683186 Si / 1000 Ang^3
#
#
#
# Elastic Constant Matrix: (Units=GPa)
#
#
# Indices 1 2 3 4 5 6 
#
# 1 122.8676 26.2095 39.4276 0.0000 -9.5766 0.0000
# 2 26.2095 28.8317 8.5721 0.0000 -3.6189 0.0000
# 3 39.4276 8.5721 108.7390 0.0000 -4.1382 0.0000
# 4 0.0000 0.0000 0.0000 24.1732 0.0000 1.2441
# 5 -9.5766 -3.6189 -4.1382 0.0000 46.3117 0.0000
# 6 0.0000 0.0000 0.0000 1.2441 0.0000 43.1346
#
#
#
# Elastic Compliance Matrix: (Units=1/GPa)
#
#
# Indices 1 2 3 4 5 6 
#
# 1 0.011238 -0.009066 -0.003310 0.000000 0.001320 0.000000
# 2 -0.009066 0.043129 -0.000056 0.000000 0.001490 0.000000
# 3 -0.003310 -0.000056 0.010410 0.000000 0.000241 0.000000
# 4 0.000000 0.000000 0.000000 0.041430 0.000000 -0.001195
# 5 0.001320 0.001490 0.000241 0.000000 0.022004 0.000000
# 6 0.000000 0.000000 0.000000 -0.001195 0.000000 0.023218
#
#
# Mechanical properties :
#
#
# Convention : Reuss Voigt Hill
#
# Bulk Modulus (GPa) = 25.05423 45.42850 35.24137
# Shear Modulus (GPa) = 26.37189 35.13917 30.75553
#
# Velocity S-wave (km/s) = 3.34058 3.85609 3.60755
# Velocity P-wave (km/s) = 5.04789 6.24894 5.68025
#
# Compressibility (1/GPa) = 0.03991342
#
# Stress axis : x y z
#
# Youngs Moduli (GPa) = 88.98636 23.18618 96.06129
#
# Poissons Ratio (x) = 0.21020 0.31794
# Poissons Ratio (y) = 0.80674 0.00538
# Poissons Ratio (z) = 0.29452 0.00130
#
# Static dielectric constant tensor:
#      x y z
#    x 4.289370 0.000000 0.071770 
#    y 0.000000 4.831550 0.000000 
#    z 0.071770 0.000000 4.427900 
# 
# 
# High freq. dielectric constant tensor:
#      x y z
#    x 1.939000 0.000000 -0.002710 
#    y 0.000000 1.941150 0.000000 
#    z -0.002710 0.000000 1.939020 
# 
# From -- ./inp_files/22960.got.cif
#   From: 2010.06.25/outbox.cif.g09.slc.cpg/sg9_12_cif.got.tgz:22960.got - 2010.06.27 21:40:51.
