data_PCOD8056546
_publ_section_title
;
Structure prediction by ZEFSAII (Michael W. Deem and Ramdas Pophale) SiO2 
 PCOD8056546
Probable space group: C C
;
_chemical_formula_sum "Si O2"
_cell_formula_units_Z 32
_cell_length_a 11.027224
_cell_length_b 13.983060
_cell_length_c 9.835859
_cell_angle_alpha 90.000000
_cell_angle_beta 108.344076
_cell_angle_gamma 90.000000
_cell_volume 1439.563947
_symmetry_space_group_name_H-M "C C"
_symmetry_group_IT_number 9
_symmetry_cell_setting 'monoclinic'
loop_
_space_group_symop_operation_xyz
x,y,z
x,-y,1/2+z
1/2+x,1/2+y,z
1/2+x,1/2-y,1/2+z
loop_
_atom_site_type_symbol
_atom_site_label
_atom_site_fract_x
_atom_site_fract_y
_atom_site_fract_z
Si Si1 0.747140 0.373577 0.966890
Si Si2 0.886309 0.019600 0.494949
Si Si3 0.023241 0.637541 0.691585
Si Si4 0.110240 0.922484 0.438616
Si Si5 0.463587 0.686899 0.658462
Si Si6 0.722062 0.015717 0.184419
Si Si7 0.595866 0.809361 0.512608
Si Si8 0.725321 0.284546 0.680144
O O1 0.675418 0.475386 0.934027
O O2 0.778236 0.346490 0.823449
O O3 0.662476 0.290359 0.001144
O O4 0.877418 0.376536 0.098239
O O5 0.951499 0.123619 0.515952
O O6 0.843100 0.018385 0.638233
O O7 0.764162 0.020412 0.355448
O O8 0.985937 0.936792 0.491172
O O9 0.097683 0.550672 0.644238
O O10 0.088224 0.735199 0.660726
O O11 0.028767 0.640937 0.858393
O O12 0.211704 0.855009 0.548459
O O13 0.069575 0.865747 0.288831
O O14 0.504244 0.789462 0.610105
O O15 0.330163 0.702337 0.690499
O O16 0.698211 0.117547 0.107827
#
# Coordination Sequence:
#
# PCOD8056546 Si02
#       8
#     4   4   4   4   4   4   4   4
#     4  11  27  45  71 104 144 191 236 306 369 427
#     4  12  24  46  73 103 140 195 243 299 357 434
#     4  11  25  48  68 106 147 187 241 299 370 429
#     4  12  26  46  74 105 147 186 248 301 364 436
#     4  12  26  47  71 106 141 193 249 293 362 435
#     4  12  26  45  76 103 148 190 246 299 363 435
#     4  11  28  46  71 107 145 193 248 298 364 436
#     4  11  26  45  70 102 142 191 237 303 363 432
#
# _framework density 22.228952
#
# number of rings (size 3 to 8) (size 9 to 14) (size 15 to 20)
#    0.000    0.500    5.000    1.500    8.750    2.000 
#    0.000    0.000    0.000    0.000    0.000    0.000 
#    0.000    0.000    0.000    0.000    0.000    0.000 
#
# Total GULP energy -198345.275201 kJ/mol
# GULP energy per Si atom -12396.579700 kJ/mol
# Density = 2.217836 g / cm^3
# Si number density = 22.228952 Si / 1000 Ang^3
#
#
#
# Elastic Constant Matrix: (Units=GPa)
#
#
# Indices 1 2 3 4 5 6 
#
# 1 86.7904 26.6298 46.8441 0.0000 7.6282 0.0000
# 2 26.6298 107.9317 43.1688 0.0000 4.7595 0.0000
# 3 46.8441 43.1688 96.1429 0.0000 6.2610 0.0000
# 4 0.0000 0.0000 0.0000 41.2625 0.0000 0.9967
# 5 7.6282 4.7595 6.2610 0.0000 36.4571 0.0000
# 6 0.0000 0.0000 0.0000 0.9967 0.0000 33.2518
#
#
#
# Elastic Compliance Matrix: (Units=1/GPa)
#
#
# Indices 1 2 3 4 5 6 
#
# 1 0.015858 -0.000959 -0.007168 0.000000 -0.001962 0.000000
# 2 -0.000959 0.011365 -0.004603 0.000000 -0.000492 0.000000
# 3 -0.007168 -0.004603 0.016003 0.000000 -0.000647 0.000000
# 4 0.000000 0.000000 0.000000 0.024253 0.000000 -0.000727
# 5 -0.001962 -0.000492 -0.000647 0.000000 0.028015 0.000000
# 6 0.000000 0.000000 0.000000 -0.000727 0.000000 0.030095
#
#
# Mechanical properties :
#
#
# Convention : Reuss Voigt Hill
#
# Bulk Modulus (GPa) = 56.29343 58.23893 57.26618
# Shear Modulus (GPa) = 31.85308 33.80911 32.83109
#
# Velocity S-wave (km/s) = 3.78955 3.90417 3.84728
# Velocity P-wave (km/s) = 6.67285 6.82494 6.74932
#
# Compressibility (1/GPa) = 0.01776406
#
# Stress axis : x y z
#
# Youngs Moduli (GPa) = 63.06151 87.99199 62.48910
#
# Poissons Ratio (x) = 0.08439 0.44792
# Poissons Ratio (y) = 0.06048 0.28767
# Poissons Ratio (z) = 0.45202 0.40507
#
# Static dielectric constant tensor:
#      x y z
#    x 3.846190 0.000000 -0.111930 
#    y 0.000000 4.027880 0.000000 
#    z -0.111930 0.000000 4.042790 
# 
# 
# High freq. dielectric constant tensor:
#      x y z
#    x 1.871140 0.000000 -0.002420 
#    y 0.000000 1.888830 0.000000 
#    z -0.002420 0.000000 1.882320 
# 
# From -- ./inp_files/7590.got.cif
#   From: 2010.06.25/outbox.cif.g09.slc.cpg/sg9_4_cif.got.tgz:7590.got - 2010.06.27 21:40:51.
