data_PCOD8056637
_publ_section_title
;
Structure prediction by ZEFSAII (Michael W. Deem and Ramdas Pophale) SiO2 
 PCOD8056637
Probable space group: C C
;
_chemical_formula_sum "Si O2"
_cell_formula_units_Z 28
_cell_length_a 23.515695
_cell_length_b 10.715580
_cell_length_c 9.038923
_cell_angle_alpha 90.000000
_cell_angle_beta 28.909466
_cell_angle_gamma 90.000000
_cell_volume 1101.085654
_symmetry_space_group_name_H-M "C C"
_symmetry_group_IT_number 9
_symmetry_cell_setting 'monoclinic'
loop_
_space_group_symop_operation_xyz
x,y,z
x,-y,1/2+z
1/2+x,1/2+y,z
1/2+x,1/2-y,1/2+z
loop_
_atom_site_type_symbol
_atom_site_label
_atom_site_fract_x
_atom_site_fract_y
_atom_site_fract_z
Si Si1 0.315940 0.419466 0.715570
Si Si2 0.467786 0.852945 0.228614
Si Si3 0.576349 0.343805 0.115027
Si Si4 0.663893 0.448866 0.611258
Si Si5 0.691025 0.265804 0.299487
Si Si6 0.769945 0.154746 0.642282
Si Si7 0.384423 0.057304 0.212844
O O1 0.436045 0.339397 0.441107
O O2 0.234060 0.359279 0.779161
O O3 0.320858 0.565028 0.655653
O O4 0.264069 0.415678 0.998678
O O5 0.353750 0.774861 0.440672
O O6 0.469429 0.876982 0.401566
O O7 0.463796 0.985466 0.152298
O O8 0.588150 0.777290 0.918940
O O9 0.618851 0.415947 0.164083
O O10 0.606525 0.419874 0.898420
O O11 0.637641 0.206976 0.975827
O O12 0.629598 0.349177 0.565886
O O13 0.805053 0.455226 0.306828
O O14 0.796521 0.339640 0.981586
#
# Coordination Sequence:
#
# PCOD8056637 Si02
#       7
#     4   4   4   4   4   4   4
#     4  12  30  47  74 111 159 198 253 312 390 448
#     4  12  28  49  81 110 151 199 263 309 387 452
#     4  12  25  47  83 106 151 199 251 319 379 457
#     4  12  21  48  75 109 141 195 258 305 381 447
#     4  12  27  45  74 111 154 200 251 309 383 460
#     4  12  27  51  74 115 150 199 256 314 377 465
#     4  12  24  51  79 110 150 204 254 322 379 453
#
# _framework density 25.429447
#
# number of rings (size 3 to 8) (size 9 to 14) (size 15 to 20)
#    0.000    0.000    7.143    1.714    6.000    2.286 
#    0.000    0.000    0.000    0.000    0.000    0.000 
#    0.000    0.000    0.000    0.000    0.000    0.000 
#
# Total GULP energy -173623.024164 kJ/mol
# GULP energy per Si atom -12401.644583 kJ/mol
# Density = 2.537157 g / cm^3
# Si number density = 25.429447 Si / 1000 Ang^3
#
#
#
# Elastic Constant Matrix: (Units=GPa)
#
#
# Indices 1 2 3 4 5 6 
#
# 1 97.0959 49.2725 34.4336 0.0000 0.7689 0.0000
# 2 49.2725 112.2131 50.3444 0.0000 6.6989 0.0000
# 3 34.4336 50.3444 80.1445 0.0000 -3.0479 0.0000
# 4 0.0000 0.0000 0.0000 39.8537 0.0000 -10.2656
# 5 0.7689 6.6989 -3.0479 0.0000 45.6491 0.0000
# 6 0.0000 0.0000 0.0000 -10.2656 0.0000 43.7305
#
#
#
# Elastic Compliance Matrix: (Units=1/GPa)
#
#
# Indices 1 2 3 4 5 6 
#
# 1 0.013736 -0.004740 -0.002914 0.000000 0.000270 0.000000
# 2 -0.004740 0.014301 -0.007041 0.000000 -0.002489 0.000000
# 3 -0.002914 -0.007041 0.018240 0.000000 0.002300 0.000000
# 4 0.000000 0.000000 0.000000 0.026707 0.000000 0.006269
# 5 0.000270 -0.002489 0.002300 0.000000 0.022420 0.000000
# 6 0.000000 0.000000 0.000000 0.006269 0.000000 0.024339
#
#
# Mechanical properties :
#
#
# Convention : Reuss Voigt Hill
#
# Bulk Modulus (GPa) = 59.22030 61.95050 60.58540
# Shear Modulus (GPa) = 32.30781 36.20687 34.25734
#
# Velocity S-wave (km/s) = 3.56826 3.77744 3.67434
# Velocity P-wave (km/s) = 6.34943 6.59091 6.47129
#
# Compressibility (1/GPa) = 0.01688610
#
# Stress axis : x y z
#
# Youngs Moduli (GPa) = 72.80296 69.92653 54.82497
#
# Poissons Ratio (x) = 0.33147 0.15973
# Poissons Ratio (y) = 0.34511 0.38604
# Poissons Ratio (z) = 0.21211 0.49237
#
# Static dielectric constant tensor:
#      x y z
#    x 4.667750 0.000000 0.109800 
#    y 0.000000 4.497280 0.000000 
#    z 0.109800 0.000000 4.459510 
# 
# 
# High freq. dielectric constant tensor:
#      x y z
#    x 2.028580 0.000000 0.009720 
#    y 0.000000 2.019180 0.000000 
#    z 0.009720 0.000000 2.006120 
# 
# From -- ./inp_files/12182.got.cif
#   From: 2010.06.25/outbox.cif.g09.slc.cpg/sg9_7_cif.got.tgz:12182.got - 2010.06.27 21:40:51.
