data_PCOD8056798
_publ_section_title
;
Structure prediction by ZEFSAII (Michael W. Deem and Ramdas Pophale) SiO2 
 PCOD8056798
Probable space group: C C
;
_chemical_formula_sum "Si O2"
_cell_formula_units_Z 16
_cell_length_a 15.000000
_cell_length_b 12.000000
_cell_length_c 27.000000
_cell_angle_alpha 90.000000
_cell_angle_beta 20.000000
_cell_angle_gamma 90.000000
_cell_volume 1662.217897
_symmetry_space_group_name_H-M "C C"
_symmetry_group_IT_number 9
_symmetry_cell_setting 'monoclinic'
loop_
_space_group_symop_operation_xyz
x,y,z
x,-y,1/2+z
1/2+x,1/2+y,z
1/2+x,1/2-y,1/2+z
loop_
_atom_site_type_symbol
_atom_site_label
_atom_site_fract_x
_atom_site_fract_y
_atom_site_fract_z
Si Si1 0.503820 0.686701 0.415280
Si Si2 0.903765 0.797232 0.559720
Si Si3 0.465491 0.175995 0.749550
Si Si4 0.484142 0.044381 0.520304
Si Si5 0.012072 0.884334 0.797024
Si Si6 0.551757 0.057820 0.876853
Si Si7 0.572784 0.521839 0.051171
Si Si8 0.367756 0.919892 0.812335
O O1 0.507554 0.630180 0.359035
O O2 0.605249 0.813174 0.361954
O O3 0.690523 0.618084 0.357170
O O4 0.196521 0.694004 0.589739
O O5 0.852893 0.666414 0.596236
O O6 0.630832 0.844395 0.679966
O O7 0.164020 0.802595 0.387611
O O8 0.002053 0.865207 0.557235
O O9 0.519780 0.261483 0.767248
O O10 0.481320 0.045154 0.753535
O O11 0.759941 0.046386 0.407279
O O12 0.532032 0.015518 0.437370
O O13 0.279238 0.952536 0.647270
O O14 0.290579 0.045817 0.979681
O O15 0.804740 0.016918 0.715419
O O16 0.677725 0.421927 0.959993
#
# Coordination Sequence:
#
# PCOD8056798 Si02
#       8
#     4   4   4   4   4   4   4   4
#     4  12  27  42  74 102 137 191 232 284 354 416
#     4  10  23  44  68  98 144 179 220 294 346 403
#     4  10  22  47  69  96 135 184 227 282 349 415
#     4  11  25  47  69 101 143 180 233 286 350 414
#     4  11  26  48  69  99 144 187 225 291 349 420
#     4  12  25  44  75 104 137 186 239 284 353 415
#     4  11  24  46  71 106 139 185 233 287 352 419
#     4  11  24  44  71 106 139 174 237 292 341 412
#
# _framework density 9.6256930000000001
#
# number of rings (size 3 to 8) (size 9 to 14) (size 15 to 20)
#    0.000    1.000    2.500    4.500   10.500    0.000 
#    0.000    0.000    0.000    0.000    0.000    0.000 
#    0.000    0.000    0.000    0.000    0.000    0.000 
#
# Total GULP energy -198213.763103 kJ/mol
# GULP energy per Si atom -12388.360194 kJ/mol
# Density = 0.960378 g / cm^3
# Si number density = 9.625693 Si / 1000 Ang^3
#
#
#
# Elastic Constant Matrix: (Units=GPa)
#
#
# Indices 1 2 3 4 5 6 
#
# 1 172.6038 51.6608 65.8103 0.0578 -10.5016 -0.0021
# 2 51.6608 139.2912 55.3040 -0.0583 -2.5826 -0.0216
# 3 65.8103 55.3040 170.8963 0.6845 -2.0424 0.0174
# 4 0.0578 -0.0583 0.6845 43.9817 -0.0738 -5.0744
# 5 -10.5016 -2.5826 -2.0424 -0.0738 45.2350 -0.0155
# 6 -0.0021 -0.0216 0.0174 -5.0744 -0.0155 43.0580
#
#
#
# Elastic Compliance Matrix: (Units=1/GPa)
#
#
# Indices 1 2 3 4 5 6 
#
# 1 0.007258 -0.001792 -0.002197 0.000025 0.001484 0.000004
# 2 -0.001792 0.008686 -0.002121 0.000048 -0.000016 0.000011
# 3 -0.002197 -0.002121 0.007381 -0.000117 -0.000298 -0.000018
# 4 0.000025 0.000048 -0.000117 0.023052 0.000042 0.002717
# 5 0.001484 -0.000016 -0.000298 0.000042 0.022437 0.000013
# 6 0.000004 0.000011 -0.000018 0.002717 0.000013 0.023545
#
#
# Mechanical properties :
#
#
# Convention : Reuss Voigt Hill
#
# Bulk Modulus (GPa) = 90.05946 92.03794 91.04870
# Shear Modulus (GPa) = 46.17626 47.12268 46.64947
#
# Velocity S-wave (km/s) = 4.90286 4.95285 4.92792
# Velocity P-wave (km/s) = 8.88442 8.97886 8.93176
#
# Compressibility (1/GPa) = 0.01110378
#
# Stress axis : x y z
#
# Youngs Moduli (GPa) = 137.77821 115.13204 135.48182
#
# Poissons Ratio (x) = 0.20630 0.29772
# Poissons Ratio (y) = 0.24688 0.28737
# Poissons Ratio (z) = 0.30277 0.24421
#
# Static dielectric constant tensor:
#      x y z
#    x 3.921970 0.000050 -0.111560 
#    y 0.000050 3.920110 0.000150 
#    z -0.111560 0.000150 4.189180 
# 
# 
# High freq. dielectric constant tensor:
#      x y z
#    x 1.766920 0.000000 -0.013950 
#    y 0.000000 1.778760 0.000010 
#    z -0.013950 0.000010 1.794730 
# 
# From -- ./inp_files/12532.got.cif
#   From: 2010.06.25/outbox.ucp.g09.slc.cvg/sg9_7_cif.got.tgz:12532.got - 2010.06.28 13:32:59.
