data_PCOD8056918
_publ_section_title
;
Structure prediction by ZEFSAII (Michael W. Deem and Ramdas Pophale) SiO2 
 PCOD8056918
Probable space group: P 2/M
;
_chemical_formula_sum "Si O2"
_cell_formula_units_Z 32
_cell_length_a 14.767396
_cell_length_b 17.227836
_cell_length_c 21.374934
_cell_angle_alpha 90.000000
_cell_angle_beta 18.658180
_cell_angle_gamma 90.000000
_cell_volume 1739.734250
_symmetry_space_group_name_H-M "P 2/M"
_symmetry_group_IT_number 10
_symmetry_cell_setting 'monoclinic'
loop_
_space_group_symop_operation_xyz
x,y,z
-x,y,-z
-x,-y,-z
x,-y,z
loop_
_atom_site_type_symbol
_atom_site_label
_atom_site_fract_x
_atom_site_fract_y
_atom_site_fract_z
Si Si1 0.540091 0.268855 0.803587
Si Si2 0.600404 0.412333 0.836715
Si Si3 0.893978 0.648958 0.755081
Si Si4 0.879180 0.911829 0.010566
Si Si5 0.283685 0.188505 0.188069
Si Si6 0.917665 0.771443 0.199375
Si Si7 0.679149 0.829778 0.600815
Si Si8 0.620088 0.737815 0.517212
O O1 0.663228 0.354473 0.738025
O O2 0.575662 0.208741 0.837708
O O3 0.709231 0.239075 0.632460
O O4 0.208854 0.275416 0.003844
O O5 0.574639 0.500000 0.828739
O O6 0.854309 0.408237 0.721733
O O7 0.304102 0.382955 0.060049
O O8 0.797671 0.734313 0.797249
O O9 0.219316 0.657887 0.566160
O O10 0.541746 0.894189 0.231081
O O11 0.923950 0.000000 0.959360
O O12 0.000000 0.897196 0.000000
O O13 0.045239 0.857659 0.853161
O O14 0.998929 0.137032 0.384245
O O15 0.500000 0.142818 0.000000
O O16 0.816213 0.780693 0.337213
O O17 0.687912 0.720787 0.310600
O O18 0.567203 0.795312 0.609268
#
# Coordination Sequence:
#
# PCOD8056918 Si02
#       8
#     4   4   4   4   4   4   4   4
#     4  10  18  31  49  79 106 141 181 226 272 323
#     4  10  17  29  51  78 109 148 183 223 284 333
#     4   9  15  28  47  75 104 137 177 225 270 319
#     4  10  20  37  54  78 116 147 176 217 278 337
#     4  10  16  30  52  78 105 132 179 231 269 308
#     4  10  19  32  54  76 108 137 185 229 267 315
#     4  10  20  31  55  79 108 139 181 224 273 326
#     4  10  18  31  50  79 104 134 185 234 265 309
#
# _framework density 18.393613999999999
#
# number of rings (size 3 to 8) (size 9 to 14) (size 15 to 20)
#    0.000    2.125    5.000    1.875    0.000    0.000 
#    0.000    1.875    0.000   25.125    0.000    0.875 
#    0.000    5.000    0.000    0.000    0.000    0.000 
#
# Total GULP energy -396576.368201 kJ/mol
# GULP energy per Si atom -12393.011506 kJ/mol
# Density = 1.835175 g / cm^3
# Si number density = 18.393614 Si / 1000 Ang^3
#
#
#
# Elastic Constant Matrix: (Units=GPa)
#
#
# Indices 1 2 3 4 5 6 
#
# 1 90.7192 25.4257 33.6268 0.0000 -1.6499 0.0000
# 2 25.4257 65.0261 14.9205 0.0000 -1.7557 0.0000
# 3 33.6268 14.9205 96.9421 0.0000 -13.0036 0.0000
# 4 0.0000 0.0000 0.0000 16.4353 0.0000 -0.7406
# 5 -1.6499 -1.7557 -13.0036 0.0000 35.9717 0.0000
# 6 0.0000 0.0000 0.0000 -0.7406 0.0000 19.4356
#
#
#
# Elastic Compliance Matrix: (Units=1/GPa)
#
#
# Indices 1 2 3 4 5 6 
#
# 1 0.013833 -0.004461 -0.004262 0.000000 -0.001124 0.000000
# 2 -0.004461 0.017381 -0.001094 0.000000 0.000248 0.000000
# 3 -0.004262 -0.001094 0.012537 0.000000 0.004283 0.000000
# 4 0.000000 0.000000 0.000000 0.060949 0.000000 0.002323
# 5 -0.001124 0.000248 0.004283 0.000000 0.029309 0.000000
# 6 0.000000 0.000000 0.000000 0.002323 0.000000 0.051541
#
#
# Mechanical properties :
#
#
# Convention : Reuss Voigt Hill
#
# Bulk Modulus (GPa) = 41.46867 44.51481 42.99174
# Shear Modulus (GPa) = 23.44967 26.28281 24.86624
#
# Velocity S-wave (km/s) = 3.57442 3.78419 3.68080
# Velocity P-wave (km/s) = 6.29519 6.58386 6.44114
#
# Compressibility (1/GPa) = 0.02411459
#
# Stress axis : x y z
#
# Youngs Moduli (GPa) = 72.29179 57.53563 79.76433
#
# Poissons Ratio (x) = 0.25667 0.33999
# Poissons Ratio (y) = 0.32250 0.08729
# Poissons Ratio (z) = 0.30814 0.06296
#
# Static dielectric constant tensor:
#      x y z
#    x 3.670550 0.000000 -0.138870 
#    y 0.000000 2.926350 0.000000 
#    z -0.138870 0.000000 3.680990 
# 
# 
# High freq. dielectric constant tensor:
#      x y z
#    x 1.725910 0.000000 -0.001340 
#    y 0.000000 1.647800 0.000000 
#    z -0.001340 0.000000 1.721360 
# 
# From -- ./inp_files/85488.got.cif
#   From: 2010.06.25/outbox.cif.g09.slc.cpg/sg10_43_cif.got.tgz:85488.got - 2010.06.27 22:07:45.
