data_PCOD8056507
_publ_section_title
;
Structure prediction by ZEFSAII (Michael W. Deem and Ramdas Pophale) SiO2 
 PCOD8056507
Probable space group: C C
;
_chemical_formula_sum "Si O2"
_cell_formula_units_Z 28
_cell_length_a 10.632429
_cell_length_b 16.124298
_cell_length_c 7.913667
_cell_angle_alpha 90.000000
_cell_angle_beta 63.773525
_cell_angle_gamma 90.000000
_cell_volume 1217.053849
_symmetry_space_group_name_H-M "C C"
_symmetry_group_IT_number 9
_symmetry_cell_setting 'monoclinic'
loop_
_space_group_symop_operation_xyz
x,y,z
x,-y,1/2+z
1/2+x,1/2+y,z
1/2+x,1/2-y,1/2+z
loop_
_atom_site_type_symbol
_atom_site_label
_atom_site_fract_x
_atom_site_fract_y
_atom_site_fract_z
Si Si1 0.667000 0.249929 0.917470
Si Si2 0.825029 0.087656 0.295823
Si Si3 0.614707 0.789558 0.808926
Si Si4 0.387248 0.936419 0.498993
Si Si5 0.200903 0.416862 0.233834
Si Si6 0.378205 0.105706 0.375645
Si Si7 0.111702 0.165008 0.114397
O O1 0.737255 0.160954 0.834167
O O2 0.771081 0.320953 0.913475
O O3 0.583030 0.279054 0.799458
O O4 0.573114 0.239743 0.142488
O O5 0.766641 0.165709 0.221241
O O6 0.769767 0.104055 0.515515
O O7 0.994430 0.092553 0.184832
O O8 0.773720 0.998770 0.263358
O O9 0.503584 0.861421 0.919335
O O10 0.599292 0.715976 0.950040
O O11 0.532475 0.926380 0.309271
O O12 0.434410 0.927399 0.663701
O O13 0.269567 0.869541 0.521018
O O14 0.315910 0.026458 0.511573
#
# Coordination Sequence:
#
# PCOD8056507 Si02
#       7
#     4   4   4   4   4   4   4
#     4  11  26  46  73 108 144 192 245 309 362 439
#     4  12  27  46  75 115 149 196 246 312 372 437
#     4  12  24  45  76 108 150 195 245 299 372 441
#     4  11  25  48  73 107 141 198 246 298 369 445
#     4  12  24  47  77 102 152 190 252 300 368 444
#     4  11  25  44  72 108 140 192 247 298 367 439
#     4  11  29  48  74 112 152 193 245 310 372 429
#
# _framework density 23.006378000000002
#
# number of rings (size 3 to 8) (size 9 to 14) (size 15 to 20)
#    0.000    0.571    4.286    2.571    6.000    2.286 
#    0.000    0.000    0.000    0.000    0.000    0.000 
#    0.000    0.000    0.000    0.000    0.000    0.000 
#
# Total GULP energy -173543.941620 kJ/mol
# GULP energy per Si atom -12395.995830 kJ/mol
# Density = 2.295401 g / cm^3
# Si number density = 23.006378 Si / 1000 Ang^3
#
#
#
# Elastic Constant Matrix: (Units=GPa)
#
#
# Indices 1 2 3 4 5 6 
#
# 1 88.7453 52.2604 38.8026 0.0000 3.4385 0.0000
# 2 52.2604 154.2184 55.2491 0.0000 7.8073 0.0000
# 3 38.8026 55.2491 91.4758 0.0000 17.8034 0.0000
# 4 0.0000 0.0000 0.0000 35.0643 0.0000 6.2738
# 5 3.4385 7.8073 17.8034 0.0000 32.2671 0.0000
# 6 0.0000 0.0000 0.0000 6.2738 0.0000 42.6769
#
#
#
# Elastic Compliance Matrix: (Units=1/GPa)
#
#
# Indices 1 2 3 4 5 6 
#
# 1 0.015383 -0.003625 -0.004692 0.000000 0.001826 0.000000
# 2 -0.003625 0.009149 -0.004070 0.000000 0.000418 0.000000
# 3 -0.004692 -0.004070 0.016907 0.000000 -0.007843 0.000000
# 4 0.000000 0.000000 0.000000 0.029289 0.000000 -0.004306
# 5 0.001826 0.000418 -0.007843 0.000000 0.035023 0.000000
# 6 0.000000 0.000000 0.000000 -0.004306 0.000000 0.024065
#
#
# Mechanical properties :
#
#
# Convention : Reuss Voigt Hill
#
# Bulk Modulus (GPa) = 59.99848 69.67374 64.83611
# Shear Modulus (GPa) = 31.22176 34.54350 32.88263
#
# Velocity S-wave (km/s) = 3.68787 3.87909 3.78469
# Velocity P-wave (km/s) = 6.65353 7.10024 6.88051
#
# Compressibility (1/GPa) = 0.01666709
#
# Stress axis : x y z
#
# Youngs Moduli (GPa) = 65.00577 109.29564 59.14849
#
# Poissons Ratio (x) = 0.39616 0.27750
# Poissons Ratio (y) = 0.23562 0.24073
# Poissons Ratio (z) = 0.30498 0.44482
#
# Static dielectric constant tensor:
#      x y z
#    x 4.135110 0.000000 0.252250 
#    y 0.000000 4.419520 0.000000 
#    z 0.252250 0.000000 4.305690 
# 
# 
# High freq. dielectric constant tensor:
#      x y z
#    x 1.902830 0.000000 0.016120 
#    y 0.000000 1.926630 0.000000 
#    z 0.016120 0.000000 1.908730 
# 
# From -- ./inp_files/7513.got.cif
#   From: 2010.06.25/outbox.cif.g09.slc.cpg/sg9_4_cif.got.tgz:7513.got - 2010.06.27 21:40:51.
