data_PCOD8056010
_publ_section_title
;
Structure prediction by ZEFSAII (Michael W. Deem and Ramdas Pophale) SiO2 
 PCOD8056010
Probable space group: C C
;
_chemical_formula_sum "Si O2"
_cell_formula_units_Z 32
_cell_length_a 16.520312
_cell_length_b 15.204002
_cell_length_c 10.969930
_cell_angle_alpha 90.000000
_cell_angle_beta 30.814443
_cell_angle_gamma 90.000000
_cell_volume 1411.464415
_symmetry_space_group_name_H-M "C C"
_symmetry_group_IT_number 9
_symmetry_cell_setting 'monoclinic'
loop_
_space_group_symop_operation_xyz
x,y,z
x,-y,1/2+z
1/2+x,1/2+y,z
1/2+x,1/2-y,1/2+z
loop_
_atom_site_type_symbol
_atom_site_label
_atom_site_fract_x
_atom_site_fract_y
_atom_site_fract_z
Si Si1 0.147680 0.669183 0.988780
Si Si2 0.701801 0.727377 0.829103
Si Si3 0.381133 0.044072 0.244780
Si Si4 0.239196 0.841210 0.722898
Si Si5 0.040986 0.026156 0.721919
Si Si6 0.441548 0.448578 0.094709
Si Si7 0.028283 0.796058 0.328201
Si Si8 0.410347 0.145191 0.752770
O O1 0.219946 0.744501 0.807551
O O2 0.270485 0.590706 0.842668
O O3 0.982073 0.626207 0.161660
O O4 0.106924 0.707328 0.174399
O O5 0.851525 0.785662 0.601650
O O6 0.641785 0.669927 0.791404
O O7 0.754768 0.664785 0.871004
O O8 0.557098 0.790826 0.046379
O O9 0.313609 0.079142 0.205084
O O10 0.224236 0.010413 0.522147
O O11 0.476810 0.951782 0.126703
O O12 0.359025 0.836345 0.456307
O O13 0.065022 0.870786 0.908358
O O14 0.985074 0.991405 0.659680
O O15 0.028529 0.132397 0.719855
O O16 0.931923 0.001472 0.978828
#
# Coordination Sequence:
#
# PCOD8056010 Si02
#       8
#     4   4   4   4   4   4   4   4
#     4  12  25  45  76 108 136 187 246 300 346 435
#     4  10  26  43  70 100 143 187 231 293 371 434
#     4  11  25  44  71 106 140 189 245 293 353 428
#     4  11  25  44  74 100 144 186 240 293 370 425
#     4  11  24  44  70  99 147 187 237 292 365 427
#     4  11  25  45  69 107 140 191 239 299 361 430
#     4  11  22  43  75  97 140 182 239 285 360 434
#     4  11  26  48  69 105 146 189 235 301 366 437
#
# _framework density 22.671488
#
# number of rings (size 3 to 8) (size 9 to 14) (size 15 to 20)
#    0.000    1.000    3.750    2.250    8.750    2.000 
#    4.500    0.000    0.000    0.000    0.000    0.000 
#    0.000    0.000    0.000    0.000    0.000    0.000 
#
# Total GULP energy -198224.704511 kJ/mol
# GULP energy per Si atom -12389.044032 kJ/mol
# Density = 2.261989 g / cm^3
# Si number density = 22.671488 Si / 1000 Ang^3
#
#
#
# Elastic Constant Matrix: (Units=GPa)
#
#
# Indices 1 2 3 4 5 6 
#
# 1 109.1107 32.8654 53.4941 0.0002 12.3833 -0.0002
# 2 32.8654 87.2652 22.3084 0.0001 9.5267 -0.0001
# 3 53.4941 22.3084 103.5758 0.0003 3.8292 -0.0002
# 4 0.0002 0.0001 0.0003 31.4190 -0.0002 0.7791
# 5 12.3833 9.5267 3.8292 -0.0002 33.6587 0.0001
# 6 -0.0002 -0.0001 -0.0002 0.7791 0.0001 33.3993
#
#
#
# Elastic Compliance Matrix: (Units=1/GPa)
#
#
# Indices 1 2 3 4 5 6 
#
# 1 0.013528 -0.003145 -0.006185 0.000000 -0.003384 0.000000
# 2 -0.003145 0.013200 -0.001128 0.000000 -0.002451 0.000000
# 3 -0.006185 -0.001128 0.013051 0.000000 0.001110 0.000000
# 4 0.000000 0.000000 0.000000 0.031846 0.000000 -0.000743
# 5 -0.003384 -0.002451 0.001110 0.000000 0.031522 0.000000
# 6 0.000000 0.000000 0.000000 -0.000743 0.000000 0.029958
#
#
# Mechanical properties :
#
#
# Convention : Reuss Voigt Hill
#
# Bulk Modulus (GPa) = 53.01130 57.47638 55.24384
# Shear Modulus (GPa) = 31.18988 32.44767 31.81877
#
# Velocity S-wave (km/s) = 3.71311 3.78724 3.75036
# Velocity P-wave (km/s) = 6.46653 6.67316 6.57066
#
# Compressibility (1/GPa) = 0.01886390
#
# Stress axis : x y z
#
# Youngs Moduli (GPa) = 73.91876 75.75996 76.62277
#
# Poissons Ratio (x) = 0.23823 0.47389
# Poissons Ratio (y) = 0.23244 0.08645
# Poissons Ratio (z) = 0.45716 0.08548
#
# Static dielectric constant tensor:
#      x y z
#    x 4.262210 0.000000 0.029040 
#    y 0.000000 3.984230 0.000000 
#    z 0.029040 0.000000 4.081370 
# 
# 
# High freq. dielectric constant tensor:
#      x y z
#    x 1.896800 0.000000 0.000100 
#    y 0.000000 1.887900 0.000000 
#    z 0.000100 0.000000 1.903080 
# 
# From -- ./inp_files/7387.got.cif
#   From: 2010.06.25/outbox.cif.g09.slc.cpg/sg9_4_cif.got.tgz:7387.got - 2010.06.27 21:40:51.
