data_PCOD8056298
_publ_section_title
;
Structure prediction by ZEFSAII (Michael W. Deem and Ramdas Pophale) SiO2 
 PCOD8056298
Probable space group: C C
;
_chemical_formula_sum "Si O2"
_cell_formula_units_Z 20
_cell_length_a 7.585292
_cell_length_b 14.902595
_cell_length_c 9.235420
_cell_angle_alpha 90.000000
_cell_angle_beta 125.664636
_cell_angle_gamma 90.000000
_cell_volume 848.172223
_symmetry_space_group_name_H-M "C C"
_symmetry_group_IT_number 9
_symmetry_cell_setting 'monoclinic'
loop_
_space_group_symop_operation_xyz
x,y,z
x,-y,1/2+z
1/2+x,1/2+y,z
1/2+x,1/2-y,1/2+z
loop_
_atom_site_type_symbol
_atom_site_label
_atom_site_fract_x
_atom_site_fract_y
_atom_site_fract_z
Si Si1 0.778340 0.316685 0.212980
Si Si2 0.294846 0.340513 0.932028
Si Si3 0.928168 0.023269 0.918702
Si Si4 0.745535 0.502198 0.320082
Si Si5 0.082743 0.639689 0.620520
O O1 0.717584 0.228586 0.274391
O O2 0.854085 0.403495 0.343268
O O3 0.939994 0.295513 0.155914
O O4 0.552051 0.343855 0.037569
O O5 0.251451 0.445772 0.880264
O O6 0.192165 0.309157 0.036471
O O7 0.773043 0.108068 0.819215
O O8 0.031547 0.002988 0.813785
O O9 0.135180 0.043751 0.122076
O O10 0.931582 0.562121 0.480544
#
# Coordination Sequence:
#
# PCOD8056298 Si02
#       5
#     4   4   4   4   4
#     4  11  26  45  66 105 140 178 234 285 348 412
#     4  11  26  45  66 105 140 178 234 285 348 412
#     4  11  23  45  73 103 135 178 237 283 341 419
#     4  11  23  45  73 103 135 178 237 283 341 419
#     4  12  24  48  74  98 140 192 226 290 350 402
#
# _framework density 23.580117999999999
#
# number of rings (size 3 to 8) (size 9 to 14) (size 15 to 20)
#    0.000    0.800    8.000    1.200    2.800    1.600 
#    3.600    0.000    0.000    0.000    0.000    0.000 
#    0.000    0.000    0.000    0.000    0.000    0.000 
#
# Total GULP energy -123886.501062 kJ/mol
# GULP energy per Si atom -12388.650106 kJ/mol
# Density = 2.352645 g / cm^3
# Si number density = 23.580118 Si / 1000 Ang^3
#
#
#
# Elastic Constant Matrix: (Units=GPa)
#
#
# Indices 1 2 3 4 5 6 
#
# 1 142.8943 5.2275 16.8004 0.0000 -37.3900 0.0000
# 2 5.2275 23.9447 14.9082 0.0000 -5.5315 0.0000
# 3 16.8004 14.9082 72.4950 0.0000 -5.9457 0.0000
# 4 0.0000 0.0000 0.0000 24.4126 0.0000 -12.4836
# 5 -37.3900 -5.5315 -5.9457 0.0000 48.6408 0.0000
# 6 0.0000 0.0000 0.0000 -12.4836 0.0000 20.8392
#
#
#
# Elastic Compliance Matrix: (Units=1/GPa)
#
#
# Indices 1 2 3 4 5 6 
#
# 1 0.008931 0.000632 -0.001647 0.000000 0.006736 0.000000
# 2 0.000632 0.048841 -0.009793 0.000000 0.004843 0.000000
# 3 -0.001647 -0.009793 0.016156 0.000000 -0.000405 0.000000
# 4 0.000000 0.000000 0.000000 0.059051 0.000000 0.035374
# 5 0.006736 0.004843 -0.000405 0.000000 0.026238 0.000000
# 6 0.000000 0.000000 0.000000 0.035374 0.000000 0.069177
#
#
# Mechanical properties :
#
#
# Convention : Reuss Voigt Hill
#
# Bulk Modulus (GPa) = 19.11618 34.80068 26.95843
# Shear Modulus (GPa) = 18.69512 32.27173 25.48343
#
# Velocity S-wave (km/s) = 2.81879 3.70347 3.29099
# Velocity P-wave (km/s) = 4.32650 5.75136 5.08904
#
# Compressibility (1/GPa) = 0.05231170
#
# Stress axis : x y z
#
# Youngs Moduli (GPa) = 111.96607 20.47462 61.89470
#
# Poissons Ratio (x) = -0.01294 0.10196
# Poissons Ratio (y) = -0.07074 0.60614
# Poissons Ratio (z) = 0.18444 0.20051
#
# Static dielectric constant tensor:
#      x y z
#    x 4.530800 0.000000 -0.199890 
#    y 0.000000 5.304000 0.000000 
#    z -0.199890 0.000000 4.214090 
# 
# 
# High freq. dielectric constant tensor:
#      x y z
#    x 1.956260 0.000000 -0.009390 
#    y 0.000000 1.899780 0.000000 
#    z -0.009390 0.000000 1.933270 
# 
# From -- ./inp_files/4865.got.cif
#   From: 2010.06.25/outbox.cif.g09.slc.cpg/sg9_3_cif.got.tgz:4865.got - 2010.06.27 21:40:51.
