data_PCOD8056584
_publ_section_title
;
Structure prediction by ZEFSAII (Michael W. Deem and Ramdas Pophale) SiO2 
 PCOD8056584
Probable space group: C C
;
_chemical_formula_sum "Si O2"
_cell_formula_units_Z 28
_cell_length_a 16.578047
_cell_length_b 8.826225
_cell_length_c 7.582367
_cell_angle_alpha 90.000000
_cell_angle_beta 81.521760
_cell_angle_gamma 90.000000
_cell_volume 1097.339564
_symmetry_space_group_name_H-M "C C"
_symmetry_group_IT_number 9
_symmetry_cell_setting 'monoclinic'
loop_
_space_group_symop_operation_xyz
x,y,z
x,-y,1/2+z
1/2+x,1/2+y,z
1/2+x,1/2-y,1/2+z
loop_
_atom_site_type_symbol
_atom_site_label
_atom_site_fract_x
_atom_site_fract_y
_atom_site_fract_z
Si Si1 0.842160 0.644437 0.704220
Si Si2 0.556695 0.240662 0.312528
Si Si3 0.885514 0.869499 0.392884
Si Si4 0.149881 0.762745 0.740931
Si Si5 0.525517 0.946772 0.153871
Si Si6 0.813613 0.825482 0.048297
Si Si7 0.681648 0.564823 0.593390
O O1 0.845712 0.785807 0.571160
O O2 0.773101 0.536474 0.640147
O O3 0.928137 0.561006 0.687624
O O4 0.817516 0.684731 0.912298
O O5 0.483573 0.359768 0.371315
O O6 0.566157 0.120992 0.466579
O O7 0.638552 0.332553 0.255518
O O8 0.543211 0.125570 0.153418
O O9 0.864507 0.796852 0.210227
O O10 0.852027 0.038972 0.420114
O O11 0.068128 0.660991 0.790613
O O12 0.220629 0.650589 0.644045
O O13 0.137177 0.900074 0.601960
O O14 0.177206 0.846819 0.911125
#
# Coordination Sequence:
#
# PCOD8056584 Si02
#       7
#     4   4   4   4   4   4   4
#     4  11  26  47  75 113 154 197 255 318 379 458
#     4  11  27  47  76 109 157 198 258 310 386 453
#     4  11  26  44  73 113 148 205 252 319 374 457
#     4  12  28  47  78 111 154 207 255 318 382 463
#     4  11  27  48  75 113 151 202 252 316 385 455
#     4  12  25  45  76 107 156 199 260 309 385 442
#     4  12  27  50  77 114 156 200 260 314 389 456
#
# _framework density 25.516257
#
# number of rings (size 3 to 8) (size 9 to 14) (size 15 to 20)
#    0.000    0.571    2.857    3.429   10.000    2.286 
#    0.000    0.000    0.000    0.000    0.000    0.000 
#    0.000    0.000    0.000    0.000    0.000    0.000 
#
# Total GULP energy -173528.871718 kJ/mol
# GULP energy per Si atom -12394.919408 kJ/mol
# Density = 2.545818 g / cm^3
# Si number density = 25.516257 Si / 1000 Ang^3
#
#
#
# Elastic Constant Matrix: (Units=GPa)
#
#
# Indices 1 2 3 4 5 6 
#
# 1 104.3801 32.8762 14.6223 0.0000 2.3433 0.0000
# 2 32.8762 82.7675 -3.7225 0.0000 -15.7610 0.0000
# 3 14.6223 -3.7225 121.9134 0.0000 2.6244 0.0000
# 4 0.0000 0.0000 0.0000 34.9108 0.0000 -6.5400
# 5 2.3433 -15.7610 2.6244 0.0000 35.4359 0.0000
# 6 0.0000 0.0000 0.0000 -6.5400 0.0000 34.3134
#
#
#
# Elastic Compliance Matrix: (Units=1/GPa)
#
#
# Indices 1 2 3 4 5 6 
#
# 1 0.011489 -0.005194 -0.001473 0.000000 -0.002961 0.000000
# 2 -0.005194 0.015557 0.000943 0.000000 0.007193 0.000000
# 3 -0.001473 0.000943 0.008410 0.000000 -0.000106 0.000000
# 4 0.000000 0.000000 0.000000 0.029705 0.000000 0.005662
# 5 -0.002961 0.007193 -0.000106 0.000000 0.031623 0.000000
# 6 0.000000 0.000000 0.000000 0.005662 0.000000 0.030222
#
#
# Mechanical properties :
#
#
# Convention : Reuss Voigt Hill
#
# Bulk Modulus (GPa) = 41.64975 44.06811 42.85893
# Shear Modulus (GPa) = 34.13987 38.61769 36.37878
#
# Velocity S-wave (km/s) = 3.66179 3.89453 3.77995
# Velocity P-wave (km/s) = 5.85120 6.12628 5.99032
#
# Compressibility (1/GPa) = 0.02400975
#
# Stress axis : x y z
#
# Youngs Moduli (GPa) = 87.04015 64.27929 118.90218
#
# Poissons Ratio (x) = 0.33384 0.17512
# Poissons Ratio (y) = 0.45205 -0.11214
# Poissons Ratio (z) = 0.12820 -0.06062
#
# Static dielectric constant tensor:
#      x y z
#    x 4.584870 0.000000 0.076730 
#    y 0.000000 4.708750 0.000000 
#    z 0.076730 0.000000 4.855940 
# 
# 
# High freq. dielectric constant tensor:
#      x y z
#    x 2.016210 0.000000 0.001590 
#    y 0.000000 2.015130 0.000000 
#    z 0.001590 0.000000 2.043300 
# 
# From -- ./inp_files/10427.got.cif
#   From: 2010.06.25/outbox.cif.g09.slc.cpg/sg9_6_cif.got.tgz:10427.got - 2010.06.27 21:40:51.
