data_PCOD8056084
_publ_section_title
;
Structure prediction by ZEFSAII (Michael W. Deem and Ramdas Pophale) SiO2 
 PCOD8056084
Probable space group: C C
;
_chemical_formula_sum "Si O2"
_cell_formula_units_Z 32
_cell_length_a 19.937607
_cell_length_b 15.476537
_cell_length_c 14.066329
_cell_angle_alpha 90.000000
_cell_angle_beta 160.654171
_cell_angle_gamma 90.000000
_cell_volume 1437.833686
_symmetry_space_group_name_H-M "C C"
_symmetry_group_IT_number 9
_symmetry_cell_setting 'monoclinic'
loop_
_space_group_symop_operation_xyz
x,y,z
x,-y,1/2+z
1/2+x,1/2+y,z
1/2+x,1/2-y,1/2+z
loop_
_atom_site_type_symbol
_atom_site_label
_atom_site_fract_x
_atom_site_fract_y
_atom_site_fract_z
Si Si1 0.461940 0.213825 0.939770
Si Si2 0.627428 0.483058 0.269164
Si Si3 0.692839 0.168269 0.426469
Si Si4 0.407362 0.160427 0.214144
Si Si5 0.096841 0.881240 0.048936
Si Si6 0.971173 0.590074 0.795876
Si Si7 0.664605 0.040703 0.680673
Si Si8 0.754121 0.027779 0.007697
O O1 0.262566 0.177470 0.721393
O O2 0.481199 0.185490 0.853956
O O3 0.648942 0.184416 0.256304
O O4 0.457629 0.317923 0.928767
O O5 0.714423 0.405639 0.453858
O O6 0.675391 0.456106 0.224499
O O7 0.752835 0.570137 0.458540
O O8 0.393047 0.507289 0.968008
O O9 0.487142 0.168761 0.212783
O O10 0.838797 0.245169 0.659498
O O11 0.793794 0.074378 0.572477
O O12 0.594788 0.127538 0.531183
O O13 0.972809 0.926784 0.798177
O O14 0.007463 0.532233 0.938518
O O15 0.141204 0.567225 0.947117
O O16 0.633487 0.053451 0.751447
#
# Coordination Sequence:
#
# PCOD8056084 Si02
#       8
#     4   4   4   4   4   4   4   4
#     4  12  23  41  68 103 136 179 236 296 345 412
#     4  11  21  42  68  97 142 174 229 290 344 415
#     4  12  22  43  69 103 139 179 237 289 345 419
#     4  11  25  43  67 108 139 178 237 292 355 412
#     4  12  24  41  68 104 139 182 233 289 356 417
#     4  11  23  42  69 101 135 179 234 290 348 417
#     4  11  24  44  67 100 143 181 227 289 354 423
#     4  12  24  44  70 100 141 186 235 287 355 423
#
# _framework density 22.255703
#
# number of rings (size 3 to 8) (size 9 to 14) (size 15 to 20)
#    0.000    0.500    7.500    1.500    1.750    0.000 
#    0.000    6.250    0.000    0.000    0.000    0.000 
#    0.000    0.000    0.000    0.000    0.000    0.000 
#
# Total GULP energy -198321.748636 kJ/mol
# GULP energy per Si atom -12395.109290 kJ/mol
# Density = 2.220505 g / cm^3
# Si number density = 22.255703 Si / 1000 Ang^3
#
#
#
# Elastic Constant Matrix: (Units=GPa)
#
#
# Indices 1 2 3 4 5 6 
#
# 1 85.1298 41.2815 29.8388 0.0000 -25.2368 0.0000
# 2 41.2815 96.2369 58.8080 0.0000 4.1157 0.0000
# 3 29.8388 58.8080 121.1201 -0.0001 -10.0842 0.0000
# 4 0.0000 0.0000 -0.0001 41.8085 0.0000 -1.2392
# 5 -25.2368 4.1157 -10.0842 0.0000 29.3590 0.0000
# 6 0.0000 0.0000 0.0000 -1.2392 0.0000 32.3096
#
#
#
# Elastic Compliance Matrix: (Units=1/GPa)
#
#
# Indices 1 2 3 4 5 6 
#
# 1 0.023915 -0.012535 0.002113 0.000000 0.023040 0.000000
# 2 -0.012535 0.021994 -0.009002 0.000000 -0.016950 0.000000
# 3 0.002113 -0.009002 0.012727 0.000000 0.007449 0.000000
# 4 0.000000 0.000000 0.000000 0.023946 0.000000 0.000918
# 5 0.023040 -0.016950 0.007449 0.000000 0.058801 0.000000
# 6 0.000000 0.000000 0.000000 0.000918 0.000000 0.030986
#
#
# Mechanical properties :
#
#
# Convention : Reuss Voigt Hill
#
# Bulk Modulus (GPa) = 50.53728 62.48259 56.50993
# Shear Modulus (GPa) = 22.95563 32.19933 27.57748
#
# Velocity S-wave (km/s) = 3.21510 3.80780 3.52393
# Velocity P-wave (km/s) = 6.04478 6.88972 6.48103
#
# Compressibility (1/GPa) = 0.01978737
#
# Stress axis : x y z
#
# Youngs Moduli (GPa) = 41.81488 45.46773 78.57503
#
# Poissons Ratio (x) = 0.56993 -0.16601
# Poissons Ratio (y) = 0.52414 0.70732
# Poissons Ratio (z) = -0.08834 0.40929
#
# Static dielectric constant tensor:
#      x y z
#    x 4.054150 0.000000 -0.228450 
#    y 0.000000 4.128260 0.000000 
#    z -0.228450 0.000000 4.083810 
# 
# 
# High freq. dielectric constant tensor:
#      x y z
#    x 1.871110 0.000000 -0.004860 
#    y 0.000000 1.870330 0.000000 
#    z -0.004860 0.000000 1.875060 
# 
# From -- ./inp_files/7440.got.cif
#   From: 2010.06.25/outbox.cif.g09.slc.cpg/sg9_4_cif.got.tgz:7440.got - 2010.06.27 21:40:51.
