data_PCOD8056270
_publ_section_title
;
Structure prediction by ZEFSAII (Michael W. Deem and Ramdas Pophale) SiO2 
 PCOD8056270
Probable space group: C C
;
_chemical_formula_sum "Si O2"
_cell_formula_units_Z 24
_cell_length_a 30.947194
_cell_length_b 7.267567
_cell_length_c 9.176843
_cell_angle_alpha 90.000000
_cell_angle_beta 31.265723
_cell_angle_gamma 90.000000
_cell_volume 1071.217215
_symmetry_space_group_name_H-M "C C"
_symmetry_group_IT_number 9
_symmetry_cell_setting 'monoclinic'
loop_
_space_group_symop_operation_xyz
x,y,z
x,-y,1/2+z
1/2+x,1/2+y,z
1/2+x,1/2-y,1/2+z
loop_
_atom_site_type_symbol
_atom_site_label
_atom_site_fract_x
_atom_site_fract_y
_atom_site_fract_z
Si Si1 0.751490 0.420462 0.887050
Si Si2 0.717035 0.936774 0.333710
Si Si3 0.566387 0.357264 0.529337
Si Si4 0.319837 0.779069 0.979321
Si Si5 0.002215 0.151705 0.527770
Si Si6 0.604378 0.050313 0.899563
O O1 0.777823 0.609300 0.733318
O O2 0.762303 0.255954 0.738066
O O3 0.656849 0.431559 0.218585
O O4 0.811961 0.388908 0.850589
O O5 0.777328 0.080238 0.079903
O O6 0.634031 0.900553 0.477213
O O7 0.688810 0.031770 0.564473
O O8 0.495243 0.462676 0.640980
O O9 0.554117 0.141115 0.538515
O O10 0.557332 0.393935 0.727312
O O11 0.415611 0.741235 0.734391
O O12 0.046092 0.291363 0.510303
#
# Coordination Sequence:
#
# PCOD8056270 Si02
#       6
#     4   4   4   4   4   4
#     4  11  26  47  76 101 142 194 238 290 352 440
#     4  11  23  44  71 102 137 187 236 285 345 431
#     4  11  25  48  73 102 138 193 242 278 355 433
#     4  12  28  46  69 109 145 181 236 298 364 410
#     4  12  29  43  72 107 147 180 233 303 360 413
#     4  11  23  44  71 101 139 183 241 282 348 427
#
# _framework density 22.404419999999998
#
# number of rings (size 3 to 8) (size 9 to 14) (size 15 to 20)
#    0.000    0.667    5.000    2.000   14.000    0.000 
#    0.000    0.000    0.000    0.000    0.000    0.000 
#    0.000    0.000    0.000    0.000    0.000    0.000 
#
# Total GULP energy -148835.311762 kJ/mol
# GULP energy per Si atom -12402.942647 kJ/mol
# Density = 2.235343 g / cm^3
# Si number density = 22.404420 Si / 1000 Ang^3
#
#
#
# Elastic Constant Matrix: (Units=GPa)
#
#
# Indices 1 2 3 4 5 6 
#
# 1 135.8165 67.7000 43.6811 0.0000 7.6369 0.0000
# 2 67.7000 109.0174 41.7393 0.0000 5.4876 0.0000
# 3 43.6811 41.7393 70.0115 0.0000 1.6503 0.0000
# 4 0.0000 0.0000 0.0000 30.7329 0.0000 -3.2154
# 5 7.6369 5.4876 1.6503 0.0000 32.0361 0.0000
# 6 0.0000 0.0000 0.0000 -3.2154 0.0000 44.8641
#
#
#
# Elastic Compliance Matrix: (Units=1/GPa)
#
#
# Indices 1 2 3 4 5 6 
#
# 1 0.011450 -0.005585 -0.003777 0.000000 -0.001578 0.000000
# 2 -0.005585 0.014700 -0.005258 0.000000 -0.000916 0.000000
# 3 -0.003777 -0.005258 0.019756 0.000000 0.000783 0.000000
# 4 0.000000 0.000000 0.000000 0.032784 0.000000 0.002350
# 5 -0.001578 -0.000916 0.000783 0.000000 0.031708 0.000000
# 6 0.000000 0.000000 0.000000 0.002350 0.000000 0.022458
#
#
# Mechanical properties :
#
#
# Convention : Reuss Voigt Hill
#
# Bulk Modulus (GPa) = 59.99976 69.00959 64.50467
# Shear Modulus (GPa) = 29.82361 32.30829 31.06595
#
# Velocity S-wave (km/s) = 3.65245 3.80155 3.72775
# Velocity P-wave (km/s) = 6.68024 7.08080 6.88343
#
# Compressibility (1/GPa) = 0.01666673
#
# Stress axis : x y z
#
# Youngs Moduli (GPa) = 87.33298 68.02549 50.61726
#
# Poissons Ratio (x) = 0.37993 0.19119
# Poissons Ratio (y) = 0.48777 0.26614
# Poissons Ratio (z) = 0.32987 0.35767
#
# Static dielectric constant tensor:
#      x y z
#    x 4.243070 0.000000 0.140860 
#    y 0.000000 4.221460 0.000000 
#    z 0.140860 0.000000 3.792040 
# 
# 
# High freq. dielectric constant tensor:
#      x y z
#    x 1.899320 0.000000 0.015400 
#    y 0.000000 1.894980 0.000000 
#    z 0.015400 0.000000 1.856650 
# 
# From -- ./inp_files/8745.got.cif
#   From: 2010.06.25/outbox.cif.g09.slc.cpg/sg9_5_cif.got.tgz:8745.got - 2010.06.27 21:40:51.
