data_PCOD8056793
_publ_section_title
;
Structure prediction by ZEFSAII (Michael W. Deem and Ramdas Pophale) SiO2 
 PCOD8056793
Probable space group: C C
;
_chemical_formula_sum "Si O2"
_cell_formula_units_Z 32
_cell_length_a 9.628537
_cell_length_b 14.005597
_cell_length_c 23.782095
_cell_angle_alpha 90.000000
_cell_angle_beta 35.931577
_cell_angle_gamma 90.000000
_cell_volume 1881.984247
_symmetry_space_group_name_H-M "C C"
_symmetry_group_IT_number 9
_symmetry_cell_setting 'monoclinic'
loop_
_space_group_symop_operation_xyz
x,y,z
x,-y,1/2+z
1/2+x,1/2+y,z
1/2+x,1/2-y,1/2+z
loop_
_atom_site_type_symbol
_atom_site_label
_atom_site_fract_x
_atom_site_fract_y
_atom_site_fract_z
Si Si1 0.669290 0.607774 0.390040
Si Si2 0.484251 0.261512 0.233286
Si Si3 0.303911 0.238489 0.733286
Si Si4 0.056953 0.392229 0.357493
Si Si5 0.234387 0.892230 0.357492
Si Si6 0.991860 0.392227 0.890037
Si Si7 0.422339 0.238493 0.514242
Si Si8 0.242001 0.261508 0.014242
O O1 0.831318 0.666144 0.293167
O O2 0.651825 0.500002 0.373763
O O3 0.406931 0.650750 0.478229
O O4 0.774001 0.611906 0.418326
O O5 0.619872 0.291796 0.245391
O O6 0.319310 0.349251 0.269302
O O7 0.665774 0.238738 0.123764
O O8 0.324789 0.150751 0.769302
O O9 0.217324 0.333860 0.793163
O O10 0.560474 0.261263 0.623765
O O11 0.074425 0.500001 0.373765
O O12 0.952234 0.388094 0.329210
O O13 0.894936 0.333861 0.454365
O O14 0.008915 0.833864 0.454366
O O15 0.901467 0.349248 0.978225
O O16 0.606385 0.208212 0.502135
#
# Coordination Sequence:
#
# PCOD8056793 Si02
#       8
#     4   4   4   4   4   4   4   4
#     4   9  18  32  50  71  94 122 157 195 232 273
#     4   9  18  32  48  68  96 126 155 191 234 277
#     4   9  18  32  48  68  96 126 155 191 234 277
#     4   9  18  32  50  71  94 122 157 195 232 273
#     4   9  18  32  50  71  94 122 157 195 232 273
#     4   9  18  32  50  71  94 122 157 195 232 273
#     4   9  18  32  48  68  96 126 155 191 234 277
#     4   9  18  32  48  68  96 126 155 191 234 277
#
# _framework density 17.003330999999999
#
# number of rings (size 3 to 8) (size 9 to 14) (size 15 to 20)
#    0.000    3.000    0.000    0.000    0.000    4.000 
#    0.000    5.000    0.000    0.000    0.000    0.000 
#    0.000    0.000    0.000    0.000    0.000    0.000 
#
# Total GULP energy -198437.856555 kJ/mol
# GULP energy per Si atom -12402.366035 kJ/mol
# Density = 1.696463 g / cm^3
# Si number density = 17.003331 Si / 1000 Ang^3
#
#
#
# Elastic Constant Matrix: (Units=GPa)
#
#
# Indices 1 2 3 4 5 6 
#
# 1 53.7809 50.6690 45.4147 0.0010 -3.6406 0.0011
# 2 50.6690 135.5687 47.8131 0.0023 0.2034 0.0005
# 3 45.4147 47.8131 114.4326 0.0091 -0.7444 0.0000
# 4 0.0010 0.0023 0.0091 15.1293 -0.0011 1.0173
# 5 -3.6406 0.2034 -0.7444 -0.0011 29.0999 -0.0004
# 6 0.0011 0.0005 0.0000 1.0173 -0.0004 29.1949
#
#
#
# Elastic Compliance Matrix: (Units=1/GPa)
#
#
# Indices 1 2 3 4 5 6 
#
# 1 0.037524 -0.010309 -0.010556 0.000006 0.004497 -0.000001
# 2 -0.010309 0.011484 -0.000716 -0.000001 -0.001388 0.000000
# 3 -0.010556 -0.000716 0.013221 -0.000007 -0.000977 0.000001
# 4 0.000006 -0.000001 -0.000007 0.066252 0.000003 -0.002309
# 5 0.004497 -0.001388 -0.000977 0.000003 0.034912 0.000000
# 6 -0.000001 0.000000 0.000001 -0.002309 0.000000 0.034333
#
#
# Mechanical properties :
#
#
# Convention : Reuss Voigt Hill
#
# Bulk Modulus (GPa) = 52.44398 65.73065 59.08731
# Shear Modulus (GPa) = 20.22307 25.34385 22.78346
#
# Velocity S-wave (km/s) = 3.45245 3.86492 3.66449
# Velocity P-wave (km/s) = 6.84126 7.65887 7.26158
#
# Compressibility (1/GPa) = 0.01906797
#
# Stress axis : x y z
#
# Youngs Moduli (GPa) = 26.64959 87.07881 75.63820
#
# Poissons Ratio (x) = 0.89766 0.79841
# Poissons Ratio (y) = 0.27472 0.05417
# Poissons Ratio (z) = 0.28130 0.06236
#
# Static dielectric constant tensor:
#      x y z
#    x 3.188800 0.000000 -0.000350 
#    y 0.000000 3.180350 0.000000 
#    z -0.000350 0.000000 3.193490 
# 
# 
# High freq. dielectric constant tensor:
#      x y z
#    x 1.654510 0.000000 -0.000030 
#    y 0.000000 1.653080 0.000000 
#    z -0.000030 0.000000 1.654900 
# 
# From -- ./inp_files/14610.got.cif
#   From: 2010.06.25/outbox.cif.g09.slc.cpg/sg9_8_cif.got.tgz:14610.got - 2010.06.27 21:40:51.
