data_PCOD8056256
_publ_section_title
;
Structure prediction by ZEFSAII (Michael W. Deem and Ramdas Pophale) SiO2 
 PCOD8056256
Probable space group: C C
;
_chemical_formula_sum "Si O2"
_cell_formula_units_Z 32
_cell_length_a 5.566295
_cell_length_b 23.703937
_cell_length_c 10.805945
_cell_angle_alpha 90.000000
_cell_angle_beta 71.779434
_cell_angle_gamma 90.000000
_cell_volume 1354.281670
_symmetry_space_group_name_H-M "C C"
_symmetry_group_IT_number 9
_symmetry_cell_setting 'monoclinic'
loop_
_space_group_symop_operation_xyz
x,y,z
x,-y,1/2+z
1/2+x,1/2+y,z
1/2+x,1/2-y,1/2+z
loop_
_atom_site_type_symbol
_atom_site_label
_atom_site_fract_x
_atom_site_fract_y
_atom_site_fract_z
Si Si1 0.028970 0.801972 0.799680
Si Si2 0.972069 0.908557 0.646902
Si Si3 0.429345 0.215666 0.445835
Si Si4 0.399675 0.598300 0.685500
Si Si5 0.543549 0.660002 0.900073
Si Si6 0.083071 0.504783 0.260299
Si Si7 0.020202 0.685376 0.690793
Si Si8 0.302449 0.015681 0.558830
O O1 0.213235 0.807788 0.888743
O O2 0.129987 0.747793 0.705354
O O3 0.076792 0.858927 0.715867
O O4 0.725457 0.798159 0.869701
O O5 0.695627 0.931887 0.730299
O O6 0.969003 0.888237 0.507103
O O7 0.150165 0.961956 0.629880
O O8 0.402678 0.282888 0.460181
O O9 0.356314 0.190631 0.591329
O O10 0.444724 0.643211 0.783804
O O11 0.280421 0.542967 0.769047
O O12 0.223957 0.636531 0.624546
O O13 0.649068 0.574822 0.576866
O O14 0.847548 0.666886 0.835938
O O15 0.885285 0.506488 0.403980
O O16 0.005648 0.480237 0.136815
#
# Coordination Sequence:
#
# PCOD8056256 Si02
#       8
#     4   4   4   4   4   4   4   4
#     4  11  26  46  72 115 151 203 254 315 387 462
#     4  11  25  46  76 105 153 199 251 319 392 467
#     4  11  26  46  73 109 160 197 262 312 384 461
#     4  11  23  43  73 104 148 197 257 313 391 462
#     4  11  23  46  73 104 143 206 249 312 386 465
#     4  11  26  48  72 113 145 195 260 325 391 467
#     4  11  24  45  71 109 148 199 254 315 379 470
#     4  11  25  46  74 107 150 194 261 323 396 462
#
# _framework density 23.628761000000001
#
# number of rings (size 3 to 8) (size 9 to 14) (size 15 to 20)
#    0.000    1.000    2.500    3.000    3.500    6.000 
#    0.000    0.000    0.000    0.000    0.000    0.000 
#    0.000    0.000    0.000    0.000    0.000    0.000 
#
# Total GULP energy -198264.550235 kJ/mol
# GULP energy per Si atom -12391.534390 kJ/mol
# Density = 2.357498 g / cm^3
# Si number density = 23.628761 Si / 1000 Ang^3
#
#
#
# Elastic Constant Matrix: (Units=GPa)
#
#
# Indices 1 2 3 4 5 6 
#
# 1 103.9923 41.9711 33.3739 0.0000 7.2056 0.0000
# 2 41.9711 145.9114 40.0301 0.0000 3.1139 0.0000
# 3 33.3739 40.0301 99.9551 0.0000 9.7444 0.0000
# 4 0.0000 0.0000 0.0000 38.8404 0.0000 5.0897
# 5 7.2056 3.1139 9.7444 0.0000 33.1691 0.0000
# 6 0.0000 0.0000 0.0000 5.0897 0.0000 41.3711
#
#
#
# Elastic Compliance Matrix: (Units=1/GPa)
#
#
# Indices 1 2 3 4 5 6 
#
# 1 0.011625 -0.002569 -0.002707 0.000000 -0.001489 0.000000
# 2 -0.002569 0.008268 -0.002504 0.000000 0.000518 0.000000
# 3 -0.002707 -0.002504 0.012180 0.000000 -0.002755 0.000000
# 4 0.000000 0.000000 0.000000 0.026168 0.000000 -0.003219
# 5 -0.001489 0.000518 -0.002755 0.000000 0.031233 0.000000
# 6 0.000000 0.000000 0.000000 -0.003219 0.000000 0.024568
#
#
# Mechanical properties :
#
#
# Convention : Reuss Voigt Hill
#
# Bulk Modulus (GPa) = 60.56201 64.51212 62.53706
# Shear Modulus (GPa) = 37.00764 38.30838 37.65801
#
# Velocity S-wave (km/s) = 3.96183 4.03086 3.99649
# Velocity P-wave (km/s) = 6.82748 7.00181 6.91519
#
# Compressibility (1/GPa) = 0.01651200
#
# Stress axis : x y z
#
# Youngs Moduli (GPa) = 86.02048 120.94164 82.10324
#
# Poissons Ratio (x) = 0.31075 0.22228
# Poissons Ratio (y) = 0.22102 0.20558
# Poissons Ratio (z) = 0.23289 0.30283
#
# Static dielectric constant tensor:
#      x y z
#    x 4.368680 0.000000 -0.061710 
#    y 0.000000 4.443110 0.000000 
#    z -0.061710 0.000000 4.139110 
# 
# 
# High freq. dielectric constant tensor:
#      x y z
#    x 1.928350 0.000000 0.004650 
#    y 0.000000 1.962350 0.000000 
#    z 0.004650 0.000000 1.928590 
# 
# From -- ./inp_files/13461.got.cif
#   From: 2010.06.25/outbox.cif.g09.slc.cpg/sg9_7_cif.got.tgz:13461.got - 2010.06.27 21:40:51.
