data_PCOD8056643
_publ_section_title
;
Structure prediction by ZEFSAII (Michael W. Deem and Ramdas Pophale) SiO2 
 PCOD8056643
Probable space group: C C
;
_chemical_formula_sum "Si O2"
_cell_formula_units_Z 32
_cell_length_a 14.001169
_cell_length_b 11.539618
_cell_length_c 8.597766
_cell_angle_alpha 90.000000
_cell_angle_beta 115.421781
_cell_angle_gamma 90.000000
_cell_volume 1254.619107
_symmetry_space_group_name_H-M "C C"
_symmetry_group_IT_number 9
_symmetry_cell_setting 'monoclinic'
loop_
_space_group_symop_operation_xyz
x,y,z
x,-y,1/2+z
1/2+x,1/2+y,z
1/2+x,1/2-y,1/2+z
loop_
_atom_site_type_symbol
_atom_site_label
_atom_site_fract_x
_atom_site_fract_y
_atom_site_fract_z
Si Si1 0.230860 0.307016 0.622690
Si Si2 0.272157 0.573065 0.702518
Si Si3 0.941277 0.406663 0.378427
Si Si4 0.117720 0.116287 0.380502
Si Si5 0.313453 0.756387 0.490964
Si Si6 0.541506 0.119104 0.622281
Si Si7 0.235626 0.952930 0.665761
Si Si8 0.920077 0.167245 0.057119
O O1 0.235308 0.446709 0.620712
O O2 0.132838 0.245764 0.464880
O O3 0.225202 0.266110 0.797129
O O4 0.339136 0.265112 0.615168
O O5 0.326485 0.636958 0.594192
O O6 0.166808 0.638893 0.688067
O O7 0.359037 0.577562 0.901533
O O8 0.922480 0.296787 0.481754
O O9 0.826418 0.451373 0.247180
O O10 0.003975 0.501650 0.520264
O O11 0.015985 0.377232 0.287015
O O12 0.207425 0.101090 0.311451
O O13 0.002017 0.098891 0.225587
O O14 0.133563 0.017745 0.521856
O O15 0.274054 0.853966 0.578920
O O16 0.482856 0.231800 0.505523
#
# Coordination Sequence:
#
# PCOD8056643 Si02
#       8
#     4   4   4   4   4   4   4   4
#     4  12  26  51  75 115 165 210 268 343 417 496
#     4  12  31  52  77 117 173 214 272 343 421 503
#     4  12  23  44  81 117 148 201 273 343 400 480
#     4  12  26  47  83 113 159 219 273 344 416 493
#     4  12  24  47  83 113 154 210 263 346 412 478
#     4  12  27  48  81 113 157 213 273 340 411 487
#     4  12  22  48  77 119 157 194 280 348 404 475
#     4  12  27  49  75 109 163 219 264 333 421 496
#
# _framework density 25.505749000000002
#
# number of rings (size 3 to 8) (size 9 to 14) (size 15 to 20)
#    0.000    0.000    5.000    4.500    7.000    0.000 
#    0.000    1.250    0.000    0.000    0.000    0.000 
#    0.000    0.000    0.000    0.000    0.000    0.000 
#
# Total GULP energy -198382.526746 kJ/mol
# GULP energy per Si atom -12398.907922 kJ/mol
# Density = 2.544770 g / cm^3
# Si number density = 25.505749 Si / 1000 Ang^3
#
#
#
# Elastic Constant Matrix: (Units=GPa)
#
#
# Indices 1 2 3 4 5 6 
#
# 1 65.5686 -6.1457 41.5817 0.0000 5.5651 0.0000
# 2 -6.1457 75.9486 37.1500 0.0000 -8.5097 0.0000
# 3 41.5817 37.1500 136.8667 0.0000 0.2592 0.0000
# 4 0.0000 0.0000 0.0000 52.1099 0.0000 -1.2298
# 5 5.5651 -8.5097 0.2592 0.0000 45.8405 0.0000
# 6 0.0000 0.0000 0.0000 -1.2298 0.0000 30.5774
#
#
#
# Elastic Compliance Matrix: (Units=1/GPa)
#
#
# Indices 1 2 3 4 5 6 
#
# 1 0.020794 0.005309 -0.007756 0.000000 -0.001495 0.000000
# 2 0.005309 0.016917 -0.006210 0.000000 0.002531 0.000000
# 3 -0.007756 -0.006210 0.011349 0.000000 -0.000275 0.000000
# 4 0.000000 0.000000 0.000000 0.019208 0.000000 0.000773
# 5 -0.001495 0.002531 -0.000275 0.000000 0.022468 0.000000
# 6 0.000000 0.000000 0.000000 0.000773 0.000000 0.032735
#
#
# Mechanical properties :
#
#
# Convention : Reuss Voigt Hill
#
# Bulk Modulus (GPa) = 31.49886 47.06177 39.28031
# Shear Modulus (GPa) = 33.03243 39.42543 36.22893
#
# Velocity S-wave (km/s) = 3.60265 3.93586 3.77294
# Velocity P-wave (km/s) = 5.44812 6.25669 5.86635
#
# Compressibility (1/GPa) = 0.03174719
#
# Stress axis : x y z
#
# Youngs Moduli (GPa) = 48.09071 59.11083 88.11645
#
# Poissons Ratio (x) = -0.31380 0.68340
# Poissons Ratio (y) = -0.25530 0.54717
# Poissons Ratio (z) = 0.37297 0.36705
#
# Static dielectric constant tensor:
#      x y z
#    x 4.708910 0.000000 -0.166110 
#    y 0.000000 4.803270 0.000000 
#    z -0.166110 0.000000 4.759870 
# 
# 
# High freq. dielectric constant tensor:
#      x y z
#    x 2.011550 0.000000 -0.004890 
#    y 0.000000 2.032250 0.000000 
#    z -0.004890 0.000000 2.029120 
# 
# From -- ./inp_files/9324.got.cif
#   From: 2010.06.25/outbox.cif.g09.slc.cpg/sg9_5_cif.got.tgz:9324.got - 2010.06.27 21:40:51.
