data_PCOD8056330
_publ_section_title
;
Structure prediction by ZEFSAII (Michael W. Deem and Ramdas Pophale) SiO2 
 PCOD8056330
Probable space group: C C
;
_chemical_formula_sum "Si O2"
_cell_formula_units_Z 28
_cell_length_a 10.497484
_cell_length_b 7.669238
_cell_length_c 21.120398
_cell_angle_alpha 90.000000
_cell_angle_beta 38.043802
_cell_angle_gamma 90.000000
_cell_volume 1047.866935
_symmetry_space_group_name_H-M "C C"
_symmetry_group_IT_number 9
_symmetry_cell_setting 'monoclinic'
loop_
_space_group_symop_operation_xyz
x,y,z
x,-y,1/2+z
1/2+x,1/2+y,z
1/2+x,1/2-y,1/2+z
loop_
_atom_site_type_symbol
_atom_site_label
_atom_site_fract_x
_atom_site_fract_y
_atom_site_fract_z
Si Si1 0.609320 0.219544 0.301930
Si Si2 0.139348 0.909952 0.739272
Si Si3 0.464159 0.496280 0.187091
Si Si4 0.599113 0.824222 0.565953
Si Si5 0.631160 0.199339 0.905236
Si Si6 0.017908 0.089376 0.956722
Si Si7 0.362684 0.107050 0.908237
O O1 0.555766 0.397060 0.287450
O O2 0.606939 0.257286 0.377867
O O3 0.829478 0.133637 0.198966
O O4 0.427605 0.083291 0.354699
O O5 0.122388 0.897260 0.669693
O O6 0.377178 0.904843 0.667688
O O7 0.005780 0.756462 0.821081
O O8 0.589629 0.381648 0.086696
O O9 0.312808 0.378997 0.290537
O O10 0.659371 0.846528 0.468628
O O11 0.767653 0.912022 0.547682
O O12 0.609073 0.404737 0.899051
O O13 0.413548 0.115550 0.963468
O O14 0.119073 0.135327 0.986238
#
# Coordination Sequence:
#
# PCOD8056330 Si02
#       7
#     4   4   4   4   4   4   4
#     4  11  23  46  82 107 148 209 252 310 391 455
#     4  12  24  47  78 109 151 204 252 313 385 457
#     4  11  25  48  75 110 154 199 260 318 379 459
#     4  12  28  47  74 122 156 195 265 318 382 461
#     4  11  26  49  78 110 157 200 257 319 379 464
#     4  12  24  45  78 114 151 202 257 315 392 447
#     4  11  24  46  83 108 147 207 255 307 388 459
#
# _framework density 26.720949999999998
#
# number of rings (size 3 to 8) (size 9 to 14) (size 15 to 20)
#    0.000    0.571    5.714    2.571    0.000    6.857 
#    2.571    0.000    0.000    0.000    0.000    0.000 
#    0.000    0.000    0.000    0.000    0.000    0.000 
#
# Total GULP energy -173455.853222 kJ/mol
# GULP energy per Si atom -12389.703802 kJ/mol
# Density = 2.666013 g / cm^3
# Si number density = 26.720950 Si / 1000 Ang^3
#
#
#
# Elastic Constant Matrix: (Units=GPa)
#
#
# Indices 1 2 3 4 5 6 
#
# 1 220.0672 22.5345 35.8327 0.0000 -42.3058 0.0000
# 2 22.5345 140.1504 19.8398 0.0000 -10.3247 0.0000
# 3 35.8327 19.8398 76.8452 0.0001 -8.2993 0.0000
# 4 0.0000 0.0000 0.0001 26.3944 0.0000 8.5101
# 5 -42.3058 -10.3247 -8.2993 0.0000 40.7238 0.0000
# 6 0.0000 0.0000 0.0000 8.5101 0.0000 22.7490
#
#
#
# Elastic Compliance Matrix: (Units=1/GPa)
#
#
# Indices 1 2 3 4 5 6 
#
# 1 0.006022 -0.000243 -0.002123 0.000000 0.005762 0.000000
# 2 -0.000243 0.007509 -0.001684 0.000000 0.001308 0.000000
# 3 -0.002123 -0.001684 0.014472 0.000000 0.000317 0.000000
# 4 0.000000 0.000000 0.000000 0.043083 0.000000 -0.016117
# 5 0.005762 0.001308 0.000317 0.000000 0.030938 0.000000
# 6 0.000000 0.000000 0.000000 -0.016117 0.000000 0.049987
#
#
# Mechanical properties :
#
#
# Convention : Reuss Voigt Hill
#
# Bulk Modulus (GPa) = 50.24417 65.94187 58.09302
# Shear Modulus (GPa) = 29.98563 41.89716 35.94139
#
# Velocity S-wave (km/s) = 3.35352 3.96403 3.67149
# Velocity P-wave (km/s) = 5.81713 6.75892 6.30563
#
# Compressibility (1/GPa) = 0.01990281
#
# Stress axis : x y z
#
# Youngs Moduli (GPa) = 166.04791 133.17277 69.09816
#
# Poissons Ratio (x) = 0.03240 0.14670
# Poissons Ratio (y) = 0.04040 0.11636
# Poissons Ratio (z) = 0.35254 0.22426
#
# Static dielectric constant tensor:
#      x y z
#    x 5.701970 0.000000 -0.168820 
#    y 0.000000 4.974010 0.000000 
#    z -0.168820 0.000000 4.335490 
# 
# 
# High freq. dielectric constant tensor:
#      x y z
#    x 2.108690 0.000000 -0.017030 
#    y 0.000000 2.081130 0.000000 
#    z -0.017030 0.000000 2.044090 
# 
# From -- ./inp_files/35255.got.cif
#   From: 2010.06.25/outbox.cif.g09.slc.cpg/sg9_18_cif.got.tgz:35255.got - 2010.06.27 21:40:51.
