data_PCOD8056356
_publ_section_title
;
Structure prediction by ZEFSAII (Michael W. Deem and Ramdas Pophale) SiO2 
 PCOD8056356
Probable space group: C C
;
_chemical_formula_sum "Si O2"
_cell_formula_units_Z 32
_cell_length_a 12.249888
_cell_length_b 15.543278
_cell_length_c 9.265655
_cell_angle_alpha 90.000000
_cell_angle_beta 54.323275
_cell_angle_gamma 90.000000
_cell_volume 1433.105875
_symmetry_space_group_name_H-M "C C"
_symmetry_group_IT_number 9
_symmetry_cell_setting 'monoclinic'
loop_
_space_group_symop_operation_xyz
x,y,z
x,-y,1/2+z
1/2+x,1/2+y,z
1/2+x,1/2-y,1/2+z
loop_
_atom_site_type_symbol
_atom_site_label
_atom_site_fract_x
_atom_site_fract_y
_atom_site_fract_z
Si Si1 0.997180 0.691136 0.403630
Si Si2 0.731245 0.328715 0.270183
Si Si3 0.189369 0.667010 0.715098
Si Si4 0.067662 0.978467 0.288169
Si Si5 0.982871 0.382445 0.607885
Si Si6 0.734741 0.641123 0.097887
Si Si7 0.886355 0.961685 0.174378
Si Si8 0.623722 0.053514 0.495720
O O1 0.858391 0.713977 0.592399
O O2 0.102417 0.767014 0.355115
O O3 0.962132 0.679281 0.261808
O O4 0.058417 0.601250 0.410207
O O5 0.696422 0.420255 0.224982
O O6 0.776301 0.347927 0.399299
O O7 0.190185 0.766886 0.687044
O O8 0.334362 0.625691 0.639071
O O9 0.130716 0.619213 0.621847
O O10 0.100437 0.657823 0.924195
O O11 0.991288 0.933222 0.214963
O O12 0.112668 0.074261 0.208239
O O13 0.963570 0.979626 0.499939
O O14 0.026201 0.477637 0.624188
O O15 0.852705 0.391935 0.609082
O O16 0.768316 0.018740 0.334965
#
# Coordination Sequence:
#
# PCOD8056356 Si02
#       8
#     4   4   4   4   4   4   4   4
#     4  12  29  47  77 111 152 193 252 313 383 444
#     4  12  30  50  76 108 154 200 249 313 383 455
#     4  11  25  45  76 108 146 195 248 310 361 453
#     4  12  27  46  74 108 155 194 249 310 381 445
#     4  11  27  44  75 107 146 188 249 305 374 438
#     4  12  28  48  74 106 146 197 249 303 379 442
#     4  11  25  43  76 110 149 194 250 307 375 444
#     4  11  23  49  76 108 150 199 246 303 380 453
#
# _framework density 22.329125000000001
#
# number of rings (size 3 to 8) (size 9 to 14) (size 15 to 20)
#    0.000    0.500    3.750    3.000   10.500    2.000 
#    0.000    0.000    0.000    0.000    0.000    0.000 
#    0.000    0.000    0.000    0.000    0.000    0.000 
#
# Total GULP energy -198468.486008 kJ/mol
# GULP energy per Si atom -12404.280376 kJ/mol
# Density = 2.227830 g / cm^3
# Si number density = 22.329125 Si / 1000 Ang^3
#
#
#
# Elastic Constant Matrix: (Units=GPa)
#
#
# Indices 1 2 3 4 5 6 
#
# 1 115.2501 7.9207 25.3797 0.0000 -12.1587 0.0000
# 2 7.9207 77.9597 0.0902 0.0000 -38.8022 0.0000
# 3 25.3797 0.0902 83.9059 0.0000 -24.0314 0.0000
# 4 0.0000 0.0000 0.0000 21.6363 0.0000 2.1384
# 5 -12.1587 -38.8022 -24.0314 0.0000 18.4451 0.0000
# 6 0.0000 0.0000 0.0000 2.1384 0.0000 39.8015
#
#
#
# Elastic Compliance Matrix: (Units=1/GPa)
#
#
# Indices 1 2 3 4 5 6 
#
# 1 0.009355 -0.001528 -0.003162 0.000000 -0.001167 0.000000
# 2 -0.001528 -0.018950 -0.017905 0.000000 -0.064199 0.000000
# 3 -0.003162 -0.017905 0.002407 0.000000 -0.036614 0.000000
# 4 0.000000 0.000000 0.000000 0.046465 0.000000 -0.002496
# 5 -0.001167 -0.064199 -0.036614 0.000000 -0.129310 0.000000
# 6 0.000000 0.000000 0.000000 -0.002496 0.000000 0.025259
#
#
# Mechanical properties :
#
#
# Convention : Reuss Voigt Hill
#
# Bulk Modulus (GPa) = -19.09217 38.21076 9.55930
# Shear Modulus (GPa) = -134.97657 32.22494 -51.37582
#
# Velocity S-wave (km/s) = -7.78331 3.80304 -4.80191
# Velocity P-wave (km/s) = 9.45209 6.03605 5.14336
#
# Compressibility (1/GPa) = -0.05237748
#
# Stress axis : x y z
#
# Youngs Moduli (GPa) = 106.89438 -52.76951 415.37730
#
# Poissons Ratio (x) = -0.08061 1.31355
# Poissons Ratio (y) = 0.16330 7.43726
# Poissons Ratio (z) = 0.33803 -0.94483
#
# Static dielectric constant tensor:
#      x y z
#    x 4.983040 0.000000 -0.092520 
#    y 0.000000 4.503630 0.000000 
#    z -0.092520 0.000000 4.208040 
# 
# 
# High freq. dielectric constant tensor:
#      x y z
#    x 1.895940 0.000000 0.009280 
#    y 0.000000 1.881140 0.000000 
#    z 0.009280 0.000000 1.888530 
# 
# From -- ./inp_files/7547.got.cif
#   From: 2010.06.25/outbox.cif.g09.slc.cpg/sg9_4_cif.got.tgz:7547.got - 2010.06.27 21:40:51.
