data_PCOD8056735
_publ_section_title
;
Structure prediction by ZEFSAII (Michael W. Deem and Ramdas Pophale) SiO2 
 PCOD8056735
Probable space group: C C
;
_chemical_formula_sum "Si O2"
_cell_formula_units_Z 32
_cell_length_a 11.511331
_cell_length_b 8.613956
_cell_length_c 13.620987
_cell_angle_alpha 90.000000
_cell_angle_beta 112.157605
_cell_angle_gamma 90.000000
_cell_volume 1250.886937
_symmetry_space_group_name_H-M "C C"
_symmetry_group_IT_number 9
_symmetry_cell_setting 'monoclinic'
loop_
_space_group_symop_operation_xyz
x,y,z
x,-y,1/2+z
1/2+x,1/2+y,z
1/2+x,1/2-y,1/2+z
loop_
_atom_site_type_symbol
_atom_site_label
_atom_site_fract_x
_atom_site_fract_y
_atom_site_fract_z
Si Si1 0.508930 0.256819 0.901550
Si Si2 0.245982 0.111108 0.378960
Si Si3 0.740847 0.751014 0.839203
Si Si4 0.227098 0.152399 0.153532
Si Si5 0.939633 0.410761 0.202323
Si Si6 0.095495 0.373740 0.616337
Si Si7 0.265785 0.421150 0.034583
Si Si8 0.442393 0.677875 0.049038
O O1 0.626286 0.365262 0.912106
O O2 0.370625 0.330284 0.841649
O O3 0.507386 0.101850 0.830258
O O4 0.504422 0.223324 0.017079
O O5 0.214899 0.189297 0.264670
O O6 0.370959 0.196521 0.457480
O O7 0.267482 0.927453 0.377273
O O8 0.648870 0.759133 0.716903
O O9 0.690416 0.843721 0.918517
O O10 0.306674 0.287544 0.124840
O O11 0.087436 0.155707 0.062383
O O12 0.303035 0.992036 0.163469
O O13 0.924116 0.236562 0.155415
O O14 0.027968 0.488195 0.150155
O O15 0.188811 0.446354 0.565620
O O16 0.386278 0.505450 0.026165
#
# Coordination Sequence:
#
# PCOD8056735 Si02
#       8
#     4   4   4   4   4   4   4   4
#     4  12  25  51  79 117 159 217 269 336 407 480
#     4  12  27  49  85 115 167 221 268 335 412 492
#     4  12  30  50  80 123 162 219 274 341 417 486
#     4  12  28  50  83 123 160 215 268 335 405 487
#     4  12  26  53  82 113 169 216 269 344 410 482
#     4  12  26  50  82 113 167 212 273 339 405 492
#     4  12  27  48  81 123 159 212 269 335 409 488
#     4  12  27  51  80 117 163 212 268 335 407 485
#
# _framework density 25.581848999999998
#
# number of rings (size 3 to 8) (size 9 to 14) (size 15 to 20)
#    0.000    0.000    5.000    3.750    1.750    6.000 
#    0.000    1.250    0.000    0.000    0.000    0.000 
#    0.000    0.000    0.000    0.000    0.000    0.000 
#
# Total GULP energy -198321.865805 kJ/mol
# GULP energy per Si atom -12395.116613 kJ/mol
# Density = 2.552362 g / cm^3
# Si number density = 25.581849 Si / 1000 Ang^3
#
#
#
# Elastic Constant Matrix: (Units=GPa)
#
#
# Indices 1 2 3 4 5 6 
#
# 1 95.9850 33.8774 37.8836 0.0000 7.3088 0.0000
# 2 33.8774 110.8127 53.4082 0.0000 -1.4096 0.0000
# 3 37.8836 53.4082 157.6353 0.0000 -5.8209 0.0000
# 4 0.0000 0.0000 0.0000 42.6399 0.0000 -11.2467
# 5 7.3088 -1.4096 -5.8209 0.0000 46.0505 0.0000
# 6 0.0000 0.0000 0.0000 -11.2467 0.0000 39.6368
#
#
#
# Elastic Compliance Matrix: (Units=1/GPa)
#
#
# Indices 1 2 3 4 5 6 
#
# 1 0.012423 -0.002805 -0.002121 0.000000 -0.002326 0.000000
# 2 -0.002805 0.011420 -0.003180 0.000000 0.000393 0.000000
# 3 -0.002121 -0.003180 0.007977 0.000000 0.001248 0.000000
# 4 0.000000 0.000000 0.000000 0.025349 0.000000 0.007193
# 5 -0.002326 0.000393 0.001248 0.000000 0.022254 0.000000
# 6 0.000000 0.000000 0.000000 0.007193 0.000000 0.027270
#
#
# Mechanical properties :
#
#
# Convention : Reuss Voigt Hill
#
# Bulk Modulus (GPa) = 64.07666 68.30795 66.19231
# Shear Modulus (GPa) = 39.02962 41.61636 40.32299
#
# Velocity S-wave (km/s) = 3.91023 4.03773 3.97449
# Velocity P-wave (km/s) = 6.74452 6.96400 6.85514
#
# Compressibility (1/GPa) = 0.01560631
#
# Stress axis : x y z
#
# Youngs Moduli (GPa) = 80.49892 87.56804 125.35903
#
# Poissons Ratio (x) = 0.24564 0.26587
# Poissons Ratio (y) = 0.22581 0.39870
# Poissons Ratio (z) = 0.17073 0.27850
#
# Static dielectric constant tensor:
#      x y z
#    x 4.619460 0.000000 -0.160850 
#    y 0.000000 4.472240 0.000000 
#    z -0.160850 0.000000 4.998200 
# 
# 
# High freq. dielectric constant tensor:
#      x y z
#    x 2.031570 0.000000 -0.014660 
#    y 0.000000 2.012510 0.000000 
#    z -0.014660 0.000000 2.034450 
# 
# From -- ./inp_files/24434.got.cif
#   From: 2010.06.25/outbox.cif.g09.slc.cpg/sg9_13_cif.got.tgz:24434.got - 2010.06.27 21:40:51.
