data_PCOD8056527
_publ_section_title
;
Structure prediction by ZEFSAII (Michael W. Deem and Ramdas Pophale) SiO2 
 PCOD8056527
Probable space group: C C
;
_chemical_formula_sum "Si O2"
_cell_formula_units_Z 32
_cell_length_a 15.225717
_cell_length_b 10.851209
_cell_length_c 9.196490
_cell_angle_alpha 90.000000
_cell_angle_beta 60.515550
_cell_angle_gamma 90.000000
_cell_volume 1322.639307
_symmetry_space_group_name_H-M "C C"
_symmetry_group_IT_number 9
_symmetry_cell_setting 'monoclinic'
loop_
_space_group_symop_operation_xyz
x,y,z
x,-y,1/2+z
1/2+x,1/2+y,z
1/2+x,1/2-y,1/2+z
loop_
_atom_site_type_symbol
_atom_site_label
_atom_site_fract_x
_atom_site_fract_y
_atom_site_fract_z
Si Si1 0.584520 0.367266 0.940510
Si Si2 0.107888 0.237438 0.124426
Si Si3 0.745893 0.542525 0.918265
Si Si4 0.587393 0.996215 0.292209
Si Si5 0.944448 0.842504 0.552717
Si Si6 0.368809 0.912381 0.049269
Si Si7 0.186727 0.626868 0.967702
Si Si8 0.413833 0.556030 0.780820
O O1 0.559397 0.349500 0.790413
O O2 0.642778 0.494900 0.925473
O O3 0.659168 0.258437 0.926141
O O4 0.482214 0.362534 0.116899
O O5 0.110415 0.377329 0.173658
O O6 0.219198 0.180129 0.999719
O O7 0.043413 0.229412 0.028371
O O8 0.775766 0.451300 0.023905
O O9 0.841903 0.545436 0.734081
O O10 0.642553 0.981100 0.400787
O O11 0.469137 0.018080 0.414456
O O12 0.637553 0.111101 0.167521
O O13 0.872618 0.736126 0.546535
O O14 0.963071 0.939578 0.404287
O O15 0.900868 0.918147 0.726501
O O16 0.306114 0.619551 0.878153
#
# Coordination Sequence:
#
# PCOD8056527 Si02
#       8
#     4   4   4   4   4   4   4   4
#     4  11  25  47  73 106 151 199 255 316 383 467
#     4  11  25  46  74 108 155 196 251 324 377 449
#     4  12  25  47  76 115 151 202 259 316 383 472
#     4  11  25  49  72 111 152 201 253 320 382 472
#     4  12  26  46  74 110 151 204 250 325 381 468
#     4  12  27  48  80 112 155 205 262 317 401 465
#     4  11  25  46  72 105 151 199 251 314 393 464
#     4  12  26  45  71 109 150 200 257 314 392 461
#
# _framework density 24.194050000000001
#
# number of rings (size 3 to 8) (size 9 to 14) (size 15 to 20)
#    0.000    0.500    2.500    5.250    3.500    3.000 
#    4.500    0.000    0.000    0.000    0.000    0.000 
#    0.000    0.000    0.000    0.000    0.000    0.000 
#
# Total GULP energy -198417.952268 kJ/mol
# GULP energy per Si atom -12401.122017 kJ/mol
# Density = 2.413898 g / cm^3
# Si number density = 24.194050 Si / 1000 Ang^3
#
#
#
# Elastic Constant Matrix: (Units=GPa)
#
#
# Indices 1 2 3 4 5 6 
#
# 1 89.9260 6.3563 41.7340 0.0000 -2.5506 0.0000
# 2 6.3563 85.1414 27.6754 0.0000 4.0362 0.0000
# 3 41.7340 27.6754 148.9453 0.0000 -10.0394 0.0000
# 4 0.0000 0.0000 0.0000 41.7369 0.0000 1.6859
# 5 -2.5506 4.0362 -10.0394 0.0000 46.1388 0.0000
# 6 0.0000 0.0000 0.0000 1.6859 0.0000 33.0712
#
#
#
# Elastic Compliance Matrix: (Units=1/GPa)
#
#
# Indices 1 2 3 4 5 6 
#
# 1 0.012787 0.000231 -0.003633 0.000000 -0.000104 0.000000
# 2 0.000231 0.012625 -0.002521 0.000000 -0.001640 0.000000
# 3 -0.003633 -0.002521 0.008324 0.000000 0.001831 0.000000
# 4 0.000000 0.000000 0.000000 0.024009 0.000000 -0.001224
# 5 -0.000104 -0.001640 0.001831 0.000000 0.022210 0.000000
# 6 0.000000 0.000000 0.000000 -0.001224 0.000000 0.030300
#
#
# Mechanical properties :
#
#
# Convention : Reuss Voigt Hill
#
# Bulk Modulus (GPa) = 45.68283 52.83822 49.26052
# Shear Modulus (GPa) = 38.64070 40.73919 39.68994
#
# Velocity S-wave (km/s) = 4.00073 4.10793 4.05468
# Velocity P-wave (km/s) = 6.34539 6.66235 6.50580
#
# Compressibility (1/GPa) = 0.02189006
#
# Stress axis : x y z
#
# Youngs Moduli (GPa) = 78.20482 79.20676 120.13969
#
# Poissons Ratio (x) = -0.01831 0.43644
# Poissons Ratio (y) = -0.01808 0.30290
# Poissons Ratio (z) = 0.28410 0.19970
#
# Static dielectric constant tensor:
#      x y z
#    x 4.224860 0.000000 0.314300 
#    y 0.000000 4.268690 0.000000 
#    z 0.314300 0.000000 4.493880 
# 
# 
# High freq. dielectric constant tensor:
#      x y z
#    x 1.962150 0.000000 0.016540 
#    y 0.000000 1.963910 0.000000 
#    z 0.016540 0.000000 1.969330 
# 
# From -- ./inp_files/9223.got.cif
#   From: 2010.06.25/outbox.cif.g09.slc.cpg/sg9_5_cif.got.tgz:9223.got - 2010.06.27 21:40:51.
