data_PCOD8056186
_publ_section_title
;
Structure prediction by ZEFSAII (Michael W. Deem and Ramdas Pophale) SiO2 
 PCOD8056186
Probable space group: C C
;
_chemical_formula_sum "Si O2"
_cell_formula_units_Z 32
_cell_length_a 12.470465
_cell_length_b 8.152054
_cell_length_c 15.556892
_cell_angle_alpha 90.000000
_cell_angle_beta 107.272550
_cell_angle_gamma 90.000000
_cell_volume 1510.190948
_symmetry_space_group_name_H-M "C C"
_symmetry_group_IT_number 9
_symmetry_cell_setting 'monoclinic'
loop_
_space_group_symop_operation_xyz
x,y,z
x,-y,1/2+z
1/2+x,1/2+y,z
1/2+x,1/2-y,1/2+z
loop_
_atom_site_type_symbol
_atom_site_label
_atom_site_fract_x
_atom_site_fract_y
_atom_site_fract_z
Si Si1 0.296270 0.647409 0.515180
Si Si2 0.132278 0.820535 0.375795
Si Si3 0.004180 0.641840 0.022113
Si Si4 0.558327 0.310863 0.877096
Si Si5 0.922435 0.383558 0.862357
Si Si6 0.318800 0.815413 0.275197
Si Si7 0.751436 0.104325 0.851026
Si Si8 0.721095 0.948829 0.658304
O O1 0.195474 0.780034 0.480850
O O2 0.412141 0.747308 0.547796
O O3 0.284935 0.528052 0.430498
O O4 0.285497 0.548307 0.600357
O O5 0.218565 0.793207 0.319420
O O6 0.031276 0.690234 0.341336
O O7 0.088232 0.003566 0.365105
O O8 0.087310 0.557707 0.110447
O O9 0.949439 0.502136 0.949131
O O10 0.080821 0.762730 0.981743
O O11 0.426203 0.290533 0.829790
O O12 0.629917 0.185844 0.836504
O O13 0.854008 0.493136 0.775616
O O14 0.846405 0.241327 0.881919
O O15 0.272780 0.737027 0.175208
O O16 0.748703 0.030433 0.755686
#
# Coordination Sequence:
#
# PCOD8056186 Si02
#       8
#     4   4   4   4   4   4   4   4
#     4  12  23  48  69 100 146 183 231 290 347 421
#     4  12  21  43  77  97 136 186 231 286 343 416
#     4  11  23  45  71 104 139 185 234 291 349 417
#     4  11  22  45  76  99 137 188 232 285 359 415
#     4  11  22  44  77 101 136 195 230 285 359 416
#     4  11  24  44  68 104 138 178 234 280 350 414
#     4  12  23  47  75 101 146 187 233 292 354 416
#     4  12  26  44  65 108 144 182 237 291 345 417
#
# _framework density 21.189374999999998
#
# number of rings (size 3 to 8) (size 9 to 14) (size 15 to 20)
#    0.000    0.500    7.500    2.250    0.000    2.000 
#    4.500    0.000    0.000    0.000    0.000    0.000 
#    0.000    0.000    0.000    0.000    0.000    0.000 
#
# Total GULP energy -198331.511817 kJ/mol
# GULP energy per Si atom -12395.719489 kJ/mol
# Density = 2.114115 g / cm^3
# Si number density = 21.189375 Si / 1000 Ang^3
#
#
#
# Elastic Constant Matrix: (Units=GPa)
#
#
# Indices 1 2 3 4 5 6 
#
# 1 147.6937 58.7930 40.3841 0.0000 -0.6119 0.0000
# 2 58.7930 124.0972 40.2962 0.0000 1.7688 0.0000
# 3 40.3841 40.2962 94.9494 0.0000 -2.8887 0.0000
# 4 0.0000 0.0000 0.0000 18.8468 0.0000 3.7095
# 5 -0.6119 1.7688 -2.8887 0.0000 25.9351 0.0000
# 6 0.0000 0.0000 0.0000 3.7095 0.0000 52.3812
#
#
#
# Elastic Compliance Matrix: (Units=1/GPa)
#
#
# Indices 1 2 3 4 5 6 
#
# 1 0.008750 -0.003412 -0.002268 0.000000 0.000186 0.000000
# 2 -0.003412 0.010707 -0.003128 0.000000 -0.001159 0.000000
# 3 -0.002268 -0.003128 0.012873 0.000000 0.001594 0.000000
# 4 0.000000 0.000000 0.000000 0.053809 0.000000 -0.003811
# 5 0.000186 -0.001159 0.001594 0.000000 0.038819 0.000000
# 6 0.000000 0.000000 0.000000 -0.003811 0.000000 0.019361
#
#
# Mechanical properties :
#
#
# Convention : Reuss Voigt Hill
#
# Bulk Modulus (GPa) = 67.96348 71.74297 69.85322
# Shear Modulus (GPa) = 29.96924 34.58376 32.27650
#
# Velocity S-wave (km/s) = 3.76487 4.04434 3.90710
# Velocity P-wave (km/s) = 7.14443 7.46595 7.30696
#
# Compressibility (1/GPa) = 0.01471379
#
# Stress axis : x y z
#
# Youngs Moduli (GPa) = 114.28952 93.39905 77.68448
#
# Poissons Ratio (x) = 0.31863 0.17618
# Poissons Ratio (y) = 0.38990 0.24301
# Poissons Ratio (z) = 0.25920 0.29217
#
# Static dielectric constant tensor:
#      x y z
#    x 4.104690 0.000000 0.148810 
#    y 0.000000 4.335800 0.000000 
#    z 0.148810 0.000000 3.826440 
# 
# 
# High freq. dielectric constant tensor:
#      x y z
#    x 1.848540 0.000000 0.009500 
#    y 0.000000 1.852190 0.000000 
#    z 0.009500 0.000000 1.800740 
# 
# From -- ./inp_files/24399.got.cif
#   From: 2010.06.25/outbox.cif.g09.slc.cpg/sg9_13_cif.got.tgz:24399.got - 2010.06.27 21:40:51.
