data_PCOD8056265
_publ_section_title
;
Structure prediction by ZEFSAII (Michael W. Deem and Ramdas Pophale) SiO2 
 PCOD8056265
Probable space group: C C
;
_chemical_formula_sum "Si O2"
_cell_formula_units_Z 32
_cell_length_a 17.251741
_cell_length_b 9.058275
_cell_length_c 22.143056
_cell_angle_alpha 90.000000
_cell_angle_beta 24.193753
_cell_angle_gamma 90.000000
_cell_volume 1418.119844
_symmetry_space_group_name_H-M "C C"
_symmetry_group_IT_number 9
_symmetry_cell_setting 'monoclinic'
loop_
_space_group_symop_operation_xyz
x,y,z
x,-y,1/2+z
1/2+x,1/2+y,z
1/2+x,1/2-y,1/2+z
loop_
_atom_site_type_symbol
_atom_site_label
_atom_site_fract_x
_atom_site_fract_y
_atom_site_fract_z
Si Si1 0.528120 0.713380 0.094600
Si Si2 0.826537 0.414036 0.041680
Si Si3 0.173962 0.216507 0.766954
Si Si4 0.735915 0.727722 0.155823
Si Si5 0.045822 0.905744 0.134142
Si Si6 0.945783 0.360904 0.269707
Si Si7 0.592766 0.406346 0.876694
Si Si8 0.293421 0.157797 0.354906
O O1 0.379238 0.758463 0.149804
O O2 0.461375 0.562190 0.174192
O O3 0.545984 0.834317 0.134456
O O4 0.730877 0.698814 0.918875
O O5 0.710851 0.306696 0.169307
O O6 0.837836 0.577886 0.061396
O O7 0.722360 0.428562 0.052395
O O8 0.036901 0.354137 0.877928
O O9 0.074455 0.070914 0.864247
O O10 0.555133 0.776811 0.245058
O O11 0.666026 0.706985 0.273813
O O12 0.886179 0.859316 0.046366
O O13 0.884863 0.817327 0.283274
O O14 0.114573 0.817030 0.025876
O O15 0.935884 0.538641 0.284858
O O16 0.734170 0.406493 0.832389
#
# Coordination Sequence:
#
# PCOD8056265 Si02
#       8
#     4   4   4   4   4   4   4   4
#     4  11  23  44  69  98 134 182 231 277 336 413
#     4  11  25  45  67 105 136 182 231 282 348 407
#     4  11  25  44  71 101 140 180 230 285 344 408
#     4  11  25  44  71 101 140 180 230 285 344 408
#     4  11  25  44  67 100 138 180 229 282 346 404
#     4  11  23  44  69  98 134 182 231 277 336 413
#     4  11  25  45  67 105 136 182 231 282 348 407
#     4  11  25  44  67 100 138 180 229 282 346 404
#
# _framework density 22.565089
#
# number of rings (size 3 to 8) (size 9 to 14) (size 15 to 20)
#    0.000    1.000    2.500    3.000    7.000    2.000 
#    0.000    0.000    0.000    0.000    0.000    0.000 
#    0.000    0.000    0.000    0.000    0.000    0.000 
#
# Total GULP energy -198457.296778 kJ/mol
# GULP energy per Si atom -12403.581049 kJ/mol
# Density = 2.251373 g / cm^3
# Si number density = 22.565089 Si / 1000 Ang^3
#
#
#
# Elastic Constant Matrix: (Units=GPa)
#
#
# Indices 1 2 3 4 5 6 
#
# 1 91.1252 13.8454 10.9432 -0.0053 11.8222 0.0004
# 2 13.8454 75.9451 32.3067 0.0164 -9.0289 -0.0024
# 3 10.9432 32.3067 64.1390 0.0041 -4.9409 -0.0010
# 4 -0.0053 0.0164 0.0041 48.2292 0.0066 -0.5563
# 5 11.8222 -9.0289 -4.9409 0.0066 28.9167 -0.0029
# 6 0.0004 -0.0024 -0.0010 -0.5563 -0.0029 34.3956
#
#
#
# Elastic Compliance Matrix: (Units=1/GPa)
#
#
# Indices 1 2 3 4 5 6 
#
# 1 0.012275 -0.002371 -0.001362 0.000003 -0.005991 -0.000001
# 2 -0.002371 0.017648 -0.008092 -0.000006 0.005097 0.000001
# 3 -0.001362 -0.008092 0.020011 0.000001 0.001449 0.000000
# 4 0.000003 -0.000006 0.000001 0.020738 -0.000008 0.000335
# 5 -0.005991 0.005097 0.001449 -0.000008 0.038871 0.000004
# 6 -0.000001 0.000001 0.000000 0.000335 0.000004 0.029079
#
#
# Mechanical properties :
#
#
# Convention : Reuss Voigt Hill
#
# Bulk Modulus (GPa) = 38.04488 38.37777 38.21133
# Shear Modulus (GPa) = 29.23420 33.91590 31.57505
#
# Velocity S-wave (km/s) = 3.60328 3.88109 3.74476
# Velocity P-wave (km/s) = 5.84877 6.09330 5.97229
#
# Compressibility (1/GPa) = 0.02628474
#
# Stress axis : x y z
#
# Youngs Moduli (GPa) = 81.46668 56.66385 49.97232
#
# Poissons Ratio (x) = 0.13434 0.06804
# Poissons Ratio (y) = 0.19315 0.40438
# Poissons Ratio (z) = 0.11093 0.45853
#
# Static dielectric constant tensor:
#      x y z
#    x 4.142350 0.000000 0.205230 
#    y 0.000000 4.059360 0.000020 
#    z 0.205230 0.000020 3.924860 
# 
# 
# High freq. dielectric constant tensor:
#      x y z
#    x 1.900560 0.000000 0.014840 
#    y 0.000000 1.890630 0.000000 
#    z 0.014840 0.000000 1.888610 
# 
# From -- ./inp_files/27343.got.cif
#   From: 2010.06.25/outbox.cif.g09.slc.cpg/sg9_14_cif.got.tgz:27343.got - 2010.06.27 21:40:51.
