data_PCOD8056451
_publ_section_title
;
Structure prediction by ZEFSAII (Michael W. Deem and Ramdas Pophale) SiO2 
 PCOD8056451
Probable space group: C C
;
_chemical_formula_sum "Si O2"
_cell_formula_units_Z 32
_cell_length_a 15.069777
_cell_length_b 12.510266
_cell_length_c 9.521473
_cell_angle_alpha 90.000000
_cell_angle_beta 53.662608
_cell_angle_gamma 90.000000
_cell_volume 1445.990923
_symmetry_space_group_name_H-M "C C"
_symmetry_group_IT_number 9
_symmetry_cell_setting 'monoclinic'
loop_
_space_group_symop_operation_xyz
x,y,z
x,-y,1/2+z
1/2+x,1/2+y,z
1/2+x,1/2-y,1/2+z
loop_
_atom_site_type_symbol
_atom_site_label
_atom_site_fract_x
_atom_site_fract_y
_atom_site_fract_z
Si Si1 0.541080 0.693229 0.345340
Si Si2 0.563386 0.062930 0.827434
Si Si3 0.019325 0.106857 0.066875
Si Si4 0.396751 0.399167 0.201579
Si Si5 0.152328 0.408279 0.536338
Si Si6 0.999620 0.759272 0.319761
Si Si7 0.713579 0.471823 0.795090
Si Si8 0.852878 0.561414 0.427136
O O1 0.580248 0.812993 0.282457
O O2 0.497099 0.647977 0.241896
O O3 0.434340 0.685521 0.547031
O O4 0.645903 0.632582 0.312525
O O5 0.658242 0.996922 0.654474
O O6 0.447164 0.024194 0.875311
O O7 0.573389 0.045544 0.986295
O O8 0.020897 0.207241 0.959843
O O9 0.923684 0.019430 0.124090
O O10 0.137428 0.051273 0.954205
O O11 0.269333 0.384485 0.357006
O O12 0.470476 0.369742 0.268410
O O13 0.104093 0.298286 0.647575
O O14 0.895367 0.680511 0.416288
O O15 0.750235 0.536288 0.622822
O O16 0.816719 0.442952 0.797980
#
# Coordination Sequence:
#
# PCOD8056451 Si02
#       8
#     4   4   4   4   4   4   4   4
#     4  11  25  46  72 105 143 183 244 298 365 429
#     4  11  26  47  69 104 146 186 240 300 354 448
#     4  11  26  46  69 108 141 184 242 310 346 446
#     4  11  25  47  72 102 144 194 237 299 368 435
#     4  11  27  47  72 104 148 192 240 299 372 430
#     4  11  26  46  74 102 148 189 243 296 370 437
#     4  11  24  46  72 105 140 184 238 298 365 427
#     4  11  25  45  72 104 142 190 238 296 362 436
#
# _framework density 22.130154000000001
#
# number of rings (size 3 to 8) (size 9 to 14) (size 15 to 20)
#    0.000    1.000    2.500    3.000   14.000    0.000 
#    2.250    0.000    0.000    0.000    0.000    0.000 
#    0.000    0.000    0.000    0.000    0.000    0.000 
#
# Total GULP energy -198422.286862 kJ/mol
# GULP energy per Si atom -12401.392929 kJ/mol
# Density = 2.207978 g / cm^3
# Si number density = 22.130154 Si / 1000 Ang^3
#
#
#
# Elastic Constant Matrix: (Units=GPa)
#
#
# Indices 1 2 3 4 5 6 
#
# 1 104.5112 38.6118 52.9796 0.0000 9.2628 0.0000
# 2 38.6118 115.8633 45.3988 0.0000 3.9251 0.0000
# 3 52.9796 45.3988 115.7458 0.0000 -9.2462 0.0000
# 4 0.0000 0.0000 0.0000 40.3643 0.0000 15.0023
# 5 9.2628 3.9251 -9.2462 0.0000 46.4425 0.0000
# 6 0.0000 0.0000 0.0000 15.0023 0.0000 21.1851
#
#
#
# Elastic Compliance Matrix: (Units=1/GPa)
#
#
# Indices 1 2 3 4 5 6 
#
# 1 0.013557 -0.002185 -0.005639 0.000000 -0.003642 0.000000
# 2 -0.002185 0.010682 -0.003279 0.000000 -0.001120 0.000000
# 3 -0.005639 -0.003279 0.012823 0.000000 0.003955 0.000000
# 4 0.000000 0.000000 0.000000 0.033624 0.000000 -0.023811
# 5 -0.003642 -0.001120 0.003955 0.000000 0.023140 0.000000
# 6 0.000000 0.000000 0.000000 -0.023811 0.000000 0.064065
#
#
# Mechanical properties :
#
#
# Convention : Reuss Voigt Hill
#
# Bulk Modulus (GPa) = 67.31661 67.78895 67.55278
# Shear Modulus (GPa) = 27.01974 34.87372 30.94673
#
# Velocity S-wave (km/s) = 3.49800 3.97400 3.74357
# Velocity P-wave (km/s) = 6.84099 7.19412 7.01978
#
# Compressibility (1/GPa) = 0.01485517
#
# Stress axis : x y z
#
# Youngs Moduli (GPa) = 73.76211 93.61755 77.98516
#
# Poissons Ratio (x) = 0.20454 0.43979
# Poissons Ratio (y) = 0.16116 0.25572
# Poissons Ratio (z) = 0.41597 0.30698
#
# Static dielectric constant tensor:
#      x y z
#    x 3.820400 0.000000 0.136460 
#    y 0.000000 3.928640 0.000000 
#    z 0.136460 0.000000 4.285120 
# 
# 
# High freq. dielectric constant tensor:
#      x y z
#    x 1.862340 0.000000 0.007560 
#    y 0.000000 1.871660 0.000000 
#    z 0.007560 0.000000 1.889170 
# 
# From -- ./inp_files/9241.got.cif
#   From: 2010.06.25/outbox.cif.g09.slc.cpg/sg9_5_cif.got.tgz:9241.got - 2010.06.27 21:40:51.
