data_PCOD8056569
_publ_section_title
;
Structure prediction by ZEFSAII (Michael W. Deem and Ramdas Pophale) SiO2 
 PCOD8056569
Probable space group: C C
;
_chemical_formula_sum "Si O2"
_cell_formula_units_Z 28
_cell_length_a 16.196927
_cell_length_b 8.785289
_cell_length_c 12.851560
_cell_angle_alpha 90.000000
_cell_angle_beta 37.490284
_cell_angle_gamma 90.000000
_cell_volume 1113.001268
_symmetry_space_group_name_H-M "C C"
_symmetry_group_IT_number 9
_symmetry_cell_setting 'monoclinic'
loop_
_space_group_symop_operation_xyz
x,y,z
x,-y,1/2+z
1/2+x,1/2+y,z
1/2+x,1/2-y,1/2+z
loop_
_atom_site_type_symbol
_atom_site_label
_atom_site_fract_x
_atom_site_fract_y
_atom_site_fract_z
Si Si1 0.596100 0.921351 0.200880
Si Si2 0.596100 0.921351 0.442826
Si Si3 0.042592 0.000000 0.625362
Si Si4 0.697758 0.248302 0.096440
Si Si5 0.197758 0.251698 0.843950
Si Si6 0.357546 0.260593 0.255190
Si Si7 0.357546 0.739407 0.365625
O O1 0.612210 0.943245 0.305743
O O2 0.438850 0.882483 0.331788
O O3 0.627686 0.909384 0.957600
O O4 0.703801 0.786620 0.061903
O O5 0.627686 0.909384 0.622934
O O6 0.438850 0.882483 0.626419
O O7 0.703801 0.786620 0.366400
O O8 0.127461 0.104532 0.618052
O O9 0.949093 0.093447 0.638228
O O10 0.127461 0.895468 0.462932
O O11 0.949093 0.906553 0.799492
O O12 0.710701 0.259270 0.207252
O O13 0.846700 0.252626 0.893118
O O14 0.346700 0.247374 0.749389
#
# Coordination Sequence:
#
# PCOD8056569 Si02
#       7
#     4   4   4   4   4   4   4
#     4  11  25  49  81 115 155 201 254 316 385 454
#     4  11  25  49  81 115 155 201 254 316 385 454
#     4  12  26  46  78 108 160 198 254 312 380 452
#     4  11  27  51  80 113 154 205 256 315 386 455
#     4  11  27  51  80 113 154 205 256 315 386 455
#     4  12  24  50  77 112 155 200 253 320 377 450
#     4  12  24  50  77 112 155 200 253 320 377 450
#
# _framework density 25.157205999999999
#
# number of rings (size 3 to 8) (size 9 to 14) (size 15 to 20)
#    0.000    0.571    5.714    0.857    0.000    5.714 
#    0.000    2.857    0.000    1.714    0.000    0.000 
#    0.000    0.000    0.000    0.000    0.000    0.000 
#
# Total GULP energy -173454.629557 kJ/mol
# GULP energy per Si atom -12389.616397 kJ/mol
# Density = 2.509995 g / cm^3
# Si number density = 25.157206 Si / 1000 Ang^3
#
#
#
# Elastic Constant Matrix: (Units=GPa)
#
#
# Indices 1 2 3 4 5 6 
#
# 1 112.6814 58.2334 42.6341 0.0000 -14.2683 0.0000
# 2 58.2334 117.0298 58.2301 0.0000 0.6183 0.0000
# 3 42.6341 58.2301 112.8381 0.0000 -14.2357 0.0000
# 4 0.0000 0.0000 0.0000 37.4890 0.0000 2.1750
# 5 -14.2683 0.6183 -14.2357 0.0000 29.1448 0.0000
# 6 0.0000 0.0000 0.0000 2.1750 0.0000 37.5010
#
#
#
# Elastic Compliance Matrix: (Units=1/GPa)
#
#
# Indices 1 2 3 4 5 6 
#
# 1 0.013178 -0.006043 -0.001098 0.000000 0.006043 0.000000
# 2 -0.006043 0.014583 -0.006026 0.000000 -0.006211 0.000000
# 3 -0.001098 -0.006026 0.013145 0.000000 0.006011 0.000000
# 4 0.000000 0.000000 0.000000 0.026765 0.000000 -0.001552
# 5 0.006043 -0.006211 0.006011 0.000000 0.040338 0.000000
# 6 0.000000 0.000000 0.000000 -0.001552 0.000000 0.026756
#
#
# Mechanical properties :
#
#
# Convention : Reuss Voigt Hill
#
# Bulk Modulus (GPa) = 68.62385 73.41606 71.01995
# Shear Modulus (GPa) = 30.12839 33.05707 31.59273
#
# Velocity S-wave (km/s) = 3.46440 3.62887 3.54759
# Velocity P-wave (km/s) = 6.58331 6.84139 6.71359
#
# Compressibility (1/GPa) = 0.01457219
#
# Stress axis : x y z
#
# Youngs Moduli (GPa) = 75.88207 68.57387 76.07324
#
# Poissons Ratio (x) = 0.41439 0.08356
# Poissons Ratio (y) = 0.45855 0.45841
# Poissons Ratio (z) = 0.08335 0.41322
#
# Static dielectric constant tensor:
#      x y z
#    x 4.627820 0.000000 -0.049160 
#    y 0.000000 4.839660 0.000000 
#    z -0.049160 0.000000 4.628090 
# 
# 
# High freq. dielectric constant tensor:
#      x y z
#    x 2.003910 0.000000 -0.002950 
#    y 0.000000 2.019210 0.000000 
#    z -0.002950 0.000000 2.003920 
# 
# From -- ./inp_files/19265.got.cif
#   From: 2010.06.25/outbox.cif.g09.slc.cpg/sg9_10_cif.got.tgz:19265.got - 2010.06.27 21:40:51.
