data_PCOD8056715
_publ_section_title
;
Structure prediction by ZEFSAII (Michael W. Deem and Ramdas Pophale) SiO2 
 PCOD8056715
Probable space group: C C
;
_chemical_formula_sum "Si O2"
_cell_formula_units_Z 32
_cell_length_a 28.775745
_cell_length_b 8.305469
_cell_length_c 12.678821
_cell_angle_alpha 90.000000
_cell_angle_beta 154.383278
_cell_angle_gamma 90.000000
_cell_volume 1310.098655
_symmetry_space_group_name_H-M "C C"
_symmetry_group_IT_number 9
_symmetry_cell_setting 'monoclinic'
loop_
_space_group_symop_operation_xyz
x,y,z
x,-y,1/2+z
1/2+x,1/2+y,z
1/2+x,1/2-y,1/2+z
loop_
_atom_site_type_symbol
_atom_site_label
_atom_site_fract_x
_atom_site_fract_y
_atom_site_fract_z
Si Si1 0.686690 0.100129 0.244180
Si Si2 0.759129 0.767733 0.677275
Si Si3 0.570948 0.719203 0.154235
Si Si4 0.497008 0.984305 0.617548
Si Si5 0.132334 0.723339 0.559498
Si Si6 0.373480 0.511697 0.758547
Si Si7 0.454233 0.797122 0.341723
Si Si8 0.823439 0.439607 0.897059
O O1 0.689675 0.152402 0.128363
O O2 0.787732 0.136204 0.528659
O O3 0.694256 0.905385 0.259528
O O4 0.578956 0.181110 0.068129
O O5 0.684016 0.670071 0.439793
O O6 0.823715 0.630847 0.873921
O O7 0.826369 0.913082 0.761956
O O8 0.566312 0.910599 0.176405
O O9 0.566686 0.684940 0.018438
O O10 0.473433 0.617698 0.004787
O O11 0.415708 0.116284 0.503524
O O12 0.433401 0.849897 0.420223
O O13 0.562305 0.880098 0.835972
O O14 0.210314 0.845567 0.655082
O O15 0.420135 0.388970 0.764887
O O16 0.372241 0.911115 0.111649
#
# Coordination Sequence:
#
# PCOD8056715 Si02
#       8
#     4   4   4   4   4   4   4   4
#     4  12  26  46  77 103 154 198 244 316 387 448
#     4  12  27  49  71 116 151 198 263 317 379 468
#     4  12  27  50  77 111 154 200 257 317 383 463
#     4  12  25  48  75 105 152 202 251 310 388 452
#     4  12  26  50  73 111 155 197 255 314 381 466
#     4  12  29  50  78 109 156 201 259 315 389 459
#     4  12  25  50  72 108 149 201 248 318 376 461
#     4  12  27  45  77 109 153 199 255 317 385 453
#
# _framework density 24.425642
#
# number of rings (size 3 to 8) (size 9 to 14) (size 15 to 20)
#    0.000    0.000    7.500    0.000    8.750    1.000 
#    0.000    0.000    0.000    0.000    0.000    0.000 
#    0.000    0.000    0.000    0.000    0.000    0.000 
#
# Total GULP energy -198243.788403 kJ/mol
# GULP energy per Si atom -12390.236775 kJ/mol
# Density = 2.437005 g / cm^3
# Si number density = 24.425642 Si / 1000 Ang^3
#
#
#
# Elastic Constant Matrix: (Units=GPa)
#
#
# Indices 1 2 3 4 5 6 
#
# 1 135.9603 49.2738 51.8470 0.0000 0.2689 0.0000
# 2 49.2738 75.3746 50.3876 0.0000 5.0588 0.0000
# 3 51.8470 50.3876 123.3194 0.0000 4.0271 0.0000
# 4 0.0000 0.0000 0.0000 37.9241 0.0000 4.2804
# 5 0.2689 5.0588 4.0271 0.0000 38.7265 0.0000
# 6 0.0000 0.0000 0.0000 4.2804 0.0000 43.5098
#
#
#
# Elastic Compliance Matrix: (Units=1/GPa)
#
#
# Indices 1 2 3 4 5 6 
#
# 1 0.010050 -0.005205 -0.002126 0.000000 0.000831 0.000000
# 2 -0.005205 0.021049 -0.006345 0.000000 -0.002054 0.000000
# 3 -0.002126 -0.006345 0.011607 0.000000 -0.000363 0.000000
# 4 0.000000 0.000000 0.000000 0.026665 0.000000 -0.002623
# 5 0.000831 -0.002054 -0.000363 0.000000 0.026122 0.000000
# 6 0.000000 0.000000 0.000000 -0.002623 0.000000 0.023241
#
#
# Mechanical properties :
#
#
# Convention : Reuss Voigt Hill
#
# Bulk Modulus (GPa) = 65.12575 70.85235 67.98905
# Shear Modulus (GPa) = 33.06756 36.24180 34.65468
#
# Velocity S-wave (km/s) = 3.68340 3.85614 3.77076
# Velocity P-wave (km/s) = 6.69408 6.99262 6.84498
#
# Compressibility (1/GPa) = 0.01535491
#
# Stress axis : x y z
#
# Youngs Moduli (GPa) = 99.49811 47.50789 86.15205
#
# Poissons Ratio (x) = 0.24727 0.18316
# Poissons Ratio (y) = 0.51786 0.54666
# Poissons Ratio (z) = 0.21153 0.30145
#
# Static dielectric constant tensor:
#      x y z
#    x 4.695100 0.000000 0.100350 
#    y 0.000000 4.298540 0.000000 
#    z 0.100350 0.000000 4.309770 
# 
# 
# High freq. dielectric constant tensor:
#      x y z
#    x 1.989290 0.000000 0.003690 
#    y 0.000000 1.954790 0.000000 
#    z 0.003690 0.000000 1.973500 
# 
# From -- ./inp_files/21429.got.cif
#   From: 2010.06.25/outbox.cif.g09.slc.cpg/sg9_11_cif.got.tgz:21429.got - 2010.06.27 21:40:51.
