data_PCOD8056907
_publ_section_title
;
Structure prediction by ZEFSAII (Michael W. Deem and Ramdas Pophale) SiO2 
 PCOD8056907
Probable space group: P 2/M
;
_chemical_formula_sum "Si O2"
_cell_formula_units_Z 26
_cell_length_a 15.659759
_cell_length_b 8.082070
_cell_length_c 12.143675
_cell_angle_alpha 90.000000
_cell_angle_beta 73.054505
_cell_angle_gamma 90.000000
_cell_volume 1470.212897
_symmetry_space_group_name_H-M "P 2/M"
_symmetry_group_IT_number 10
_symmetry_cell_setting 'monoclinic'
loop_
_space_group_symop_operation_xyz
x,y,z
-x,y,-z
-x,-y,-z
x,-y,z
loop_
_atom_site_type_symbol
_atom_site_label
_atom_site_fract_x
_atom_site_fract_y
_atom_site_fract_z
Si Si1 0.985136 0.820803 0.635575
Si Si2 0.625733 0.810990 0.935907
Si Si3 0.742979 0.500000 0.591633
Si Si4 0.427218 0.177876 0.622951
Si Si5 0.934282 0.500000 0.418319
Si Si6 0.476707 0.310908 0.830917
Si Si7 0.392274 0.500000 0.546588
Si Si8 0.779217 0.812078 0.724256
O O1 0.883254 0.780778 0.703965
O O2 0.000000 0.831406 0.500000
O O3 0.044212 0.667545 0.659532
O O4 0.012986 0.000000 0.676442
O O5 0.566337 0.728264 0.863320
O O6 0.728995 0.795006 0.860581
O O7 0.595884 0.000000 0.960416
O O8 0.609520 0.721201 0.058483
O O9 0.830608 0.500000 0.483751
O O10 0.652384 0.500000 0.555859
O O11 0.740434 0.670238 0.660265
O O12 0.500000 0.174265 0.500000
O O13 0.474084 0.198385 0.723576
O O14 0.361229 0.333467 0.623721
O O15 0.376190 0.000000 0.642025
O O16 0.000000 0.500000 0.500000
O O17 0.476727 0.500000 0.792490
O O18 0.500000 0.500000 0.500000
O O19 0.763576 0.000000 0.682401
#
# Coordination Sequence:
#
# PCOD8056907 Si02
#       8
#     4   4   2   4   2   4   2   4
#     4   9  15  28  45  68 104 135 164 201 245 312
#     4  10  21  33  48  74 103 136 175 213 262 317
#     4  12  22  32  53  70 110 142 174 223 252 309
#     4  10  21  37  55  70  91 129 175 220 259 296
#     4  10  16  30  46  74  95 142 170 194 266 313
#     4  11  21  35  52  72  99 135 177 221 268 306
#     4  10  24  38  47  72 100 134 183 222 257 293
#     4  10  21  31  48  77 105 140 175 205 253 313
#
# _framework density 17.684514
#
# number of rings (size 3 to 8) (size 9 to 14) (size 15 to 20)
#    0.000    1.846    3.846    2.769    6.462    0.615 
#    0.000    0.000    0.000    0.000    0.000    0.000 
#    0.000    2.462    0.000    7.077    0.000    0.154 
#
# Total GULP energy -322115.012673 kJ/mol
# GULP energy per Si atom -12389.038949 kJ/mol
# Density = 1.764426 g / cm^3
# Si number density = 17.684514 Si / 1000 Ang^3
#
#
#
# Elastic Constant Matrix: (Units=GPa)
#
#
# Indices 1 2 3 4 5 6 
#
# 1 47.5202 14.6141 25.1483 0.0000 -16.8382 0.0000
# 2 14.6141 166.2705 22.5764 0.0000 8.1400 0.0000
# 3 25.1483 22.5764 83.5331 0.0000 -6.6307 0.0000
# 4 0.0000 0.0000 0.0000 26.0935 0.0000 -0.7243
# 5 -16.8382 8.1400 -6.6307 0.0000 26.2331 0.0000
# 6 0.0000 0.0000 0.0000 -0.7243 0.0000 19.5142
#
#
#
# Elastic Compliance Matrix: (Units=1/GPa)
#
#
# Indices 1 2 3 4 5 6 
#
# 1 0.033107 -0.002870 -0.007586 0.000000 0.020223 0.000000
# 2 -0.002870 0.006645 -0.001267 0.000000 -0.004224 0.000000
# 3 -0.007586 -0.001267 0.014534 0.000000 -0.000802 0.000000
# 4 0.000000 0.000000 0.000000 0.038363 0.000000 0.001424
# 5 0.020223 -0.004224 -0.000802 0.000000 0.052208 0.000000
# 6 0.000000 0.000000 0.000000 0.001424 0.000000 0.051297
#
#
# Mechanical properties :
#
#
# Convention : Reuss Voigt Hill
#
# Bulk Modulus (GPa) = 32.42600 46.88905 39.65753
# Shear Modulus (GPa) = 21.75027 30.03382 25.89205
#
# Velocity S-wave (km/s) = 3.51080 4.12553 3.83052
# Velocity P-wave (km/s) = 5.90000 7.01891 6.48363
#
# Compressibility (1/GPa) = 0.03083945
#
# Stress axis : x y z
#
# Youngs Moduli (GPa) = 30.20527 150.47915 68.80404
#
# Poissons Ratio (x) = 0.43185 0.52196
# Poissons Ratio (y) = 0.08668 0.08720
# Poissons Ratio (z) = 0.22914 0.19072
#
# Static dielectric constant tensor:
#      x y z
#    x 2.931210 0.000000 -0.305950 
#    y 0.000000 4.742420 0.000000 
#    z -0.305950 0.000000 3.183520 
# 
# 
# High freq. dielectric constant tensor:
#      x y z
#    x 1.632300 0.000000 -0.033070 
#    y 0.000000 1.727370 0.000000 
#    z -0.033070 0.000000 1.651510 
# 
# From -- ./inp_files/48757.got.cif
#   From: 2010.06.25/outbox.cif.g09.slc.cpg/sg10_25_cif.got.tgz:48757.got - 2010.06.27 22:07:45.
