data_PCOD8056746
_publ_section_title
;
Structure prediction by ZEFSAII (Michael W. Deem and Ramdas Pophale) SiO2 
 PCOD8056746
Probable space group: C C
;
_chemical_formula_sum "Si O2"
_cell_formula_units_Z 20
_cell_length_a 7.221547
_cell_length_b 26.016943
_cell_length_c 4.892973
_cell_angle_alpha 90.000000
_cell_angle_beta 112.843996
_cell_angle_gamma 90.000000
_cell_volume 847.199027
_symmetry_space_group_name_H-M "C C"
_symmetry_group_IT_number 9
_symmetry_cell_setting 'monoclinic'
loop_
_space_group_symop_operation_xyz
x,y,z
x,-y,1/2+z
1/2+x,1/2+y,z
1/2+x,1/2-y,1/2+z
loop_
_atom_site_type_symbol
_atom_site_label
_atom_site_fract_x
_atom_site_fract_y
_atom_site_fract_z
Si Si1 0.752930 0.886816 0.638740
Si Si2 0.901481 0.536132 0.005755
Si Si3 0.520836 0.207847 0.814229
Si Si4 0.255564 0.800298 0.675340
Si Si5 0.019206 0.102744 0.815068
O O1 0.550177 0.915534 0.606851
O O2 0.697560 0.828949 0.519844
O O3 0.855666 0.916064 0.442780
O O4 0.912480 0.883497 0.972305
O O5 0.946221 0.500288 0.282694
O O6 0.674857 0.556690 0.860870
O O7 0.398341 0.178923 0.501980
O O8 0.612367 0.258111 0.728114
O O9 0.380129 0.223387 0.991175
O O10 0.125369 0.847036 0.493229
#
# Coordination Sequence:
#
# PCOD8056746 Si02
#       5
#     4   4   4   4   4
#     4  12  27  49  79 110 154 197 251 313 379 449
#     4  12  28  50  80 110 150 194 252 318 382 444
#     4  12  26  47  74 110 157 202 255 312 373 452
#     4  12  26  47  74 110 157 202 255 312 373 452
#     4  12  27  49  79 110 154 197 251 313 379 449
#
# _framework density 23.607206999999999
#
# number of rings (size 3 to 8) (size 9 to 14) (size 15 to 20)
#    0.000    0.000    2.000    7.200    2.800    8.000 
#    0.000    0.000    0.000    0.000    0.000    0.000 
#    0.000    0.000    0.000    0.000    0.000    0.000 
#
# Total GULP energy -124059.933771 kJ/mol
# GULP energy per Si atom -12405.993377 kJ/mol
# Density = 2.355348 g / cm^3
# Si number density = 23.607207 Si / 1000 Ang^3
#
#
#
# Elastic Constant Matrix: (Units=GPa)
#
#
# Indices 1 2 3 4 5 6 
#
# 1 121.8044 18.0723 17.8288 0.0000 -23.5091 0.0000
# 2 18.0723 77.7010 31.4852 0.0000 -0.5491 0.0000
# 3 17.8288 31.4852 145.8054 0.0000 -11.8123 0.0000
# 4 0.0000 0.0000 0.0000 33.7723 0.0000 -7.0330
# 5 -23.5091 -0.5491 -11.8123 0.0000 51.3015 0.0000
# 6 0.0000 0.0000 0.0000 -7.0330 0.0000 27.9960
#
#
#
# Elastic Compliance Matrix: (Units=1/GPa)
#
#
# Indices 1 2 3 4 5 6 
#
# 1 0.009369 -0.001998 -0.000375 0.000000 0.004186 0.000000
# 2 -0.001998 0.014546 -0.003015 0.000000 -0.001454 0.000000
# 3 -0.000375 -0.003015 0.007682 0.000000 0.001565 0.000000
# 4 0.000000 0.000000 0.000000 0.031245 0.000000 0.007849
# 5 0.004186 -0.001454 0.001565 0.000000 0.021755 0.000000
# 6 0.000000 0.000000 0.000000 0.007849 0.000000 0.037691
#
#
# Mechanical properties :
#
#
# Convention : Reuss Voigt Hill
#
# Bulk Modulus (GPa) = 48.02539 53.34260 50.68399
# Shear Modulus (GPa) = 35.71349 41.14225 38.42787
#
# Velocity S-wave (km/s) = 3.89372 4.17920 4.03898
# Velocity P-wave (km/s) = 6.37200 6.77735 6.57780
#
# Compressibility (1/GPa) = 0.02082232
#
# Stress axis : x y z
#
# Youngs Moduli (GPa) = 106.73460 68.74897 130.17368
#
# Poissons Ratio (x) = 0.13733 0.04884
# Poissons Ratio (y) = 0.21320 0.39241
# Poissons Ratio (z) = 0.04005 0.20724
#
# Static dielectric constant tensor:
#      x y z
#    x 4.772580 0.000000 -0.092270 
#    y 0.000000 4.025970 0.000000 
#    z -0.092270 0.000000 4.709650 
# 
# 
# High freq. dielectric constant tensor:
#      x y z
#    x 1.959450 0.000000 -0.004120 
#    y 0.000000 1.924150 0.000000 
#    z -0.004120 0.000000 1.962290 
# 
# From -- ./inp_files/627.got.cif
#   From: 2010.06.25/outbox.cif.g09.slc.cpg/sg9_1_cif.got.tgz:627.got - 2010.06.27 21:40:51.
