data_PCOD8056366
_publ_section_title
;
Structure prediction by ZEFSAII (Michael W. Deem and Ramdas Pophale) SiO2 
 PCOD8056366
Probable space group: C C
;
_chemical_formula_sum "Si O2"
_cell_formula_units_Z 24
_cell_length_a 9.168118
_cell_length_b 23.952887
_cell_length_c 9.244996
_cell_angle_alpha 90.000000
_cell_angle_beta 149.425690
_cell_angle_gamma 90.000000
_cell_volume 1032.686434
_symmetry_space_group_name_H-M "C C"
_symmetry_group_IT_number 9
_symmetry_cell_setting 'monoclinic'
loop_
_space_group_symop_operation_xyz
x,y,z
x,-y,1/2+z
1/2+x,1/2+y,z
1/2+x,1/2-y,1/2+z
loop_
_atom_site_type_symbol
_atom_site_label
_atom_site_fract_x
_atom_site_fract_y
_atom_site_fract_z
Si Si1 0.778910 0.212673 0.450920
Si Si2 0.830201 0.871670 0.758130
Si Si3 0.512163 0.592189 0.105699
Si Si4 0.636740 0.888388 0.026573
Si Si5 0.808737 0.440211 0.290670
Si Si6 0.114147 0.508830 0.315840
O O1 0.855784 0.187992 0.357513
O O2 0.621914 0.166900 0.416744
O O3 0.077620 0.233236 0.771580
O O4 0.972322 0.873451 0.720746
O O5 0.492498 0.883162 0.458207
O O6 0.976524 0.920923 0.984613
O O7 0.844499 0.592169 0.352141
O O8 0.359121 0.624528 0.844098
O O9 0.390306 0.528199 0.002408
O O10 0.739850 0.939008 0.012539
O O11 0.903520 0.470994 0.228229
O O12 0.887629 0.476079 0.497729
#
# Coordination Sequence:
#
# PCOD8056366 Si02
#       6
#     4   4   4   4   4   4
#     4  12  27  50  75 105 132 183 248 308 363 406
#     4  11  25  46  69  99 142 183 237 290 340 426
#     4  11  26  46  68 108 146 193 227 277 363 431
#     4  12  26  44  73 102 146 186 236 296 346 420
#     4  11  24  39  66 102 144 186 230 271 344 424
#     4  11  24  41  67 106 148 189 222 278 344 435
#
# _framework density 23.240355000000001
#
# number of rings (size 3 to 8) (size 9 to 14) (size 15 to 20)
#    0.000    0.667    3.333    4.000    4.667    2.667 
#    0.000    5.000    0.000    0.000    0.000    0.000 
#    0.000    0.000    0.000    0.000    0.000    0.000 
#
# Total GULP energy -148804.022554 kJ/mol
# GULP energy per Si atom -12400.335213 kJ/mol
# Density = 2.318746 g / cm^3
# Si number density = 23.240355 Si / 1000 Ang^3
#
#
#
# Elastic Constant Matrix: (Units=GPa)
#
#
# Indices 1 2 3 4 5 6 
#
# 1 102.0272 30.9871 13.8240 0.0000 -18.8184 0.0000
# 2 30.9871 93.1423 -4.5523 0.0000 -7.2046 0.0000
# 3 13.8240 -4.5523 62.9061 0.0000 -10.4571 0.0000
# 4 0.0000 0.0000 0.0000 44.0843 0.0000 6.2618
# 5 -18.8184 -7.2046 -10.4571 0.0000 31.4512 0.0000
# 6 0.0000 0.0000 0.0000 6.2618 0.0000 51.7310
#
#
#
# Elastic Compliance Matrix: (Units=1/GPa)
#
#
# Indices 1 2 3 4 5 6 
#
# 1 0.012281 -0.003733 -0.002000 0.000000 0.005828 0.000000
# 2 -0.003733 0.012162 0.001897 0.000000 0.001183 0.000000
# 3 -0.002000 0.001897 0.017303 0.000000 0.004991 0.000000
# 4 0.000000 0.000000 0.000000 0.023081 0.000000 -0.002794
# 5 0.005828 0.001183 0.004991 0.000000 0.037213 0.000000
# 6 0.000000 0.000000 0.000000 -0.002794 0.000000 0.019669
#
#
# Mechanical properties :
#
#
# Convention : Reuss Voigt Hill
#
# Bulk Modulus (GPa) = 29.34684 37.62147 33.48416
# Shear Modulus (GPa) = 35.52686 39.97442 37.75064
#
# Velocity S-wave (km/s) = 3.91406 4.15184 4.03470
# Velocity P-wave (km/s) = 5.75165 6.26154 6.01200
#
# Compressibility (1/GPa) = 0.03407521
#
# Stress axis : x y z
#
# Youngs Moduli (GPa) = 81.42704 82.22117 57.79282
#
# Poissons Ratio (x) = 0.30690 0.11559
# Poissons Ratio (y) = 0.30394 -0.10964
# Poissons Ratio (z) = 0.16286 -0.15599
#
# Static dielectric constant tensor:
#      x y z
#    x 4.351160 0.000000 -0.162540 
#    y 0.000000 3.396480 0.000000 
#    z -0.162540 0.000000 4.443500 
# 
# 
# High freq. dielectric constant tensor:
#      x y z
#    x 1.937280 0.000000 -0.004500 
#    y 0.000000 1.889650 0.000000 
#    z -0.004500 0.000000 1.938690 
# 
# From -- ./inp_files/6421.got.cif
#   From: 2010.06.25/outbox.cif.g09.slc.cpg/sg9_4_cif.got.tgz:6421.got - 2010.06.27 21:40:51.
