data_PCOD8056738
_publ_section_title
;
Structure prediction by ZEFSAII (Michael W. Deem and Ramdas Pophale) SiO2 
 PCOD8056738
Probable space group: C C
;
_chemical_formula_sum "Si O2"
_cell_formula_units_Z 20
_cell_length_a 5.419925
_cell_length_b 30.978555
_cell_length_c 4.927447
_cell_angle_alpha 90.000000
_cell_angle_beta 99.406169
_cell_angle_gamma 90.000000
_cell_volume 816.201724
_symmetry_space_group_name_H-M "C C"
_symmetry_group_IT_number 9
_symmetry_cell_setting 'monoclinic'
loop_
_space_group_symop_operation_xyz
x,y,z
x,-y,1/2+z
1/2+x,1/2+y,z
1/2+x,1/2-y,1/2+z
loop_
_atom_site_type_symbol
_atom_site_label
_atom_site_fract_x
_atom_site_fract_y
_atom_site_fract_z
Si Si1 0.662870 0.862331 0.195600
Si Si2 0.801845 0.711928 0.578288
Si Si3 0.010642 0.801254 0.527787
Si Si4 0.596821 0.918351 0.669707
Si Si5 0.595615 0.470985 0.712405
O O1 0.512369 0.888172 0.402470
O O2 0.915518 0.846501 0.389048
O O3 0.537616 0.818370 0.067350
O O4 0.707580 0.892133 0.944372
O O5 0.749658 0.711721 0.889470
O O6 0.820862 0.760866 0.471645
O O7 0.580491 0.691334 0.354936
O O8 0.344049 0.942777 0.708098
O O9 0.829869 0.947522 0.610733
O O10 0.604927 0.512857 0.522595
#
# Coordination Sequence:
#
# PCOD8056738 Si02
#       5
#     4   4   4   4   4
#     4  12  28  45  69 108 152 190 246 316 361 429
#     4  12  26  44  69  98 143 199 258 303 361 427
#     4  12  26  44  69  98 143 199 258 303 361 427
#     4  12  28  47  78 116 149 190 239 310 380 427
#     4  12  26  52  81 110 147 190 239 292 373 478
#
# _framework density 24.503746
#
# number of rings (size 3 to 8) (size 9 to 14) (size 15 to 20)
#    0.000    0.000    2.000    7.200   11.200    0.000 
#    0.000    0.000    0.000    0.000    0.000    0.000 
#    0.000    0.000    0.000    0.000    0.000    0.000 
#
# Total GULP energy -123992.198849 kJ/mol
# GULP energy per Si atom -12399.219885 kJ/mol
# Density = 2.444797 g / cm^3
# Si number density = 24.503746 Si / 1000 Ang^3
#
#
#
# Elastic Constant Matrix: (Units=GPa)
#
#
# Indices 1 2 3 4 5 6 
#
# 1 111.3518 32.7459 0.3819 0.0000 -5.5860 0.0000
# 2 32.7459 94.2277 26.5087 0.0000 -4.5104 0.0000
# 3 0.3819 26.5087 111.1168 0.0000 -3.8209 0.0000
# 4 0.0000 0.0000 0.0000 50.1014 0.0000 -0.0712
# 5 -5.5860 -4.5104 -3.8209 0.0000 38.6976 0.0000
# 6 0.0000 0.0000 0.0000 -0.0712 0.0000 25.9997
#
#
#
# Elastic Compliance Matrix: (Units=1/GPa)
#
#
# Indices 1 2 3 4 5 6 
#
# 1 0.010126 -0.003716 0.000890 0.000000 0.001116 0.000000
# 2 -0.003716 0.012783 -0.003014 0.000000 0.000656 0.000000
# 3 0.000890 -0.003014 0.009741 0.000000 0.000739 0.000000
# 4 0.000000 0.000000 0.000000 0.019960 0.000000 0.000055
# 5 0.001116 0.000656 0.000739 0.000000 0.026152 0.000000
# 6 0.000000 0.000000 0.000000 0.000055 0.000000 0.038462
#
#
# Mechanical properties :
#
#
# Convention : Reuss Voigt Hill
#
# Bulk Modulus (GPa) = 47.68686 48.44101 48.06393
# Shear Modulus (GPa) = 36.79309 40.09706 38.44508
#
# Velocity S-wave (km/s) = 3.87916 4.04959 3.96529
# Velocity P-wave (km/s) = 6.29024 6.45580 6.37356
#
# Compressibility (1/GPa) = 0.02097014
#
# Stress axis : x y z
#
# Youngs Moduli (GPa) = 98.75270 78.22643 102.65868
#
# Poissons Ratio (x) = 0.29069 -0.09138
# Poissons Ratio (y) = 0.36697 0.30945
# Poissons Ratio (z) = -0.08790 0.23580
#
# Static dielectric constant tensor:
#      x y z
#    x 4.147350 0.000000 -0.051830 
#    y 0.000000 4.504700 0.000000 
#    z -0.051830 0.000000 4.652950 
# 
# 
# High freq. dielectric constant tensor:
#      x y z
#    x 1.967610 0.000000 -0.003750 
#    y 0.000000 1.978990 0.000000 
#    z -0.003750 0.000000 1.996080 
# 
# From -- ./inp_files/231.got.cif
#   From: 2010.06.25/outbox.cif.g09.slc.cpg/sg9_1_cif.got.tgz:231.got - 2010.06.27 21:40:51.
