data_PCOD8056742
_publ_section_title
;
Structure prediction by ZEFSAII (Michael W. Deem and Ramdas Pophale) SiO2 
 PCOD8056742
Probable space group: C C
;
_chemical_formula_sum "Si O2"
_cell_formula_units_Z 28
_cell_length_a 12.268905
_cell_length_b 6.481959
_cell_length_c 15.681146
_cell_angle_alpha 90.000000
_cell_angle_beta 68.609871
_cell_angle_gamma 90.000000
_cell_volume 1161.167612
_symmetry_space_group_name_H-M "C C"
_symmetry_group_IT_number 9
_symmetry_cell_setting 'monoclinic'
loop_
_space_group_symop_operation_xyz
x,y,z
x,-y,1/2+z
1/2+x,1/2+y,z
1/2+x,1/2-y,1/2+z
loop_
_atom_site_type_symbol
_atom_site_label
_atom_site_fract_x
_atom_site_fract_y
_atom_site_fract_z
Si Si1 0.915500 0.085122 0.470590
Si Si2 0.734159 0.754849 0.583534
Si Si3 0.263767 0.329537 0.244115
Si Si4 0.846063 0.781417 0.815206
Si Si5 0.912308 0.444698 0.593325
Si Si6 0.674226 0.554532 0.421141
Si Si7 0.565150 0.055165 0.682992
O O1 0.899852 0.076630 0.373737
O O2 0.924572 0.323686 0.500843
O O3 0.039659 0.983117 0.455612
O O4 0.810745 0.961986 0.545409
O O5 0.807235 0.605074 0.621996
O O6 0.700705 0.641003 0.506646
O O7 0.619340 0.821334 0.671460
O O8 0.301291 0.567338 0.252507
O O9 0.207365 0.231089 0.344153
O O10 0.166731 0.304398 0.195306
O O11 0.380291 0.215477 0.178729
O O12 0.739172 0.658198 0.885711
O O13 0.941728 0.608310 0.761821
O O14 0.032490 0.563667 0.589543
#
# Coordination Sequence:
#
# PCOD8056742 Si02
#       7
#     4   4   4   4   4   4   4
#     4  12  26  46  73 105 146 193 248 303 367 439
#     4  12  27  48  73 110 145 197 249 303 369 445
#     4  12  27  47  73 108 146 192 245 302 376 439
#     4  12  27  48  73 110 145 197 249 303 369 445
#     4  12  27  47  73 108 146 192 245 302 376 439
#     4  12  26  46  73 105 146 193 248 303 367 439
#     4  12  26  46  76 108 150 188 242 306 364 446
#
# _framework density 24.113659999999999
#
# number of rings (size 3 to 8) (size 9 to 14) (size 15 to 20)
#    0.000    0.000    8.571    0.857    0.000    6.857 
#    0.000    0.000    0.000    0.000    0.000    0.000 
#    0.000    0.000    0.000    0.000    0.000    0.000 
#
# Total GULP energy -173441.262328 kJ/mol
# GULP energy per Si atom -12388.661595 kJ/mol
# Density = 2.405878 g / cm^3
# Si number density = 24.113660 Si / 1000 Ang^3
#
#
#
# Elastic Constant Matrix: (Units=GPa)
#
#
# Indices 1 2 3 4 5 6 
#
# 1 162.0227 45.0412 22.5925 0.0000 9.7013 0.0000
# 2 45.0412 84.9086 27.3879 0.0000 8.4044 0.0001
# 3 22.5925 27.3879 54.7889 0.0000 0.4873 0.0000
# 4 0.0000 0.0000 0.0000 49.4625 0.0000 1.6897
# 5 9.7013 8.4044 0.4873 0.0000 35.3916 0.0000
# 6 0.0000 0.0001 0.0000 1.6897 0.0000 37.5407
#
#
#
# Elastic Compliance Matrix: (Units=1/GPa)
#
#
# Indices 1 2 3 4 5 6 
#
# 1 0.007364 -0.003352 -0.001351 0.000000 -0.001204 0.000000
# 2 -0.003352 0.015948 -0.006565 0.000000 -0.002778 0.000000
# 3 -0.001351 -0.006565 0.022076 0.000000 0.001625 0.000000
# 4 0.000000 0.000000 0.000000 0.020248 0.000000 -0.000911
# 5 -0.001204 -0.002778 0.001625 0.000000 0.029223 0.000000
# 6 0.000000 0.000000 0.000000 -0.000911 0.000000 0.026679
#
#
# Mechanical properties :
#
#
# Convention : Reuss Voigt Hill
#
# Bulk Modulus (GPa) = 43.75721 54.64039 49.19880
# Shear Modulus (GPa) = 32.96177 38.25886 35.61031
#
# Velocity S-wave (km/s) = 3.70122 3.98754 3.84704
# Velocity P-wave (km/s) = 6.03746 6.62641 6.33878
#
# Compressibility (1/GPa) = 0.02285337
#
# Stress axis : x y z
#
# Youngs Moduli (GPa) = 135.79366 62.70397 45.29764
#
# Poissons Ratio (x) = 0.21016 0.06118
# Poissons Ratio (y) = 0.45513 0.29739
# Poissons Ratio (z) = 0.18339 0.41167
#
# Static dielectric constant tensor:
#      x y z
#    x 4.715370 0.000000 0.178020 
#    y 0.000000 4.209090 0.000000 
#    z 0.178020 0.000000 4.184980 
# 
# 
# High freq. dielectric constant tensor:
#      x y z
#    x 1.987130 0.000000 0.012280 
#    y 0.000000 1.946160 0.000000 
#    z 0.012280 0.000000 1.948190 
# 
# From -- ./inp_files/29635.got.cif
#   From: 2010.06.25/outbox.cif.g09.slc.cpg/sg9_15_cif.got.tgz:29635.got - 2010.06.27 21:40:51.
