data_PCOD8056523
_publ_section_title
;
Structure prediction by ZEFSAII (Michael W. Deem and Ramdas Pophale) SiO2 
 PCOD8056523
Probable space group: C C
;
_chemical_formula_sum "Si O2"
_cell_formula_units_Z 32
_cell_length_a 21.473361
_cell_length_b 8.991291
_cell_length_c 18.535134
_cell_angle_alpha 90.000000
_cell_angle_beta 22.890781
_cell_angle_gamma 90.000000
_cell_volume 1392.003437
_symmetry_space_group_name_H-M "C C"
_symmetry_group_IT_number 9
_symmetry_cell_setting 'monoclinic'
loop_
_space_group_symop_operation_xyz
x,y,z
x,-y,1/2+z
1/2+x,1/2+y,z
1/2+x,1/2-y,1/2+z
loop_
_atom_site_type_symbol
_atom_site_label
_atom_site_fract_x
_atom_site_fract_y
_atom_site_fract_z
Si Si1 0.143720 0.153457 0.025560
Si Si2 0.815806 0.671349 0.569805
Si Si3 0.038374 0.675651 0.974371
Si Si4 0.196006 0.974587 0.824494
Si Si5 0.143613 0.670399 0.018489
Si Si6 0.160374 0.470471 0.720150
Si Si7 0.293397 0.577779 0.430098
Si Si8 0.303840 0.912942 0.926819
O O1 0.972963 0.132707 0.244957
O O2 0.187882 0.326807 0.985127
O O3 0.151431 0.087706 0.936714
O O4 0.278667 0.085348 0.935459
O O5 0.716631 0.583251 0.735415
O O6 0.794877 0.850176 0.601286
O O7 0.738288 0.627200 0.575606
O O8 0.000781 0.625395 0.376742
O O9 0.054861 0.856503 0.955024
O O10 0.119337 0.625476 0.962314
O O11 0.135405 0.595322 0.807570
O O12 0.853388 0.626041 0.172354
O O13 0.294758 0.584484 0.891768
O O14 0.193915 0.840588 0.979716
O O15 0.987878 0.630907 0.230496
O O16 0.214048 0.565970 0.593670
#
# Coordination Sequence:
#
# PCOD8056523 Si02
#       8
#     4   4   4   4   4   4   4   4
#     4  12  28  45  69 102 137 183 231 292 350 410
#     4  11  25  46  69 104 139 185 230 285 348 412
#     4  11  25  46  69 104 139 185 230 285 348 412
#     4  11  27  46  71 101 143 183 231 287 346 420
#     4  12  22  43  72 100 137 180 234 286 346 418
#     4  11  27  46  71 101 143 183 231 287 346 420
#     4  12  28  45  69 102 137 183 231 292 350 410
#     4  12  22  43  72 100 137 180 234 286 346 418
#
# _framework density 22.988448999999999
#
# number of rings (size 3 to 8) (size 9 to 14) (size 15 to 20)
#    0.000    0.500    5.000    1.500    7.000    3.000 
#    0.000    0.000    0.000    0.000    0.000    0.000 
#    0.000    0.000    0.000    0.000    0.000    0.000 
#
# Total GULP energy -198359.995503 kJ/mol
# GULP energy per Si atom -12397.499719 kJ/mol
# Density = 2.293613 g / cm^3
# Si number density = 22.988449 Si / 1000 Ang^3
#
#
#
# Elastic Constant Matrix: (Units=GPa)
#
#
# Indices 1 2 3 4 5 6 
#
# 1 114.0636 48.8112 29.2280 -0.0002 26.7338 0.0000
# 2 48.8112 91.1330 36.4202 -0.0006 19.1460 0.0004
# 3 29.2280 36.4202 96.1098 -0.0006 15.4154 0.0004
# 4 -0.0002 -0.0006 -0.0006 33.4817 0.0004 0.5636
# 5 26.7338 19.1460 15.4154 0.0004 43.0259 -0.0002
# 6 0.0000 0.0004 0.0004 0.5636 -0.0002 46.9082
#
#
#
# Elastic Compliance Matrix: (Units=1/GPa)
#
#
# Indices 1 2 3 4 5 6 
#
# 1 0.012432 -0.005197 -0.001001 0.000000 -0.005053 0.000000
# 2 -0.005197 0.015877 -0.004054 0.000000 -0.002384 0.000000
# 3 -0.001001 -0.004054 0.012579 0.000000 -0.002081 0.000000
# 4 0.000000 0.000000 0.000000 0.029873 0.000000 -0.000359
# 5 -0.005053 -0.002384 -0.002081 0.000000 0.028188 0.000000
# 6 0.000000 0.000000 0.000000 -0.000359 0.000000 0.021323
#
#
# Mechanical properties :
#
#
# Convention : Reuss Voigt Hill
#
# Bulk Modulus (GPa) = 49.05545 58.91393 53.98469
# Shear Modulus (GPa) = 33.88225 37.13963 35.51094
#
# Velocity S-wave (km/s) = 3.84328 4.02379 3.93457
# Velocity P-wave (km/s) = 6.40936 6.87540 6.64646
#
# Compressibility (1/GPa) = 0.02038510
#
# Stress axis : x y z
#
# Youngs Moduli (GPa) = 80.43914 62.98290 79.49696
#
# Poissons Ratio (x) = 0.32732 0.07956
# Poissons Ratio (y) = 0.41804 0.32227
# Poissons Ratio (z) = 0.08050 0.25532
#
# Static dielectric constant tensor:
#      x y z
#    x 4.044910 0.000000 0.123940 
#    y 0.000000 4.279700 0.000000 
#    z 0.123940 0.000000 4.111340 
# 
# 
# High freq. dielectric constant tensor:
#      x y z
#    x 1.910540 0.000000 0.008530 
#    y 0.000000 1.918250 0.000000 
#    z 0.008530 0.000000 1.912880 
# 
# From -- ./inp_files/34499.got.cif
#   From: 2010.06.25/outbox.cif.g09.slc.cpg/sg9_18_cif.got.tgz:34499.got - 2010.06.27 21:40:51.
