data_PCOD8056825
_publ_section_title
;
Structure prediction by ZEFSAII (Michael W. Deem and Ramdas Pophale) SiO2 
 PCOD8056825
Probable space group: P 2/M
;
_chemical_formula_sum "Si O2"
_cell_formula_units_Z 32
_cell_length_a 24.418977
_cell_length_b 8.880614
_cell_length_c 10.342059
_cell_angle_alpha 90.000000
_cell_angle_beta 55.970981
_cell_angle_gamma 90.000000
_cell_volume 1858.674060
_symmetry_space_group_name_H-M "P 2/M"
_symmetry_group_IT_number 10
_symmetry_cell_setting 'monoclinic'
loop_
_space_group_symop_operation_xyz
x,y,z
-x,y,-z
-x,-y,-z
x,-y,z
loop_
_atom_site_type_symbol
_atom_site_label
_atom_site_fract_x
_atom_site_fract_y
_atom_site_fract_z
Si Si1 0.208212 0.832992 0.092696
Si Si2 0.662559 0.675451 0.062103
Si Si3 0.673500 0.677772 0.751792
Si Si4 0.453743 0.177173 0.179547
Si Si5 0.806810 0.170268 0.580892
Si Si6 0.466504 0.822241 0.675215
Si Si7 0.065535 0.177900 0.285208
Si Si8 0.937706 0.678760 0.430150
O O1 0.195982 0.825482 0.261352
O O2 0.136893 0.794198 0.121415
O O3 0.231425 0.000000 0.021567
O O4 0.265586 0.718243 0.974190
O O5 0.651960 0.500000 0.088902
O O6 0.606544 0.755552 0.219300
O O7 0.658381 0.729941 0.918835
O O8 0.679906 0.500000 0.734566
O O9 0.615290 0.735998 0.737117
O O10 0.741647 0.749318 0.610579
O O11 0.488831 0.231339 0.264096
O O12 0.439545 0.000000 0.196398
O O13 0.500000 0.226148 0.000000
O O14 0.872137 0.258526 0.445117
O O15 0.809584 0.000000 0.524985
O O16 0.500000 0.762476 0.500000
O O17 0.459276 0.000000 0.684398
O O18 0.065335 0.271945 0.417398
O O19 0.004435 0.244309 0.281087
O O20 0.056166 0.000000 0.325754
O O21 0.940775 0.500000 0.411608
#
# Coordination Sequence:
#
# PCOD8056825 Si02
#       8
#     4   4   4   4   4   4   4   4
#     4   8  15  25  38  54  75 106 145 185 222 265
#     4  10  19  29  44  65  89 115 145 186 232 277
#     4  10  19  29  44  67  91 114 146 189 232 272
#     4  10  19  32  51  71  90 118 153 190 229 275
#     4   9  16  26  38  53  77 110 146 183 223 270
#     4  10  21  36  52  69  91 120 154 190 230 277
#     4   9  15  23  33  47  69 104 146 183 220 267
#     4  10  16  21  31  48  73 105 141 183 226 268
#
# _framework density 17.216576
#
# number of rings (size 3 to 8) (size 9 to 14) (size 15 to 20)
#    0.000    2.500    1.250    4.125    0.000    5.500 
#    0.000    0.000    0.000    0.000    0.000    0.000 
#    0.000    0.000    0.000    1.125    0.000   23.000 
#
# Total GULP energy -396635.037317 kJ/mol
# GULP energy per Si atom -12394.844916 kJ/mol
# Density = 1.717739 g / cm^3
# Si number density = 17.216576 Si / 1000 Ang^3
#
#
#
# Elastic Constant Matrix: (Units=GPa)
#
#
# Indices 1 2 3 4 5 6 
#
# 1 105.0882 42.5914 59.9627 0.0000 -40.3421 0.0000
# 2 42.5914 73.2539 30.6011 0.0000 -17.7401 0.0000
# 3 59.9627 30.6011 66.4650 0.0000 -20.9350 0.0000
# 4 0.0000 0.0000 0.0000 12.8770 0.0000 -9.3041
# 5 -40.3421 -17.7401 -20.9350 0.0000 34.3007 0.0000
# 6 0.0000 0.0000 0.0000 -9.3041 0.0000 21.9738
#
#
#
# Elastic Compliance Matrix: (Units=1/GPa)
#
#
# Indices 1 2 3 4 5 6 
#
# 1 0.030265 -0.004642 -0.018213 0.000000 0.022079 0.000000
# 2 -0.004642 0.018319 -0.003692 0.000000 0.001762 0.000000
# 3 -0.018213 -0.003692 0.031975 0.000000 -0.003814 0.000000
# 4 0.000000 0.000000 0.000000 0.111888 0.000000 0.047375
# 5 0.022079 0.001762 -0.003814 0.000000 0.053705 0.000000
# 6 0.000000 0.000000 0.000000 0.047375 0.000000 0.065568
#
#
# Mechanical properties :
#
#
# Convention : Reuss Voigt Hill
#
# Bulk Modulus (GPa) = 36.40786 56.79081 46.59934
# Shear Modulus (GPa) = 13.37019 21.27377 17.32198
#
# Velocity S-wave (km/s) = 2.78976 3.51900 3.17538
# Velocity P-wave (km/s) = 5.61871 7.04052 6.36941
#
# Compressibility (1/GPa) = 0.02746660
#
# Stress axis : x y z
#
# Youngs Moduli (GPa) = 33.04161 54.58897 31.27486
#
# Poissons Ratio (x) = 0.25338 0.56960
# Poissons Ratio (y) = 0.15337 0.11545
# Poissons Ratio (z) = 0.60177 0.20152
#
# Static dielectric constant tensor:
#      x y z
#    x 3.445090 0.000000 -0.590090 
#    y 0.000000 3.179170 0.000000 
#    z -0.590090 0.000000 2.976760 
# 
# 
# High freq. dielectric constant tensor:
#      x y z
#    x 1.654910 0.000000 -0.058880 
#    y 0.000000 1.671430 0.000000 
#    z -0.058880 0.000000 1.609570 
# 
# From -- ./inp_files/57171.got.cif
#   From: 2010.06.25/outbox.cif.g09.slc.cpg/sg10_29_cif.got.tgz:57171.got - 2010.06.27 22:07:45.
