data_PCOD8056105
_publ_section_title
;
Structure prediction by ZEFSAII (Michael W. Deem and Ramdas Pophale) SiO2 
 PCOD8056105
Probable space group: C C
;
_chemical_formula_sum "Si O2"
_cell_formula_units_Z 32
_cell_length_a 8.220096
_cell_length_b 14.650191
_cell_length_c 13.625229
_cell_angle_alpha 90.000000
_cell_angle_beta 55.185588
_cell_angle_gamma 90.000000
_cell_volume 1347.131901
_symmetry_space_group_name_H-M "C C"
_symmetry_group_IT_number 9
_symmetry_cell_setting 'monoclinic'
loop_
_space_group_symop_operation_xyz
x,y,z
x,-y,1/2+z
1/2+x,1/2+y,z
1/2+x,1/2-y,1/2+z
loop_
_atom_site_type_symbol
_atom_site_label
_atom_site_fract_x
_atom_site_fract_y
_atom_site_fract_z
Si Si1 0.546410 0.181015 0.861630
Si Si2 0.566580 0.902966 0.846544
Si Si3 0.939112 0.126370 0.471032
Si Si4 0.916598 0.405494 0.594818
Si Si5 0.539009 0.946307 0.194489
Si Si6 0.480459 0.240160 0.227820
Si Si7 0.999594 0.937363 0.751465
Si Si8 0.177648 0.898320 0.081291
O O1 0.422344 0.271292 0.931566
O O2 0.457128 0.137632 0.790548
O O3 0.778248 0.206079 0.773285
O O4 0.530733 0.101966 0.951553
O O5 0.487379 0.805869 0.832284
O O6 0.787386 0.888949 0.811680
O O7 0.592653 0.975138 0.751905
O O8 0.405677 0.932223 0.986475
O O9 0.728959 0.092714 0.576481
O O10 0.020852 0.053827 0.362406
O O11 0.099703 0.127626 0.500798
O O12 0.021395 0.336261 0.632010
O O13 0.687726 0.375018 0.654016
O O14 0.907975 0.507952 0.650866
O O15 0.665554 0.309731 0.155041
O O16 0.026329 0.029759 0.681615
#
# Coordination Sequence:
#
# PCOD8056105 Si02
#       8
#     4   4   4   4   4   4   4   4
#     4  12  21  46  78 101 145 193 241 300 362 443
#     4  11  24  48  69 105 150 181 246 306 360 435
#     4  12  24  44  73 104 143 192 245 291 369 436
#     4  11  24  44  74 104 142 194 240 297 373 429
#     4  11  25  42  74 105 138 191 246 293 359 449
#     4  11  21  45  73 106 141 194 238 291 371 445
#     4  12  27  45  69 107 146 187 245 311 361 430
#     4  12  24  48  74 104 145 196 241 299 369 443
#
# _framework density 23.754169999999998
#
# number of rings (size 3 to 8) (size 9 to 14) (size 15 to 20)
#    0.000    0.500    6.250    1.500    5.250    0.000 
#    4.500    0.000    0.000    0.000    0.000    0.000 
#    0.000    0.000    0.000    0.000    0.000    0.000 
#
# Total GULP energy -198217.194562 kJ/mol
# GULP energy per Si atom -12388.574660 kJ/mol
# Density = 2.370010 g / cm^3
# Si number density = 23.754170 Si / 1000 Ang^3
#
#
#
# Elastic Constant Matrix: (Units=GPa)
#
#
# Indices 1 2 3 4 5 6 
#
# 1 55.4615 30.2819 34.2911 0.0000 -8.1940 -0.0001
# 2 30.2819 118.4659 64.6238 0.0000 1.6051 0.0000
# 3 34.2911 64.6238 146.7102 0.0000 4.6724 0.0000
# 4 0.0000 0.0000 0.0000 47.8417 0.0000 -2.6210
# 5 -8.1940 1.6051 4.6724 0.0000 40.8516 0.0000
# 6 -0.0001 0.0000 0.0000 -2.6210 0.0000 20.0673
#
#
#
# Elastic Compliance Matrix: (Units=1/GPa)
#
#
# Indices 1 2 3 4 5 6 
#
# 1 0.023363 -0.003913 -0.003905 0.000000 0.005286 0.000000
# 2 -0.003913 0.011767 -0.004244 0.000000 -0.000762 0.000000
# 3 -0.003905 -0.004244 0.009653 0.000000 -0.001721 0.000000
# 4 0.000000 0.000000 0.000000 0.021053 0.000000 0.002750
# 5 0.005286 -0.000762 -0.001721 0.000000 0.025766 0.000000
# 6 0.000000 0.000000 0.000000 0.002750 0.000000 0.050191
#
#
# Mechanical properties :
#
#
# Convention : Reuss Voigt Hill
#
# Bulk Modulus (GPa) = 48.40847 64.33680 56.37264
# Shear Modulus (GPa) = 28.93434 34.51484 31.72459
#
# Velocity S-wave (km/s) = 3.49388 3.81596 3.65847
# Velocity P-wave (km/s) = 6.05800 6.82339 6.45206
#
# Compressibility (1/GPa) = 0.02065754
#
# Stress axis : x y z
#
# Youngs Moduli (GPa) = 42.80317 84.98218 103.59092
#
# Poissons Ratio (x) = 0.33255 0.40456
# Poissons Ratio (y) = 0.16750 0.43968
# Poissons Ratio (z) = 0.16716 0.36070
#
# Static dielectric constant tensor:
#      x y z
#    x 4.367760 0.000000 0.213240 
#    y 0.000000 4.615630 0.000000 
#    z 0.213240 0.000000 4.621230 
# 
# 
# High freq. dielectric constant tensor:
#      x y z
#    x 1.920180 0.000000 0.010690 
#    y 0.000000 1.939720 0.000000 
#    z 0.010690 0.000000 1.966710 
# 
# From -- ./inp_files/23368.got.cif
#   From: 2010.06.25/outbox.cif.g09.slc.cpg/sg9_12_cif.got.tgz:23368.got - 2010.06.27 21:40:51.
