data_PCOD8056931
_publ_section_title
;
Structure prediction by ZEFSAII (Michael W. Deem and Ramdas Pophale) SiO2 
 PCOD8056931
Probable space group: P 2/M
;
_chemical_formula_sum "Si O2"
_cell_formula_units_Z 32
_cell_length_a 16.386285
_cell_length_b 16.930731
_cell_length_c 12.703437
_cell_angle_alpha 90.000000
_cell_angle_beta 150.937697
_cell_angle_gamma 90.000000
_cell_volume 1711.983398
_symmetry_space_group_name_H-M "P 2/M"
_symmetry_group_IT_number 10
_symmetry_cell_setting 'monoclinic'
loop_
_space_group_symop_operation_xyz
x,y,z
-x,y,-z
-x,-y,-z
x,-y,z
loop_
_atom_site_type_symbol
_atom_site_label
_atom_site_fract_x
_atom_site_fract_y
_atom_site_fract_z
Si Si1 0.685641 0.244517 0.399435
Si Si2 0.640431 0.706709 0.889864
Si Si3 0.360738 0.157278 0.272181
Si Si4 0.177011 0.912315 0.885039
Si Si5 0.812958 0.275705 0.773412
Si Si6 0.677194 0.586875 0.752265
Si Si7 0.994560 0.237503 0.370887
Si Si8 0.484578 0.090687 0.859340
O O1 0.506708 0.292889 0.185447
O O2 0.763733 0.272383 0.596970
O O3 0.829188 0.269911 0.477108
O O4 0.649332 0.150384 0.344566
O O5 0.576763 0.780377 0.746092
O O6 0.646851 0.626071 0.831984
O O7 0.829608 0.717252 0.143979
O O8 0.500000 0.110682 0.500000
O O9 0.236093 0.096375 0.073778
O O10 0.285010 0.209380 0.277238
O O11 0.332935 0.893733 0.984426
O O12 0.107246 0.000000 0.789378
O O13 0.024543 0.854223 0.684442
O O14 0.790782 0.361484 0.801898
O O15 0.000000 0.249032 0.000000
O O16 0.500000 0.576333 0.500000
O O17 0.760190 0.500000 0.861696
O O18 0.000000 0.248988 0.500000
O O19 0.426952 0.000000 0.773392
O O20 0.500000 0.109171 0.000000
#
# Coordination Sequence:
#
# PCOD8056931 Si02
#       8
#     4   4   4   4   4   4   4   4
#     4  12  20  35  60  78 109 151 186 234 283 328
#     4  10  19  37  56  85 113 144 184 225 270 330
#     4  10  16  32  52  74 106 142 187 227 272 333
#     4  10  20  35  50  73 109 144 184 237 291 339
#     4  11  20  33  54  85 116 148 186 225 269 330
#     4  10  19  35  59  88 122 148 174 215 272 334
#     4  11  24  37  56  83 107 142 194 241 282 329
#     4  10  20  34  54  78 106 143 191 246 298 332
#
# _framework density 18.691770000000002
#
# number of rings (size 3 to 8) (size 9 to 14) (size 15 to 20)
#    0.000    1.500    5.000    3.750    0.000    1.250 
#    0.000    0.625    0.000    1.875    0.000    0.875 
#    0.000    0.000    0.000    0.000    0.000    0.000 
#
# Total GULP energy -396433.648720 kJ/mol
# GULP energy per Si atom -12388.551522 kJ/mol
# Density = 1.864923 g / cm^3
# Si number density = 18.691770 Si / 1000 Ang^3
#
#
#
# Elastic Constant Matrix: (Units=GPa)
#
#
# Indices 1 2 3 4 5 6 
#
# 1 104.0306 34.9517 37.0827 0.0000 -9.5815 0.0000
# 2 34.9517 78.7787 28.0067 0.0000 -7.8735 0.0000
# 3 37.0827 28.0067 72.0072 0.0000 4.0232 0.0000
# 4 0.0000 0.0000 0.0000 5.5368 0.0000 -16.8346
# 5 -9.5815 -7.8735 4.0232 0.0000 17.6728 0.0000
# 6 0.0000 0.0000 0.0000 -16.8346 0.0000 -70.1478
#
#
#
# Elastic Compliance Matrix: (Units=1/GPa)
#
#
# Indices 1 2 3 4 5 6 
#
# 1 0.013527 -0.003065 -0.006186 0.000000 0.007376 0.000000
# 2 -0.003065 0.016623 -0.005275 0.000000 0.006945 0.000000
# 3 -0.006186 -0.005275 0.019694 0.000000 -0.010187 0.000000
# 4 0.000000 0.000000 0.000000 0.104418 0.000000 -0.025059
# 5 0.007376 0.006945 -0.010187 0.000000 0.065996 0.000000
# 6 0.000000 0.000000 0.000000 -0.025059 0.000000 -0.008242
#
#
# Mechanical properties :
#
#
# Convention : Reuss Voigt Hill
#
# Bulk Modulus (GPa) = 48.09608 50.54430 49.32019
# Shear Modulus (GPa) = 20.16131 0.93073 10.54602
#
# Velocity S-wave (km/s) = 3.28780 0.70641 2.37788
# Velocity P-wave (km/s) = 6.34033 5.26925 5.82944
#
# Compressibility (1/GPa) = 0.02079172
#
# Stress axis : x y z
#
# Youngs Moduli (GPa) = 73.92729 60.15738 50.77645
#
# Poissons Ratio (x) = 0.18438 0.31411
# Poissons Ratio (y) = 0.22658 0.26785
# Poissons Ratio (z) = 0.45733 0.31733
#
# Static dielectric constant tensor:
#      x y z
#    x 4.060540 0.000000 0.124470 
#    y 0.000000 3.518720 0.000000 
#    z 0.124470 0.000000 3.623650 
# 
# 
# High freq. dielectric constant tensor:
#      x y z
#    x 1.729910 0.000000 0.003570 
#    y 0.000000 1.690570 0.000000 
#    z 0.003570 0.000000 1.725510 
# 
# From -- ./inp_files/51984.got.cif
#   From: 2010.06.25/outbox.cif.g09.slc.cpg/sg10_26_cif.got.tgz:51984.got - 2010.06.27 22:07:45.
