data_PCOD8056143
_publ_section_title
;
Structure prediction by ZEFSAII (Michael W. Deem and Ramdas Pophale) SiO2 
 PCOD8056143
Probable space group: C C
;
_chemical_formula_sum "Si O2"
_cell_formula_units_Z 32
_cell_length_a 13.360087
_cell_length_b 12.210302
_cell_length_c 8.060334
_cell_angle_alpha 90.000000
_cell_angle_beta 81.442461
_cell_angle_gamma 90.000000
_cell_volume 1300.249162
_symmetry_space_group_name_H-M "C C"
_symmetry_group_IT_number 9
_symmetry_cell_setting 'monoclinic'
loop_
_space_group_symop_operation_xyz
x,y,z
x,-y,1/2+z
1/2+x,1/2+y,z
1/2+x,1/2-y,1/2+z
loop_
_atom_site_type_symbol
_atom_site_label
_atom_site_fract_x
_atom_site_fract_y
_atom_site_fract_z
Si Si1 0.251940 0.214754 0.411240
Si Si2 0.355591 0.846896 0.381201
Si Si3 0.584631 0.089499 0.387309
Si Si4 0.373983 0.389524 0.981344
Si Si5 0.160530 0.617309 0.705396
Si Si6 0.933403 0.879519 0.325385
Si Si7 0.394814 0.056161 0.217969
Si Si8 0.656712 0.307934 0.283199
O O1 0.170912 0.269440 0.304008
O O2 0.345214 0.300385 0.420626
O O3 0.289971 0.105415 0.311150
O O4 0.197299 0.169184 0.588347
O O5 0.387098 0.719264 0.362494
O O6 0.407749 0.905679 0.526037
O O7 0.233230 0.854900 0.404328
O O8 0.394612 0.923054 0.219763
O O9 0.570428 0.112663 0.589610
O O10 0.481436 0.106735 0.312523
O O11 0.662631 0.176999 0.294675
O O12 0.636346 0.971910 0.351150
O O13 0.261165 0.408632 0.076388
O O14 0.442546 0.367285 0.125219
O O15 0.409399 0.494379 0.870988
O O16 0.045572 0.850631 0.361903
#
# Coordination Sequence:
#
# PCOD8056143 Si02
#       8
#     4   4   4   4   4   4   4   4
#     4  11  24  46  74 105 154 192 235 319 379 428
#     4  12  26  47  73 105 149 201 251 303 389 441
#     4  12  22  42  72 108 143 190 261 301 362 448
#     4  11  23  46  72 107 151 192 242 314 374 445
#     4  11  22  41  74 112 144 191 251 319 366 433
#     4  11  25  46  76 110 151 186 254 308 375 445
#     4  12  25  49  70 102 155 193 243 320 374 444
#     4  12  25  45  73 109 145 201 247 300 373 458
#
# _framework density 24.610668
#
# number of rings (size 3 to 8) (size 9 to 14) (size 15 to 20)
#    0.000    0.500    5.000    4.500    1.750    3.000 
#    0.000    1.250    0.000    0.000    0.000    0.000 
#    0.000    0.000    0.000    0.000    0.000    0.000 
#
# Total GULP energy -198290.875287 kJ/mol
# GULP energy per Si atom -12393.179705 kJ/mol
# Density = 2.455465 g / cm^3
# Si number density = 24.610668 Si / 1000 Ang^3
#
#
#
# Elastic Constant Matrix: (Units=GPa)
#
#
# Indices 1 2 3 4 5 6 
#
# 1 102.7629 29.0157 29.7749 0.0000 27.3319 0.0000
# 2 29.0157 127.9150 33.3338 0.0000 -6.1093 0.0000
# 3 29.7749 33.3338 69.3876 0.0000 16.7158 0.0000
# 4 0.0000 0.0000 0.0000 38.7349 0.0000 -2.9107
# 5 27.3319 -6.1093 16.7158 0.0000 44.9108 0.0000
# 6 0.0000 0.0000 0.0000 -2.9107 0.0000 25.2014
#
#
#
# Elastic Compliance Matrix: (Units=1/GPa)
#
#
# Indices 1 2 3 4 5 6 
#
# 1 0.013218 -0.002678 -0.002592 0.000000 -0.007444 0.000000
# 2 -0.002678 0.009888 -0.004743 0.000000 0.004740 0.000000
# 3 -0.002592 -0.004743 0.019309 0.000000 -0.006254 0.000000
# 4 0.000000 0.000000 0.000000 0.026043 0.000000 0.003008
# 5 -0.007444 0.004740 -0.006254 0.000000 0.029769 0.000000
# 6 0.000000 0.000000 0.000000 0.003008 0.000000 0.040028
#
#
# Mechanical properties :
#
#
# Convention : Reuss Voigt Hill
#
# Bulk Modulus (GPa) = 44.66514 53.81269 49.23891
# Shear Modulus (GPa) = 30.16703 35.63217 32.89960
#
# Velocity S-wave (km/s) = 3.50490 3.80917 3.66020
# Velocity P-wave (km/s) = 5.87939 6.42335 6.15738
#
# Compressibility (1/GPa) = 0.02238882
#
# Stress axis : x y z
#
# Youngs Moduli (GPa) = 75.65240 101.13746 51.78888
#
# Poissons Ratio (x) = 0.27089 0.13424
# Poissons Ratio (y) = 0.20263 0.24561
# Poissons Ratio (z) = 0.19610 0.47965
#
# Static dielectric constant tensor:
#      x y z
#    x 4.508100 0.000000 0.400340 
#    y 0.000000 4.537320 0.000000 
#    z 0.400340 0.000000 4.447480 
# 
# 
# High freq. dielectric constant tensor:
#      x y z
#    x 1.979380 0.000000 0.018520 
#    y 0.000000 1.983400 0.000000 
#    z 0.018520 0.000000 1.973340 
# 
# From -- ./inp_files/9151.got.cif
#   From: 2010.06.25/outbox.cif.g09.slc.cpg/sg9_5_cif.got.tgz:9151.got - 2010.06.27 21:40:51.
