data_PCOD8056411
_publ_section_title
;
Structure prediction by ZEFSAII (Michael W. Deem and Ramdas Pophale) SiO2 
 PCOD8056411
Probable space group: C C
;
_chemical_formula_sum "Si O2"
_cell_formula_units_Z 24
_cell_length_a 18.227156
_cell_length_b 5.067865
_cell_length_c 14.943637
_cell_angle_alpha 90.000000
_cell_angle_beta 134.030720
_cell_angle_gamma 90.000000
_cell_volume 992.451661
_symmetry_space_group_name_H-M "C C"
_symmetry_group_IT_number 9
_symmetry_cell_setting 'monoclinic'
loop_
_space_group_symop_operation_xyz
x,y,z
x,-y,1/2+z
1/2+x,1/2+y,z
1/2+x,1/2-y,1/2+z
loop_
_atom_site_type_symbol
_atom_site_label
_atom_site_fract_x
_atom_site_fract_y
_atom_site_fract_z
Si Si1 0.970030 0.221495 0.479650
Si Si2 0.302857 0.644330 0.861403
Si Si3 0.674262 0.371808 0.239518
Si Si4 0.661098 0.456968 0.427629
Si Si5 0.381882 0.972175 0.076004
Si Si6 0.540750 0.954928 0.368567
O O1 0.922235 0.349044 0.528301
O O2 0.084213 0.117710 0.592020
O O3 0.971761 0.426436 0.398958
O O4 0.900267 0.971977 0.390790
O O5 0.213991 0.426139 0.784614
O O6 0.261831 0.918763 0.782558
O O7 0.339940 0.700593 0.995410
O O8 0.630935 0.468413 0.297612
O O9 0.782758 0.399756 0.540691
O O10 0.628586 0.733663 0.442930
O O11 0.596127 0.233810 0.421854
O O12 0.470698 0.921745 0.221547
#
# Coordination Sequence:
#
# PCOD8056411 Si02
#       6
#     4   4   4   4   4   4
#     4  12  27  48  79 111 149 198 250 306 377 442
#     4  11  24  45  75 110 136 200 245 300 368 440
#     4  11  24  44  79 104 146 195 248 297 371 441
#     4  11  24  48  71 105 149 188 247 303 374 431
#     4  11  26  49  78 100 152 198 248 303 375 444
#     4  12  29  46  72 114 144 193 248 311 365 444
#
# _framework density 24.182535999999999
#
# number of rings (size 3 to 8) (size 9 to 14) (size 15 to 20)
#    0.000    0.667    5.000    3.000    4.667    1.333 
#    3.000    1.667    0.000    0.000    0.000    0.000 
#    0.000    0.000    0.000    0.000    0.000    0.000 
#
# Total GULP energy -148774.053266 kJ/mol
# GULP energy per Si atom -12397.837772 kJ/mol
# Density = 2.412750 g / cm^3
# Si number density = 24.182536 Si / 1000 Ang^3
#
#
#
# Elastic Constant Matrix: (Units=GPa)
#
#
# Indices 1 2 3 4 5 6 
#
# 1 101.9085 35.2429 58.6297 0.0000 18.7568 0.0000
# 2 35.2429 118.4374 33.8250 0.0002 13.5595 -0.0001
# 3 58.6297 33.8250 75.2566 0.0001 22.2337 0.0000
# 4 0.0000 0.0002 0.0001 23.7508 0.0000 8.0922
# 5 18.7568 13.5595 22.2337 0.0000 32.0508 0.0000
# 6 0.0000 -0.0001 0.0000 8.0922 0.0000 53.2292
#
#
#
# Elastic Compliance Matrix: (Units=1/GPa)
#
#
# Indices 1 2 3 4 5 6 
#
# 1 0.018045 -0.001526 -0.013135 0.000000 -0.000803 0.000000
# 2 -0.001526 0.009863 -0.002861 0.000000 -0.001294 0.000000
# 3 -0.013135 -0.002861 0.027896 0.000000 -0.010454 0.000000
# 4 0.000000 0.000000 0.000000 0.044404 0.000000 -0.006751
# 5 -0.000803 -0.001294 -0.010454 0.000000 0.039470 0.000000
# 6 0.000000 0.000000 0.000000 -0.006751 0.000000 0.019813
#
#
# Mechanical properties :
#
#
# Convention : Reuss Voigt Hill
#
# Bulk Modulus (GPa) = 48.17494 61.22198 54.69846
# Shear Modulus (GPa) = 24.81940 32.99982 28.90961
#
# Velocity S-wave (km/s) = 3.20712 3.69808 3.46131
# Velocity P-wave (km/s) = 5.80334 6.60348 6.21630
#
# Compressibility (1/GPa) = 0.02075768
#
# Stress axis : x y z
#
# Youngs Moduli (GPa) = 55.41625 101.39028 35.84801
#
# Poissons Ratio (x) = 0.15476 0.47087
# Poissons Ratio (y) = 0.08459 0.10258
# Poissons Ratio (z) = 0.72790 0.29012
#
# Static dielectric constant tensor:
#      x y z
#    x 4.394860 0.000000 0.222030 
#    y 0.000000 4.438260 0.000000 
#    z 0.222030 0.000000 4.427080 
# 
# 
# High freq. dielectric constant tensor:
#      x y z
#    x 1.961770 0.000000 0.021710 
#    y 0.000000 1.965450 0.000000 
#    z 0.021710 0.000000 1.948770 
# 
# From -- ./inp_files/27184.got.cif
#   From: 2010.06.25/outbox.cif.g09.slc.cpg/sg9_14_cif.got.tgz:27184.got - 2010.06.27 21:40:51.
