data_PCOD8056528
_publ_section_title
;
Structure prediction by ZEFSAII (Michael W. Deem and Ramdas Pophale) SiO2 
 PCOD8056528
Probable space group: C C
;
_chemical_formula_sum "Si O2"
_cell_formula_units_Z 20
_cell_length_a 5.055699
_cell_length_b 23.480537
_cell_length_c 7.986882
_cell_angle_alpha 90.000000
_cell_angle_beta 62.444379
_cell_angle_gamma 90.000000
_cell_volume 840.573502
_symmetry_space_group_name_H-M "C C"
_symmetry_group_IT_number 9
_symmetry_cell_setting 'monoclinic'
loop_
_space_group_symop_operation_xyz
x,y,z
x,-y,1/2+z
1/2+x,1/2+y,z
1/2+x,1/2-y,1/2+z
loop_
_atom_site_type_symbol
_atom_site_label
_atom_site_fract_x
_atom_site_fract_y
_atom_site_fract_z
Si Si1 0.617740 0.352403 0.629680
Si Si2 0.593621 0.323272 0.999051
Si Si3 0.264037 0.696197 0.928160
Si Si4 0.784167 0.442484 0.994673
Si Si5 0.451252 0.530456 0.274664
O O1 0.454469 0.334658 0.853508
O O2 0.502698 0.322216 0.497270
O O3 0.586074 0.420447 0.613415
O O4 0.957735 0.334567 0.562500
O O5 0.768072 0.264089 0.943011
O O6 0.822379 0.373920 0.990013
O O7 0.339421 0.321024 0.215615
O O8 0.515356 0.453282 0.944923
O O9 0.094178 0.472991 0.855120
O O10 0.630179 0.471060 0.200909
#
# Coordination Sequence:
#
# PCOD8056528 Si02
#       5
#     4   4   4   4   4
#     4  11  27  47  69 106 143 188 244 297 355 426
#     4  11  27  47  72 107 146 188 245 292 362 430
#     4  12  27  43  77  99 145 195 236 296 366 423
#     4  11  26  45  73 104 142 184 239 295 359 426
#     4  11  25  46  73 100 146 179 242 298 356 423
#
# _framework density 23.793278999999998
#
# number of rings (size 3 to 8) (size 9 to 14) (size 15 to 20)
#    0.000    0.800    2.000    3.600    8.400    6.400 
#    0.000    0.000    0.000    0.000    0.000    0.000 
#    0.000    0.000    0.000    0.000    0.000    0.000 
#
# Total GULP energy -123930.241737 kJ/mol
# GULP energy per Si atom -12393.024174 kJ/mol
# Density = 2.373912 g / cm^3
# Si number density = 23.793279 Si / 1000 Ang^3
#
#
#
# Elastic Constant Matrix: (Units=GPa)
#
#
# Indices 1 2 3 4 5 6 
#
# 1 83.1320 17.7674 27.2920 0.0000 -10.0844 0.0000
# 2 17.7674 71.3884 39.2831 0.0000 -17.6275 0.0000
# 3 27.2920 39.2831 134.0236 0.0000 6.4262 0.0000
# 4 0.0000 0.0000 0.0000 30.7234 0.0000 -2.2426
# 5 -10.0844 -17.6275 6.4262 0.0000 41.2189 0.0000
# 6 0.0000 0.0000 0.0000 -2.2426 0.0000 26.7114
#
#
#
# Elastic Compliance Matrix: (Units=1/GPa)
#
#
# Indices 1 2 3 4 5 6 
#
# 1 0.013508 -0.001158 -0.002565 0.000000 0.003210 0.000000
# 2 -0.001158 0.019874 -0.006028 0.000000 0.009156 0.000000
# 3 -0.002565 -0.006028 0.009979 0.000000 -0.004761 0.000000
# 4 0.000000 0.000000 0.000000 0.032749 0.000000 0.002750
# 5 0.003210 0.009156 -0.004761 0.000000 0.029704 0.000000
# 6 0.000000 0.000000 0.000000 0.002750 0.000000 0.037668
#
#
# Mechanical properties :
#
#
# Convention : Reuss Voigt Hill
#
# Bulk Modulus (GPa) = 41.91439 50.80322 46.35881
# Shear Modulus (GPa) = 29.25035 33.34415 31.29725
#
# Velocity S-wave (km/s) = 3.51002 3.74760 3.63075
# Velocity P-wave (km/s) = 5.83792 6.33438 6.09121
#
# Compressibility (1/GPa) = 0.02385815
#
# Stress axis : x y z
#
# Youngs Moduli (GPa) = 74.03003 50.31670 100.21011
#
# Poissons Ratio (x) = 0.05826 0.25707
# Poissons Ratio (y) = 0.08571 0.60411
# Poissons Ratio (z) = 0.18991 0.30333
#
# Static dielectric constant tensor:
#      x y z
#    x 3.933900 0.000000 0.155150 
#    y 0.000000 5.161440 0.000000 
#    z 0.155150 0.000000 4.299810 
# 
# 
# High freq. dielectric constant tensor:
#      x y z
#    x 1.931260 0.000000 0.010610 
#    y 0.000000 1.959710 0.000000 
#    z 0.010610 0.000000 1.944520 
# 
# From -- ./inp_files/3741.got.cif
#   From: 2010.06.25/outbox.cif.g09.slc.cpg/sg9_2_cif.got.tgz:3741.got - 2010.06.27 21:40:51.
