data_PCOD8056968
_publ_section_title
;
Structure prediction by ZEFSAII (Michael W. Deem and Ramdas Pophale) SiO2 
 PCOD8056968
Probable space group: P 2/M
;
_chemical_formula_sum "Si O2"
_cell_formula_units_Z 28
_cell_length_a 23.052989
_cell_length_b 8.724957
_cell_length_c 16.554861
_cell_angle_alpha 90.000000
_cell_angle_beta 149.047949
_cell_angle_gamma 90.000000
_cell_volume 1712.576426
_symmetry_space_group_name_H-M "P 2/M"
_symmetry_group_IT_number 10
_symmetry_cell_setting 'monoclinic'
loop_
_space_group_symop_operation_xyz
x,y,z
-x,y,-z
-x,-y,-z
x,-y,z
loop_
_atom_site_type_symbol
_atom_site_label
_atom_site_fract_x
_atom_site_fract_y
_atom_site_fract_z
Si Si1 0.327739 0.679000 0.334577
Si Si2 0.076789 0.180871 0.850638
Si Si3 0.837295 0.319969 0.279203
Si Si4 0.053526 0.820633 0.453776
Si Si5 0.907885 0.181615 0.951892
Si Si6 0.446121 0.320946 0.311812
Si Si7 0.709378 0.180336 0.994754
O O1 0.300613 0.500000 0.300412
O O2 0.216011 0.770410 0.225345
O O3 0.422777 0.716051 0.515016
O O4 0.372229 0.733266 0.300287
O O5 0.966030 0.223215 0.664293
O O6 0.089075 0.000000 0.871273
O O7 0.065845 0.250802 0.927442
O O8 0.190676 0.242507 0.944242
O O9 0.856162 0.500000 0.291477
O O10 0.842574 0.273900 0.381226
O O11 0.936899 0.222171 0.358046
O O12 0.722487 0.265280 0.097638
O O13 0.077404 0.000000 0.492210
O O14 0.915165 0.000000 0.961976
O O15 0.000000 0.249762 0.000000
O O16 0.428450 0.500000 0.275569
O O17 0.408328 0.228264 0.187109
O O18 0.712863 0.000000 0.013522
#
# Coordination Sequence:
#
# PCOD8056968 Si02
#       7
#     4   4   4   4   4   4   4
#     4   9  18  31  45  62  86 113 144 180 223 264
#     4   8  15  26  39  57  80 109 143 178 215 250
#     4  10  17  24  35  55  82 109 139 171 211 255
#     4   9  15  25  38  52  76 108 144 177 209 253
#     4  10  19  31  46  64  87 115 151 189 219 250
#     4   9  17  29  44  63  86 113 143 180 219 260
#     4  10  17  26  41  60  84 113 145 175 209 257
#
# _framework density 16.349636
#
# number of rings (size 3 to 8) (size 9 to 14) (size 15 to 20)
#    0.000    2.714    1.429    4.714    0.000    0.857 
#    0.000    2.143    0.000    0.000    0.000    0.000 
#    0.000    1.143    0.000   13.143    0.000    3.571 
#
# Total GULP energy -346965.000124 kJ/mol
# GULP energy per Si atom -12391.607147 kJ/mol
# Density = 1.631242 g / cm^3
# Si number density = 16.349636 Si / 1000 Ang^3
#
#
#
# Elastic Constant Matrix: (Units=GPa)
#
#
# Indices 1 2 3 4 5 6 
#
# 1 48.4548 15.0925 45.2092 0.0000 -5.6467 0.0000
# 2 15.0925 43.2791 33.8198 0.0000 -8.6003 0.0000
# 3 45.2092 33.8198 126.5916 0.0000 -27.9822 0.0000
# 4 0.0000 0.0000 0.0000 30.0291 0.0000 -4.1559
# 5 -5.6467 -8.6003 -27.9822 0.0000 26.8463 0.0000
# 6 0.0000 0.0000 0.0000 -4.1559 0.0000 10.1539
#
#
#
# Elastic Compliance Matrix: (Units=1/GPa)
#
#
# Indices 1 2 3 4 5 6 
#
# 1 0.032169 -0.003060 -0.012204 0.000000 -0.006934 0.000000
# 2 -0.003060 0.029546 -0.006303 0.000000 0.002252 0.000000
# 3 -0.012204 -0.006303 0.016798 0.000000 0.012923 0.000000
# 4 0.000000 0.000000 0.000000 0.035301 0.000000 0.014448
# 5 -0.006934 0.002252 0.012923 0.000000 0.049982 0.000000
# 6 0.000000 0.000000 0.000000 0.014448 0.000000 0.104398
#
#
# Mechanical properties :
#
#
# Convention : Reuss Voigt Hill
#
# Bulk Modulus (GPa) = 28.26434 45.17428 36.71931
# Shear Modulus (GPa) = 15.47420 21.68613 18.58017
#
# Velocity S-wave (km/s) = 3.07979 3.64593 3.37475
# Velocity P-wave (km/s) = 5.47465 6.73898 6.13945
#
# Compressibility (1/GPa) = 0.03538027
#
# Stress axis : x y z
#
# Youngs Moduli (GPa) = 31.08587 33.84605 59.53084
#
# Poissons Ratio (x) = 0.10355 0.72650
# Poissons Ratio (y) = 0.09511 0.37522
# Poissons Ratio (z) = 0.37936 0.21333
#
# Static dielectric constant tensor:
#      x y z
#    x 2.994640 0.000000 -0.582350 
#    y 0.000000 2.873950 0.000000 
#    z -0.582350 0.000000 3.505190 
# 
# 
# High freq. dielectric constant tensor:
#      x y z
#    x 1.564000 0.000000 -0.043460 
#    y 0.000000 1.622330 0.000000 
#    z -0.043460 0.000000 1.637250 
# 
# From -- ./inp_files/79869.got.cif
#   From: 2010.06.25/outbox.cif.g09.slc.cpg/sg10_40_cif.got.tgz:79869.got - 2010.06.27 22:07:45.
