data_PCOD8056219
_publ_section_title
;
Structure prediction by ZEFSAII (Michael W. Deem and Ramdas Pophale) SiO2 
 PCOD8056219
Probable space group: C C
;
_chemical_formula_sum "Si O2"
_cell_formula_units_Z 28
_cell_length_a 22.002306
_cell_length_b 9.874871
_cell_length_c 8.841810
_cell_angle_alpha 90.000000
_cell_angle_beta 43.602832
_cell_angle_gamma 90.000000
_cell_volume 1324.868917
_symmetry_space_group_name_H-M "C C"
_symmetry_group_IT_number 9
_symmetry_cell_setting 'monoclinic'
loop_
_space_group_symop_operation_xyz
x,y,z
x,-y,1/2+z
1/2+x,1/2+y,z
1/2+x,1/2-y,1/2+z
loop_
_atom_site_type_symbol
_atom_site_label
_atom_site_fract_x
_atom_site_fract_y
_atom_site_fract_z
Si Si1 0.233740 0.711331 0.691200
Si Si2 0.781899 0.500664 0.627148
Si Si3 0.418921 0.373649 0.777599
Si Si4 0.693432 0.631961 0.536755
Si Si5 0.995982 0.122295 0.819011
Si Si6 0.470235 0.093548 0.830847
Si Si7 0.043205 0.630111 0.023943
O O1 0.255226 0.860703 0.587047
O O2 0.315294 0.612014 0.507807
O O3 0.217893 0.728785 0.903167
O O4 0.142180 0.658892 0.786780
O O5 0.740943 0.630888 0.614556
O O6 0.736651 0.496886 0.872663
O O7 0.886778 0.505932 0.455326
O O8 0.472155 0.498613 0.752062
O O9 0.426074 0.367886 0.582112
O O10 0.459897 0.238386 0.773220
O O11 0.589605 0.604502 0.734309
O O12 0.000423 0.253849 0.705276
O O13 0.548493 0.010617 0.608654
O O14 0.482762 0.113209 0.986018
#
# Coordination Sequence:
#
# PCOD8056219 Si02
#       7
#     4   4   4   4   4   4   4
#     4   8  22  39  62  87 132 163 209 261 325 385
#     4   9  18  36  59  91 119 165 208 262 302 377
#     4  11  23  42  63  97 126 171 213 265 318 384
#     4   9  18  36  60  89 122 164 208 264 301 379
#     4  11  23  39  69  94 128 168 219 261 321 382
#     4  11  23  38  69  91 129 167 215 265 320 380
#     4  11  23  44  64  95 128 172 212 266 321 387
#
# _framework density 21.134167000000001
#
# number of rings (size 3 to 8) (size 9 to 14) (size 15 to 20)
#    0.857    1.143    0.000    3.429    2.000    2.286 
#    0.000    0.000    3.143    0.000    0.000    0.000 
#    0.000    0.000    0.000    0.000    0.000    0.000 
#
# Total GULP energy -173471.001420 kJ/mol
# GULP energy per Si atom -12390.785816 kJ/mol
# Density = 2.108606 g / cm^3
# Si number density = 21.134167 Si / 1000 Ang^3
#
#
#
# Elastic Constant Matrix: (Units=GPa)
#
#
# Indices 1 2 3 4 5 6 
#
# 1 112.3714 43.0044 40.1278 0.0000 -2.0492 0.0000
# 2 43.0044 85.4132 31.7437 0.0000 1.6506 0.0000
# 3 40.1278 31.7437 106.2606 0.0000 -7.5926 0.0000
# 4 0.0000 0.0000 0.0000 28.6797 0.0000 5.8594
# 5 -2.0492 1.6506 -7.5926 0.0000 39.6310 0.0000
# 6 0.0000 0.0000 0.0000 5.8594 0.0000 21.8299
#
#
#
# Elastic Compliance Matrix: (Units=1/GPa)
#
#
# Indices 1 2 3 4 5 6 
#
# 1 0.011830 -0.004845 -0.003003 0.000000 0.000238 0.000000
# 2 -0.004845 0.015223 -0.002820 0.000000 -0.001425 0.000000
# 3 -0.003003 -0.002820 0.011543 0.000000 0.002174 0.000000
# 4 0.000000 0.000000 0.000000 0.036891 0.000000 -0.009902
# 5 0.000238 -0.001425 0.002174 0.000000 0.025721 0.000000
# 6 0.000000 0.000000 0.000000 -0.009902 0.000000 0.048467
#
#
# Mechanical properties :
#
#
# Convention : Reuss Voigt Hill
#
# Bulk Modulus (GPa) = 57.93786 59.31076 58.62431
# Shear Modulus (GPa) = 28.28667 30.63939 29.46303
#
# Velocity S-wave (km/s) = 3.66243 3.81170 3.73781
# Velocity P-wave (km/s) = 6.73486 6.89180 6.81378
#
# Compressibility (1/GPa) = 0.01725987
#
# Stress axis : x y z
#
# Youngs Moduli (GPa) = 84.53185 65.69213 86.63587
#
# Poissons Ratio (x) = 0.31826 0.26018
# Poissons Ratio (y) = 0.40953 0.24429
# Poissons Ratio (z) = 0.25386 0.18524
#
# Static dielectric constant tensor:
#      x y z
#    x 3.647770 0.000000 -0.084270 
#    y 0.000000 3.533830 0.000000 
#    z -0.084270 0.000000 3.858210 
# 
# 
# High freq. dielectric constant tensor:
#      x y z
#    x 1.822680 0.000000 -0.003610 
#    y 0.000000 1.802380 0.000000 
#    z -0.003610 0.000000 1.835690 
# 
# From -- ./inp_files/11405.got.cif
#   From: 2010.06.25/outbox.cif.g09.slc.cpg/sg9_6_cif.got.tgz:11405.got - 2010.06.27 21:40:51.
