data_PCOD8056791
_publ_section_title
;
Structure prediction by ZEFSAII (Michael W. Deem and Ramdas Pophale) SiO2 
 PCOD8056791
Probable space group: C C
;
_chemical_formula_sum "Si O2"
_cell_formula_units_Z 16
_cell_length_a 13.134326
_cell_length_b 4.931645
_cell_length_c 9.333733
_cell_angle_alpha 90.000000
_cell_angle_beta 111.948740
_cell_angle_gamma 90.000000
_cell_volume 560.760755
_symmetry_space_group_name_H-M "C C"
_symmetry_group_IT_number 9
_symmetry_cell_setting 'monoclinic'
loop_
_space_group_symop_operation_xyz
x,y,z
x,-y,1/2+z
1/2+x,1/2+y,z
1/2+x,1/2-y,1/2+z
loop_
_atom_site_type_symbol
_atom_site_label
_atom_site_fract_x
_atom_site_fract_y
_atom_site_fract_z
Si Si1 0.555900 0.667062 0.764570
Si Si2 0.352426 0.529583 0.489046
Si Si3 0.690355 0.697666 0.552679
Si Si4 0.883590 0.532963 0.313530
O O1 0.452063 0.489418 0.653517
O O2 0.632831 0.761547 0.674019
O O3 0.508983 0.940873 0.818400
O O4 0.615211 0.472219 0.907305
O O5 0.233478 0.480360 0.503666
O O6 0.357352 0.330846 0.357859
O O7 0.367610 0.829472 0.435183
O O8 0.800761 0.521493 0.638893
#
# Coordination Sequence:
#
# PCOD8056791 Si02
#       4
#     4   4   4   4
#     4  12  28  57  93 136 181 241 300 377 459 533
#     4  12  28  57  85 135 184 231 301 375 444 548
#     4  12  28  57  93 136 181 241 300 377 459 533
#     4  12  28  57  85 135 184 231 301 375 444 548
#
# _framework density 28.532665999999999
#
# number of rings (size 3 to 8) (size 9 to 14) (size 15 to 20)
#    0.000    0.000    5.000    3.000    0.000    2.000 
#    9.000    0.000    0.000    0.000    0.000    0.000 
#    0.000    0.000    0.000    0.000    0.000    0.000 
#
# Total GULP energy -99220.898237 kJ/mol
# GULP energy per Si atom -12402.612280 kJ/mol
# Density = 2.846772 g / cm^3
# Si number density = 28.532666 Si / 1000 Ang^3
#
#
#
# Elastic Constant Matrix: (Units=GPa)
#
#
# Indices 1 2 3 4 5 6 
#
# 1 232.6802 63.9509 65.6867 0.0000 -36.6273 0.0000
# 2 63.9509 108.9211 54.3427 0.0000 -19.0216 0.0000
# 3 65.6867 54.3427 148.8078 0.0000 -15.9477 0.0000
# 4 0.0000 0.0000 0.0000 16.2379 0.0000 -14.4434
# 5 -36.6273 -19.0216 -15.9477 0.0000 76.5256 0.0000
# 6 0.0000 0.0000 0.0000 -14.4434 0.0000 70.3513
#
#
#
# Elastic Compliance Matrix: (Units=1/GPa)
#
#
# Indices 1 2 3 4 5 6 
#
# 1 0.005616 -0.002249 -0.001462 0.000000 0.001824 0.000000
# 2 -0.002249 0.012429 -0.003406 0.000000 0.001303 0.000000
# 3 -0.001462 -0.003406 0.008637 0.000000 0.000253 0.000000
# 4 0.000000 0.000000 0.000000 0.075343 0.000000 0.015468
# 5 0.001824 0.001303 0.000253 0.000000 0.014317 0.000000
# 6 0.000000 0.000000 0.000000 0.015468 0.000000 0.017390
#
#
# Mechanical properties :
#
#
# Convention : Reuss Voigt Hill
#
# Bulk Modulus (GPa) = 80.34828 95.37438 87.86133
# Shear Modulus (GPa) = 32.86988 53.05155 42.96072
#
# Velocity S-wave (km/s) = 3.39781 4.31667 3.88450
# Velocity P-wave (km/s) = 6.60414 7.63831 7.13998
#
# Compressibility (1/GPa) = 0.01244582
#
# Stress axis : x y z
#
# Youngs Moduli (GPa) = 178.06851 80.46018 115.78721
#
# Poissons Ratio (x) = 0.18097 0.16929
# Poissons Ratio (y) = 0.40051 0.39440
# Poissons Ratio (z) = 0.26035 0.27407
#
# Static dielectric constant tensor:
#      x y z
#    x 6.161590 0.000000 0.130310 
#    y 0.000000 5.042060 0.000000 
#    z 0.130310 0.000000 5.732590 
# 
# 
# High freq. dielectric constant tensor:
#      x y z
#    x 2.180470 0.000000 -0.006880 
#    y 0.000000 2.149140 0.000000 
#    z -0.006880 0.000000 2.186760 
# 
# From -- ./inp_files/8653.got.cif
#   From: 2010.06.25/outbox.cif.g09.slc.cpg/sg9_5_cif.got.tgz:8653.got - 2010.06.27 21:40:51.
