data_PCOD8056796
_publ_section_title
;
Structure prediction by ZEFSAII (Michael W. Deem and Ramdas Pophale) SiO2 
 PCOD8056796
Probable space group: C C
;
_chemical_formula_sum "Si O2"
_cell_formula_units_Z 16
_cell_length_a 9.000000
_cell_length_b 24.000000
_cell_length_c 15.000000
_cell_angle_alpha 90.000000
_cell_angle_beta 150.000000
_cell_angle_gamma 90.000000
_cell_volume 1620.000000
_symmetry_space_group_name_H-M "C C"
_symmetry_group_IT_number 9
_symmetry_cell_setting 'monoclinic'
loop_
_space_group_symop_operation_xyz
x,y,z
x,-y,1/2+z
1/2+x,1/2+y,z
1/2+x,1/2-y,1/2+z
loop_
_atom_site_type_symbol
_atom_site_label
_atom_site_fract_x
_atom_site_fract_y
_atom_site_fract_z
Si Si1 0.566600 0.600845 0.361950
Si Si2 0.031380 0.603139 0.962318
Si Si3 0.019118 0.519590 0.517920
Si Si4 0.956079 0.115039 0.759988
Si Si5 0.155328 0.075533 0.055090
Si Si6 0.836221 0.175933 0.970370
Si Si7 0.254757 0.525242 0.325142
Si Si8 0.030084 0.301386 0.126347
O O1 0.498907 0.571824 0.422636
O O2 0.711849 0.554520 0.370394
O O3 0.748247 0.657727 0.470418
O O4 0.261405 0.619699 0.158701
O O5 0.126805 0.638129 0.924888
O O6 0.712863 0.628940 0.823022
O O7 0.003373 0.534159 0.942211
O O8 0.258136 0.566104 0.611989
O O9 0.092615 0.497779 0.653902
O O10 0.776777 0.172524 0.687030
O O11 0.106361 0.089460 0.926232
O O12 0.102576 0.132673 0.083749
O O13 0.493033 0.053747 0.248939
O O14 0.922220 0.026103 0.962306
O O15 0.644223 0.193373 0.785852
O O16 0.962340 0.235290 0.074343
#
# Coordination Sequence:
#
# PCOD8056796 Si02
#       8
#     4   4   4   4   4   4   4   4
#     4  10  18  34  68  90 118 164 200 240 300 367
#     4  11  19  35  60  94 122 152 201 252 299 357
#     4   9  16  31  57  92 126 160 195 231 298 373
#     4   9  18  35  63  89 118 163 203 243 293 367
#     4  10  19  35  59  90 125 161 193 244 298 371
#     4  11  25  42  62  85 123 162 206 256 307 346
#     4  10  16  31  58  92 124 155 196 230 301 367
#     4  10  23  45  63  80 118 165 212 248 300 360
#
# _framework density 9.8765429999999999
#
# number of rings (size 3 to 8) (size 9 to 14) (size 15 to 20)
#    0.000    2.000    3.750    3.000    0.000    0.000 
#    6.750    1.250    2.750    0.000    0.000    0.000 
#    0.000    0.000    0.000    0.000    0.000    0.000 
#
# Total GULP energy -198212.574137 kJ/mol
# GULP energy per Si atom -12388.285884 kJ/mol
# Density = 0.985406 g / cm^3
# Si number density = 9.876543 Si / 1000 Ang^3
#
#
#
# Elastic Constant Matrix: (Units=GPa)
#
#
# Indices 1 2 3 4 5 6 
#
# 1 102.4094 73.2394 40.7622 -0.0002 27.3609 0.0002
# 2 73.2394 197.3796 49.8780 0.0003 17.6253 0.0001
# 3 40.7622 49.8780 66.5261 -0.0003 23.1493 -0.0012
# 4 -0.0002 0.0003 -0.0003 28.9237 -0.0003 -0.6920
# 5 27.3609 17.6253 23.1493 -0.0003 35.0583 -0.0002
# 6 0.0002 0.0001 -0.0012 -0.6920 -0.0002 36.3639
#
#
#
# Elastic Compliance Matrix: (Units=1/GPa)
#
#
# Indices 1 2 3 4 5 6 
#
# 1 0.016754 -0.004456 -0.004095 0.000000 -0.008131 0.000000
# 2 -0.004456 0.007436 -0.003576 0.000000 0.002100 0.000000
# 3 -0.004095 -0.003576 0.023998 0.000000 -0.010852 0.000001
# 4 0.000000 0.000000 0.000000 0.034589 0.000000 0.000658
# 5 -0.008131 0.002100 -0.010852 0.000000 0.040980 0.000000
# 6 0.000000 0.000000 0.000001 0.000658 0.000000 0.027512
#
#
# Mechanical properties :
#
#
# Convention : Reuss Voigt Hill
#
# Bulk Modulus (GPa) = 41.78112 77.11938 59.45025
# Shear Modulus (GPa) = 27.24785 33.56488 30.40637
#
# Velocity S-wave (km/s) = 3.71809 4.12663 3.92768
# Velocity P-wave (km/s) = 6.29522 7.86333 7.12256
#
# Compressibility (1/GPa) = 0.02393425
#
# Stress axis : x y z
#
# Youngs Moduli (GPa) = 59.68827 134.48604 41.66971
#
# Poissons Ratio (x) = 0.59922 0.17066
# Poissons Ratio (y) = 0.26595 0.14900
# Poissons Ratio (z) = 0.24445 0.48088
#
# Static dielectric constant tensor:
#      x y z
#    x 3.561510 0.000000 0.307500 
#    y 0.000000 4.126860 0.000000 
#    z 0.307500 0.000000 3.557150 
# 
# 
# High freq. dielectric constant tensor:
#      x y z
#    x 1.760690 0.000000 0.025180 
#    y 0.000000 1.789920 0.000000 
#    z 0.025180 0.000000 1.765490 
# 
# From -- ./inp_files/6019.got.cif
#   From: 2010.06.25/outbox.ucp.g09.slc.cvg/sg9_4_cif.got.tgz:6019.got - 2010.06.28 13:32:59.
