data_PCOD8056014
_publ_section_title
;
Structure prediction by ZEFSAII (Michael W. Deem and Ramdas Pophale) SiO2 
 PCOD8056014
Probable space group: C C
;
_chemical_formula_sum "Si O2"
_cell_formula_units_Z 28
_cell_length_a 20.984130
_cell_length_b 5.210900
_cell_length_c 21.668203
_cell_angle_alpha 90.000000
_cell_angle_beta 25.776106
_cell_angle_gamma 90.000000
_cell_volume 1030.318914
_symmetry_space_group_name_H-M "C C"
_symmetry_group_IT_number 9
_symmetry_cell_setting 'monoclinic'
loop_
_space_group_symop_operation_xyz
x,y,z
x,-y,1/2+z
1/2+x,1/2+y,z
1/2+x,1/2-y,1/2+z
loop_
_atom_site_type_symbol
_atom_site_label
_atom_site_fract_x
_atom_site_fract_y
_atom_site_fract_z
Si Si1 0.916410 0.246453 0.646730
Si Si2 0.061706 0.956411 0.792738
Si Si3 0.826594 0.341130 0.007573
Si Si4 0.224134 0.745043 0.327094
Si Si5 0.598130 0.090545 0.559088
Si Si6 0.885234 0.694527 0.850666
Si Si7 0.532385 0.888188 0.418901
O O1 0.802381 0.487627 0.743895
O O2 0.055807 0.307502 0.570058
O O3 0.981195 0.218583 0.521625
O O4 0.840533 0.987207 0.735645
O O5 0.163525 0.185214 0.677667
O O6 0.132013 0.803592 0.789728
O O7 0.028450 0.779338 0.763044
O O8 0.904338 0.071554 0.948887
O O9 0.826317 0.436315 0.936112
O O10 0.899766 0.553322 0.988186
O O11 0.124188 0.775309 0.476255
O O12 0.119483 0.648030 0.361898
O O13 0.748468 0.101302 0.467758
O O14 0.448164 0.158948 0.726765
#
# Coordination Sequence:
#
# PCOD8056014 Si02
#       7
#     4   4   4   4   4   4   4
#     4  11  26  48  78 116 156 203 254 316 389 459
#     4  11  26  46  72 114 149 203 256 323 390 459
#     4  11  26  44  76 108 151 200 261 321 393 457
#     4  11  26  48  77 116 157 202 256 314 388 463
#     4  11  24  49  78 108 157 199 259 316 391 461
#     4  11  24  51  72 108 152 198 258 321 389 462
#     4  10  26  44  77 106 158 195 260 317 390 457
#
# _framework density 27.17605
#
# number of rings (size 3 to 8) (size 9 to 14) (size 15 to 20)
#    0.000    1.143    2.857    0.857    8.000    5.714 
#    5.143    0.000    0.000    0.000    0.000    0.000 
#    0.000    0.000    0.000    0.000    0.000    0.000 
#
# Total GULP energy -173478.390895 kJ/mol
# GULP energy per Si atom -12391.313635 kJ/mol
# Density = 2.711420 g / cm^3
# Si number density = 27.176050 Si / 1000 Ang^3
#
#
#
# Elastic Constant Matrix: (Units=GPa)
#
#
# Indices 1 2 3 4 5 6 
#
# 1 117.2009 12.5239 39.5426 0.0305 14.5798 0.0542
# 2 12.5239 65.4655 18.5392 0.4067 14.8467 -0.2864
# 3 39.5426 18.5392 121.4007 0.2562 15.9282 -0.2199
# 4 0.0305 0.4067 0.2562 39.4594 0.0008 -4.4184
# 5 14.5798 14.8467 15.9282 0.0008 41.2614 -0.0385
# 6 0.0542 -0.2864 -0.2199 -4.4184 -0.0385 28.9685
#
#
#
# Elastic Compliance Matrix: (Units=1/GPa)
#
#
# Indices 1 2 3 4 5 6 
#
# 1 0.009818 -0.000587 -0.002824 0.000012 -0.002168 -0.000047
# 2 -0.000587 0.017072 -0.001724 -0.000150 -0.005270 0.000127
# 3 -0.002824 -0.001724 0.009699 -0.000037 -0.002126 0.000053
# 4 0.000012 -0.000150 -0.000037 0.025784 0.000067 0.003931
# 5 -0.002168 -0.005270 -0.002126 0.000067 0.027719 -0.000017
# 6 -0.000047 0.000127 0.000053 0.003931 -0.000017 0.035122
#
#
# Mechanical properties :
#
#
# Convention : Reuss Voigt Hill
#
# Bulk Modulus (GPa) = 37.99456 49.47538 43.73497
# Shear Modulus (GPa) = 34.66042 37.50196 36.08119
#
# Velocity S-wave (km/s) = 3.57515 3.71882 3.64769
# Velocity P-wave (km/s) = 5.57257 6.05677 5.81971
#
# Compressibility (1/GPa) = 0.02631955
#
# Stress axis : x y z
#
# Youngs Moduli (GPa) = 101.85887 58.57413 103.09989
#
# Poissons Ratio (x) = 0.03439 0.29113
# Poissons Ratio (y) = 0.05980 0.17774
# Poissons Ratio (z) = 0.28763 0.10098
#
# Static dielectric constant tensor:
#      x y z
#    x 5.131790 -0.000170 0.043770 
#    y -0.000170 4.401080 0.000190 
#    z 0.043770 0.000190 5.082700 
# 
# 
# High freq. dielectric constant tensor:
#      x y z
#    x 2.109580 -0.000020 0.004330 
#    y -0.000020 2.067860 0.000030 
#    z 0.004330 0.000030 2.104980 
# 
# From -- ./inp_files/34259.got.cif
#   From: 2010.06.25/outbox.cif.g09.slc.cpg/sg9_18_cif.got.tgz:34259.got - 2010.06.27 21:40:51.
