data_PCOD8056128
_publ_section_title
;
Structure prediction by ZEFSAII (Michael W. Deem and Ramdas Pophale) SiO2 
 PCOD8056128
Probable space group: C C
;
_chemical_formula_sum "Si O2"
_cell_formula_units_Z 32
_cell_length_a 18.207730
_cell_length_b 9.685893
_cell_length_c 8.494034
_cell_angle_alpha 90.000000
_cell_angle_beta 105.257628
_cell_angle_gamma 90.000000
_cell_volume 1445.191132
_symmetry_space_group_name_H-M "C C"
_symmetry_group_IT_number 9
_symmetry_cell_setting 'monoclinic'
loop_
_space_group_symop_operation_xyz
x,y,z
x,-y,1/2+z
1/2+x,1/2+y,z
1/2+x,1/2-y,1/2+z
loop_
_atom_site_type_symbol
_atom_site_label
_atom_site_fract_x
_atom_site_fract_y
_atom_site_fract_z
Si Si1 0.928270 0.585002 0.793120
Si Si2 0.500463 0.308121 0.661940
Si Si3 0.527277 0.581130 0.857365
Si Si4 0.262109 0.139750 0.802339
Si Si5 0.509237 0.842351 0.656746
Si Si6 0.676785 0.889729 0.646805
Si Si7 0.194620 0.911808 0.581120
Si Si8 0.660276 0.825923 0.270853
O O1 0.840822 0.571990 0.790550
O O2 0.930785 0.707315 0.664784
O O3 0.965223 0.442588 0.753862
O O4 0.977031 0.639692 0.965873
O O5 0.515353 0.423002 0.803346
O O6 0.480055 0.385302 0.488719
O O7 0.571419 0.202555 0.687140
O O8 0.498006 0.684511 0.705681
O O9 0.615365 0.606883 0.946589
O O10 0.246436 0.301364 0.761076
O O11 0.197187 0.061875 0.663551
O O12 0.259674 0.110774 0.987436
O O13 0.599533 0.867315 0.702856
O O14 0.672134 0.853793 0.460942
O O15 0.693790 0.050727 0.682416
O O16 0.206260 0.807068 0.734107
#
# Coordination Sequence:
#
# PCOD8056128 Si02
#       8
#     4   4   4   4   4   4   4   4
#     4  12  26  43  67 102 141 184 222 291 358 423
#     4  11  22  40  63  98 132 173 226 282 348 407
#     4  11  23  39  69  98 129 173 230 294 328 402
#     4  12  25  44  68  99 145 180 227 284 363 423
#     4  12  23  42  69  99 136 178 235 279 342 411
#     4  12  22  42  66 103 128 180 228 290 334 410
#     4  11  23  42  66 101 133 179 227 284 349 413
#     4  11  24  38  70  98 132 167 231 290 338 399
#
# _framework density 22.142399000000001
#
# number of rings (size 3 to 8) (size 9 to 14) (size 15 to 20)
#    0.000    0.500    3.750    6.000    3.500    0.000 
#    0.000    7.500    0.000    0.000    0.000    0.000 
#    0.000    0.000    0.000    0.000    0.000    0.000 
#
# Total GULP energy -198393.931987 kJ/mol
# GULP energy per Si atom -12399.620749 kJ/mol
# Density = 2.209200 g / cm^3
# Si number density = 22.142399 Si / 1000 Ang^3
#
#
#
# Elastic Constant Matrix: (Units=GPa)
#
#
# Indices 1 2 3 4 5 6 
#
# 1 79.7681 18.7996 12.1771 0.0000 -22.2193 0.0000
# 2 18.7996 115.2655 6.7138 0.0000 -9.3806 0.0000
# 3 12.1771 6.7138 53.5888 0.0000 -26.8134 0.0000
# 4 0.0000 0.0000 0.0000 41.8332 0.0000 -7.5389
# 5 -22.2193 -9.3806 -26.8134 0.0000 31.6017 0.0000
# 6 0.0000 0.0000 0.0000 -7.5389 0.0000 27.3975
#
#
#
# Elastic Compliance Matrix: (Units=1/GPa)
#
#
# Indices 1 2 3 4 5 6 
#
# 1 0.016278 -0.001728 0.003454 0.000000 0.013863 0.000000
# 2 -0.001728 0.009078 -0.000007 0.000000 0.001473 0.000000
# 3 0.003454 -0.000007 0.033175 0.000000 0.030574 0.000000
# 4 0.000000 0.000000 0.000000 0.025152 0.000000 0.006921
# 5 0.013863 0.001473 0.030574 0.000000 0.067770 0.000000
# 6 0.000000 0.000000 0.000000 0.006921 0.000000 0.038404
#
#
# Mechanical properties :
#
#
# Convention : Reuss Voigt Hill
#
# Bulk Modulus (GPa) = 16.13753 36.00038 26.06895
# Shear Modulus (GPa) = 24.14591 34.22860 29.18726
#
# Velocity S-wave (km/s) = 3.30583 3.93598 3.63459
# Velocity P-wave (km/s) = 4.67710 6.07864 5.42333
#
# Compressibility (1/GPa) = 0.06196737
#
# Stress axis : x y z
#
# Youngs Moduli (GPa) = 61.43369 110.15908 30.14344
#
# Poissons Ratio (x) = 0.19034 -0.10411
# Poissons Ratio (y) = 0.10615 0.00022
# Poissons Ratio (z) = -0.21218 0.00082
#
# Static dielectric constant tensor:
#      x y z
#    x 3.759800 0.000000 -0.378810 
#    y 0.000000 4.231980 0.000000 
#    z -0.378810 0.000000 4.106900 
# 
# 
# High freq. dielectric constant tensor:
#      x y z
#    x 1.836050 0.000000 -0.028410 
#    y 0.000000 1.887750 0.000000 
#    z -0.028410 0.000000 1.883050 
# 
# From -- ./inp_files/11351.got.cif
#   From: 2010.06.25/outbox.cif.g09.slc.cpg/sg9_6_cif.got.tgz:11351.got - 2010.06.27 21:40:51.
