data_PCOD8056115
_publ_section_title
;
Structure prediction by ZEFSAII (Michael W. Deem and Ramdas Pophale) SiO2 
 PCOD8056115
Probable space group: C C
;
_chemical_formula_sum "Si O2"
_cell_formula_units_Z 24
_cell_length_a 11.262955
_cell_length_b 8.375458
_cell_length_c 9.254475
_cell_angle_alpha 90.000000
_cell_angle_beta 86.649155
_cell_angle_gamma 90.000000
_cell_volume 871.504371
_symmetry_space_group_name_H-M "C C"
_symmetry_group_IT_number 9
_symmetry_cell_setting 'monoclinic'
loop_
_space_group_symop_operation_xyz
x,y,z
x,-y,1/2+z
1/2+x,1/2+y,z
1/2+x,1/2-y,1/2+z
loop_
_atom_site_type_symbol
_atom_site_label
_atom_site_fract_x
_atom_site_fract_y
_atom_site_fract_z
Si Si1 0.272550 0.689152 0.582950
Si Si2 0.478753 0.889583 0.879986
Si Si3 0.521238 0.841501 0.575105
Si Si4 0.875074 0.157745 0.098936
Si Si5 0.760083 0.619486 0.808401
Si Si6 0.090724 0.160611 0.296953
O O1 0.382263 0.804140 0.615633
O O2 0.310754 0.506089 0.565885
O O3 0.222520 0.752730 0.433939
O O4 0.173345 0.707940 0.714055
O O5 0.567622 0.850612 0.738241
O O6 0.376440 0.016449 0.841222
O O7 0.431988 0.721663 0.946092
O O8 0.548037 0.984667 0.002280
O O9 0.574589 0.705926 0.467005
O O10 0.779003 0.288969 0.155323
O O11 0.964706 0.144038 0.227315
O O12 0.646101 0.512833 0.787899
#
# Coordination Sequence:
#
# PCOD8056115 Si02
#       6
#     4   4   4   4   4   4
#     4  11  27  49  78 122 159 206 285 336 406 501
#     4  11  21  51  79 114 174 208 260 359 397 485
#     4  11  23  48  81 116 162 209 274 330 408 491
#     4  12  27  52  84 117 167 210 283 353 406 495
#     4  11  24  53  82 116 167 216 276 345 410 492
#     4  12  26  53  86 115 161 227 272 337 433 476
#
# _framework density 27.538589000000002
#
# number of rings (size 3 to 8) (size 9 to 14) (size 15 to 20)
#    0.000    0.667    6.667    1.000    4.667    0.000 
#   12.000    3.333    0.000    0.000    0.000    0.000 
#    0.000    0.000    0.000    0.000    0.000    0.000 
#
# Total GULP energy -148851.956481 kJ/mol
# GULP energy per Si atom -12404.329707 kJ/mol
# Density = 2.747591 g / cm^3
# Si number density = 27.538589 Si / 1000 Ang^3
#
#
#
# Elastic Constant Matrix: (Units=GPa)
#
#
# Indices 1 2 3 4 5 6 
#
# 1 55.2043 34.3153 40.6815 0.0000 -18.8355 0.0000
# 2 34.3153 191.8646 83.3670 0.0000 0.9917 0.0000
# 3 40.6815 83.3670 234.6212 0.0000 -18.8995 0.0000
# 4 0.0000 0.0000 0.0000 58.7797 0.0000 -9.4650
# 5 -18.8355 0.9917 -18.8995 0.0000 30.6578 0.0000
# 6 0.0000 0.0000 0.0000 -9.4650 0.0000 43.0728
#
#
#
# Elastic Compliance Matrix: (Units=1/GPa)
#
#
# Indices 1 2 3 4 5 6 
#
# 1 0.027583 -0.004128 -0.002041 0.000000 0.015822 0.000000
# 2 -0.004128 0.006860 -0.002045 0.000000 -0.004019 0.000000
# 3 -0.002041 -0.002045 0.005521 0.000000 0.002216 0.000000
# 4 0.000000 0.000000 0.000000 0.017637 0.000000 0.003876
# 5 0.015822 -0.004019 0.002216 0.000000 0.043834 0.000000
# 6 0.000000 0.000000 0.000000 0.003876 0.000000 0.024068
#
#
# Mechanical properties :
#
#
# Convention : Reuss Voigt Hill
#
# Bulk Modulus (GPa) = 42.49062 88.71308 65.60185
# Shear Modulus (GPa) = 33.38260 48.05714 40.71987
#
# Velocity S-wave (km/s) = 3.48546 4.18195 3.84949
# Velocity P-wave (km/s) = 5.62680 7.45670 6.60542
#
# Compressibility (1/GPa) = 0.02353461
#
# Stress axis : x y z
#
# Youngs Moduli (GPa) = 36.25396 145.77540 181.11196
#
# Poissons Ratio (x) = 0.60177 0.36973
# Poissons Ratio (y) = 0.14966 0.37046
# Poissons Ratio (z) = 0.07401 0.29818
#
# Static dielectric constant tensor:
#      x y z
#    x 4.951310 0.000000 -0.112450 
#    y 0.000000 5.023370 0.000000 
#    z -0.112450 0.000000 5.386150 
# 
# 
# High freq. dielectric constant tensor:
#      x y z
#    x 2.105690 0.000000 -0.006010 
#    y 0.000000 2.120980 0.000000 
#    z -0.006010 0.000000 2.128090 
# 
# From -- ./inp_files/6728.got.cif
#   From: 2010.06.25/outbox.cif.g09.slc.cpg/sg9_4_cif.got.tgz:6728.got - 2010.06.27 21:40:51.
