data_PCOD8056629
_publ_section_title
;
Structure prediction by ZEFSAII (Michael W. Deem and Ramdas Pophale) SiO2 
 PCOD8056629
Probable space group: C C
;
_chemical_formula_sum "Si O2"
_cell_formula_units_Z 20
_cell_length_a 24.609038
_cell_length_b 4.892843
_cell_length_c 17.413961
_cell_angle_alpha 90.000000
_cell_angle_beta 161.824150
_cell_angle_gamma 90.000000
_cell_volume 654.058913
_symmetry_space_group_name_H-M "C C"
_symmetry_group_IT_number 9
_symmetry_cell_setting 'monoclinic'
loop_
_space_group_symop_operation_xyz
x,y,z
x,-y,1/2+z
1/2+x,1/2+y,z
1/2+x,1/2-y,1/2+z
loop_
_atom_site_type_symbol
_atom_site_label
_atom_site_fract_x
_atom_site_fract_y
_atom_site_fract_z
Si Si1 0.027750 0.905053 0.616230
Si Si2 0.294097 0.269560 0.906138
Si Si3 0.237525 0.510768 0.985318
Si Si4 0.551725 0.828601 0.450972
Si Si5 0.208255 0.809128 0.589855
O O1 0.058394 0.668570 0.721793
O O2 0.888911 0.799717 0.368190
O O3 0.215614 0.970610 0.826508
O O4 0.956481 0.183907 0.564602
O O5 0.339125 0.435095 0.043519
O O6 0.123087 0.387497 0.632378
O O7 0.355295 0.721693 0.192704
O O8 0.203612 0.241242 0.991634
O O9 0.676037 0.619780 0.571014
O O10 0.548452 0.121526 0.405084
#
# Coordination Sequence:
#
# PCOD8056629 Si02
#       5
#     4   4   4   4   4
#     4  11  28  50  84 121 173 220 283 347 427 497
#     4  11  28  51  81 120 167 221 280 346 417 503
#     4  12  28  48  86 119 166 223 284 348 418 506
#     4  11  28  51  78 118 167 221 273 345 418 498
#     4  11  28  50  79 118 169 215 280 340 420 498
#
# _framework density 30.578289000000002
#
# number of rings (size 3 to 8) (size 9 to 14) (size 15 to 20)
#    0.000    0.800    2.000    1.200   19.600    0.000 
#    0.000    0.000    0.000    0.000    0.000    0.000 
#    0.000    0.000    0.000    0.000    0.000    0.000 
#
# Total GULP energy -123901.038182 kJ/mol
# GULP energy per Si atom -12390.103818 kJ/mol
# Density = 3.050869 g / cm^3
# Si number density = 30.578289 Si / 1000 Ang^3
#
#
#
# Elastic Constant Matrix: (Units=GPa)
#
#
# Indices 1 2 3 4 5 6 
#
# 1 122.1140 6.5561 19.5206 -0.0008 -22.2456 -0.0001
# 2 6.5561 59.1667 4.5795 0.0024 4.6677 -0.0005
# 3 19.5206 4.5795 111.6484 0.0003 -30.2312 0.0000
# 4 -0.0008 0.0024 0.0003 46.7639 -0.0002 11.8058
# 5 -22.2456 4.6677 -30.2312 -0.0002 48.6827 -0.0001
# 6 -0.0001 -0.0005 0.0000 11.8058 -0.0001 33.1391
#
#
#
# Elastic Compliance Matrix: (Units=1/GPa)
#
#
# Indices 1 2 3 4 5 6 
#
# 1 0.009055 -0.001282 -0.000453 0.000000 0.003979 0.000000
# 2 -0.001282 0.017388 -0.001321 -0.000001 -0.003074 0.000001
# 3 -0.000453 -0.001321 0.010901 0.000000 0.006689 0.000000
# 4 0.000000 -0.000001 0.000000 0.023497 0.000000 -0.008371
# 5 0.003979 -0.003074 0.006689 0.000000 0.026808 0.000000
# 6 0.000000 0.000001 0.000000 -0.008371 0.000000 0.033158
#
#
# Mechanical properties :
#
#
# Convention : Reuss Voigt Hill
#
# Bulk Modulus (GPa) = 32.01891 39.36017 35.68954
# Shear Modulus (GPa) = 36.40810 43.20199 39.80505
#
# Velocity S-wave (km/s) = 3.45433 3.76284 3.61188
# Velocity P-wave (km/s) = 5.13845 5.63725 5.39362
#
# Compressibility (1/GPa) = 0.03123155
#
# Stress axis : x y z
#
# Youngs Moduli (GPa) = 110.43296 57.51019 91.73176
#
# Poissons Ratio (x) = 0.07374 0.04157
# Poissons Ratio (y) = 0.14160 0.12120
# Poissons Ratio (z) = 0.05004 0.07599
#
# Static dielectric constant tensor:
#      x y z
#    x 5.659850 0.000000 -0.194430 
#    y 0.000000 5.558190 0.000000 
#    z -0.194430 0.000000 6.136770 
# 
# 
# High freq. dielectric constant tensor:
#      x y z
#    x 2.248710 0.000000 -0.019390 
#    y 0.000000 2.248430 0.000000 
#    z -0.019390 0.000000 2.280950 
# 
# From -- ./inp_files/15771.got.cif
#   From: 2010.06.25/outbox.cif.g09.slc.cpg/sg9_8_cif.got.tgz:15771.got - 2010.06.27 21:40:51.
