data_PCOD8056658
_publ_section_title
;
Structure prediction by ZEFSAII (Michael W. Deem and Ramdas Pophale) SiO2 
 PCOD8056658
Probable space group: C C
;
_chemical_formula_sum "Si O2"
_cell_formula_units_Z 32
_cell_length_a 11.488764
_cell_length_b 14.158683
_cell_length_c 16.676336
_cell_angle_alpha 90.000000
_cell_angle_beta 147.071710
_cell_angle_gamma 90.000000
_cell_volume 1474.576888
_symmetry_space_group_name_H-M "C C"
_symmetry_group_IT_number 9
_symmetry_cell_setting 'monoclinic'
loop_
_space_group_symop_operation_xyz
x,y,z
x,-y,1/2+z
1/2+x,1/2+y,z
1/2+x,1/2-y,1/2+z
loop_
_atom_site_type_symbol
_atom_site_label
_atom_site_fract_x
_atom_site_fract_y
_atom_site_fract_z
Si Si1 0.835970 0.867685 0.348590
Si Si2 0.887908 0.910686 0.552859
Si Si3 0.850024 0.655553 0.329679
Si Si4 0.119121 0.577230 0.350612
Si Si5 0.984284 0.466712 0.046858
Si Si6 0.901764 0.832817 0.882614
Si Si7 0.164970 0.346406 0.581374
Si Si8 0.713872 0.498251 0.535760
O O1 0.795258 0.860745 0.419995
O O2 0.783199 0.764411 0.286055
O O3 0.680304 0.945715 0.220092
O O4 0.076540 0.902330 0.467387
O O5 0.811512 0.855495 0.587338
O O6 0.145063 0.911076 0.696564
O O7 0.807609 0.018663 0.503424
O O8 0.949770 0.625600 0.472488
O O9 0.027360 0.647212 0.363812
O O10 0.205251 0.637411 0.325700
O O11 0.930496 0.508035 0.212177
O O12 0.770949 0.488895 0.974759
O O13 0.040030 0.555958 0.023781
O O14 0.815786 0.819616 0.742949
O O15 0.991406 0.734464 0.966851
O O16 0.086048 0.911348 0.993591
#
# Coordination Sequence:
#
# PCOD8056658 Si02
#       8
#     4   4   4   4   4   4   4   4
#     4  12  26  48  73 107 143 194 244 301 366 435
#     4  12  25  48  71 104 146 189 248 291 367 430
#     4  12  28  43  75 112 141 195 242 306 359 439
#     4  12  24  48  74 105 149 189 243 303 366 433
#     4  12  26  48  71 108 149 187 244 303 367 430
#     4  12  28  48  73 107 144 195 244 299 367 430
#     4  12  28  47  70 109 145 191 243 300 360 432
#     4  12  23  48  75  98 149 192 236 303 366 423
#
# _framework density 21.701139999999999
#
# number of rings (size 3 to 8) (size 9 to 14) (size 15 to 20)
#    0.000    0.000    7.500    1.500    8.750    1.000 
#    0.000    0.000    0.000    0.000    0.000    0.000 
#    0.000    0.000    0.000    0.000    0.000    0.000 
#
# Total GULP energy -198489.421200 kJ/mol
# GULP energy per Si atom -12405.588825 kJ/mol
# Density = 2.165175 g / cm^3
# Si number density = 21.701140 Si / 1000 Ang^3
#
#
#
# Elastic Constant Matrix: (Units=GPa)
#
#
# Indices 1 2 3 4 5 6 
#
# 1 176.4088 48.7889 48.2142 0.0021 -1.7698 0.0000
# 2 48.7889 115.4972 41.8161 0.0043 3.5392 0.0005
# 3 48.2142 41.8161 105.2226 0.0084 -3.2789 0.0016
# 4 0.0021 0.0043 0.0084 37.9343 0.0019 1.9738
# 5 -1.7698 3.5392 -3.2789 0.0019 36.6541 0.0002
# 6 0.0000 0.0005 0.0016 1.9738 0.0002 28.7726
#
#
#
# Elastic Compliance Matrix: (Units=1/GPa)
#
#
# Indices 1 2 3 4 5 6 
#
# 1 0.006880 -0.002077 -0.002317 0.000000 0.000326 0.000000
# 2 -0.002077 0.010807 -0.003388 0.000000 -0.001447 0.000000
# 3 -0.002317 -0.003388 0.011952 -0.000002 0.001284 0.000000
# 4 0.000000 0.000000 -0.000002 0.026456 -0.000002 -0.001815
# 5 0.000326 -0.001447 0.001284 -0.000002 0.027552 0.000000
# 6 0.000000 0.000000 0.000000 -0.001815 0.000000 0.034880
#
#
# Mechanical properties :
#
#
# Convention : Reuss Voigt Hill
#
# Bulk Modulus (GPa) = 71.05217 74.97410 73.01314
# Shear Modulus (GPa) = 36.02806 37.89285 36.96046
#
# Velocity S-wave (km/s) = 4.07897 4.18320 4.13141
# Velocity P-wave (km/s) = 7.41595 7.61286 7.51505
#
# Compressibility (1/GPa) = 0.01407416
#
# Stress axis : x y z
#
# Youngs Moduli (GPa) = 145.35737 92.53558 83.67123
#
# Poissons Ratio (x) = 0.19223 0.19383
# Poissons Ratio (y) = 0.30196 0.28347
# Poissons Ratio (z) = 0.33674 0.31350
#
# Static dielectric constant tensor:
#      x y z
#    x 4.249400 0.000000 0.005320 
#    y 0.000000 3.703580 0.000000 
#    z 0.005320 0.000000 3.891730 
# 
# 
# High freq. dielectric constant tensor:
#      x y z
#    x 1.874720 0.000000 -0.001550 
#    y 0.000000 1.845610 0.000000 
#    z -0.001550 0.000000 1.854810 
# 
# From -- ./inp_files/7481.got.cif
#   From: 2010.06.25/outbox.cif.g09.slc.cpg/sg9_4_cif.got.tgz:7481.got - 2010.06.27 21:40:51.
