data_PCOD8056292
_publ_section_title
;
Structure prediction by ZEFSAII (Michael W. Deem and Ramdas Pophale) SiO2 
 PCOD8056292
Probable space group: C C
;
_chemical_formula_sum "Si O2"
_cell_formula_units_Z 32
_cell_length_a 14.789038
_cell_length_b 8.625945
_cell_length_c 12.434127
_cell_angle_alpha 90.000000
_cell_angle_beta 61.311336
_cell_angle_gamma 90.000000
_cell_volume 1391.492624
_symmetry_space_group_name_H-M "C C"
_symmetry_group_IT_number 9
_symmetry_cell_setting 'monoclinic'
loop_
_space_group_symop_operation_xyz
x,y,z
x,-y,1/2+z
1/2+x,1/2+y,z
1/2+x,1/2-y,1/2+z
loop_
_atom_site_type_symbol
_atom_site_label
_atom_site_fract_x
_atom_site_fract_y
_atom_site_fract_z
Si Si1 0.750000 0.466224 0.428030
Si Si2 0.093494 0.558849 0.169710
Si Si3 0.116457 0.767418 0.960245
Si Si4 0.050111 0.254266 0.067520
Si Si5 0.863190 0.187623 0.308428
Si Si6 0.939792 0.450232 0.952062
Si Si7 0.739938 0.947325 0.250949
Si Si8 0.908196 0.215138 0.526410
O O1 0.714892 0.621974 0.390513
O O2 0.648325 0.359317 0.505541
O O3 0.821926 0.362361 0.308162
O O4 0.816355 0.528099 0.494310
O O5 0.091994 0.408846 0.096428
O O6 0.199444 0.553718 0.177284
O O7 0.995103 0.561272 0.304705
O O8 0.101249 0.710858 0.091697
O O9 0.139782 0.632324 0.860421
O O10 0.016116 0.873324 0.987426
O O11 0.972574 0.163539 0.190407
O O12 0.983042 0.303858 0.997979
O O13 0.865569 0.171278 0.435209
O O14 0.785579 0.056486 0.315941
O O15 0.955147 0.609119 0.011196
O O16 0.823446 0.822367 0.163730
#
# Coordination Sequence:
#
# PCOD8056292 Si02
#       8
#     4   4   4   4   4   4   4   4
#     4  11  26  46  68 111 143 191 256 314 380 453
#     4  12  22  46  72 100 144 192 251 302 380 456
#     4  12  26  44  71 108 142 191 250 313 380 451
#     4  12  23  48  73 101 149 196 251 313 379 463
#     4  11  25  48  69 104 144 199 245 306 389 458
#     4  11  24  45  74 104 145 200 243 306 375 453
#     4  12  25  44  74 103 143 197 244 315 382 460
#     4  11  23  45  71 105 140 188 250 301 373 456
#
# _framework density 22.996887000000001
#
# number of rings (size 3 to 8) (size 9 to 14) (size 15 to 20)
#    0.000    0.500    5.000    4.500    5.250    0.000 
#    2.250    1.250    0.000    0.000    0.000    0.000 
#    0.000    0.000    0.000    0.000    0.000    0.000 
#
# Total GULP energy -198218.456144 kJ/mol
# GULP energy per Si atom -12388.653509 kJ/mol
# Density = 2.294455 g / cm^3
# Si number density = 22.996887 Si / 1000 Ang^3
#
#
#
# Elastic Constant Matrix: (Units=GPa)
#
#
# Indices 1 2 3 4 5 6 
#
# 1 147.4249 43.8597 37.0231 0.0000 -8.2823 0.0000
# 2 43.8597 59.3410 32.7475 0.0000 11.3772 0.0000
# 3 37.0231 32.7475 89.6904 0.0000 -1.6096 0.0000
# 4 0.0000 0.0000 0.0000 32.1727 0.0000 -5.5193
# 5 -8.2823 11.3772 -1.6096 0.0000 27.1849 0.0000
# 6 0.0000 0.0000 0.0000 -5.5193 0.0000 42.7913
#
#
#
# Elastic Compliance Matrix: (Units=1/GPa)
#
#
# Indices 1 2 3 4 5 6 
#
# 1 0.009705 -0.007766 -0.001060 0.000000 0.006144 0.000000
# 2 -0.007766 0.029960 -0.008009 0.000000 -0.015379 0.000000
# 3 -0.001060 -0.008009 0.014581 0.000000 0.003892 0.000000
# 4 0.000000 0.000000 0.000000 0.031786 0.000000 0.004100
# 5 0.006144 -0.015379 0.003892 0.000000 0.045324 0.000000
# 6 0.000000 0.000000 0.000000 0.004100 0.000000 0.023898
#
#
# Mechanical properties :
#
#
# Convention : Reuss Voigt Hill
#
# Bulk Modulus (GPa) = 48.60183 58.19074 53.39628
# Shear Modulus (GPa) = 25.53847 32.61819 29.07833
#
# Velocity S-wave (km/s) = 3.33606 3.77022 3.55976
# Velocity P-wave (km/s) = 6.00159 6.65668 6.33760
#
# Compressibility (1/GPa) = 0.02057536
#
# Stress axis : x y z
#
# Youngs Moduli (GPa) = 103.03994 33.37779 68.58083
#
# Poissons Ratio (x) = 0.25921 0.07272
# Poissons Ratio (y) = 0.80020 0.54928
# Poissons Ratio (z) = 0.10926 0.26733
#
# Static dielectric constant tensor:
#      x y z
#    x 4.583890 0.000000 -0.034060 
#    y 0.000000 4.062720 0.000000 
#    z -0.034060 0.000000 3.994270 
# 
# 
# High freq. dielectric constant tensor:
#      x y z
#    x 1.942510 0.000000 -0.008070 
#    y 0.000000 1.889220 0.000000 
#    z -0.008070 0.000000 1.898070 
# 
# From -- ./inp_files/17753.got.cif
#   From: 2010.06.25/outbox.cif.g09.slc.cpg/sg9_9_cif.got.tgz:17753.got - 2010.06.27 21:40:51.
