data_PCOD8056887
_publ_section_title
;
Structure prediction by ZEFSAII (Michael W. Deem and Ramdas Pophale) SiO2 
 PCOD8056887
Probable space group: P 2/M
;
_chemical_formula_sum "Si O2"
_cell_formula_units_Z 28
_cell_length_a 20.385942
_cell_length_b 7.936716
_cell_length_c 25.888072
_cell_angle_alpha 90.000000
_cell_angle_beta 157.813252
_cell_angle_gamma 90.000000
_cell_volume 1581.735808
_symmetry_space_group_name_H-M "P 2/M"
_symmetry_group_IT_number 10
_symmetry_cell_setting 'monoclinic'
loop_
_space_group_symop_operation_xyz
x,y,z
-x,y,-z
-x,-y,-z
x,-y,z
loop_
_atom_site_type_symbol
_atom_site_label
_atom_site_fract_x
_atom_site_fract_y
_atom_site_fract_z
Si Si1 0.915462 0.691820 0.095230
Si Si2 0.462019 0.300299 0.414739
Si Si3 0.919287 0.701062 0.888236
Si Si4 0.057342 0.187599 0.719476
Si Si5 0.502602 0.500000 0.086963
Si Si6 0.214391 0.500000 0.788011
Si Si7 0.188727 0.192944 0.372152
Si Si8 0.653074 0.184179 0.981766
O O1 0.853966 0.500000 0.046152
O O2 0.963143 0.766105 0.073716
O O3 0.087532 0.695391 0.256341
O O4 0.754802 0.794554 0.001913
O O5 0.500000 0.232050 0.500000
O O6 0.464944 0.500000 0.415995
O O7 0.276548 0.229666 0.260623
O O8 0.606995 0.231070 0.481165
O O9 0.916229 0.500000 0.885528
O O10 0.000000 0.772466 0.000000
O O11 0.095693 0.331407 0.704869
O O12 0.877862 0.232554 0.618231
O O13 0.048348 0.000000 0.687277
O O14 0.208220 0.190460 0.871606
O O15 0.691753 0.500000 0.198867
O O16 0.486723 0.332611 0.110901
O O17 0.353797 0.500000 0.935407
O O18 0.146710 0.000000 0.328236
O O19 0.560593 0.000000 0.913727
#
# Coordination Sequence:
#
# PCOD8056887 Si02
#       8
#     4   4   4   4   2   2   4   4
#     4  10  16  27  46  63  84 116 156 195 235 282
#     4  10  18  30  46  68  87 113 157 200 237 273
#     4   9  18  31  46  66  93 123 155 195 245 289
#     4   8  16  26  36  57  82 113 148 182 229 276
#     4   9  16  26  36  60  80 113 156 179 229 273
#     4   9  16  24  40  54  82 118 146 186 221 277
#     4  10  19  28  42  64  88 114 151 197 239 272
#     4   9  16  26  39  58  84 111 149 195 230 268
#
# _framework density 17.702072999999999
#
# number of rings (size 3 to 8) (size 9 to 14) (size 15 to 20)
#    0.000    2.714    2.143    1.714    4.000    0.857 
#    0.000    2.857    0.000    3.857    0.000    0.000 
#    0.000    0.000    0.000    2.571    0.000    8.429 
#
# Total GULP energy -347071.301728 kJ/mol
# GULP energy per Si atom -12395.403633 kJ/mol
# Density = 1.766178 g / cm^3
# Si number density = 17.702073 Si / 1000 Ang^3
#
#
#
# Elastic Constant Matrix: (Units=GPa)
#
#
# Indices 1 2 3 4 5 6 
#
# 1 123.5624 58.0790 49.9225 0.0000 32.0390 0.0000
# 2 58.0790 99.6101 24.6648 0.0000 20.4536 0.0000
# 3 49.9225 24.6648 58.1371 0.0000 8.9311 0.0000
# 4 0.0000 0.0000 0.0000 9.3709 0.0000 7.8973
# 5 32.0390 20.4536 8.9311 0.0000 24.7895 0.0000
# 6 0.0000 0.0000 0.0000 7.8973 0.0000 13.2006
#
#
#
# Elastic Compliance Matrix: (Units=1/GPa)
#
#
# Indices 1 2 3 4 5 6 
#
# 1 0.019848 -0.005022 -0.012288 0.000000 -0.017081 0.000000
# 2 -0.005022 0.014210 -0.000965 0.000000 -0.004885 0.000000
# 3 -0.012288 -0.000965 0.027100 0.000000 0.006915 0.000000
# 4 0.000000 0.000000 0.000000 0.215226 0.000000 -0.128760
# 5 -0.017081 -0.004885 0.006915 0.000000 0.063955 0.000000
# 6 0.000000 0.000000 0.000000 -0.128760 0.000000 0.152786
#
#
# Mechanical properties :
#
#
# Convention : Reuss Voigt Hill
#
# Bulk Modulus (GPa) = 40.64192 60.73800 50.68996
# Shear Modulus (GPa) = 9.29578 19.38176 14.33877
#
# Velocity S-wave (km/s) = 2.29404 3.31250 2.84915
# Velocity P-wave (km/s) = 5.47956 7.00114 6.28655
#
# Compressibility (1/GPa) = 0.02460514
#
# Stress axis : x y z
#
# Youngs Moduli (GPa) = 50.38404 70.37471 36.90022
#
# Poissons Ratio (x) = 0.35344 0.45345
# Poissons Ratio (y) = 0.25304 0.03562
# Poissons Ratio (z) = 0.61914 0.06793
#
# Static dielectric constant tensor:
#      x y z
#    x 3.339140 0.000000 0.317430 
#    y 0.000000 3.376120 0.000000 
#    z 0.317430 0.000000 2.868130 
# 
# 
# High freq. dielectric constant tensor:
#      x y z
#    x 1.672950 0.000000 0.038810 
#    y 0.000000 1.689530 0.000000 
#    z 0.038810 0.000000 1.615960 
# 
# From -- ./inp_files/93559.got.cif
#   From: 2010.06.25/outbox.cif.g09.slc.cpg/sg10_47_cif.got.tgz:93559.got - 2010.06.27 22:07:45.
