data_PCOD8056860
_publ_section_title
;
Structure prediction by ZEFSAII (Michael W. Deem and Ramdas Pophale) SiO2 
 PCOD8056860
Probable space group: P 2/M
;
_chemical_formula_sum "Si O2"
_cell_formula_units_Z 32
_cell_length_a 18.758638
_cell_length_b 8.781540
_cell_length_c 20.587189
_cell_angle_alpha 90.000000
_cell_angle_beta 143.635480
_cell_angle_gamma 90.000000
_cell_volume 2010.783871
_symmetry_space_group_name_H-M "P 2/M"
_symmetry_group_IT_number 10
_symmetry_cell_setting 'monoclinic'
loop_
_space_group_symop_operation_xyz
x,y,z
-x,y,-z
-x,-y,-z
x,-y,z
loop_
_atom_site_type_symbol
_atom_site_label
_atom_site_fract_x
_atom_site_fract_y
_atom_site_fract_z
Si Si1 0.671623 0.320601 0.502467
Si Si2 0.699728 0.179116 0.396263
Si Si3 0.559818 0.679667 0.809479
Si Si4 0.412745 0.821858 0.296597
Si Si5 0.134853 0.179226 0.601189
Si Si6 0.319651 0.680111 0.829105
Si Si7 0.359932 0.671926 0.380789
Si Si8 0.570705 0.679537 0.960126
O O1 0.684228 0.500000 0.500294
O O2 0.747507 0.229532 0.503348
O O3 0.533329 0.274601 0.392710
O O4 0.712113 0.278486 0.606300
O O5 0.579360 0.271914 0.292773
O O6 0.799250 0.227174 0.417000
O O7 0.672307 0.000000 0.375194
O O8 0.569989 0.500000 0.805331
O O9 0.637352 0.768416 0.810780
O O10 0.613258 0.728147 0.919187
O O11 0.326263 0.778239 0.294099
O O12 0.438823 0.000000 0.316084
O O13 0.200845 0.245637 0.712536
O O14 0.000000 0.245663 0.500000
O O15 0.132565 0.000000 0.607708
O O16 0.307077 0.500000 0.813518
O O17 0.437144 0.743892 0.877365
O O18 0.333190 0.731948 0.914790
O O19 0.500000 0.686630 0.500000
O O20 0.326223 0.500000 0.337089
O O21 0.557034 0.500000 0.954803
#
# Coordination Sequence:
#
# PCOD8056860 Si02
#       8
#     4   4   4   4   4   4   4   4
#     4   9  16  25  37  50  68  95 128 166 202 236
#     4  10  18  27  39  55  75 100 134 171 202 238
#     4  10  16  25  40  56  77 106 132 161 203 244
#     4  10  17  22  31  50  75 101 130 163 192 226
#     4  10  21  34  44  58  84 113 138 170 212 251
#     4   9  16  30  47  64  80 100 136 173 208 249
#     4   8  14  24  34  46  66  96 130 160 193 234
#     4   8  15  26  44  64  83 103 128 172 215 245
#
# _framework density 15.914191000000001
#
# number of rings (size 3 to 8) (size 9 to 14) (size 15 to 20)
#    0.000    2.750    1.250    5.250    0.000    3.500 
#    0.000    2.500    0.000    0.000    0.000    0.000 
#    0.000    0.000    0.000    1.125    0.000   22.875 
#
# Total GULP energy -396420.740453 kJ/mol
# GULP energy per Si atom -12388.148139 kJ/mol
# Density = 1.587797 g / cm^3
# Si number density = 15.914191 Si / 1000 Ang^3
#
#
#
# Elastic Constant Matrix: (Units=GPa)
#
#
# Indices 1 2 3 4 5 6 
#
# 1 92.4365 25.0196 52.6085 0.0000 -38.6112 0.0000
# 2 25.0196 29.7680 17.2412 0.0000 -10.8586 0.0000
# 3 52.6085 17.2412 79.5864 0.0000 -21.3755 0.0000
# 4 0.0000 0.0000 0.0000 6.9472 0.0000 1.1095
# 5 -38.6112 -10.8586 -21.3755 0.0000 29.8756 0.0000
# 6 0.0000 0.0000 0.0000 1.1095 0.0000 12.6283
#
#
#
# Elastic Compliance Matrix: (Units=1/GPa)
#
#
# Indices 1 2 3 4 5 6 
#
# 1 0.032634 -0.009760 -0.011243 0.000000 0.030585 0.000000
# 2 -0.009760 0.043859 -0.002669 0.000000 0.001417 0.000000
# 3 -0.011243 -0.002669 0.020316 0.000000 -0.000965 0.000000
# 4 0.000000 0.000000 0.000000 0.145991 0.000000 -0.012826
# 5 0.030585 0.001417 -0.000965 0.000000 0.072824 0.000000
# 6 0.000000 0.000000 0.000000 -0.012826 0.000000 0.080314
#
#
# Mechanical properties :
#
#
# Convention : Reuss Voigt Hill
#
# Bulk Modulus (GPa) = 20.21642 43.50328 31.85985
# Shear Modulus (GPa) = 10.87496 17.01833 13.94665
#
# Velocity S-wave (km/s) = 2.61693 3.27369 2.96356
# Velocity P-wave (km/s) = 4.67569 6.45638 5.63680
#
# Compressibility (1/GPa) = 0.04946474
#
# Stress axis : x y z
#
# Youngs Moduli (GPa) = 30.64278 22.80016 49.22240
#
# Poissons Ratio (x) = 0.22253 0.55341
# Poissons Ratio (y) = 0.29908 0.13138
# Poissons Ratio (z) = 0.34452 0.06085
#
# Static dielectric constant tensor:
#      x y z
#    x 3.724470 0.000000 -0.777690 
#    y 0.000000 2.896350 0.000000 
#    z -0.777690 0.000000 2.930380 
# 
# 
# High freq. dielectric constant tensor:
#      x y z
#    x 1.605830 0.000000 -0.057910 
#    y 0.000000 1.607760 0.000000 
#    z -0.057910 0.000000 1.555060 
# 
# From -- ./inp_files/86156.got.cif
#   From: 2010.06.25/outbox.cif.g09.slc.cpg/sg10_44_cif.got.tgz:86156.got - 2010.06.27 22:07:45.
