data_PCOD8056689
_publ_section_title
;
Structure prediction by ZEFSAII (Michael W. Deem and Ramdas Pophale) SiO2 
 PCOD8056689
Probable space group: C C
;
_chemical_formula_sum "Si O2"
_cell_formula_units_Z 32
_cell_length_a 16.389211
_cell_length_b 16.690271
_cell_length_c 5.413512
_cell_angle_alpha 90.000000
_cell_angle_beta 109.291502
_cell_angle_gamma 90.000000
_cell_volume 1397.666325
_symmetry_space_group_name_H-M "C C"
_symmetry_group_IT_number 9
_symmetry_cell_setting 'monoclinic'
loop_
_space_group_symop_operation_xyz
x,y,z
x,-y,1/2+z
1/2+x,1/2+y,z
1/2+x,1/2-y,1/2+z
loop_
_atom_site_type_symbol
_atom_site_label
_atom_site_fract_x
_atom_site_fract_y
_atom_site_fract_z
Si Si1 0.607140 0.648590 0.007800
Si Si2 0.057589 0.551303 0.253478
Si Si3 0.914655 0.351390 0.815273
Si Si4 0.859540 0.202215 0.464907
Si Si5 0.162221 0.297777 0.767731
Si Si6 0.010883 0.249982 0.259609
Si Si7 0.260916 0.046487 0.280321
Si Si8 0.964197 0.948696 0.160008
O O1 0.530049 0.672232 0.114487
O O2 0.675066 0.597739 0.232706
O O3 0.655611 0.727860 0.963412
O O4 0.557971 0.596753 0.747150
O O5 0.064817 0.496880 0.505047
O O6 0.135345 0.615801 0.347734
O O7 0.963805 0.596735 0.153019
O O8 0.866193 0.272131 0.673835
O O9 0.846728 0.402204 0.904412
O O10 0.991767 0.327721 0.076095
O O11 0.760869 0.198041 0.269041
O O12 0.886435 0.115797 0.598686
O O13 0.925245 0.226898 0.318389
O O14 0.096461 0.273080 0.489885
O O15 0.260938 0.980745 0.493751
O O16 0.956977 0.003114 0.397139
#
# Coordination Sequence:
#
# PCOD8056689 Si02
#       8
#     4   4   4   4   4   4   4   4
#     4  12  25  47  76 112 152 210 260 319 393 476
#     4  12  26  48  74 108 157 205 253 325 392 453
#     4  12  25  47  76 112 152 210 260 319 393 476
#     4  12  27  47  79 111 151 208 268 322 383 473
#     4  12  27  47  79 111 151 208 268 322 383 473
#     4  12  24  48  78 112 152 204 274 312 388 460
#     4  12  30  48  76 122 160 196 256 328 404 472
#     4  12  26  48  74 108 157 205 253 325 392 453
#
# _framework density 22.895306999999999
#
# number of rings (size 3 to 8) (size 9 to 14) (size 15 to 20)
#    0.000    0.000    6.250    3.000    5.250    1.000 
#    0.000    0.000    0.000    0.000    0.000    0.000 
#    0.000    0.000    0.000    0.000    0.000    0.000 
#
# Total GULP energy -198386.804141 kJ/mol
# GULP energy per Si atom -12399.175259 kJ/mol
# Density = 2.284320 g / cm^3
# Si number density = 22.895307 Si / 1000 Ang^3
#
#
#
# Elastic Constant Matrix: (Units=GPa)
#
#
# Indices 1 2 3 4 5 6 
#
# 1 112.9428 52.6542 85.7077 0.0000 51.1545 0.0000
# 2 52.6542 135.7536 50.9144 0.0000 0.8578 0.0000
# 3 85.7077 50.9144 77.1080 0.0000 -30.7753 0.0000
# 4 0.0000 0.0000 0.0000 13.9024 0.0000 9.7542
# 5 51.1545 0.8578 -30.7753 0.0000 17.4815 0.0000
# 6 0.0000 0.0000 0.0000 9.7542 0.0000 30.5631
#
#
#
# Elastic Compliance Matrix: (Units=1/GPa)
#
#
# Indices 1 2 3 4 5 6 
#
# 1 -0.000109 -0.002415 0.006356 0.000000 0.011626 0.000000
# 2 -0.002415 0.009503 -0.003216 0.000000 0.000939 0.000000
# 3 0.006356 -0.003216 0.002246 0.000000 -0.014486 0.000000
# 4 0.000000 0.000000 0.000000 0.092684 0.000000 -0.029580
# 5 0.011626 0.000939 -0.014486 0.000000 -0.002364 0.000000
# 6 0.000000 0.000000 0.000000 -0.029580 0.000000 0.042160
#
#
# Mechanical properties :
#
#
# Convention : Reuss Voigt Hill
#
# Bulk Modulus (GPa) = 76.39426 78.26188 77.32807
# Shear Modulus (GPa) = 34.00562 21.49127 27.74845
#
# Velocity S-wave (km/s) = 3.85810 3.06711 3.48511
# Velocity P-wave (km/s) = 7.29971 6.84102 7.07408
#
# Compressibility (1/GPa) = 0.01308999
#
# Stress axis : x y z
#
# Youngs Moduli (GPa) = -9187.38110 105.22735 445.17783
#
# Poissons Ratio (x) = 0.25412 -2.82942
# Poissons Ratio (y) = -22.18711 1.43174
# Poissons Ratio (z) = 58.39233 0.33842
#
# Static dielectric constant tensor:
#      x y z
#    x 4.154450 0.000000 0.073490 
#    y 0.000000 4.636830 0.000000 
#    z 0.073490 0.000000 4.028220 
# 
# 
# High freq. dielectric constant tensor:
#      x y z
#    x 1.906670 0.000000 0.003410 
#    y 0.000000 1.924420 0.000000 
#    z 0.003410 0.000000 1.900830 
# 
# From -- ./inp_files/2958.got.cif
#   From: 2010.06.25/outbox.cif.g09.slc.cpg/sg9_2_cif.got.tgz:2958.got - 2010.06.27 21:40:51.
