data_PCOD8056214
_publ_section_title
;
Structure prediction by ZEFSAII (Michael W. Deem and Ramdas Pophale) SiO2 
 PCOD8056214
Probable space group: C C
;
_chemical_formula_sum "Si O2"
_cell_formula_units_Z 20
_cell_length_a 12.408142
_cell_length_b 7.605294
_cell_length_c 12.938421
_cell_angle_alpha 90.000000
_cell_angle_beta 38.083632
_cell_angle_gamma 90.000000
_cell_volume 753.106126
_symmetry_space_group_name_H-M "C C"
_symmetry_group_IT_number 9
_symmetry_cell_setting 'monoclinic'
loop_
_space_group_symop_operation_xyz
x,y,z
x,-y,1/2+z
1/2+x,1/2+y,z
1/2+x,1/2-y,1/2+z
loop_
_atom_site_type_symbol
_atom_site_label
_atom_site_fract_x
_atom_site_fract_y
_atom_site_fract_z
Si Si1 0.369350 0.476508 0.716790
Si Si2 0.236295 0.123994 0.858058
Si Si3 0.974988 0.495573 0.846201
Si Si4 0.738293 0.158605 0.006850
Si Si5 0.410270 0.171390 0.106151
O O1 0.557668 0.396881 0.552896
O O2 0.231092 0.315673 0.806448
O O3 0.320748 0.635202 0.673571
O O4 0.362722 0.537446 0.842110
O O5 0.345057 0.830444 0.959685
O O6 0.395792 0.123942 0.818818
O O7 0.265424 0.967641 0.753927
O O8 0.169785 0.437201 0.662521
O O9 0.990891 0.608781 0.938080
O O10 0.566705 0.204411 0.069295
#
# Coordination Sequence:
#
# PCOD8056214 Si02
#       5
#     4   4   4   4   4
#     4  12  23  49  75 103 160 204 251 329 382 456
#     4  11  24  46  73 110 155 208 256 323 390 456
#     4  11  23  46  76 118 153 211 257 315 406 454
#     4  11  22  48  76 111 163 198 258 332 378 474
#     4  11  24  47  76 112 155 201 262 321 386 466
#
# _framework density 26.556683
#
# number of rings (size 3 to 8) (size 9 to 14) (size 15 to 20)
#    0.000    0.800    6.000    2.400    0.000    3.200 
#   18.000    0.000    0.000    0.000    0.000    0.000 
#    0.000    0.000    0.000    0.000    0.000    0.000 
#
# Total GULP energy -123991.933999 kJ/mol
# GULP energy per Si atom -12399.193400 kJ/mol
# Density = 2.649624 g / cm^3
# Si number density = 26.556683 Si / 1000 Ang^3
#
#
#
# Elastic Constant Matrix: (Units=GPa)
#
#
# Indices 1 2 3 4 5 6 
#
# 1 39.1861 31.2686 36.7401 0.0000 14.7009 0.0000
# 2 31.2686 235.2978 103.2092 0.0000 14.9523 0.0000
# 3 36.7401 103.2092 224.8280 0.0000 20.7546 0.0000
# 4 0.0000 0.0000 0.0000 54.6109 0.0000 4.6017
# 5 14.7009 14.9523 20.7546 0.0000 34.6085 0.0000
# 6 0.0000 0.0000 0.0000 4.6017 0.0000 30.2702
#
#
#
# Elastic Compliance Matrix: (Units=1/GPa)
#
#
# Indices 1 2 3 4 5 6 
#
# 1 0.035173 -0.002356 -0.003579 0.000000 -0.011776 0.000000
# 2 -0.002356 0.005505 -0.002133 0.000000 -0.000098 0.000000
# 3 -0.003579 -0.002133 0.006126 0.000000 -0.001232 0.000000
# 4 0.000000 0.000000 0.000000 0.018549 0.000000 -0.002820
# 5 -0.011776 -0.000098 -0.001232 0.000000 0.034678 0.000000
# 6 0.000000 0.000000 0.000000 -0.002820 0.000000 0.033464
#
#
# Mechanical properties :
#
#
# Convention : Reuss Voigt Hill
#
# Bulk Modulus (GPa) = 32.60796 93.52751 63.06774
# Shear Modulus (GPa) = 31.27868 45.77084 38.52476
#
# Velocity S-wave (km/s) = 3.43564 4.15603 3.81289
# Velocity P-wave (km/s) = 5.29561 7.63706 6.57146
#
# Compressibility (1/GPa) = 0.03066736
#
# Stress axis : x y z
#
# Youngs Moduli (GPa) = 28.43101 181.65797 163.24951
#
# Poissons Ratio (x) = 0.42795 0.58430
# Poissons Ratio (y) = 0.06698 0.34821
# Poissons Ratio (z) = 0.10176 0.38747
#
# Static dielectric constant tensor:
#      x y z
#    x 4.305930 0.000000 0.122560 
#    y 0.000000 5.257710 0.000000 
#    z 0.122560 0.000000 5.268300 
# 
# 
# High freq. dielectric constant tensor:
#      x y z
#    x 2.030420 0.000000 -0.001550 
#    y 0.000000 2.080670 0.000000 
#    z -0.001550 0.000000 2.095970 
# 
# From -- ./inp_files/4825.got.cif
#   From: 2010.06.25/outbox.cif.g09.slc.cpg/sg9_3_cif.got.tgz:4825.got - 2010.06.27 21:40:51.
