data_PCOD8056384
_publ_section_title
;
Structure prediction by ZEFSAII (Michael W. Deem and Ramdas Pophale) SiO2 
 PCOD8056384
Probable space group: C C
;
_chemical_formula_sum "Si O2"
_cell_formula_units_Z 32
_cell_length_a 29.274272
_cell_length_b 8.750981
_cell_length_c 8.903084
_cell_angle_alpha 90.000000
_cell_angle_beta 139.645522
_cell_angle_gamma 90.000000
_cell_volume 1476.838185
_symmetry_space_group_name_H-M "C C"
_symmetry_group_IT_number 9
_symmetry_cell_setting 'monoclinic'
loop_
_space_group_symop_operation_xyz
x,y,z
x,-y,1/2+z
1/2+x,1/2+y,z
1/2+x,1/2-y,1/2+z
loop_
_atom_site_type_symbol
_atom_site_label
_atom_site_fract_x
_atom_site_fract_y
_atom_site_fract_z
Si Si1 0.095490 0.672389 0.220490
Si Si2 0.101349 0.680127 0.719417
Si Si3 0.313445 0.663986 0.540713
Si Si4 0.957584 0.837171 0.905830
Si Si5 0.812859 0.839665 0.396855
Si Si6 0.671257 0.325238 0.157177
Si Si7 0.960939 0.838477 0.271851
Si Si8 0.677893 0.678214 0.164130
O O1 0.111639 0.499219 0.217742
O O2 0.149022 0.787831 0.271046
O O3 0.116727 0.711416 0.444042
O O4 0.013471 0.710053 0.993867
O O5 0.165928 0.777807 0.807955
O O6 0.022974 0.723197 0.470292
O O7 0.114354 0.721569 0.925389
O O8 0.291901 0.502602 0.413815
O O9 0.320573 0.646064 0.737521
O O10 0.253343 0.783126 0.341808
O O11 0.387710 0.722532 0.659488
O O12 0.884630 0.780406 0.651814
O O13 0.980273 0.998071 0.890941
O O14 0.951647 0.853688 0.070009
O O15 0.755102 0.714978 0.296907
O O16 0.660754 0.501932 0.092329
#
# Coordination Sequence:
#
# PCOD8056384 Si02
#       8
#     4   4   4   4   4   4   4   4
#     4  12  25  47  66 103 135 175 228 275 341 397
#     4  12  27  43  72  99 138 178 220 283 333 403
#     4  11  24  44  68 102 136 179 225 274 341 403
#     4  11  24  43  70  99 139 178 224 277 336 407
#     4  11  24  43  70  99 139 178 224 277 336 407
#     4  12  27  43  72  99 138 178 220 283 333 403
#     4  11  24  44  68 102 136 179 225 274 341 403
#     4  12  25  47  66 103 135 175 228 275 341 397
#
# _framework density 21.667911
#
# number of rings (size 3 to 8) (size 9 to 14) (size 15 to 20)
#    0.000    0.500    2.500    7.500    7.000    1.000 
#    0.000    2.500    0.000    0.000    0.000    0.000 
#    0.000    0.000    0.000    0.000    0.000    0.000 
#
# Total GULP energy -198428.576294 kJ/mol
# GULP energy per Si atom -12401.786018 kJ/mol
# Density = 2.161859 g / cm^3
# Si number density = 21.667911 Si / 1000 Ang^3
#
#
#
# Elastic Constant Matrix: (Units=GPa)
#
#
# Indices 1 2 3 4 5 6 
#
# 1 120.4781 53.4471 37.8502 0.0000 7.6873 0.0000
# 2 53.4471 125.4644 55.6577 0.0000 11.8467 0.0000
# 3 37.8502 55.6577 126.6597 0.0000 4.3001 0.0000
# 4 0.0000 0.0000 0.0000 35.1439 0.0000 7.3921
# 5 7.6873 11.8467 4.3001 0.0000 37.8666 0.0000
# 6 0.0000 0.0000 0.0000 7.3921 0.0000 36.1986
#
#
#
# Elastic Compliance Matrix: (Units=1/GPa)
#
#
# Indices 1 2 3 4 5 6 
#
# 1 0.010467 -0.003737 -0.001459 0.000000 -0.000790 0.000000
# 2 -0.003737 0.011499 -0.003855 0.000000 -0.002401 0.000000
# 3 -0.001459 -0.003855 0.010013 0.000000 0.000365 0.000000
# 4 0.000000 0.000000 0.000000 0.029731 0.000000 -0.006071
# 5 -0.000790 -0.002401 0.000365 0.000000 0.027279 0.000000
# 6 0.000000 0.000000 0.000000 -0.006071 0.000000 0.028865
#
#
# Mechanical properties :
#
#
# Convention : Reuss Voigt Hill
#
# Bulk Modulus (GPa) = 72.06039 74.05692 73.05866
# Shear Modulus (GPa) = 35.56670 36.88496 36.22583
#
# Velocity S-wave (km/s) = 4.05587 4.13035 4.09328
# Velocity P-wave (km/s) = 7.43387 7.54975 7.49203
#
# Compressibility (1/GPa) = 0.01387725
#
# Stress axis : x y z
#
# Youngs Moduli (GPa) = 95.53971 86.96343 99.87404
#
# Poissons Ratio (x) = 0.32499 0.14570
# Poissons Ratio (y) = 0.35704 0.38499
# Poissons Ratio (z) = 0.13938 0.33522
#
# Static dielectric constant tensor:
#      x y z
#    x 4.048040 0.000000 -0.055280 
#    y 0.000000 3.601420 0.000000 
#    z -0.055280 0.000000 4.035840 
# 
# 
# High freq. dielectric constant tensor:
#      x y z
#    x 1.871110 0.000000 -0.006090 
#    y 0.000000 1.835970 0.000000 
#    z -0.006090 0.000000 1.868350 
# 
# From -- ./inp_files/12703.got.cif
#   From: 2010.06.25/outbox.cif.g09.slc.cpg/sg9_7_cif.got.tgz:12703.got - 2010.06.27 21:40:51.
