data_PCOD8056494
_publ_section_title
;
Structure prediction by ZEFSAII (Michael W. Deem and Ramdas Pophale) SiO2 
 PCOD8056494
Probable space group: C C
;
_chemical_formula_sum "Si O2"
_cell_formula_units_Z 28
_cell_length_a 7.926391
_cell_length_b 13.790242
_cell_length_c 19.031727
_cell_angle_alpha 90.000000
_cell_angle_beta 145.126423
_cell_angle_gamma 90.000000
_cell_volume 1189.447037
_symmetry_space_group_name_H-M "C C"
_symmetry_group_IT_number 9
_symmetry_cell_setting 'monoclinic'
loop_
_space_group_symop_operation_xyz
x,y,z
x,-y,1/2+z
1/2+x,1/2+y,z
1/2+x,1/2-y,1/2+z
loop_
_atom_site_type_symbol
_atom_site_label
_atom_site_fract_x
_atom_site_fract_y
_atom_site_fract_z
Si Si1 0.952590 0.128055 0.248950
Si Si2 0.921151 0.054127 0.437970
Si Si3 0.082689 0.532938 0.694795
Si Si4 0.285420 0.363275 0.539761
Si Si5 0.121080 0.579460 0.472935
Si Si6 0.700123 0.207987 0.633185
Si Si7 0.332507 0.738467 0.333271
O O1 0.901461 0.168486 0.154378
O O2 0.900319 0.228707 0.273442
O O3 0.270360 0.075910 0.363513
O O4 0.708948 0.048779 0.186087
O O5 0.710970 0.106721 0.424298
O O6 0.015898 0.143216 0.421071
O O7 0.227313 0.012447 0.575312
O O8 0.733958 0.977290 0.324736
O O9 0.151425 0.637393 0.683466
O O10 0.300464 0.477966 0.538106
O O11 0.459527 0.294128 0.544079
O O12 0.945995 0.337022 0.407726
O O13 0.241981 0.650283 0.574230
O O14 0.996803 0.269793 0.741950
#
# Coordination Sequence:
#
# PCOD8056494 Si02
#       7
#     4   4   4   4   4   4   4
#     4  11  25  47  76 107 149 194 253 308 390 452
#     4  11  27  47  74 109 151 195 260 306 388 456
#     4  11  24  49  74 107 154 200 248 323 371 466
#     4  12  26  45  76 107 145 200 244 307 386 452
#     4  12  27  49  74 110 153 199 247 325 380 464
#     4  12  25  48  75 110 151 192 258 311 386 457
#     4  11  26  47  73 108 145 194 250 314 375 463
#
# _framework density 23.540351000000001
#
# number of rings (size 3 to 8) (size 9 to 14) (size 15 to 20)
#    0.000    0.571    4.286    2.571   10.000    1.143 
#    2.571    0.000    0.000    0.000    0.000    0.000 
#    0.000    0.000    0.000    0.000    0.000    0.000 
#
# Total GULP energy -173447.399360 kJ/mol
# GULP energy per Si atom -12389.099954 kJ/mol
# Density = 2.348677 g / cm^3
# Si number density = 23.540351 Si / 1000 Ang^3
#
#
#
# Elastic Constant Matrix: (Units=GPa)
#
#
# Indices 1 2 3 4 5 6 
#
# 1 96.5548 36.5795 37.1131 0.0002 11.2402 0.0000
# 2 36.5795 96.2899 34.9842 0.0004 -3.6915 -0.0007
# 3 37.1131 34.9842 120.9076 0.0016 14.9914 -0.0016
# 4 0.0002 0.0004 0.0016 37.4833 0.0001 4.9103
# 5 11.2402 -3.6915 14.9914 0.0001 35.7653 0.0003
# 6 0.0000 -0.0007 -0.0016 4.9103 0.0003 52.8999
#
#
#
# Elastic Compliance Matrix: (Units=1/GPa)
#
#
# Indices 1 2 3 4 5 6 
#
# 1 0.013343 -0.004341 -0.002388 0.000000 -0.003640 0.000000
# 2 -0.004341 0.013279 -0.003005 0.000000 0.003994 0.000000
# 3 -0.002388 -0.003005 0.010357 0.000000 -0.003901 0.000000
# 4 0.000000 0.000000 0.000000 0.027007 0.000000 -0.002507
# 5 -0.003640 0.003994 -0.003901 0.000000 0.031151 0.000000
# 6 0.000000 0.000000 0.000000 -0.002507 0.000000 0.019136
#
#
# Mechanical properties :
#
#
# Convention : Reuss Voigt Hill
#
# Bulk Modulus (GPa) = 57.10721 59.01177 58.05949
# Shear Modulus (GPa) = 35.82183 38.90142 37.36163
#
# Velocity S-wave (km/s) = 3.90516 4.06956 3.98820
# Velocity P-wave (km/s) = 6.68174 6.87055 6.77680
#
# Compressibility (1/GPa) = 0.01751093
#
# Stress axis : x y z
#
# Youngs Moduli (GPa) = 74.94517 75.30532 96.55191
#
# Poissons Ratio (x) = 0.32688 0.23060
# Poissons Ratio (y) = 0.32531 0.29016
# Poissons Ratio (z) = 0.17900 0.22631
#
# Static dielectric constant tensor:
#      x y z
#    x 4.470890 0.000000 -0.227690 
#    y 0.000000 3.930510 0.000000 
#    z -0.227690 0.000000 4.387440 
# 
# 
# High freq. dielectric constant tensor:
#      x y z
#    x 1.940210 0.000000 0.002320 
#    y 0.000000 1.923040 0.000000 
#    z 0.002320 0.000000 1.943350 
# 
# From -- ./inp_files/23344.got.cif
#   From: 2010.06.25/outbox.cif.g09.slc.cpg/sg9_12_cif.got.tgz:23344.got - 2010.06.27 21:40:51.
