data_PCOD8056460
_publ_section_title
;
Structure prediction by ZEFSAII (Michael W. Deem and Ramdas Pophale) SiO2 
 PCOD8056460
Probable space group: C C
;
_chemical_formula_sum "Si O2"
_cell_formula_units_Z 28
_cell_length_a 14.438788
_cell_length_b 12.277659
_cell_length_c 13.659944
_cell_angle_alpha 90.000000
_cell_angle_beta 148.686040
_cell_angle_gamma 90.000000
_cell_volume 1258.550777
_symmetry_space_group_name_H-M "C C"
_symmetry_group_IT_number 9
_symmetry_cell_setting 'monoclinic'
loop_
_space_group_symop_operation_xyz
x,y,z
x,-y,1/2+z
1/2+x,1/2+y,z
1/2+x,1/2-y,1/2+z
loop_
_atom_site_type_symbol
_atom_site_label
_atom_site_fract_x
_atom_site_fract_y
_atom_site_fract_z
Si Si1 0.859730 0.612531 0.400730
Si Si2 0.170442 0.498010 0.426108
Si Si3 0.286878 0.044228 0.127379
Si Si4 0.744206 0.844994 0.326005
Si Si5 0.403337 0.502007 0.328667
Si Si6 0.329606 0.344987 0.928795
Si Si7 0.214087 0.112524 0.854087
O O1 0.835699 0.620640 0.262614
O O2 0.757200 0.715842 0.353610
O O3 0.786945 0.500009 0.377471
O O4 0.065254 0.619239 0.611003
O O5 0.253548 0.396048 0.442857
O O6 0.286894 0.517681 0.627392
O O7 0.174314 0.605265 0.358556
O O8 0.962865 0.471885 0.263164
O O9 0.238020 0.120649 0.992120
O O10 0.110913 0.971858 0.991606
O O11 0.899508 0.894760 0.396268
O O12 0.320197 0.603968 0.311879
O O13 0.508591 0.380791 0.143771
O O14 0.316652 0.215829 0.901252
#
# Coordination Sequence:
#
# PCOD8056460 Si02
#       7
#     4   4   4   4   4   4   4
#     4  12  26  46  72 107 148 189 242 297 359 429
#     4  11  24  46  74 109 143 189 243 297 364 428
#     4  12  24  44  76 106 140 186 244 296 352 434
#     4  11  26  45  72 106 151 188 236 305 363 420
#     4  11  24  46  74 109 143 189 243 297 364 428
#     4  11  26  45  72 106 151 188 236 305 363 420
#     4  12  26  46  72 107 148 189 242 297 359 429
#
# _framework density 22.247812
#
# number of rings (size 3 to 8) (size 9 to 14) (size 15 to 20)
#    0.000    0.571    5.714    1.714    6.000    2.286 
#    2.571    2.857    0.000    0.000    0.000    0.000 
#    0.000    0.000    0.000    0.000    0.000    0.000 
#
# Total GULP energy -173617.381291 kJ/mol
# GULP energy per Si atom -12401.241521 kJ/mol
# Density = 2.219718 g / cm^3
# Si number density = 22.247812 Si / 1000 Ang^3
#
#
#
# Elastic Constant Matrix: (Units=GPa)
#
#
# Indices 1 2 3 4 5 6 
#
# 1 125.6005 61.5139 42.9335 0.0001 10.3026 0.0001
# 2 61.5139 174.7165 17.8809 0.0002 2.2906 0.0002
# 3 42.9335 17.8809 86.1934 0.0003 13.5421 0.0003
# 4 0.0001 0.0002 0.0003 28.1059 0.0003 3.4477
# 5 10.3026 2.2906 13.5421 0.0003 38.3523 0.0003
# 6 0.0001 0.0002 0.0003 3.4477 0.0003 19.0945
#
#
#
# Elastic Compliance Matrix: (Units=1/GPa)
#
#
# Indices 1 2 3 4 5 6 
#
# 1 0.011409 -0.003513 -0.004770 0.000000 -0.001171 0.000000
# 2 -0.003513 0.006930 0.000243 0.000000 0.000444 0.000000
# 3 -0.004770 0.000243 0.014535 0.000000 -0.003865 0.000000
# 4 0.000000 0.000000 0.000000 0.036386 0.000000 -0.006570
# 5 -0.001171 0.000444 -0.003865 0.000000 0.027727 0.000000
# 6 0.000000 0.000000 0.000000 -0.006570 0.000000 0.053557
#
#
# Mechanical properties :
#
#
# Convention : Reuss Voigt Hill
#
# Bulk Modulus (GPa) = 59.55220 70.12966 64.84093
# Shear Modulus (GPa) = 29.03223 34.72270 31.87746
#
# Velocity S-wave (km/s) = 3.61632 3.95489 3.78939
# Velocity P-wave (km/s) = 6.65303 7.24191 6.95371
#
# Compressibility (1/GPa) = 0.01679199
#
# Stress axis : x y z
#
# Youngs Moduli (GPa) = 87.65000 144.30282 68.80034
#
# Poissons Ratio (x) = 0.50698 0.32819
# Poissons Ratio (y) = 0.30794 -0.01669
# Poissons Ratio (z) = 0.41810 -0.03501
#
# Static dielectric constant tensor:
#      x y z
#    x 4.266840 0.000000 0.017550 
#    y 0.000000 4.258650 0.000000 
#    z 0.017550 0.000000 4.288180 
# 
# 
# High freq. dielectric constant tensor:
#      x y z
#    x 1.884260 0.000000 -0.000900 
#    y 0.000000 1.851570 0.000000 
#    z -0.000900 0.000000 1.898900 
# 
# From -- ./inp_files/10693.got.cif
#   From: 2010.06.25/outbox.cif.g09.slc.cpg/sg9_6_cif.got.tgz:10693.got - 2010.06.27 21:40:51.
