data_PCOD8056485
_publ_section_title
;
Structure prediction by ZEFSAII (Michael W. Deem and Ramdas Pophale) SiO2 
 PCOD8056485
Probable space group: C C
;
_chemical_formula_sum "Si O2"
_cell_formula_units_Z 28
_cell_length_a 6.448558
_cell_length_b 26.578053
_cell_length_c 8.123109
_cell_angle_alpha 90.000000
_cell_angle_beta 117.003677
_cell_angle_gamma 90.000000
_cell_volume 1240.437069
_symmetry_space_group_name_H-M "C C"
_symmetry_group_IT_number 9
_symmetry_cell_setting 'monoclinic'
loop_
_space_group_symop_operation_xyz
x,y,z
x,-y,1/2+z
1/2+x,1/2+y,z
1/2+x,1/2-y,1/2+z
loop_
_atom_site_type_symbol
_atom_site_label
_atom_site_fract_x
_atom_site_fract_y
_atom_site_fract_z
Si Si1 0.931060 0.440277 0.762790
Si Si2 0.860516 0.102715 0.575346
Si Si3 0.407124 0.692142 0.360998
Si Si4 0.645052 0.123831 0.827388
Si Si5 0.317112 0.046347 0.845057
Si Si6 0.622474 0.650458 0.137758
Si Si7 0.945510 0.302253 0.503533
O O1 0.807753 0.487315 0.805461
O O2 0.909891 0.443594 0.560060
O O3 0.802119 0.389833 0.775066
O O4 0.201043 0.435504 0.911648
O O5 0.972944 0.145618 0.502013
O O6 0.703513 0.130810 0.656598
O O7 0.061393 0.069631 0.731780
O O8 0.578150 0.691801 0.264512
O O9 0.441923 0.743117 0.473096
O O10 0.141659 0.685560 0.208728
O O11 0.503833 0.071734 0.790506
O O12 0.487893 0.169278 0.845199
O O13 0.883966 0.120998 0.015536
O O14 0.707090 0.678274 0.001025
#
# Coordination Sequence:
#
# PCOD8056485 Si02
#       7
#     4   4   4   4   4   4   4
#     4  12  26  49  73 109 147 192 247 301 372 432
#     4  12  27  48  75 110 148 193 247 308 365 442
#     4  11  28  42  75 107 144 196 242 306 374 435
#     4  11  24  48  72 104 144 195 240 305 362 433
#     4  12  28  47  75 109 146 197 248 303 369 446
#     4  11  24  50  71 104 154 186 245 312 354 445
#     4  11  25  46  71 107 145 195 247 301 370 441
#
# _framework density 22.572690000000001
#
# number of rings (size 3 to 8) (size 9 to 14) (size 15 to 20)
#    0.000    0.571    4.286    1.714   12.000    2.286 
#    0.000    0.000    0.000    0.000    0.000    0.000 
#    0.000    0.000    0.000    0.000    0.000    0.000 
#
# Total GULP energy -173676.550450 kJ/mol
# GULP energy per Si atom -12405.467889 kJ/mol
# Density = 2.252131 g / cm^3
# Si number density = 22.572690 Si / 1000 Ang^3
#
#
#
# Elastic Constant Matrix: (Units=GPa)
#
#
# Indices 1 2 3 4 5 6 
#
# 1 131.2795 48.3232 42.8627 0.0000 -14.8642 0.0000
# 2 48.3232 135.5968 33.9769 0.0000 -5.1588 0.0000
# 3 42.8627 33.9769 111.3176 0.0000 -6.0681 0.0000
# 4 0.0000 0.0000 0.0000 35.2111 0.0000 -4.5337
# 5 -14.8642 -5.1588 -6.0681 0.0000 28.5938 0.0000
# 6 0.0000 0.0000 0.0000 -4.5337 0.0000 31.7213
#
#
#
# Elastic Compliance Matrix: (Units=1/GPa)
#
#
# Indices 1 2 3 4 5 6 
#
# 1 0.009992 -0.002703 -0.002798 0.000000 0.004113 0.000000
# 2 -0.002703 0.008742 -0.001637 0.000000 -0.000175 0.000000
# 3 -0.002798 -0.001637 0.010587 0.000000 0.000497 0.000000
# 4 0.000000 0.000000 0.000000 0.028933 0.000000 0.004135
# 5 0.004113 -0.000175 0.000497 0.000000 0.037184 0.000000
# 6 0.000000 0.000000 0.000000 0.004135 0.000000 0.032116
#
#
# Mechanical properties :
#
#
# Convention : Reuss Voigt Hill
#
# Bulk Modulus (GPa) = 66.46946 69.83549 68.15247
# Shear Modulus (GPa) = 34.04980 35.97398 35.01189
#
# Velocity S-wave (km/s) = 3.88809 3.99644 3.94264
# Velocity P-wave (km/s) = 7.04749 7.23192 7.14030
#
# Compressibility (1/GPa) = 0.01504450
#
# Stress axis : x y z
#
# Youngs Moduli (GPa) = 100.08477 114.39519 94.45215
#
# Poissons Ratio (x) = 0.30923 0.26427
# Poissons Ratio (y) = 0.27055 0.15461
# Poissons Ratio (z) = 0.28003 0.18725
#
# Static dielectric constant tensor:
#      x y z
#    x 4.231530 0.000000 0.005770 
#    y 0.000000 4.178920 0.000000 
#    z 0.005770 0.000000 4.071700 
# 
# 
# High freq. dielectric constant tensor:
#      x y z
#    x 1.897210 0.000000 -0.000820 
#    y 0.000000 1.884030 0.000000 
#    z -0.000820 0.000000 1.899700 
# 
# From -- ./inp_files/4430.got.cif
#   From: 2010.06.25/outbox.cif.g09.slc.cpg/sg9_3_cif.got.tgz:4430.got - 2010.06.27 21:40:51.
