data_PCOD8056817
_publ_section_title
;
Structure prediction by ZEFSAII (Michael W. Deem and Ramdas Pophale) SiO2 
 PCOD8056817
Probable space group: P 2/M
;
_chemical_formula_sum "Si O2"
_cell_formula_units_Z 32
_cell_length_a 11.792716
_cell_length_b 19.467743
_cell_length_c 19.365811
_cell_angle_alpha 90.000000
_cell_angle_beta 24.768301
_cell_angle_gamma 90.000000
_cell_volume 1862.632210
_symmetry_space_group_name_H-M "P 2/M"
_symmetry_group_IT_number 10
_symmetry_cell_setting 'monoclinic'
loop_
_space_group_symop_operation_xyz
x,y,z
-x,y,-z
-x,-y,-z
x,-y,z
loop_
_atom_site_type_symbol
_atom_site_label
_atom_site_fract_x
_atom_site_fract_y
_atom_site_fract_z
Si Si1 0.260620 0.183998 0.902985
Si Si2 0.452375 0.325375 0.855299
Si Si3 0.810416 0.835018 0.538205
Si Si4 0.712020 0.143562 0.962500
Si Si5 0.273474 0.575926 0.391371
Si Si6 0.968456 0.308114 0.392571
Si Si7 0.760390 0.299369 0.892799
Si Si8 0.134379 0.080588 0.254959
O O1 0.360078 0.261509 0.860523
O O2 0.505574 0.145521 0.728737
O O3 0.183772 0.144111 0.016361
O O4 0.000000 0.183734 0.000000
O O5 0.486642 0.392459 0.788686
O O6 0.738797 0.306850 0.732786
O O7 0.222956 0.338068 0.041822
O O8 0.813606 0.759009 0.504066
O O9 0.000000 0.840787 0.500000
O O10 0.890354 0.889271 0.434902
O O11 0.709767 0.219722 0.934194
O O12 0.900976 0.097384 0.807552
O O13 0.407613 0.115700 0.130686
O O14 0.364255 0.500000 0.366366
O O15 0.213383 0.625665 0.488902
O O16 0.000000 0.569932 0.500000
O O17 0.986639 0.309341 0.298638
O O18 0.500000 0.332148 0.000000
O O19 0.149313 0.000000 0.258134
#
# Coordination Sequence:
#
# PCOD8056817 Si02
#       8
#     4   4   4   4   4   4   4   4
#     4  11  22  34  54  81 110 138 177 229 270 314
#     4   9  16  28  46  71 101 132 172 212 262 307
#     4  12  18  34  55  80 105 134 179 228 268 309
#     4  10  17  34  52  78 112 136 170 219 275 314
#     4   9  16  26  43  71 107 140 171 213 269 321
#     4  10  15  27  50  77  97 132 171 223 265 306
#     4   9  14  23  46  71  97 128 166 211 259 303
#     4  11  21  33  57  86 108 135 178 229 270 317
#
# _framework density 17.179988000000002
#
# number of rings (size 3 to 8) (size 9 to 14) (size 15 to 20)
#    0.000    1.875    6.250    1.875    0.000    0.250 
#    0.000    1.250    0.000    8.250    0.000    0.000 
#    0.000    4.000    0.000    0.000    0.000    0.000 
#
# Total GULP energy -396530.932773 kJ/mol
# GULP energy per Si atom -12391.591649 kJ/mol
# Density = 1.714089 g / cm^3
# Si number density = 17.179988 Si / 1000 Ang^3
#
#
#
# Elastic Constant Matrix: (Units=GPa)
#
#
# Indices 1 2 3 4 5 6 
#
# 1 92.7521 42.5265 61.0561 0.0000 27.7612 0.0000
# 2 42.5265 110.5133 39.7058 0.0000 21.7931 0.0000
# 3 61.0561 39.7058 86.7495 0.0000 28.1697 0.0000
# 4 0.0000 0.0000 0.0000 13.6745 0.0000 12.1935
# 5 27.7612 21.7931 28.1697 0.0000 33.0464 0.0000
# 6 0.0000 0.0000 0.0000 12.1935 0.0000 12.1481
#
#
#
# Elastic Compliance Matrix: (Units=1/GPa)
#
#
# Indices 1 2 3 4 5 6 
#
# 1 0.021917 -0.002862 -0.012099 0.000000 -0.006211 0.000000
# 2 -0.002862 0.011606 -0.002203 0.000000 -0.003372 0.000000
# 3 -0.012099 -0.002203 0.023892 0.000000 -0.008750 0.000000
# 4 0.000000 0.000000 0.000000 0.696679 0.000000 -0.699286
# 5 -0.006211 -0.003372 -0.008750 0.000000 0.045160 0.000000
# 6 0.000000 0.000000 0.000000 -0.699286 0.000000 0.784221
#
#
# Mechanical properties :
#
#
# Convention : Reuss Voigt Hill
#
# Bulk Modulus (GPa) = 43.31239 64.06576 53.68907
# Shear Modulus (GPa) = 3.07598 21.55557 12.31578
#
# Velocity S-wave (km/s) = 1.33953 3.54600 2.68034
# Velocity P-wave (km/s) = 5.25910 7.35781 6.39514
#
# Compressibility (1/GPa) = 0.02308808
#
# Stress axis : x y z
#
# Youngs Moduli (GPa) = 45.62686 86.15870 41.85415
#
# Poissons Ratio (x) = 0.24660 0.50638
# Poissons Ratio (y) = 0.13059 0.09221
# Poissons Ratio (z) = 0.55203 0.18981
#
# Static dielectric constant tensor:
#      x y z
#    x 3.246070 0.000000 0.632250 
#    y 0.000000 3.176150 0.000000 
#    z 0.632250 0.000000 3.277840 
# 
# 
# High freq. dielectric constant tensor:
#      x y z
#    x 1.641330 0.000000 0.052050 
#    y 0.000000 1.643380 0.000000 
#    z 0.052050 0.000000 1.643290 
# 
# From -- ./inp_files/84246.got.cif
#   From: 2010.06.25/outbox.cif.g09.slc.cpg/sg10_43_cif.got.tgz:84246.got - 2010.06.27 22:07:45.
