data_PCOD8056530
_publ_section_title
;
Structure prediction by ZEFSAII (Michael W. Deem and Ramdas Pophale) SiO2 
 PCOD8056530
Probable space group: C C
;
_chemical_formula_sum "Si O2"
_cell_formula_units_Z 32
_cell_length_a 14.577363
_cell_length_b 19.581360
_cell_length_c 8.941239
_cell_angle_alpha 90.000000
_cell_angle_beta 146.014940
_cell_angle_gamma 90.000000
_cell_volume 1426.636195
_symmetry_space_group_name_H-M "C C"
_symmetry_group_IT_number 9
_symmetry_cell_setting 'monoclinic'
loop_
_space_group_symop_operation_xyz
x,y,z
x,-y,1/2+z
1/2+x,1/2+y,z
1/2+x,1/2-y,1/2+z
loop_
_atom_site_type_symbol
_atom_site_label
_atom_site_fract_x
_atom_site_fract_y
_atom_site_fract_z
Si Si1 0.509120 0.801253 0.917110
Si Si2 0.244910 0.797522 0.335247
Si Si3 0.570784 0.572150 0.225989
Si Si4 0.552733 0.427820 0.061362
Si Si5 0.209324 0.564159 0.241019
Si Si6 0.983155 0.689434 0.907366
Si Si7 0.777519 0.309497 0.867685
Si Si8 0.727633 0.075135 0.617523
O O1 0.396167 0.768319 0.636316
O O2 0.372929 0.829352 0.847170
O O3 0.634772 0.745814 0.150914
O O4 0.601808 0.863770 0.966975
O O5 0.165597 0.868398 0.283863
O O6 0.311108 0.812675 0.260557
O O7 0.111175 0.738834 0.158411
O O8 0.614184 0.497850 0.218615
O O9 0.559516 0.569357 0.390286
O O10 0.710172 0.623113 0.357165
O O11 0.399305 0.597312 0.923456
O O12 0.367654 0.411098 0.862331
O O13 0.250630 0.559277 0.473013
O O14 0.155867 0.490170 0.107829
O O15 0.059386 0.614048 0.001850
O O16 0.927139 0.719463 0.671694
#
# Coordination Sequence:
#
# PCOD8056530 Si02
#       8
#     4   4   4   4   4   4   4   4
#     4  12  28  46  73 103 141 186 236 292 350 415
#     4  12  26  47  71 103 141 182 234 292 352 416
#     4  11  25  46  73 105 144 185 234 287 353 421
#     4  11  25  46  74 105 142 187 231 289 353 420
#     4  11  25  46  74 105 142 187 231 289 353 420
#     4  12  26  47  71 103 141 182 234 292 352 416
#     4  12  28  46  73 103 141 186 236 292 350 415
#     4  11  25  46  73 105 144 185 234 287 353 421
#
# _framework density 22.430385000000001
#
# number of rings (size 3 to 8) (size 9 to 14) (size 15 to 20)
#    0.000    0.500    2.500    6.000   10.500    2.000 
#    0.000    0.000    0.000    0.000    0.000    0.000 
#    0.000    0.000    0.000    0.000    0.000    0.000 
#
# Total GULP energy -198392.266508 kJ/mol
# GULP energy per Si atom -12399.516657 kJ/mol
# Density = 2.237933 g / cm^3
# Si number density = 22.430385 Si / 1000 Ang^3
#
#
#
# Elastic Constant Matrix: (Units=GPa)
#
#
# Indices 1 2 3 4 5 6 
#
# 1 127.3599 30.8894 9.9708 0.0000 -9.0708 0.0000
# 2 30.8894 82.4094 38.3534 0.0000 6.6411 0.0000
# 3 9.9708 38.3534 122.1818 0.0000 -16.3732 0.0000
# 4 0.0000 0.0000 0.0000 32.2954 0.0000 -1.0595
# 5 -9.0708 6.6411 -16.3732 0.0000 39.8627 0.0000
# 6 0.0000 0.0000 0.0000 -1.0595 0.0000 29.3839
#
#
#
# Elastic Compliance Matrix: (Units=1/GPa)
#
#
# Indices 1 2 3 4 5 6 
#
# 1 0.008985 -0.004066 0.000961 0.000000 0.003116 0.000000
# 2 -0.004066 0.016836 -0.005770 0.000000 -0.006100 0.000000
# 3 0.000961 -0.005770 0.010663 0.000000 0.005560 0.000000
# 4 0.000000 0.000000 0.000000 0.031001 0.000000 0.001118
# 5 0.003116 -0.006100 0.005560 0.000000 0.029095 0.000000
# 6 0.000000 0.000000 0.000000 0.001118 0.000000 0.034073
#
#
# Mechanical properties :
#
#
# Convention : Reuss Voigt Hill
#
# Bulk Modulus (GPa) = 53.38597 54.48647 53.93622
# Shear Modulus (GPa) = 32.33177 37.15757 34.74467
#
# Velocity S-wave (km/s) = 3.80073 4.07452 3.94000
# Velocity P-wave (km/s) = 6.56606 6.81760 6.69301
#
# Compressibility (1/GPa) = 0.01873151
#
# Stress axis : x y z
#
# Youngs Moduli (GPa) = 111.30085 59.39736 93.78652
#
# Poissons Ratio (x) = 0.24151 -0.09011
# Poissons Ratio (y) = 0.45255 0.54119
# Poissons Ratio (z) = -0.10693 0.34275
#
# Static dielectric constant tensor:
#      x y z
#    x 4.263190 0.000000 -0.064560 
#    y 0.000000 4.006750 0.000000 
#    z -0.064560 0.000000 4.178610 
# 
# 
# High freq. dielectric constant tensor:
#      x y z
#    x 1.904320 0.000000 -0.003460 
#    y 0.000000 1.884160 0.000000 
#    z -0.003460 0.000000 1.897030 
# 
# From -- ./inp_files/10107.got.cif
#   From: 2010.06.25/outbox.cif.g09.slc.cpg/sg9_6_cif.got.tgz:10107.got - 2010.06.27 21:40:51.
