data_PCOD8056044
_publ_section_title
;
Structure prediction by ZEFSAII (Michael W. Deem and Ramdas Pophale) SiO2 
 PCOD8056044
Probable space group: C C
;
_chemical_formula_sum "Si O2"
_cell_formula_units_Z 32
_cell_length_a 21.326988
_cell_length_b 10.792593
_cell_length_c 8.932319
_cell_angle_alpha 90.000000
_cell_angle_beta 129.509140
_cell_angle_gamma 90.000000
_cell_volume 1586.238495
_symmetry_space_group_name_H-M "C C"
_symmetry_group_IT_number 9
_symmetry_cell_setting 'monoclinic'
loop_
_space_group_symop_operation_xyz
x,y,z
x,-y,1/2+z
1/2+x,1/2+y,z
1/2+x,1/2-y,1/2+z
loop_
_atom_site_type_symbol
_atom_site_label
_atom_site_fract_x
_atom_site_fract_y
_atom_site_fract_z
Si Si1 0.750000 0.869443 0.043380
Si Si2 0.522764 0.332693 0.468705
Si Si3 0.066092 0.638869 0.324268
Si Si4 0.499300 0.561907 0.237184
Si Si5 0.925813 0.464583 0.160918
Si Si6 0.455093 0.743496 0.413522
Si Si7 0.838527 0.054221 0.386137
Si Si8 0.868696 0.328137 0.776202
O O1 0.779559 0.734764 0.150967
O O2 0.776659 0.980870 0.188813
O O3 0.653222 0.879606 0.884132
O O4 0.785709 0.882311 0.933073
O O5 0.574459 0.211376 0.497405
O O6 0.534321 0.435145 0.357166
O O7 0.550320 0.393278 0.668603
O O8 0.429455 0.288386 0.346204
O O9 0.019297 0.507725 0.273376
O O10 0.012431 0.728643 0.139831
O O11 0.507394 0.669903 0.370558
O O12 0.405212 0.540811 0.051507
O O13 0.922396 0.369357 0.292291
O O14 0.874318 0.583593 0.138495
O O15 0.887488 0.405033 0.954741
O O16 0.379565 0.661869 0.351354
#
# Coordination Sequence:
#
# PCOD8056044 Si02
#       8
#     4   4   4   4   4   4   4   4
#     4  12  26  41  65  98 135 163 203 275 328 366
#     4  11  20  37  64  95 122 167 216 261 308 376
#     4  11  26  43  60  97 138 161 206 267 327 375
#     4  12  18  36  70  95 117 158 230 262 296 362
#     4  11  23  39  67  91 121 175 216 255 303 388
#     4  12  21  39  67  95 122 171 219 256 308 383
#     4  12  21  41  68  96 122 167 222 261 308 380
#     4  11  21  40  63  91 125 168 220 251 306 382
#
# _framework density 20.173511000000001
#
# number of rings (size 3 to 8) (size 9 to 14) (size 15 to 20)
#    0.000    0.500    8.750    0.750    1.750    0.000 
#    0.000    2.500    0.000    0.000    0.000    0.000 
#    0.000    0.000    0.000    0.000    0.000    0.000 
#
# Total GULP energy -198389.677662 kJ/mol
# GULP energy per Si atom -12399.354854 kJ/mol
# Density = 2.012760 g / cm^3
# Si number density = 20.173511 Si / 1000 Ang^3
#
#
#
# Elastic Constant Matrix: (Units=GPa)
#
#
# Indices 1 2 3 4 5 6 
#
# 1 84.9651 33.3381 44.0032 0.0000 -13.7377 0.0000
# 2 33.3381 110.1874 41.4396 0.0000 -10.9971 0.0000
# 3 44.0032 41.4396 58.2942 0.0000 -16.6035 0.0000
# 4 0.0000 0.0000 0.0000 39.5040 0.0000 -14.8915
# 5 -13.7377 -10.9971 -16.6035 0.0000 34.2071 0.0000
# 6 0.0000 0.0000 0.0000 -14.8915 0.0000 30.4130
#
#
#
# Elastic Compliance Matrix: (Units=1/GPa)
#
#
# Indices 1 2 3 4 5 6 
#
# 1 0.019363 -0.000502 -0.014030 0.000000 0.000805 0.000000
# 2 -0.000502 0.012403 -0.008541 0.000000 -0.000360 0.000000
# 3 -0.014030 -0.008541 0.036472 0.000000 0.009322 0.000000
# 4 0.000000 0.000000 0.000000 0.031044 0.000000 0.015200
# 5 0.000805 -0.000360 0.009322 0.000000 0.033966 0.000000
# 6 0.000000 0.000000 0.000000 0.015200 0.000000 0.040324
#
#
# Mechanical properties :
#
#
# Convention : Reuss Voigt Hill
#
# Bulk Modulus (GPa) = 45.26425 54.55652 49.91038
# Shear Modulus (GPa) = 22.01860 29.80252 25.91056
#
# Velocity S-wave (km/s) = 3.30731 3.84775 3.58772
# Velocity P-wave (km/s) = 6.08856 6.84416 6.47739
#
# Compressibility (1/GPa) = 0.02209249
#
# Stress axis : x y z
#
# Youngs Moduli (GPa) = 51.64604 80.62265 27.41857
#
# Poissons Ratio (x) = 0.04043 0.38468
# Poissons Ratio (y) = 0.02590 0.23418
# Poissons Ratio (z) = 0.72459 0.68861
#
# Static dielectric constant tensor:
#      x y z
#    x 3.621580 0.000000 -0.396540 
#    y 0.000000 3.906480 0.000000 
#    z -0.396540 0.000000 3.559900 
# 
# 
# High freq. dielectric constant tensor:
#      x y z
#    x 1.772590 0.000000 -0.042900 
#    y 0.000000 1.808900 0.000000 
#    z -0.042900 0.000000 1.765180 
# 
# From -- ./inp_files/10645.got.cif
#   From: 2010.06.25/outbox.cif.g09.slc.cpg/sg9_6_cif.got.tgz:10645.got - 2010.06.27 21:40:51.
