data_PCOD8056935
_publ_section_title
;
Structure prediction by ZEFSAII (Michael W. Deem and Ramdas Pophale) SiO2 
 PCOD8056935
Probable space group: P 2/M
;
_chemical_formula_sum "Si O2"
_cell_formula_units_Z 30
_cell_length_a 29.483219
_cell_length_b 9.302177
_cell_length_c 12.045396
_cell_angle_alpha 90.000000
_cell_angle_beta 150.660750
_cell_angle_gamma 90.000000
_cell_volume 1618.671437
_symmetry_space_group_name_H-M "P 2/M"
_symmetry_group_IT_number 10
_symmetry_cell_setting 'monoclinic'
loop_
_space_group_symop_operation_xyz
x,y,z
-x,y,-z
-x,-y,-z
x,-y,z
loop_
_atom_site_type_symbol
_atom_site_label
_atom_site_fract_x
_atom_site_fract_y
_atom_site_fract_z
Si Si1 0.912200 0.658315 0.596977
Si Si2 0.258647 0.171305 0.707766
Si Si3 0.940903 0.666536 0.265920
Si Si4 0.232040 0.171933 0.174654
Si Si5 0.400084 0.335283 0.151221
Si Si6 0.809685 0.837996 0.671249
Si Si7 0.384366 0.334773 0.370745
Si Si8 0.000000 0.260264 0.000000
O O1 0.879805 0.500000 0.487094
O O2 0.827425 0.768414 0.404414
O O3 0.996257 0.716247 0.702715
O O4 0.949667 0.641602 0.801976
O O5 0.246150 0.227407 0.553708
O O6 0.257650 0.000000 0.713144
O O7 0.352735 0.232678 0.959569
O O8 0.911221 0.500000 0.193333
O O9 0.000000 0.697631 0.500000
O O10 0.849896 0.764351 0.075647
O O11 0.219407 0.234315 0.273686
O O12 0.328047 0.228812 0.330140
O O13 0.229335 0.000000 0.163661
O O14 0.374068 0.500000 0.069658
O O15 0.366777 0.295025 0.204311
O O16 0.508957 0.311213 0.371883
O O17 0.776929 0.000000 0.611430
O O18 0.920457 0.835536 0.888295
O O19 0.355551 0.500000 0.330626
#
# Coordination Sequence:
#
# PCOD8056935 Si02
#       8
#     4   4   4   4   4   4   4   2
#     4  10  20  33  51  78 107 142 185 227 269 314
#     4  10  21  35  55  81 112 144 180 224 274 325
#     4  10  22  38  53  73 107 151 187 220 268 325
#     4  11  22  37  57  83 112 144 185 230 271 321
#     4   9  19  39  63  84 108 139 180 224 271 329
#     4   9  19  34  52  77 110 149 184 220 273 324
#     4   9  20  39  62  84 108 143 179 220 276 331
#     4  10  16  32  54  74 101 142 191 234 263 304
#
# _framework density 18.533718
#
# number of rings (size 3 to 8) (size 9 to 14) (size 15 to 20)
#    0.000    2.267    1.333    2.000    1.867    2.400 
#    0.000    4.000    0.000    4.000    0.000    0.000 
#    0.000    0.000    0.000    0.000    0.000    0.000 
#
# Total GULP energy -371904.037057 kJ/mol
# GULP energy per Si atom -12396.801235 kJ/mol
# Density = 1.849153 g / cm^3
# Si number density = 18.533718 Si / 1000 Ang^3
#
#
#
# Elastic Constant Matrix: (Units=GPa)
#
#
# Indices 1 2 3 4 5 6 
#
# 1 113.7929 41.1121 45.5954 0.0000 6.0286 0.0000
# 2 41.1121 79.4174 47.4474 0.0000 1.6065 0.0000
# 3 45.5954 47.4474 106.2849 0.0000 -4.3186 0.0000
# 4 0.0000 0.0000 0.0000 23.2394 0.0000 1.2637
# 5 6.0286 1.6065 -4.3186 0.0000 21.1338 0.0000
# 6 0.0000 0.0000 0.0000 1.2637 0.0000 26.4340
#
#
#
# Elastic Compliance Matrix: (Units=1/GPa)
#
#
# Indices 1 2 3 4 5 6 
#
# 1 0.011804 -0.003979 -0.003441 0.000000 -0.003768 0.000000
# 2 -0.003979 0.018690 -0.006704 0.000000 -0.001656 0.000000
# 3 -0.003441 -0.006704 0.014055 0.000000 0.004363 0.000000
# 4 0.000000 0.000000 0.000000 0.043143 0.000000 -0.002063
# 5 -0.003768 -0.001656 0.004363 0.000000 0.049410 0.000000
# 6 0.000000 0.000000 0.000000 -0.002063 0.000000 0.037929
#
#
# Mechanical properties :
#
#
# Convention : Reuss Voigt Hill
#
# Bulk Modulus (GPa) = 61.34266 63.08947 62.21606
# Shear Modulus (GPa) = 23.95669 25.18411 24.57040
#
# Velocity S-wave (km/s) = 3.59918 3.69023 3.64499
# Velocity P-wave (km/s) = 7.10224 7.22989 7.16635
#
# Compressibility (1/GPa) = 0.01630187
#
# Stress axis : x y z
#
# Youngs Moduli (GPa) = 84.72052 53.50428 71.15019
#
# Poissons Ratio (x) = 0.21287 0.24480
# Poissons Ratio (y) = 0.33706 0.47700
# Poissons Ratio (z) = 0.29149 0.35870
#
# Static dielectric constant tensor:
#      x y z
#    x 3.544580 0.000000 -0.167200 
#    y 0.000000 3.210510 0.000000 
#    z -0.167200 0.000000 3.356550 
# 
# 
# High freq. dielectric constant tensor:
#      x y z
#    x 1.718020 0.000000 -0.006770 
#    y 0.000000 1.706450 0.000000 
#    z -0.006770 0.000000 1.717310 
# 
# From -- ./inp_files/58036.got.cif
#   From: 2010.06.25/outbox.cif.g09.slc.cpg/sg10_30_cif.got.tgz:58036.got - 2010.06.27 22:07:45.
