data_PCOD8056489
_publ_section_title
;
Structure prediction by ZEFSAII (Michael W. Deem and Ramdas Pophale) SiO2 
 PCOD8056489
Probable space group: C C
;
_chemical_formula_sum "Si O2"
_cell_formula_units_Z 24
_cell_length_a 11.608656
_cell_length_b 11.254251
_cell_length_c 9.548093
_cell_angle_alpha 90.000000
_cell_angle_beta 49.984731
_cell_angle_gamma 90.000000
_cell_volume 955.370891
_symmetry_space_group_name_H-M "C C"
_symmetry_group_IT_number 9
_symmetry_cell_setting 'monoclinic'
loop_
_space_group_symop_operation_xyz
x,y,z
x,-y,1/2+z
1/2+x,1/2+y,z
1/2+x,1/2-y,1/2+z
loop_
_atom_site_type_symbol
_atom_site_label
_atom_site_fract_x
_atom_site_fract_y
_atom_site_fract_z
Si Si1 0.322450 0.326851 0.230360
Si Si2 0.477712 0.186963 0.344208
Si Si3 0.582289 0.363187 0.823396
Si Si4 0.115998 0.504838 0.047591
Si Si5 0.301750 0.067786 0.691208
Si Si6 0.140417 0.238710 0.993137
O O1 0.440553 0.281188 0.254003
O O2 0.195459 0.231266 0.300407
O O3 0.242309 0.446171 0.344574
O O4 0.416456 0.354790 0.017455
O O5 0.601550 0.089228 0.195843
O O6 0.324467 0.123096 0.517650
O O7 0.539777 0.253266 0.432673
O O8 0.650003 0.492233 0.803978
O O9 0.564306 0.343098 0.671280
O O10 0.950157 0.510443 0.106865
O O11 0.166606 0.369465 0.040889
O O12 0.290388 0.169590 0.821853
#
# Coordination Sequence:
#
# PCOD8056489 Si02
#       6
#     4   4   4   4   4   4
#     4  12  26  49  79 111 153 206 255 316 391 460
#     4  11  24  48  78 110 152 203 258 315 385 455
#     4  12  27  48  76 112 153 201 260 319 385 458
#     4  11  25  50  80 112 152 204 260 321 385 464
#     4  11  25  49  79 108 154 202 258 323 386 456
#     4  11  29  46  78 119 152 204 261 320 386 459
#
# _framework density 25.121134999999999
#
# number of rings (size 3 to 8) (size 9 to 14) (size 15 to 20)
#    0.000    0.667    3.333    2.000   11.667    2.667 
#    3.000    0.000    0.000    0.000    0.000    0.000 
#    0.000    0.000    0.000    0.000    0.000    0.000 
#
# Total GULP energy -148800.395444 kJ/mol
# GULP energy per Si atom -12400.032954 kJ/mol
# Density = 2.506396 g / cm^3
# Si number density = 25.121135 Si / 1000 Ang^3
#
#
#
# Elastic Constant Matrix: (Units=GPa)
#
#
# Indices 1 2 3 4 5 6 
#
# 1 77.6970 30.8231 35.6842 0.0000 8.7058 0.0000
# 2 30.8231 116.9232 63.7759 0.0000 -7.7328 0.0000
# 3 35.6842 63.7759 217.9824 0.0000 -7.3455 0.0000
# 4 0.0000 0.0000 0.0000 55.0579 0.0000 -5.8049
# 5 8.7058 -7.7328 -7.3455 0.0000 42.1978 0.0000
# 6 0.0000 0.0000 0.0000 -5.8049 0.0000 30.6166
#
#
#
# Elastic Compliance Matrix: (Units=1/GPa)
#
#
# Indices 1 2 3 4 5 6 
#
# 1 0.015459 -0.003440 -0.001663 0.000000 -0.004109 0.000000
# 2 -0.003440 0.011020 -0.002584 0.000000 0.002279 0.000000
# 3 -0.001663 -0.002584 0.005644 0.000000 0.000852 0.000000
# 4 0.000000 0.000000 0.000000 0.018533 0.000000 0.003514
# 5 -0.004109 0.002279 0.000852 0.000000 0.025112 0.000000
# 6 0.000000 0.000000 0.000000 0.003514 0.000000 0.033328
#
#
# Mechanical properties :
#
#
# Convention : Reuss Voigt Hill
#
# Bulk Modulus (GPa) = 59.70314 74.79657 67.24985
# Shear Modulus (GPa) = 38.44559 44.39576 41.42068
#
# Velocity S-wave (km/s) = 3.91629 4.20845 4.06499
# Velocity P-wave (km/s) = 6.65338 7.31120 6.99003
#
# Compressibility (1/GPa) = 0.01674954
#
# Stress axis : x y z
#
# Youngs Moduli (GPa) = 64.68581 90.74592 177.16468
#
# Poissons Ratio (x) = 0.31219 0.29457
# Poissons Ratio (y) = 0.22253 0.45781
# Poissons Ratio (z) = 0.10755 0.23450
#
# Static dielectric constant tensor:
#      x y z
#    x 4.119660 0.000000 0.078970 
#    y 0.000000 4.772030 0.000000 
#    z 0.078970 0.000000 5.059910 
# 
# 
# High freq. dielectric constant tensor:
#      x y z
#    x 1.983160 0.000000 0.004440 
#    y 0.000000 2.004360 0.000000 
#    z 0.004440 0.000000 2.024300 
# 
# From -- ./inp_files/6933.got.cif
#   From: 2010.06.25/outbox.cif.g09.slc.cpg/sg9_4_cif.got.tgz:6933.got - 2010.06.27 21:40:51.
