data_PCOD8056870
_publ_section_title
;
Structure prediction by ZEFSAII (Michael W. Deem and Ramdas Pophale) SiO2 
 PCOD8056870
Probable space group: P 2/M
;
_chemical_formula_sum "Si O2"
_cell_formula_units_Z 28
_cell_length_a 21.917414
_cell_length_b 8.008708
_cell_length_c 27.131179
_cell_angle_alpha 90.000000
_cell_angle_beta 18.178926
_cell_angle_gamma 90.000000
_cell_volume 1485.781101
_symmetry_space_group_name_H-M "P 2/M"
_symmetry_group_IT_number 10
_symmetry_cell_setting 'monoclinic'
loop_
_space_group_symop_operation_xyz
x,y,z
-x,y,-z
-x,-y,-z
x,-y,z
loop_
_atom_site_type_symbol
_atom_site_label
_atom_site_fract_x
_atom_site_fract_y
_atom_site_fract_z
Si Si1 0.731740 0.683031 0.424490
Si Si2 0.013727 0.813725 0.281013
Si Si3 0.294200 0.307505 0.142370
Si Si4 0.560877 0.000000 0.509419
Si Si5 0.285574 0.692259 0.413115
Si Si6 0.975337 0.196603 0.463697
Si Si7 0.390036 0.685453 0.766476
Si Si8 0.217483 0.000000 0.852685
O O1 0.728181 0.500000 0.400857
O O2 0.943522 0.702863 0.288266
O O3 0.690663 0.833248 0.417999
O O4 0.567757 0.689594 0.592075
O O5 0.851527 0.807989 0.448253
O O6 0.220892 0.762705 0.145828
O O7 0.028450 0.000000 0.249311
O O8 0.330083 0.500000 0.105628
O O9 0.139555 0.281405 0.304340
O O10 0.500000 0.221607 0.000000
O O11 0.500000 0.000000 0.500000
O O12 0.370429 0.000000 0.690441
O O13 0.225534 0.500000 0.468039
O O14 0.239559 0.747806 0.392087
O O15 0.513539 0.718429 0.253370
O O16 0.000000 0.264969 0.500000
O O17 0.002009 0.000000 0.441352
O O18 0.289304 0.500000 0.842347
O O19 0.239225 0.833043 0.869425
O O20 0.000000 0.000000 0.000000
#
# Coordination Sequence:
#
# PCOD8056870 Si02
#       8
#     4   4   4   2   4   4   4   2
#     4   9  16  29  48  73 101 127 162 205 243 282
#     4  10  16  25  45  71  96 124 160 206 248 283
#     4  10  20  32  47  69  97 130 166 205 250 297
#     4  10  20  34  52  76 103 128 162 194 239 298
#     4   9  16  26  44  69  93 123 160 202 246 280
#     4  10  20  31  46  70  98 128 163 203 249 297
#     4   8  16  28  46  73  99 124 160 202 239 281
#     4  10  20  32  52  76  99 130 156 190 241 286
#
# _framework density 18.845306999999998
#
# number of rings (size 3 to 8) (size 9 to 14) (size 15 to 20)
#    0.000    2.571    0.714    5.143    4.000    2.857 
#    0.000    0.000    0.000    1.714    0.000    2.000 
#    0.000    0.000    0.000    0.000    0.000    0.000 
#
# Total GULP energy -346936.194347 kJ/mol
# GULP energy per Si atom -12390.578370 kJ/mol
# Density = 1.880241 g / cm^3
# Si number density = 18.845307 Si / 1000 Ang^3
#
#
#
# Elastic Constant Matrix: (Units=GPa)
#
#
# Indices 1 2 3 4 5 6 
#
# 1 133.3390 53.9771 30.5208 0.0000 -36.5671 0.0000
# 2 53.9771 131.1377 24.9173 0.0000 -28.2079 0.0000
# 3 30.5208 24.9173 43.0400 0.0000 -29.4871 0.0000
# 4 0.0000 0.0000 0.0000 14.3322 0.0000 -8.5169
# 5 -36.5671 -28.2079 -29.4871 0.0000 33.4199 0.0000
# 6 0.0000 0.0000 0.0000 -8.5169 0.0000 21.2942
#
#
#
# Elastic Compliance Matrix: (Units=1/GPa)
#
#
# Indices 1 2 3 4 5 6 
#
# 1 0.011342 -0.002443 0.001166 0.000000 0.011376 0.000000
# 2 -0.002443 0.009843 -0.000267 0.000000 0.005400 0.000000
# 3 0.001166 -0.000267 0.058864 0.000000 0.052987 0.000000
# 4 0.000000 0.000000 0.000000 0.091527 0.000000 0.036607
# 5 0.011376 0.005400 0.052987 0.000000 0.093680 0.000000
# 6 0.000000 0.000000 0.000000 0.036607 0.000000 0.061603
#
#
# Mechanical properties :
#
#
# Convention : Reuss Voigt Hill
#
# Bulk Modulus (GPa) = 12.99356 58.48301 35.73828
# Shear Modulus (GPa) = 14.06074 27.01603 20.53838
#
# Velocity S-wave (km/s) = 2.73447 3.79036 3.30485
# Velocity P-wave (km/s) = 4.10848 7.08917 5.79379
#
# Compressibility (1/GPa) = 0.07696119
#
# Stress axis : x y z
#
# Youngs Moduli (GPa) = 88.17139 101.59257 16.98823
#
# Poissons Ratio (x) = 0.24816 -0.01980
# Poissons Ratio (y) = 0.21537 0.00453
# Poissons Ratio (z) = -0.10277 0.02711
#
# Static dielectric constant tensor:
#      x y z
#    x 3.498590 0.000000 -0.204160 
#    y 0.000000 3.707100 0.000000 
#    z -0.204160 0.000000 2.592860 
# 
# 
# High freq. dielectric constant tensor:
#      x y z
#    x 1.726200 0.000000 -0.044560 
#    y 0.000000 1.750820 0.000000 
#    z -0.044560 0.000000 1.664820 
# 
# From -- ./inp_files/93545.got.cif
#   From: 2010.06.25/outbox.cif.g09.slc.cpg/sg10_47_cif.got.tgz:93545.got - 2010.06.27 22:07:45.
