data_PCOD8056085
_publ_section_title
;
Structure prediction by ZEFSAII (Michael W. Deem and Ramdas Pophale) SiO2 
 PCOD8056085
Probable space group: C C
;
_chemical_formula_sum "Si O2"
_cell_formula_units_Z 32
_cell_length_a 13.651851
_cell_length_b 16.640614
_cell_length_c 8.839336
_cell_angle_alpha 90.000000
_cell_angle_beta 132.733320
_cell_angle_gamma 90.000000
_cell_volume 1474.973469
_symmetry_space_group_name_H-M "C C"
_symmetry_group_IT_number 9
_symmetry_cell_setting 'monoclinic'
loop_
_space_group_symop_operation_xyz
x,y,z
x,-y,1/2+z
1/2+x,1/2+y,z
1/2+x,1/2-y,1/2+z
loop_
_atom_site_type_symbol
_atom_site_label
_atom_site_fract_x
_atom_site_fract_y
_atom_site_fract_z
Si Si1 0.770290 0.925578 0.188810
Si Si2 0.403405 0.049820 0.483900
Si Si3 0.531863 0.336140 0.347221
Si Si4 0.654181 0.058980 0.242622
Si Si5 0.969783 0.700795 0.047169
Si Si6 0.179394 0.270743 0.245753
Si Si7 0.937228 0.710016 0.675718
Si Si8 0.284321 0.082790 0.037079
O O1 0.913276 0.883727 0.308391
O O2 0.681140 0.863922 0.194751
O O3 0.774689 0.014482 0.275118
O O4 0.691827 0.943201 0.955128
O O5 0.447600 0.116588 0.649271
O O6 0.525661 0.993447 0.569762
O O7 0.292001 0.001877 0.460844
O O8 0.343653 0.085035 0.267815
O O9 0.626174 0.283063 0.553025
O O10 0.626839 0.402515 0.373760
O O11 0.481505 0.281317 0.157224
O O12 0.609965 0.151871 0.161647
O O13 0.908834 0.726668 0.821611
O O14 0.862671 0.648232 0.022375
O O15 0.326988 0.248462 0.451405
O O16 0.081000 0.253934 0.282520
#
# Coordination Sequence:
#
# PCOD8056085 Si02
#       8
#     4   4   4   4   4   4   4   4
#     4  12  25  44  71 104 141 191 230 292 362 428
#     4  11  21  42  69  99 128 186 237 291 336 422
#     4  12  25  46  69 102 147 187 227 293 372 425
#     4  11  23  42  71 100 137 179 241 284 349 426
#     4  11  25  44  73 104 134 188 235 296 349 429
#     4  12  24  45  72 101 141 189 232 296 361 427
#     4  12  25  42  72 105 141 179 244 293 352 424
#     4  11  24  43  71  97 139 181 240 283 351 421
#
# _framework density 21.695305000000001
#
# number of rings (size 3 to 8) (size 9 to 14) (size 15 to 20)
#    0.000    0.500    5.000    5.250    1.750    1.000 
#    0.000    0.000    0.000    0.000    0.000    0.000 
#    0.000    0.000    0.000    0.000    0.000    0.000 
#
# Total GULP energy -198321.624489 kJ/mol
# GULP energy per Si atom -12395.101531 kJ/mol
# Density = 2.164593 g / cm^3
# Si number density = 21.695305 Si / 1000 Ang^3
#
#
#
# Elastic Constant Matrix: (Units=GPa)
#
#
# Indices 1 2 3 4 5 6 
#
# 1 109.4649 31.2509 43.5593 0.0000 1.5598 0.0000
# 2 31.2509 51.4967 10.8238 0.0000 5.0357 0.0000
# 3 43.5593 10.8238 85.8338 0.0000 -15.0288 0.0000
# 4 0.0000 0.0000 0.0000 25.3626 0.0000 -5.1532
# 5 1.5598 5.0357 -15.0288 0.0000 40.1172 0.0000
# 6 0.0000 0.0000 0.0000 -5.1532 0.0000 44.8701
#
#
#
# Elastic Compliance Matrix: (Units=1/GPa)
#
#
# Indices 1 2 3 4 5 6 
#
# 1 0.013650 -0.006723 -0.006448 0.000000 -0.002102 0.000000
# 2 -0.006723 0.023782 -0.000069 0.000000 -0.002750 0.000000
# 3 -0.006448 -0.000069 0.016028 0.000000 0.006264 0.000000
# 4 0.000000 0.000000 0.000000 0.040370 0.000000 0.004636
# 5 -0.002102 -0.002750 0.006264 0.000000 0.027700 0.000000
# 6 0.000000 0.000000 0.000000 0.004636 0.000000 0.022819
#
#
# Mechanical properties :
#
#
# Convention : Reuss Voigt Hill
#
# Bulk Modulus (GPa) = 37.06214 46.45151 41.75682
# Shear Modulus (GPa) = 27.80529 32.81406 30.30967
#
# Velocity S-wave (km/s) = 3.58387 3.89330 3.74178
# Velocity P-wave (km/s) = 5.85197 6.45505 6.16090
#
# Compressibility (1/GPa) = 0.02698171
#
# Stress axis : x y z
#
# Youngs Moduli (GPa) = 73.25825 42.04887 62.39132
#
# Poissons Ratio (x) = 0.28269 0.40228
# Poissons Ratio (y) = 0.49251 0.00428
# Poissons Ratio (z) = 0.47234 0.00288
#
# Static dielectric constant tensor:
#      x y z
#    x 4.130240 0.000000 -0.035360 
#    y 0.000000 4.247320 0.000000 
#    z -0.035360 0.000000 3.755690 
# 
# 
# High freq. dielectric constant tensor:
#      x y z
#    x 1.857540 0.000000 -0.008920 
#    y 0.000000 1.852600 0.000000 
#    z -0.008920 0.000000 1.849910 
# 
# From -- ./inp_files/9955.got.cif
#   From: 2010.06.25/outbox.cif.g09.slc.cpg/sg9_5_cif.got.tgz:9955.got - 2010.06.27 21:40:51.
