data_PCOD8056635
_publ_section_title
;
Structure prediction by ZEFSAII (Michael W. Deem and Ramdas Pophale) SiO2 
 PCOD8056635
Probable space group: C C
;
_chemical_formula_sum "Si O2"
_cell_formula_units_Z 28
_cell_length_a 11.571154
_cell_length_b 10.559106
_cell_length_c 19.526227
_cell_angle_alpha 90.000000
_cell_angle_beta 29.650217
_cell_angle_gamma 90.000000
_cell_volume 1180.231923
_symmetry_space_group_name_H-M "C C"
_symmetry_group_IT_number 9
_symmetry_cell_setting 'monoclinic'
loop_
_space_group_symop_operation_xyz
x,y,z
x,-y,1/2+z
1/2+x,1/2+y,z
1/2+x,1/2-y,1/2+z
loop_
_atom_site_type_symbol
_atom_site_label
_atom_site_fract_x
_atom_site_fract_y
_atom_site_fract_z
Si Si1 0.765210 0.589533 0.733630
Si Si2 0.666424 0.241637 0.478972
Si Si3 0.443589 0.518053 0.295719
Si Si4 0.247580 0.967247 0.526276
Si Si5 0.884753 0.738075 0.485633
Si Si6 0.888924 0.325560 0.716191
Si Si7 0.041636 0.669479 0.987521
O O1 0.695739 0.531900 0.694946
O O2 0.521347 0.659395 0.871573
O O3 0.829438 0.474510 0.750681
O O4 0.983712 0.684755 0.627985
O O5 0.900028 0.156853 0.351581
O O6 0.737529 0.385826 0.461291
O O7 0.527433 0.227815 0.481019
O O8 0.483354 0.512595 0.192507
O O9 0.210053 0.439193 0.431901
O O10 0.354737 0.880577 0.530416
O O11 0.375821 0.102224 0.449929
O O12 0.627269 0.791443 0.633280
O O13 0.684929 0.268009 0.867756
O O14 0.918582 0.275624 0.620960
#
# Coordination Sequence:
#
# PCOD8056635 Si02
#       7
#     4   4   4   4   4   4   4
#     4  12  23  45  73 102 150 199 248 317 396 457
#     4  12  25  45  72 107 145 205 260 316 391 469
#     4  12  20  48  74 100 147 201 251 313 400 453
#     4  12  26  45  75 105 148 202 255 321 386 466
#     4  12  25  46  71 107 153 197 253 325 382 469
#     4  12  25  45  78 109 148 204 255 317 396 466
#     4  12  24  46  77 106 147 198 260 315 391 460
#
# _framework density 23.724152
#
# number of rings (size 3 to 8) (size 9 to 14) (size 15 to 20)
#    0.000    0.000    8.571    1.714    0.000    1.143 
#    0.000    0.000    0.000    0.000    0.000    0.000 
#    0.000    0.000    0.000    0.000    0.000    0.000 
#
# Total GULP energy -173447.985357 kJ/mol
# GULP energy per Si atom -12389.141811 kJ/mol
# Density = 2.367015 g / cm^3
# Si number density = 23.724152 Si / 1000 Ang^3
#
#
#
# Elastic Constant Matrix: (Units=GPa)
#
#
# Indices 1 2 3 4 5 6 
#
# 1 59.7526 49.4455 10.6784 0.0013 -11.4005 -0.0023
# 2 49.4455 146.5483 35.1317 -0.0058 6.6042 -0.0003
# 3 10.6784 35.1317 83.4642 -0.0137 10.1707 -0.0078
# 4 0.0013 -0.0058 -0.0137 32.6179 -0.0011 -0.1930
# 5 -11.4005 6.6042 10.1707 -0.0011 33.0437 0.0034
# 6 -0.0023 -0.0003 -0.0078 -0.1930 0.0034 37.4940
#
#
#
# Elastic Compliance Matrix: (Units=1/GPa)
#
#
# Indices 1 2 3 4 5 6 
#
# 1 0.026797 -0.009342 -0.000883 -0.000003 0.011384 0.000000
# 2 -0.009342 0.010857 -0.002823 0.000001 -0.004524 -0.000001
# 3 -0.000883 -0.002823 0.013767 0.000005 -0.003978 0.000003
# 4 -0.000003 0.000001 0.000005 0.030659 -0.000002 0.000158
# 5 0.011384 -0.004524 -0.003978 -0.000002 0.036319 -0.000003
# 6 0.000000 -0.000001 0.000003 0.000158 -0.000003 0.026672
#
#
# Mechanical properties :
#
#
# Convention : Reuss Voigt Hill
#
# Bulk Modulus (GPa) = 39.49028 53.36406 46.42717
# Shear Modulus (GPa) = 27.83828 33.59840 30.71834
#
# Velocity S-wave (km/s) = 3.42923 3.76734 3.60225
# Velocity P-wave (km/s) = 5.68869 6.43942 6.07567
#
# Compressibility (1/GPa) = 0.02532269
#
# Stress axis : x y z
#
# Youngs Moduli (GPa) = 37.31828 92.11057 72.63622
#
# Poissons Ratio (x) = 0.86054 0.06415
# Poissons Ratio (y) = 0.34865 0.20506
# Poissons Ratio (z) = 0.03296 0.26004
#
# Static dielectric constant tensor:
#      x y z
#    x 4.120550 0.000020 0.092780 
#    y 0.000020 5.119060 0.000090 
#    z 0.092780 0.000090 5.034060 
# 
# 
# High freq. dielectric constant tensor:
#      x y z
#    x 1.926080 0.000000 -0.009960 
#    y 0.000000 1.940660 0.000000 
#    z -0.009960 0.000000 1.953080 
# 
# From -- ./inp_files/16102.got.cif
#   From: 2010.06.25/outbox.cif.g09.slc.cpg/sg9_9_cif.got.tgz:16102.got - 2010.06.27 21:40:51.
