data_PCOD8056525
_publ_section_title
;
Structure prediction by ZEFSAII (Michael W. Deem and Ramdas Pophale) SiO2 
 PCOD8056525
Probable space group: C C
;
_chemical_formula_sum "Si O2"
_cell_formula_units_Z 24
_cell_length_a 10.568257
_cell_length_b 13.566450
_cell_length_c 13.791253
_cell_angle_alpha 90.000000
_cell_angle_beta 149.881643
_cell_angle_gamma 90.000000
_cell_volume 992.186909
_symmetry_space_group_name_H-M "C C"
_symmetry_group_IT_number 9
_symmetry_cell_setting 'monoclinic'
loop_
_space_group_symop_operation_xyz
x,y,z
x,-y,1/2+z
1/2+x,1/2+y,z
1/2+x,1/2-y,1/2+z
loop_
_atom_site_type_symbol
_atom_site_label
_atom_site_fract_x
_atom_site_fract_y
_atom_site_fract_z
Si Si1 0.098360 0.375071 0.898730
Si Si2 0.047127 0.124923 0.459536
Si Si3 0.053448 0.658252 0.018367
Si Si4 0.092038 0.158249 0.839896
Si Si5 0.077195 0.413653 0.315426
Si Si6 0.068281 0.913647 0.542832
O O1 0.111820 0.468409 0.835661
O O2 0.107686 0.276595 0.840312
O O3 0.822853 0.382020 0.769712
O O4 0.322939 0.380845 0.124603
O O5 0.322616 0.117962 0.588538
O O6 0.037816 0.223401 0.517960
O O7 0.822540 0.119154 0.233658
O O8 0.033642 0.031584 0.522591
O O9 0.822740 0.613762 0.929127
O O10 0.033692 0.625294 0.895016
O O11 0.111783 0.125293 0.963238
O O12 0.322732 0.363955 0.429124
#
# Coordination Sequence:
#
# PCOD8056525 Si02
#       6
#     4   4   4   4   4   4
#     4  11  25  46  71 100 137 180 227 276 338 402
#     4  11  25  46  71 100 137 180 227 276 338 402
#     4  12  25  45  74 101 132 181 233 275 329 407
#     4  12  25  45  74 101 132 181 233 275 329 407
#     4  11  27  46  69 100 140 179 220 284 341 398
#     4  11  27  46  69 100 140 179 220 284 341 398
#
# _framework density 24.188991000000001
#
# number of rings (size 3 to 8) (size 9 to 14) (size 15 to 20)
#    0.000    0.667    3.333    3.000    9.333    2.667 
#    0.000    0.000    0.000    0.000    0.000    0.000 
#    0.000    0.000    0.000    0.000    0.000    0.000 
#
# Total GULP energy -148748.247342 kJ/mol
# GULP energy per Si atom -12395.687278 kJ/mol
# Density = 2.413394 g / cm^3
# Si number density = 24.188991 Si / 1000 Ang^3
#
#
#
# Elastic Constant Matrix: (Units=GPa)
#
#
# Indices 1 2 3 4 5 6 
#
# 1 183.7539 26.8319 75.5570 0.0038 42.4197 0.0130
# 2 26.8319 85.1307 32.8872 -0.0422 4.5599 -0.0197
# 3 75.5570 32.8872 201.4764 -0.0538 48.8218 -0.0531
# 4 0.0038 -0.0422 -0.0538 38.5254 -0.0387 4.7213
# 5 42.4197 4.5599 48.8218 -0.0387 43.6696 -0.0282
# 6 0.0130 -0.0197 -0.0531 4.7213 -0.0282 9.2814
#
#
#
# Elastic Compliance Matrix: (Units=1/GPa)
#
#
# Indices 1 2 3 4 5 6 
#
# 1 0.007491 -0.001612 -0.001130 -0.000006 -0.005846 -0.000035
# 2 -0.001612 0.012942 -0.002140 0.000012 0.002606 0.000020
# 3 -0.001130 -0.002140 0.007429 -0.000001 -0.006984 0.000019
# 4 -0.000006 0.000012 -0.000001 0.027683 0.000021 -0.014082
# 5 -0.005846 0.002606 -0.006984 0.000021 0.036114 0.000073
# 6 -0.000035 0.000020 0.000019 -0.014082 0.000073 0.114906
#
#
# Mechanical properties :
#
#
# Convention : Reuss Voigt Hill
#
# Bulk Modulus (GPa) = 55.24981 82.32370 68.78675
# Shear Modulus (GPa) = 22.48615 40.63427 31.56021
#
# Velocity S-wave (km/s) = 3.05225 4.10306 3.61603
# Velocity P-wave (km/s) = 5.94240 7.52026 6.77740
#
# Compressibility (1/GPa) = 0.01809961
#
# Stress axis : x y z
#
# Youngs Moduli (GPa) = 133.48575 77.27031 134.61189
#
# Poissons Ratio (x) = 0.12453 0.15209
# Poissons Ratio (y) = 0.21513 0.28802
# Poissons Ratio (z) = 0.15082 0.16533
#
# Static dielectric constant tensor:
#      x y z
#    x 4.038160 -0.000010 0.665270 
#    y -0.000010 4.535110 0.000010 
#    z 0.665270 0.000010 4.922070 
# 
# 
# High freq. dielectric constant tensor:
#      x y z
#    x 1.937140 0.000000 0.038840 
#    y 0.000000 1.958090 0.000000 
#    z 0.038840 0.000000 1.986010 
# 
# From -- ./inp_files/24934.got.cif
#   From: 2010.06.25/outbox.cif.g09.slc.cpg/sg9_13_cif.got.tgz:24934.got - 2010.06.27 21:40:51.
