data_PCOD8056856
_publ_section_title
;
Structure prediction by ZEFSAII (Michael W. Deem and Ramdas Pophale) SiO2 
 PCOD8056856
Probable space group: P 2/M
;
_chemical_formula_sum "Si O2"
_cell_formula_units_Z 28
_cell_length_a 20.145976
_cell_length_b 13.581918
_cell_length_c 9.972237
_cell_angle_alpha 90.000000
_cell_angle_beta 34.090822
_cell_angle_gamma 90.000000
_cell_volume 1529.405120
_symmetry_space_group_name_H-M "P 2/M"
_symmetry_group_IT_number 10
_symmetry_cell_setting 'monoclinic'
loop_
_space_group_symop_operation_xyz
x,y,z
-x,y,-z
-x,-y,-z
x,-y,z
loop_
_atom_site_type_symbol
_atom_site_label
_atom_site_fract_x
_atom_site_fract_y
_atom_site_fract_z
Si Si1 0.166235 0.110310 0.881982
Si Si2 0.903608 0.386266 0.855658
Si Si3 0.180263 0.611914 0.455715
Si Si4 0.217318 0.258661 0.172466
Si Si5 0.135539 0.302818 0.802052
Si Si6 0.953098 0.893256 0.431166
Si Si7 0.634051 0.888569 0.241203
O O1 0.163324 0.186006 0.763579
O O2 0.290726 0.118484 0.749156
O O3 0.146810 0.000000 0.858947
O O4 0.061467 0.143144 0.157717
O O5 0.873664 0.500000 0.868635
O O6 0.860757 0.311920 0.811199
O O7 0.043852 0.373030 0.638594
O O8 0.833354 0.357586 0.110022
O O9 0.216619 0.500000 0.404350
O O10 0.263787 0.659448 0.199920
O O11 0.209724 0.656557 0.552695
O O12 0.145159 0.189934 0.397884
O O13 0.322636 0.192934 0.936888
O O14 0.000000 0.325105 0.000000
O O15 0.000000 0.910275 0.500000
O O16 0.904898 0.000000 0.460276
O O17 0.500000 0.863011 0.500000
O O18 0.646497 0.000000 0.161010
#
# Coordination Sequence:
#
# PCOD8056856 Si02
#       7
#     4   4   4   4   4   4   4
#     4  10  19  32  51  77 107 139 175 214 258 311
#     4  10  19  30  48  75 107 143 181 213 252 310
#     4  10  21  32  47  76 113 142 170 212 259 313
#     4  12  19  31  52  78 106 136 174 217 266 308
#     4  10  18  32  49  73 109 150 176 199 252 319
#     4  10  16  24  43  73 105 132 157 197 257 316
#     4  10  21  36  55  79 105 136 176 220 265 312
#
# _framework density 18.307772
#
# number of rings (size 3 to 8) (size 9 to 14) (size 15 to 20)
#    0.000    1.714    2.857    4.286    0.000    3.143 
#    0.000    1.429    0.000    2.571    0.000    4.000 
#    0.000    0.000    0.000    0.000    0.000    0.000 
#
# Total GULP energy -347023.616606 kJ/mol
# GULP energy per Si atom -12393.700593 kJ/mol
# Density = 1.826610 g / cm^3
# Si number density = 18.307772 Si / 1000 Ang^3
#
#
#
# Elastic Constant Matrix: (Units=GPa)
#
#
# Indices 1 2 3 4 5 6 
#
# 1 41.1841 37.0457 33.7083 0.0000 19.2229 0.0000
# 2 37.0457 142.0028 60.6620 0.0000 18.5604 0.0000
# 3 33.7083 60.6620 66.6782 0.0000 6.5209 0.0000
# 4 0.0000 0.0000 0.0000 28.4677 0.0000 11.0654
# 5 19.2229 18.5604 6.5209 0.0000 25.3848 0.0000
# 6 0.0000 0.0000 0.0000 11.0654 0.0000 30.0967
#
#
#
# Elastic Compliance Matrix: (Units=1/GPa)
#
#
# Indices 1 2 3 4 5 6 
#
# 1 0.072173 0.001570 -0.033294 0.000000 -0.047249 0.000000
# 2 0.001570 0.012477 -0.011423 0.000000 -0.007377 0.000000
# 3 -0.033294 -0.011423 0.039942 0.000000 0.023304 0.000000
# 4 0.000000 0.000000 0.000000 0.040985 0.000000 -0.015068
# 5 -0.047249 -0.007377 0.023304 0.000000 0.074581 0.000000
# 6 0.000000 0.000000 0.000000 -0.015068 0.000000 0.038766
#
#
# Mechanical properties :
#
#
# Convention : Reuss Voigt Hill
#
# Bulk Modulus (GPa) = 26.11099 56.96635 41.53867
# Shear Modulus (GPa) = 13.22810 24.68644 18.95727
#
# Velocity S-wave (km/s) = 2.69093 3.67606 3.22137
# Velocity P-wave (km/s) = 4.89367 7.01437 6.04770
#
# Compressibility (1/GPa) = 0.03829804
#
# Stress axis : x y z
#
# Youngs Moduli (GPa) = 13.85555 80.15047 25.03638
#
# Poissons Ratio (x) = -0.12582 0.83355
# Poissons Ratio (y) = -0.02175 0.28599
# Poissons Ratio (z) = 0.46130 0.91556
#
# Static dielectric constant tensor:
#      x y z
#    x 3.097660 0.000000 0.294280 
#    y 0.000000 3.911150 0.000000 
#    z 0.294280 0.000000 2.993060 
# 
# 
# High freq. dielectric constant tensor:
#      x y z
#    x 1.669250 0.000000 0.040780 
#    y 0.000000 1.741900 0.000000 
#    z 0.040780 0.000000 1.667470 
# 
# From -- ./inp_files/25060.got.cif
#   From: 2010.06.25/outbox.cif.g09.slc.cpg/sg10_13_cif.got.tgz:25060.got - 2010.06.27 22:07:45.
