data_PCOD8056296
_publ_section_title
;
Structure prediction by ZEFSAII (Michael W. Deem and Ramdas Pophale) SiO2 
 PCOD8056296
Probable space group: C C
;
_chemical_formula_sum "Si O2"
_cell_formula_units_Z 32
_cell_length_a 10.771300
_cell_length_b 9.156944
_cell_length_c 13.770804
_cell_angle_alpha 90.000000
_cell_angle_beta 86.488554
_cell_angle_gamma 90.000000
_cell_volume 1355.694577
_symmetry_space_group_name_H-M "C C"
_symmetry_group_IT_number 9
_symmetry_cell_setting 'monoclinic'
loop_
_space_group_symop_operation_xyz
x,y,z
x,-y,1/2+z
1/2+x,1/2+y,z
1/2+x,1/2-y,1/2+z
loop_
_atom_site_type_symbol
_atom_site_label
_atom_site_fract_x
_atom_site_fract_y
_atom_site_fract_z
Si Si1 0.586620 0.729853 0.666510
Si Si2 0.999606 0.472203 0.986702
Si Si3 0.168729 0.540306 0.708476
Si Si4 0.390719 0.825498 0.818699
Si Si5 0.898070 0.954167 0.075512
Si Si6 0.775936 0.519626 0.143344
Si Si7 0.746889 0.928672 0.414416
Si Si8 0.058010 0.216762 0.108414
O O1 0.618753 0.900427 0.651797
O O2 0.498241 0.721641 0.766948
O O3 0.507732 0.666702 0.577939
O O4 0.714542 0.638433 0.670549
O O5 0.117651 0.583782 0.981299
O O6 0.947105 0.457121 0.880104
O O7 0.051676 0.311822 0.011012
O O8 0.897088 0.515294 0.070471
O O9 0.287209 0.606518 0.647153
O O10 0.208437 0.495508 0.814653
O O11 0.066508 0.671679 0.701566
O O12 0.308144 0.903872 0.742344
O O13 0.300373 0.731815 0.892303
O O14 0.938779 0.110260 0.120585
O O15 0.850566 0.975733 0.966980
O O16 0.677171 0.614966 0.089915
#
# Coordination Sequence:
#
# PCOD8056296 Si02
#       8
#     4   4   4   4   4   4   4   4
#     4  11  25  46  74 105 146 194 243 304 371 434
#     4  12  26  44  71 110 146 192 249 305 361 444
#     4  12  23  46  71 104 148 194 241 300 374 434
#     4  12  25  47  72 109 149 189 251 308 364 441
#     4  11  24  45  71 106 145 192 242 304 370 438
#     4  11  27  48  74 106 148 198 241 309 371 434
#     4  12  25  45  75 107 147 195 246 300 369 445
#     4  11  23  45  72  99 145 188 239 298 368 428
#
# _framework density 23.604137000000001
#
# number of rings (size 3 to 8) (size 9 to 14) (size 15 to 20)
#    0.000    0.500    6.250    1.500    0.000    1.000 
#    0.000    2.500    0.000    0.000    0.000    0.000 
#    0.000    0.000    0.000    0.000    0.000    0.000 
#
# Total GULP energy -198307.043955 kJ/mol
# GULP energy per Si atom -12394.190247 kJ/mol
# Density = 2.355041 g / cm^3
# Si number density = 23.604137 Si / 1000 Ang^3
#
#
#
# Elastic Constant Matrix: (Units=GPa)
#
#
# Indices 1 2 3 4 5 6 
#
# 1 101.2608 31.1517 33.7050 0.0000 3.5699 0.0000
# 2 31.1517 87.3657 7.1955 0.0000 3.8425 0.0000
# 3 33.7050 7.1955 105.1100 0.0000 25.8507 0.0000
# 4 0.0000 0.0000 0.0000 33.5300 0.0000 0.2838
# 5 3.5699 3.8425 25.8507 0.0000 41.9957 0.0000
# 6 0.0000 0.0000 0.0000 0.2838 0.0000 37.1454
#
#
#
# Elastic Compliance Matrix: (Units=1/GPa)
#
#
# Indices 1 2 3 4 5 6 
#
# 1 0.012492 -0.004193 -0.004185 0.000000 0.001898 0.000000
# 2 -0.004193 0.012934 0.000781 0.000000 -0.001308 0.000000
# 3 -0.004185 0.000781 0.012647 0.000000 -0.007501 0.000000
# 4 0.000000 0.000000 0.000000 0.029826 0.000000 -0.000228
# 5 0.001898 -0.001308 -0.007501 0.000000 0.028387 0.000000
# 6 0.000000 0.000000 0.000000 -0.000228 0.000000 0.026923
#
#
# Mechanical properties :
#
#
# Convention : Reuss Voigt Hill
#
# Bulk Modulus (GPa) = 43.71015 48.64897 46.17956
# Shear Modulus (GPa) = 34.23939 37.31319 35.77629
#
# Velocity S-wave (km/s) = 3.81276 3.98023 3.89740
# Velocity P-wave (km/s) = 6.15963 6.46359 6.31344
#
# Compressibility (1/GPa) = 0.02287798
#
# Stress axis : x y z
#
# Youngs Moduli (GPa) = 80.05394 77.31331 79.06869
#
# Poissons Ratio (x) = 0.32416 0.33093
# Poissons Ratio (y) = 0.33565 -0.06172
# Poissons Ratio (z) = 0.33506 -0.06035
#
# Static dielectric constant tensor:
#      x y z
#    x 4.730100 0.000000 0.322340 
#    y 0.000000 4.246220 0.000000 
#    z 0.322340 0.000000 4.212200 
# 
# 
# High freq. dielectric constant tensor:
#      x y z
#    x 1.955790 0.000000 0.021770 
#    y 0.000000 1.931040 0.000000 
#    z 0.021770 0.000000 1.923560 
# 
# From -- ./inp_files/24246.got.cif
#   From: 2010.06.25/outbox.cif.g09.slc.cpg/sg9_13_cif.got.tgz:24246.got - 2010.06.27 21:40:51.
