data_PCOD8056645
_publ_section_title
;
Structure prediction by ZEFSAII (Michael W. Deem and Ramdas Pophale) SiO2 
 PCOD8056645
Probable space group: C C
;
_chemical_formula_sum "Si O2"
_cell_formula_units_Z 32
_cell_length_a 24.841891
_cell_length_b 12.179563
_cell_length_c 13.650470
_cell_angle_alpha 90.000000
_cell_angle_beta 160.012338
_cell_angle_gamma 90.000000
_cell_volume 1411.752665
_symmetry_space_group_name_H-M "C C"
_symmetry_group_IT_number 9
_symmetry_cell_setting 'monoclinic'
loop_
_space_group_symop_operation_xyz
x,y,z
x,-y,1/2+z
1/2+x,1/2+y,z
1/2+x,1/2-y,1/2+z
loop_
_atom_site_type_symbol
_atom_site_label
_atom_site_fract_x
_atom_site_fract_y
_atom_site_fract_z
Si Si1 0.865550 0.391916 0.757450
Si Si2 0.123428 0.503171 0.306024
Si Si3 0.609456 0.144262 0.971064
Si Si4 0.357925 0.449926 0.042225
Si Si5 0.742305 0.803216 0.137408
Si Si6 0.786508 0.579237 0.510119
Si Si7 0.564807 0.716721 0.002838
Si Si8 0.552682 0.633715 0.273505
O O1 0.730072 0.325923 0.584431
O O2 0.794162 0.445360 0.535460
O O3 0.991903 0.294088 0.960662
O O4 0.948766 0.491542 0.960029
O O5 0.124748 0.411548 0.391634
O O6 0.251491 0.482407 0.438749
O O7 0.154506 0.622174 0.406961
O O8 0.463106 0.116164 0.790510
O O9 0.590570 0.273133 0.918030
O O10 0.761740 0.103206 0.288713
O O11 0.423888 0.343246 0.208226
O O12 0.496957 0.526976 0.238974
O O13 0.919621 0.841957 0.463946
O O14 0.651568 0.806979 0.084504
O O15 0.715358 0.616703 0.493075
O O16 0.679880 0.621807 0.239436
#
# Coordination Sequence:
#
# PCOD8056645 Si02
#       8
#     4   4   4   4   4   4   4   4
#     4  12  24  44  74 104 147 197 240 306 374 433
#     4  12  23  46  75 106 148 197 247 304 373 449
#     4  12  26  44  78 110 149 202 249 308 381 444
#     4  12  27  48  72 113 151 195 253 313 374 451
#     4  12  23  44  72 103 146 197 241 304 377 433
#     4  12  25  46  74 112 145 199 258 300 375 460
#     4  12  25  47  72 107 152 196 248 312 373 441
#     4  12  25  45  75 109 150 195 248 311 375 443
#
# _framework density 22.666861000000001
#
# number of rings (size 3 to 8) (size 9 to 14) (size 15 to 20)
#    0.000    0.000    7.500    2.250    1.750    2.000 
#    0.000    0.000    0.000    0.000    0.000    0.000 
#    0.000    0.000    0.000    0.000    0.000    0.000 
#
# Total GULP energy -198268.830375 kJ/mol
# GULP energy per Si atom -12391.801898 kJ/mol
# Density = 2.261527 g / cm^3
# Si number density = 22.666861 Si / 1000 Ang^3
#
#
#
# Elastic Constant Matrix: (Units=GPa)
#
#
# Indices 1 2 3 4 5 6 
#
# 1 78.7798 47.1958 27.0811 0.0000 -5.0851 0.0000
# 2 47.1958 111.7033 42.9853 0.0000 -7.7136 0.0000
# 3 27.0811 42.9853 58.5149 0.0000 -9.5973 0.0000
# 4 0.0000 0.0000 0.0000 47.2740 0.0000 -14.0327
# 5 -5.0851 -7.7136 -9.5973 0.0000 29.2019 0.0000
# 6 0.0000 0.0000 0.0000 -14.0327 0.0000 42.3687
#
#
#
# Elastic Compliance Matrix: (Units=1/GPa)
#
#
# Indices 1 2 3 4 5 6 
#
# 1 0.017563 -0.005982 -0.003690 0.000000 0.000265 0.000000
# 2 -0.005982 0.014520 -0.007864 0.000000 0.000209 0.000000
# 3 -0.003690 -0.007864 0.025503 0.000000 0.005662 0.000000
# 4 0.000000 0.000000 0.000000 0.023460 0.000000 0.007770
# 5 0.000265 0.000209 0.005662 0.000000 0.036207 0.000000
# 6 0.000000 0.000000 0.000000 0.007770 0.000000 0.026176
#
#
# Mechanical properties :
#
#
# Convention : Reuss Voigt Hill
#
# Bulk Modulus (GPa) = 44.41692 53.72470 49.07081
# Shear Modulus (GPa) = 26.88088 32.55130 29.71609
#
# Velocity S-wave (km/s) = 3.44744 3.79367 3.62469
# Velocity P-wave (km/s) = 5.95689 6.55306 6.26207
#
# Compressibility (1/GPa) = 0.02251394
#
# Stress axis : x y z
#
# Youngs Moduli (GPa) = 56.93738 68.86860 39.21114
#
# Poissons Ratio (x) = 0.41199 0.14470
# Poissons Ratio (y) = 0.34061 0.30835
# Poissons Ratio (z) = 0.21011 0.54157
#
# Static dielectric constant tensor:
#      x y z
#    x 4.358330 0.000000 0.146750 
#    y 0.000000 4.236230 0.000000 
#    z 0.146750 0.000000 4.131840 
# 
# 
# High freq. dielectric constant tensor:
#      x y z
#    x 1.916750 0.000000 0.009850 
#    y 0.000000 1.897570 0.000000 
#    z 0.009850 0.000000 1.884390 
# 
# From -- ./inp_files/22862.got.cif
#   From: 2010.06.25/outbox.cif.g09.slc.cpg/sg9_12_cif.got.tgz:22862.got - 2010.06.27 21:40:51.
