data_PCOD8056893
_publ_section_title
;
Structure prediction by ZEFSAII (Michael W. Deem and Ramdas Pophale) SiO2 
 PCOD8056893
Probable space group: P 2/M
;
_chemical_formula_sum "Si O2"
_cell_formula_units_Z 28
_cell_length_a 20.649963
_cell_length_b 7.899880
_cell_length_c 26.368841
_cell_angle_alpha 90.000000
_cell_angle_beta 20.795795
_cell_angle_gamma 90.000000
_cell_volume 1527.235761
_symmetry_space_group_name_H-M "P 2/M"
_symmetry_group_IT_number 10
_symmetry_cell_setting 'monoclinic'
loop_
_space_group_symop_operation_xyz
x,y,z
-x,y,-z
-x,-y,-z
x,-y,z
loop_
_atom_site_type_symbol
_atom_site_label
_atom_site_fract_x
_atom_site_fract_y
_atom_site_fract_z
Si Si1 0.196530 0.700847 0.340360
Si Si2 0.132337 0.692728 0.175680
Si Si3 0.119970 0.816236 0.720582
Si Si4 0.298771 0.701855 0.155466
Si Si5 0.967852 0.500000 0.963784
Si Si6 0.439133 0.194219 0.879773
Si Si7 0.201556 0.188732 0.963840
Si Si8 0.713239 0.500000 0.353230
O O1 0.202748 0.500000 0.337204
O O2 0.228546 0.771162 0.260423
O O3 0.347503 0.769533 0.268853
O O4 0.000000 0.771531 0.500000
O O5 0.067615 0.500000 0.225703
O O6 0.168467 0.767068 0.205450
O O7 0.966463 0.795367 0.271977
O O8 0.320544 0.696404 0.005880
O O9 0.256677 0.666333 0.634637
O O10 0.219878 0.000000 0.649566
O O11 0.955422 0.811978 0.879895
O O12 0.303917 0.500000 0.150385
O O13 0.500000 0.776517 0.000000
O O14 0.157039 0.500000 0.792278
O O15 0.000000 0.500000 0.000000
O O16 0.845937 0.332770 0.042326
O O17 0.386142 0.236083 0.859808
O O18 0.391294 0.000000 0.925800
O O19 0.216612 0.000000 0.927470
O O20 0.500000 0.500000 0.500000
#
# Coordination Sequence:
#
# PCOD8056893 Si02
#       8
#     4   4   4   4   2   4   4   2
#     4  10  20  33  49  69  97 135 179 215 257 311
#     4  10  16  27  51  74 101 132 169 221 268 298
#     4   9  17  31  51  80 109 137 176 214 253 307
#     4   9  16  28  46  73 100 127 166 217 266 302
#     4  10  20  34  58  86 106 132 172 210 254 310
#     4  10  19  30  48  73  99 132 173 215 259 304
#     4   8  17  31  50  79 108 133 169 216 258 299
#     4  10  20  36  58  82 110 141 170 204 258 311
#
# _framework density 18.333776
#
# number of rings (size 3 to 8) (size 9 to 14) (size 15 to 20)
#    0.000    2.571    2.143    1.714    4.000    0.857 
#    0.000    2.143    3.143    0.000    0.000    0.000 
#    0.000    0.000    0.000    0.000    0.000    0.000 
#
# Total GULP energy -347017.659412 kJ/mol
# GULP energy per Si atom -12393.487836 kJ/mol
# Density = 1.829205 g / cm^3
# Si number density = 18.333776 Si / 1000 Ang^3
#
#
#
# Elastic Constant Matrix: (Units=GPa)
#
#
# Indices 1 2 3 4 5 6 
#
# 1 152.2019 62.6019 54.2286 0.0000 -17.5613 0.0000
# 2 62.6019 100.0989 25.6102 0.0000 -13.2508 0.0000
# 3 54.2286 25.6102 81.5724 0.0000 -14.4671 0.0000
# 4 0.0000 0.0000 0.0000 8.8330 0.0000 -5.2786
# 5 -17.5613 -13.2508 -14.4671 0.0000 28.7739 0.0000
# 6 0.0000 0.0000 0.0000 -5.2786 0.0000 15.2709
#
#
#
# Elastic Compliance Matrix: (Units=1/GPa)
#
#
# Indices 1 2 3 4 5 6 
#
# 1 0.010745 -0.005174 -0.005246 0.000000 0.001537 0.000000
# 2 -0.005174 0.013707 -0.000334 0.000000 0.002986 0.000000
# 3 -0.005246 -0.000334 0.016750 0.000000 0.005066 0.000000
# 4 0.000000 0.000000 0.000000 0.142686 0.000000 0.049321
# 5 0.001537 0.002986 0.005066 0.000000 0.039614 0.000000
# 6 0.000000 0.000000 0.000000 0.049321 0.000000 0.082532
#
#
# Mechanical properties :
#
#
# Convention : Reuss Voigt Hill
#
# Bulk Modulus (GPa) = 50.77856 68.75051 59.76453
# Shear Modulus (GPa) = 14.96529 23.33774 19.15152
#
# Velocity S-wave (km/s) = 2.86014 3.57170 3.23554
# Velocity P-wave (km/s) = 6.21804 7.38851 6.82840
#
# Compressibility (1/GPa) = 0.01969335
#
# Stress axis : x y z
#
# Youngs Moduli (GPa) = 93.06742 72.95638 59.70203
#
# Poissons Ratio (x) = 0.37749 0.31320
# Poissons Ratio (y) = 0.48155 0.01994
# Poissons Ratio (z) = 0.48823 0.02436
#
# Static dielectric constant tensor:
#      x y z
#    x 3.519530 0.000000 -0.175320 
#    y 0.000000 3.613460 0.000000 
#    z -0.175320 0.000000 3.040470 
# 
# 
# High freq. dielectric constant tensor:
#      x y z
#    x 1.709480 0.000000 -0.021530 
#    y 0.000000 1.714840 0.000000 
#    z -0.021530 0.000000 1.658590 
# 
# From -- ./inp_files/93538.got.cif
#   From: 2010.06.25/outbox.cif.g09.slc.cpg/sg10_47_cif.got.tgz:93538.got - 2010.06.27 22:07:45.
