data_PCOD8056488
_publ_section_title
;
Structure prediction by ZEFSAII (Michael W. Deem and Ramdas Pophale) SiO2 
 PCOD8056488
Probable space group: C C
;
_chemical_formula_sum "Si O2"
_cell_formula_units_Z 28
_cell_length_a 7.785015
_cell_length_b 14.795088
_cell_length_c 11.589401
_cell_angle_alpha 90.000000
_cell_angle_beta 64.898670
_cell_angle_gamma 90.000000
_cell_volume 1208.800760
_symmetry_space_group_name_H-M "C C"
_symmetry_group_IT_number 9
_symmetry_cell_setting 'monoclinic'
loop_
_space_group_symop_operation_xyz
x,y,z
x,-y,1/2+z
1/2+x,1/2+y,z
1/2+x,1/2-y,1/2+z
loop_
_atom_site_type_symbol
_atom_site_label
_atom_site_fract_x
_atom_site_fract_y
_atom_site_fract_z
Si Si1 0.360980 0.851210 0.161870
Si Si2 0.441262 0.497322 0.033555
Si Si3 0.921261 0.847834 0.717242
Si Si4 0.362374 0.009884 0.848752
Si Si5 0.159717 0.546811 0.434868
Si Si6 0.773486 0.670669 0.273675
Si Si7 0.543001 0.315443 0.072589
O O1 0.426572 0.748802 0.156570
O O2 0.320068 0.895552 0.297361
O O3 0.182566 0.854069 0.129768
O O4 0.524660 0.916255 0.071344
O O5 0.379410 0.575417 0.135674
O O6 0.389996 0.395047 0.089918
O O7 0.667244 0.492204 0.969284
O O8 0.331140 0.511829 0.943131
O O9 0.743148 0.861942 0.852695
O O10 0.115858 0.862607 0.728872
O O11 0.542201 0.019122 0.882876
O O12 0.397594 0.919071 0.763681
O O13 0.667725 0.710997 0.420472
O O14 0.920050 0.735957 0.165739
#
# Coordination Sequence:
#
# PCOD8056488 Si02
#       7
#     4   4   4   4   4   4   4
#     4  12  27  46  74 106 152 189 250 310 372 446
#     4  11  25  49  74 104 150 195 246 310 370 447
#     4  12  27  46  74 106 152 189 250 310 372 446
#     4  11  25  49  74 104 150 195 246 310 370 447
#     4  12  24  48  72 112 142 192 254 298 380 444
#     4  11  24  48  77 108 152 195 246 308 374 444
#     4  11  24  48  77 108 152 195 246 308 374 444
#
# _framework density 23.163454000000002
#
# number of rings (size 3 to 8) (size 9 to 14) (size 15 to 20)
#    0.000    0.571    5.714    3.429    2.000    0.000 
#    5.143    0.000    0.000    0.000    0.000    0.000 
#    0.000    0.000    0.000    0.000    0.000    0.000 
#
# Total GULP energy -173488.821275 kJ/mol
# GULP energy per Si atom -12392.058663 kJ/mol
# Density = 2.311073 g / cm^3
# Si number density = 23.163454 Si / 1000 Ang^3
#
#
#
# Elastic Constant Matrix: (Units=GPa)
#
#
# Indices 1 2 3 4 5 6 
#
# 1 159.0140 21.6603 38.8867 0.0000 23.5536 0.0000
# 2 21.6603 101.0805 49.3893 0.0000 4.6113 0.0000
# 3 38.8867 49.3893 83.9163 0.0000 12.4306 0.0000
# 4 0.0000 0.0000 0.0000 18.4500 0.0000 1.4551
# 5 23.5536 4.6113 12.4306 0.0000 35.9872 0.0000
# 6 0.0000 0.0000 0.0000 1.4551 0.0000 23.8830
#
#
#
# Elastic Compliance Matrix: (Units=1/GPa)
#
#
# Indices 1 2 3 4 5 6 
#
# 1 0.007592 -0.000019 -0.002920 0.000000 -0.003958 0.000000
# 2 -0.000019 0.013928 -0.008353 0.000000 0.001113 0.000000
# 3 -0.002920 -0.008353 0.018702 0.000000 -0.003478 0.000000
# 4 0.000000 0.000000 0.000000 0.054462 0.000000 -0.003318
# 5 -0.003958 0.001113 -0.003478 0.000000 0.031437 0.000000
# 6 0.000000 0.000000 0.000000 -0.003318 0.000000 0.042073
#
#
# Mechanical properties :
#
#
# Convention : Reuss Voigt Hill
#
# Bulk Modulus (GPa) = 56.70483 62.65369 59.67926
# Shear Modulus (GPa) = 25.42490 31.26901 28.34695
#
# Velocity S-wave (km/s) = 3.31664 3.67812 3.50205
# Velocity P-wave (km/s) = 6.26101 6.71903 6.49406
#
# Compressibility (1/GPa) = 0.01763518
#
# Stress axis : x y z
#
# Youngs Moduli (GPa) = 131.72152 71.79778 53.47155
#
# Poissons Ratio (x) = 0.00139 0.15616
# Poissons Ratio (y) = 0.00255 0.44667
# Poissons Ratio (z) = 0.38468 0.59975
#
# Static dielectric constant tensor:
#      x y z
#    x 4.390270 0.000000 0.107770 
#    y 0.000000 4.144360 0.000000 
#    z 0.107770 0.000000 4.437900 
# 
# 
# High freq. dielectric constant tensor:
#      x y z
#    x 1.938800 0.000000 0.006400 
#    y 0.000000 1.903580 0.000000 
#    z 0.006400 0.000000 1.915310 
# 
# From -- ./inp_files/14517.got.cif
#   From: 2010.06.25/outbox.cif.g09.slc.cpg/sg9_8_cif.got.tgz:14517.got - 2010.06.27 21:40:51.
