data_PCOD8056453
_publ_section_title
;
Structure prediction by ZEFSAII (Michael W. Deem and Ramdas Pophale) SiO2 
 PCOD8056453
Probable space group: C C
;
_chemical_formula_sum "Si O2"
_cell_formula_units_Z 32
_cell_length_a 14.045311
_cell_length_b 11.692686
_cell_length_c 9.058607
_cell_angle_alpha 90.000000
_cell_angle_beta 105.996237
_cell_angle_gamma 90.000000
_cell_volume 1430.068632
_symmetry_space_group_name_H-M "C C"
_symmetry_group_IT_number 9
_symmetry_cell_setting 'monoclinic'
loop_
_space_group_symop_operation_xyz
x,y,z
x,-y,1/2+z
1/2+x,1/2+y,z
1/2+x,1/2-y,1/2+z
loop_
_atom_site_type_symbol
_atom_site_label
_atom_site_fract_x
_atom_site_fract_y
_atom_site_fract_z
Si Si1 0.165700 0.630305 0.841940
Si Si2 0.209739 0.409239 0.029187
Si Si3 0.518378 0.395808 0.599050
Si Si4 0.450876 0.217854 0.775387
Si Si5 0.700881 0.614704 0.377397
Si Si6 0.259580 0.076858 0.720431
Si Si7 0.928984 0.140656 0.558877
Si Si8 0.601703 0.292138 0.343189
O O1 0.169803 0.585133 0.677658
O O2 0.224756 0.750288 0.883091
O O3 0.052861 0.650231 0.842342
O O4 0.215532 0.538227 0.970758
O O5 0.318551 0.352441 0.077650
O O6 0.132360 0.337320 0.896794
O O7 0.448878 0.290832 0.622283
O O8 0.592594 0.416277 0.767794
O O9 0.455405 0.508491 0.545023
O O10 0.580101 0.362165 0.481939
O O11 0.365922 0.124933 0.725847
O O12 0.429969 0.300899 0.901758
O O13 0.698689 0.566286 0.542485
O O14 0.777908 0.546546 0.305257
O O15 0.196703 0.154420 0.804365
O O16 0.004385 0.206840 0.699106
#
# Coordination Sequence:
#
# PCOD8056453 Si02
#       8
#     4   4   4   4   4   4   4   4
#     4  11  29  51  73 109 158 197 250 316 384 451
#     4  12  29  51  75 111 154 203 254 315 388 457
#     4  11  24  46  72 110 150 196 254 318 372 451
#     4  11  26  49  70 113 154 199 258 309 394 455
#     4  11  25  47  75 106 154 198 251 313 378 443
#     4  12  26  45  78 111 152 200 255 318 380 459
#     4  12  27  43  83 111 148 201 263 315 379 457
#     4  12  24  48  74 109 154 196 251 322 377 449
#
# _framework density 22.376546000000001
#
# number of rings (size 3 to 8) (size 9 to 14) (size 15 to 20)
#    0.000    0.500    5.000    3.000   10.500    1.000 
#    2.250    0.000    0.000    0.000    0.000    0.000 
#    0.000    0.000    0.000    0.000    0.000    0.000 
#
# Total GULP energy -198460.178497 kJ/mol
# GULP energy per Si atom -12403.761156 kJ/mol
# Density = 2.232562 g / cm^3
# Si number density = 22.376546 Si / 1000 Ang^3
#
#
#
# Elastic Constant Matrix: (Units=GPa)
#
#
# Indices 1 2 3 4 5 6 
#
# 1 101.9802 29.2820 12.3984 0.0000 -5.3152 0.0000
# 2 29.2820 114.7164 39.3119 0.0000 -9.3481 0.0000
# 3 12.3984 39.3119 89.1431 0.0000 -23.2368 0.0000
# 4 0.0000 0.0000 0.0000 34.6440 0.0000 -2.8499
# 5 -5.3152 -9.3481 -23.2368 0.0000 32.7821 0.0000
# 6 0.0000 0.0000 0.0000 -2.8499 0.0000 44.3839
#
#
#
# Elastic Compliance Matrix: (Units=1/GPa)
#
#
# Indices 1 2 3 4 5 6 
#
# 1 0.010612 -0.002604 -0.000089 0.000000 0.000915 0.000000
# 2 -0.002604 0.010911 -0.004598 0.000000 -0.000570 0.000000
# 3 -0.000089 -0.004598 0.015839 0.000000 0.009901 0.000000
# 4 0.000000 0.000000 0.000000 0.029018 0.000000 0.001863
# 5 0.000915 -0.000570 0.009901 0.000000 0.037509 0.000000
# 6 0.000000 0.000000 0.000000 0.001863 0.000000 0.022650
#
#
# Mechanical properties :
#
#
# Convention : Reuss Voigt Hill
#
# Bulk Modulus (GPa) = 43.89839 51.98046 47.93942
# Shear Modulus (GPa) = 33.62136 37.35183 35.48660
#
# Velocity S-wave (km/s) = 3.88045 4.09007 3.98664
# Velocity P-wave (km/s) = 6.30379 6.75168 6.53158
#
# Compressibility (1/GPa) = 0.02277988
#
# Stress axis : x y z
#
# Youngs Moduli (GPa) = 94.23345 91.65035 63.13473
#
# Poissons Ratio (x) = 0.23862 0.00564
# Poissons Ratio (y) = 0.24535 0.29031
# Poissons Ratio (z) = 0.00841 0.42143
#
# Static dielectric constant tensor:
#      x y z
#    x 4.123500 0.000000 -0.136620 
#    y 0.000000 4.325980 0.000000 
#    z -0.136620 0.000000 4.144080 
# 
# 
# High freq. dielectric constant tensor:
#      x y z
#    x 1.881600 0.000000 -0.012780 
#    y 0.000000 1.887100 0.000000 
#    z -0.012780 0.000000 1.889680 
# 
# From -- ./inp_files/9171.got.cif
#   From: 2010.06.25/outbox.cif.g09.slc.cpg/sg9_5_cif.got.tgz:9171.got - 2010.06.27 21:40:51.
