data_PCOD8056558
_publ_section_title
;
Structure prediction by ZEFSAII (Michael W. Deem and Ramdas Pophale) SiO2 
 PCOD8056558
Probable space group: C C
;
_chemical_formula_sum "Si O2"
_cell_formula_units_Z 20
_cell_length_a 5.855815
_cell_length_b 15.653347
_cell_length_c 8.128718
_cell_angle_alpha 90.000000
_cell_angle_beta 90.336237
_cell_angle_gamma 90.000000
_cell_volume 745.090695
_symmetry_space_group_name_H-M "C C"
_symmetry_group_IT_number 9
_symmetry_cell_setting 'monoclinic'
loop_
_space_group_symop_operation_xyz
x,y,z
x,-y,1/2+z
1/2+x,1/2+y,z
1/2+x,1/2-y,1/2+z
loop_
_atom_site_type_symbol
_atom_site_label
_atom_site_fract_x
_atom_site_fract_y
_atom_site_fract_z
Si Si1 0.200080 0.848373 0.943760
Si Si2 0.348363 0.422894 0.173313
Si Si3 0.063287 0.254678 0.136648
Si Si4 0.432120 0.019622 0.237963
Si Si5 0.180743 0.096009 0.949052
O O1 0.051929 0.799168 0.805739
O O2 0.417313 0.902665 0.870024
O O3 0.308726 0.782686 0.077375
O O4 0.039381 0.918505 0.031156
O O5 0.228563 0.332450 0.162182
O O6 0.448857 0.432738 0.357913
O O7 0.178821 0.505675 0.151633
O O8 0.175919 0.195787 0.993562
O O9 0.224635 0.039849 0.112540
O O10 0.385947 0.926536 0.322135
#
# Coordination Sequence:
#
# PCOD8056558 Si02
#       5
#     4   4   4   4   4
#     4  11  27  51  82 120 163 212 276 326 406 482
#     4  12  26  48  84 115 166 215 262 340 397 477
#     4  11  25  49  80 121 162 209 271 333 402 483
#     4  11  27  50  76 118 168 209 275 325 400 490
#     4  11  25  48  78 120 161 211 272 330 401 482
#
# _framework density 26.842368
#
# number of rings (size 3 to 8) (size 9 to 14) (size 15 to 20)
#    0.000    0.800    2.000    3.600    5.600    6.400 
#    0.000   16.000    0.000    0.000    0.000    0.000 
#    0.000    0.000    0.000    0.000    0.000    0.000 
#
# Total GULP energy -123922.492627 kJ/mol
# GULP energy per Si atom -12392.249263 kJ/mol
# Density = 2.678127 g / cm^3
# Si number density = 26.842368 Si / 1000 Ang^3
#
#
#
# Elastic Constant Matrix: (Units=GPa)
#
#
# Indices 1 2 3 4 5 6 
#
# 1 108.4427 69.2501 67.3920 0.0000 10.7547 0.0000
# 2 69.2501 120.1202 67.7608 0.0000 1.5605 0.0000
# 3 67.3920 67.7608 147.2037 0.0000 23.2408 0.0000
# 4 0.0000 0.0000 0.0000 60.4210 0.0000 1.8491
# 5 10.7547 1.5605 23.2408 0.0000 46.1415 0.0000
# 6 0.0000 0.0000 0.0000 1.8491 0.0000 49.4611
#
#
#
# Elastic Compliance Matrix: (Units=1/GPa)
#
#
# Indices 1 2 3 4 5 6 
#
# 1 0.016457 -0.007239 -0.003949 0.000000 -0.001602 0.000000
# 2 -0.007239 0.014684 -0.003947 0.000000 0.003179 0.000000
# 3 -0.003949 -0.003947 0.011137 0.000000 -0.004556 0.000000
# 4 0.000000 0.000000 0.000000 0.016569 0.000000 -0.000619
# 5 -0.001602 0.003179 -0.004556 0.000000 0.024233 0.000000
# 6 0.000000 0.000000 0.000000 -0.000619 0.000000 0.020241
#
#
# Mechanical properties :
#
#
# Convention : Reuss Voigt Hill
#
# Bulk Modulus (GPa) = 83.27787 87.17471 85.22629
# Shear Modulus (GPa) = 36.33855 42.62898 39.48377
#
# Velocity S-wave (km/s) = 3.68336 3.98945 3.83946
# Velocity P-wave (km/s) = 7.01296 7.33267 7.17460
#
# Compressibility (1/GPa) = 0.01200799
#
# Stress axis : x y z
#
# Youngs Moduli (GPa) = 60.76278 68.10330 89.78805
#
# Poissons Ratio (x) = 0.49302 0.35459
# Poissons Ratio (y) = 0.43988 0.35437
# Poissons Ratio (z) = 0.23996 0.26879
#
# Static dielectric constant tensor:
#      x y z
#    x 4.615120 0.000000 0.179040 
#    y 0.000000 4.981520 0.000000 
#    z 0.179040 0.000000 5.271010 
# 
# 
# High freq. dielectric constant tensor:
#      x y z
#    x 2.055500 0.000000 0.015210 
#    y 0.000000 2.088180 0.000000 
#    z 0.015210 0.000000 2.100510 
# 
# From -- ./inp_files/3659.got.cif
#   From: 2010.06.25/outbox.cif.g09.slc.cpg/sg9_2_cif.got.tgz:3659.got - 2010.06.27 21:40:51.
