data_PCOD8056997
_publ_section_title
;
Structure prediction by ZEFSAII (Michael W. Deem and Ramdas Pophale) SiO2 
 PCOD8056997
Probable space group: P 2/M
;
_chemical_formula_sum "Si O2"
_cell_formula_units_Z 32
_cell_length_a 20.800272
_cell_length_b 8.875537
_cell_length_c 14.044294
_cell_angle_alpha 90.000000
_cell_angle_beta 127.558543
_cell_angle_gamma 90.000000
_cell_volume 2055.366906
_symmetry_space_group_name_H-M "P 2/M"
_symmetry_group_IT_number 10
_symmetry_cell_setting 'monoclinic'
loop_
_space_group_symop_operation_xyz
x,y,z
-x,y,-z
-x,-y,-z
x,-y,z
loop_
_atom_site_type_symbol
_atom_site_label
_atom_site_fract_x
_atom_site_fract_y
_atom_site_fract_z
Si Si1 0.741182 0.820885 0.719428
Si Si2 0.567064 0.820936 0.488122
Si Si3 0.225839 0.176346 0.038502
Si Si4 0.470367 0.822735 0.755863
Si Si5 0.052559 0.822963 0.927861
Si Si6 0.590059 0.670073 0.121675
Si Si7 0.899896 0.321096 0.829173
Si Si8 0.644975 0.822418 0.991797
O O1 0.655531 0.767117 0.600705
O O2 0.810833 0.738226 0.718887
O O3 0.753295 0.000000 0.723131
O O4 0.747047 0.761485 0.833622
O O5 0.500000 0.754569 0.500000
O O6 0.549436 0.758657 0.366621
O O7 0.561574 0.000000 0.483395
O O8 0.130564 0.210067 0.930602
O O9 0.243094 0.000000 0.056873
O O10 0.281214 0.245441 0.004653
O O11 0.407167 0.750633 0.773399
O O12 0.562321 0.777197 0.863482
O O13 0.457855 0.000000 0.749689
O O14 0.971232 0.733652 0.820120
O O15 0.034059 0.000000 0.915973
O O16 0.078827 0.763431 0.054384
O O17 0.619188 0.500000 0.161355
O O18 0.500000 0.682098 0.000000
O O19 0.650253 0.749686 0.101258
O O20 0.901395 0.500000 0.841272
O O21 0.651415 0.000000 0.011479
#
# Coordination Sequence:
#
# PCOD8056997 Si02
#       8
#     4   4   4   4   4   4   4   4
#     4   9  16  27  41  57  80 110 140 168 200 238
#     4   9  16  26  43  65  84 104 137 177 207 233
#     4   8  14  23  38  59  81 105 131 160 196 239
#     4   9  16  26  42  61  79 103 135 169 202 233
#     4   9  15  25  40  57  77 103 133 163 202 246
#     4   9  17  28  40  55  76 103 134 166 201 239
#     4  10  17  25  37  54  77 105 138 171 199 230
#     4   9  15  25  41  60  81 103 130 164 201 240
#
# _framework density 15.568996
#
# number of rings (size 3 to 8) (size 9 to 14) (size 15 to 20)
#    0.000    3.000    0.000    4.125    0.000    4.500 
#    0.000    3.750    0.000    4.500    0.000    0.000 
#    0.000    1.000    0.000   11.500    0.000    4.750 
#
# Total GULP energy -396538.475546 kJ/mol
# GULP energy per Si atom -12391.827361 kJ/mol
# Density = 1.553356 g / cm^3
# Si number density = 15.568996 Si / 1000 Ang^3
#
#
#
# Elastic Constant Matrix: (Units=GPa)
#
#
# Indices 1 2 3 4 5 6 
#
# 1 144.3688 36.3592 61.4989 0.0000 0.2430 0.0000
# 2 36.3592 36.6663 19.4015 0.0000 1.9847 0.0000
# 3 61.4989 19.4015 67.0521 0.0000 -7.2200 0.0000
# 4 0.0000 0.0000 0.0000 6.3201 0.0000 3.3791
# 5 0.2430 1.9847 -7.2200 0.0000 25.3497 0.0000
# 6 0.0000 0.0000 0.0000 3.3791 0.0000 7.6342
#
#
#
# Elastic Compliance Matrix: (Units=1/GPa)
#
#
# Indices 1 2 3 4 5 6 
#
# 1 0.013150 -0.007543 -0.010139 0.000000 -0.002423 0.000000
# 2 -0.007543 0.037247 -0.004297 0.000000 -0.004068 0.000000
# 3 -0.010139 -0.004297 0.026310 0.000000 0.007927 0.000000
# 4 0.000000 0.000000 0.000000 0.207278 0.000000 -0.091748
# 5 -0.002423 -0.004068 0.007927 0.000000 0.042048 0.000000
# 6 0.000000 0.000000 0.000000 -0.091748 0.000000 0.171600
#
#
# Mechanical properties :
#
#
# Convention : Reuss Voigt Hill
#
# Bulk Modulus (GPa) = 30.53583 53.62294 42.07938
# Shear Modulus (GPa) = 9.04968 16.58264 12.81616
#
# Velocity S-wave (km/s) = 2.41356 3.26714 2.87223
# Velocity P-wave (km/s) = 5.23668 6.98206 6.17138
#
# Compressibility (1/GPa) = 0.03274842
#
# Stress axis : x y z
#
# Youngs Moduli (GPa) = 76.04817 26.84785 38.00887
#
# Poissons Ratio (x) = 0.20253 0.38536
# Poissons Ratio (y) = 0.57367 0.16331
# Poissons Ratio (z) = 0.77103 0.11536
#
# Static dielectric constant tensor:
#      x y z
#    x 3.627340 0.000000 0.107720 
#    y 0.000000 2.751030 0.000000 
#    z 0.107720 0.000000 2.750530 
# 
# 
# High freq. dielectric constant tensor:
#      x y z
#    x 1.607160 0.000000 0.003290 
#    y 0.000000 1.578880 0.000000 
#    z 0.003290 0.000000 1.543940 
# 
# From -- ./inp_files/54930.got.cif
#   From: 2010.06.25/outbox.cif.g09.slc.cpg/sg10_28_cif.got.tgz:54930.got - 2010.06.27 22:07:45.
