data_PCOD8056242
_publ_section_title
;
Structure prediction by ZEFSAII (Michael W. Deem and Ramdas Pophale) SiO2 
 PCOD8056242
Probable space group: C C
;
_chemical_formula_sum "Si O2"
_cell_formula_units_Z 32
_cell_length_a 6.399674
_cell_length_b 18.145489
_cell_length_c 13.421288
_cell_angle_alpha 90.000000
_cell_angle_beta 105.118068
_cell_angle_gamma 90.000000
_cell_volume 1504.609206
_symmetry_space_group_name_H-M "C C"
_symmetry_group_IT_number 9
_symmetry_cell_setting 'monoclinic'
loop_
_space_group_symop_operation_xyz
x,y,z
x,-y,1/2+z
1/2+x,1/2+y,z
1/2+x,1/2-y,1/2+z
loop_
_atom_site_type_symbol
_atom_site_label
_atom_site_fract_x
_atom_site_fract_y
_atom_site_fract_z
Si Si1 0.649920 0.278078 0.845350
Si Si2 0.734922 0.442530 0.904380
Si Si3 0.383288 0.464769 0.479324
Si Si4 0.475691 0.957697 0.288649
Si Si5 0.738685 0.310727 0.290915
Si Si6 0.535238 0.310490 0.473685
Si Si7 0.302514 0.719961 0.655411
Si Si8 0.133993 0.557511 0.599876
O O1 0.642352 0.364821 0.859605
O O2 0.409141 0.251875 0.841629
O O3 0.699902 0.259104 0.737867
O O4 0.822511 0.240472 0.940977
O O5 0.808124 0.483936 0.812982
O O6 0.549281 0.486883 0.937139
O O7 0.937465 0.430391 0.000934
O O8 0.486142 0.386687 0.525395
O O9 0.318720 0.508015 0.571367
O O10 0.175642 0.445718 0.387032
O O11 0.357549 0.879949 0.256761
O O12 0.555301 0.984769 0.189968
O O13 0.611648 0.335348 0.373889
O O14 0.564152 0.277715 0.191207
O O15 0.725943 0.265201 0.549955
O O16 0.232479 0.635388 0.642687
#
# Coordination Sequence:
#
# PCOD8056242 Si02
#       8
#     4   4   4   4   4   4   4   4
#     4  11  24  45  67 100 138 175 229 287 340 405
#     4  11  26  44  71 104 137 178 229 289 337 410
#     4  11  25  43  69 105 135 180 230 284 343 407
#     4  11  23  46  70  97 137 183 227 273 351 414
#     4  11  23  42  73  96 131 188 227 281 344 410
#     4  11  23  45  68  97 138 177 229 286 337 415
#     4  11  25  42  70 101 132 182 235 279 348 411
#     4  11  25  43  72 100 136 183 230 277 350 414
#
# _framework density 21.267980999999999
#
# number of rings (size 3 to 8) (size 9 to 14) (size 15 to 20)
#    0.000    1.000    5.000    0.750    3.500    4.000 
#    0.000    0.000    0.000    0.000    0.000    0.000 
#    0.000    0.000    0.000    0.000    0.000    0.000 
#
# Total GULP energy -198489.830040 kJ/mol
# GULP energy per Si atom -12405.614378 kJ/mol
# Density = 2.121957 g / cm^3
# Si number density = 21.267981 Si / 1000 Ang^3
#
#
#
# Elastic Constant Matrix: (Units=GPa)
#
#
# Indices 1 2 3 4 5 6 
#
# 1 130.4522 65.9257 42.0389 0.0000 3.1589 0.0000
# 2 65.9257 147.1355 44.6026 0.0000 -0.2588 0.0000
# 3 42.0389 44.6026 91.8667 0.0000 -0.2676 0.0000
# 4 0.0000 0.0000 0.0000 24.0123 0.0000 2.5390
# 5 3.1589 -0.2588 -0.2676 0.0000 44.4228 0.0000
# 6 0.0000 0.0000 0.0000 2.5390 0.0000 32.3994
#
#
#
# Elastic Compliance Matrix: (Units=1/GPa)
#
#
# Indices 1 2 3 4 5 6 
#
# 1 0.010587 -0.003841 -0.002982 0.000000 -0.000793 0.000000
# 2 -0.003841 0.009363 -0.002787 0.000000 0.000311 0.000000
# 3 -0.002982 -0.002787 0.013604 0.000000 0.000278 0.000000
# 4 0.000000 0.000000 0.000000 0.041993 0.000000 -0.003291
# 5 -0.000793 0.000311 0.000278 0.000000 0.022571 0.000000
# 6 0.000000 0.000000 0.000000 -0.003291 0.000000 0.031123
#
#
# Mechanical properties :
#
#
# Convention : Reuss Voigt Hill
#
# Bulk Modulus (GPa) = 69.76825 74.95431 72.36128
# Shear Modulus (GPa) = 32.62873 34.62605 33.62739
#
# Velocity S-wave (km/s) = 3.92110 4.03933 3.98065
# Velocity P-wave (km/s) = 7.30586 7.55475 7.43135
#
# Compressibility (1/GPa) = 0.01433317
#
# Stress axis : x y z
#
# Youngs Moduli (GPa) = 94.45591 106.80414 73.50752
#
# Poissons Ratio (x) = 0.41023 0.21921
# Poissons Ratio (y) = 0.36280 0.20489
# Poissons Ratio (z) = 0.28168 0.29769
#
# Static dielectric constant tensor:
#      x y z
#    x 4.129150 0.000000 0.063630 
#    y 0.000000 3.838920 0.000000 
#    z 0.063630 0.000000 3.824770 
# 
# 
# High freq. dielectric constant tensor:
#      x y z
#    x 1.847460 0.000000 0.004970 
#    y 0.000000 1.837670 0.000000 
#    z 0.004970 0.000000 1.831420 
# 
# From -- ./inp_files/13470.got.cif
#   From: 2010.06.25/outbox.cif.g09.slc.cpg/sg9_7_cif.got.tgz:13470.got - 2010.06.27 21:40:51.
