data_PCOD8056254
_publ_section_title
;
Structure prediction by ZEFSAII (Michael W. Deem and Ramdas Pophale) SiO2 
 PCOD8056254
Probable space group: C C
;
_chemical_formula_sum "Si O2"
_cell_formula_units_Z 24
_cell_length_a 12.684249
_cell_length_b 8.111447
_cell_length_c 9.724290
_cell_angle_alpha 90.000000
_cell_angle_beta 76.868418
_cell_angle_gamma 90.000000
_cell_volume 974.346568
_symmetry_space_group_name_H-M "C C"
_symmetry_group_IT_number 9
_symmetry_cell_setting 'monoclinic'
loop_
_space_group_symop_operation_xyz
x,y,z
x,-y,1/2+z
1/2+x,1/2+y,z
1/2+x,1/2-y,1/2+z
loop_
_atom_site_type_symbol
_atom_site_label
_atom_site_fract_x
_atom_site_fract_y
_atom_site_fract_z
Si Si1 0.227740 0.322028 0.147390
Si Si2 0.105869 0.176110 0.823482
Si Si3 0.919264 0.602933 0.464925
Si Si4 0.974195 0.320090 0.248584
Si Si5 0.288194 0.429749 0.844925
Si Si6 0.695401 0.512303 0.545234
O O1 0.100153 0.284180 0.195522
O O2 0.280691 0.392513 0.271203
O O3 0.266094 0.138363 0.093495
O O4 0.258882 0.448883 0.014894
O O5 0.195565 0.318206 0.802554
O O6 0.109811 0.095504 0.672447
O O7 0.128589 0.038234 0.931240
O O8 0.985367 0.243231 0.883067
O O9 0.792007 0.636333 0.472057
O O10 0.958857 0.434549 0.384615
O O11 0.935187 0.586731 0.623551
O O12 0.906825 0.150344 0.289168
#
# Coordination Sequence:
#
# PCOD8056254 Si02
#       6
#     4   4   4   4   4   4
#     4  11  23  46  69 102 145 185 233 301 348 424
#     4  11  23  43  72 105 138 190 239 294 355 432
#     4  12  22  44  75 101 140 189 236 296 361 416
#     4  12  22  44  72 102 137 187 238 292 357 423
#     4  11  23  43  71 104 140 185 243 287 354 433
#     4  11  23  46  71 102 148 184 239 298 359 422
#
# _framework density 24.631892000000001
#
# number of rings (size 3 to 8) (size 9 to 14) (size 15 to 20)
#    0.000    0.667   10.000    0.000    0.000    1.333 
#    9.000    0.000    0.000    0.000    0.000    0.000 
#    0.000    0.000    0.000    0.000    0.000    0.000 
#
# Total GULP energy -148797.399153 kJ/mol
# GULP energy per Si atom -12399.783263 kJ/mol
# Density = 2.457583 g / cm^3
# Si number density = 24.631892 Si / 1000 Ang^3
#
#
#
# Elastic Constant Matrix: (Units=GPa)
#
#
# Indices 1 2 3 4 5 6 
#
# 1 128.8972 46.0971 48.0963 0.0000 -30.6156 0.0000
# 2 46.0971 33.9293 24.1519 0.0000 -7.1928 0.0000
# 3 48.0963 24.1519 107.5889 0.0000 -31.0205 0.0000
# 4 0.0000 0.0000 0.0000 45.5134 0.0000 -7.2648
# 5 -30.6156 -7.1928 -31.0205 0.0000 26.7741 0.0000
# 6 0.0000 0.0000 0.0000 -7.2648 0.0000 35.9154
#
#
#
# Elastic Compliance Matrix: (Units=1/GPa)
#
#
# Indices 1 2 3 4 5 6 
#
# 1 0.020627 -0.025389 0.001971 0.000000 0.019049 0.000000
# 2 -0.025389 0.066332 -0.010171 0.000000 -0.022996 0.000000
# 3 0.001971 -0.010171 0.015855 0.000000 0.017891 0.000000
# 4 0.000000 0.000000 0.000000 0.022705 0.000000 0.004593
# 5 0.019049 -0.022996 0.017891 0.000000 0.073682 0.000000
# 6 0.000000 0.000000 0.000000 0.004593 0.000000 0.028772
#
#
# Mechanical properties :
#
#
# Convention : Reuss Voigt Hill
#
# Bulk Modulus (GPa) = 28.06148 56.34511 42.20329
# Shear Modulus (GPa) = 16.28504 31.77859 24.03182
#
# Velocity S-wave (km/s) = 2.57405 3.59575 3.12691
# Velocity P-wave (km/s) = 4.50015 6.33749 5.49614
#
# Compressibility (1/GPa) = 0.03563604
#
# Stress axis : x y z
#
# Youngs Moduli (GPa) = 48.47993 15.07571 63.07050
#
# Poissons Ratio (x) = 0.38276 -0.12429
# Poissons Ratio (y) = 1.23085 0.64148
# Poissons Ratio (z) = -0.09554 0.15333
#
# Static dielectric constant tensor:
#      x y z
#    x 4.328300 0.000000 -0.320990 
#    y 0.000000 4.210350 0.000000 
#    z -0.320990 0.000000 4.746300 
# 
# 
# High freq. dielectric constant tensor:
#      x y z
#    x 1.970070 0.000000 -0.018690 
#    y 0.000000 1.964620 0.000000 
#    z -0.018690 0.000000 2.001330 
# 
# From -- ./inp_files/17535.got.cif
#   From: 2010.06.25/outbox.cif.g09.slc.cpg/sg9_9_cif.got.tgz:17535.got - 2010.06.27 21:40:51.
