data_PCOD8056572
_publ_section_title
;
Structure prediction by ZEFSAII (Michael W. Deem and Ramdas Pophale) SiO2 
 PCOD8056572
Probable space group: C C
;
_chemical_formula_sum "Si O2"
_cell_formula_units_Z 20
_cell_length_a 9.662662
_cell_length_b 7.626358
_cell_length_c 10.983242
_cell_angle_alpha 90.000000
_cell_angle_beta 90.929225
_cell_angle_gamma 90.000000
_cell_volume 809.258764
_symmetry_space_group_name_H-M "C C"
_symmetry_group_IT_number 9
_symmetry_cell_setting 'monoclinic'
loop_
_space_group_symop_operation_xyz
x,y,z
x,-y,1/2+z
1/2+x,1/2+y,z
1/2+x,1/2-y,1/2+z
loop_
_atom_site_type_symbol
_atom_site_label
_atom_site_fract_x
_atom_site_fract_y
_atom_site_fract_z
Si Si1 0.575580 0.762723 0.309650
Si Si2 0.411564 0.088935 0.586149
Si Si3 0.410923 0.306910 0.039242
Si Si4 0.638095 0.128703 0.407512
Si Si5 0.139814 0.918290 0.200972
O O1 0.470731 0.826410 0.206945
O O2 0.482611 0.669841 0.410137
O O3 0.675997 0.608970 0.259588
O O4 0.660893 0.931136 0.358112
O O5 0.485019 0.159664 0.464134
O O6 0.245884 0.123207 0.590283
O O7 0.440307 0.883521 0.593015
O O8 0.485836 0.431492 0.140104
O O9 0.248494 0.348687 0.019826
O O10 0.158378 0.770845 0.303529
#
# Coordination Sequence:
#
# PCOD8056572 Si02
#       5
#     4   4   4   4   4
#     4  11  26  46  77 110 151 199 250 315 366 447
#     4  11  25  50  76 108 156 192 250 321 365 446
#     4  11  26  49  77 111 151 202 250 307 377 445
#     4  11  26  53  73 115 152 196 257 312 369 450
#     4  12  27  50  77 112 150 205 249 307 385 440
#
# _framework density 24.713975999999999
#
# number of rings (size 3 to 8) (size 9 to 14) (size 15 to 20)
#    0.000    0.800    4.000    1.200    5.600    6.400 
#    3.600    0.000    0.000    0.000    0.000    0.000 
#    0.000    0.000    0.000    0.000    0.000    0.000 
#
# Total GULP energy -123985.236454 kJ/mol
# GULP energy per Si atom -12398.523645 kJ/mol
# Density = 2.465773 g / cm^3
# Si number density = 24.713976 Si / 1000 Ang^3
#
#
#
# Elastic Constant Matrix: (Units=GPa)
#
#
# Indices 1 2 3 4 5 6 
#
# 1 127.2432 45.0361 49.6715 0.0000 -8.3496 0.0000
# 2 45.0361 122.6580 56.7295 0.0000 0.0828 0.0000
# 3 49.6715 56.7295 100.0844 0.0000 -11.4536 0.0000
# 4 0.0000 0.0000 0.0000 32.7319 0.0000 0.8993
# 5 -8.3496 0.0828 -11.4536 0.0000 46.6820 0.0000
# 6 0.0000 0.0000 0.0000 0.8993 0.0000 24.8106
#
#
#
# Elastic Compliance Matrix: (Units=1/GPa)
#
#
# Indices 1 2 3 4 5 6 
#
# 1 0.010090 -0.001946 -0.003805 0.000000 0.000875 0.000000
# 2 -0.001946 0.011542 -0.005781 0.000000 -0.001787 0.000000
# 3 -0.003805 -0.005781 0.015516 0.000000 0.003137 0.000000
# 4 0.000000 0.000000 0.000000 0.030582 0.000000 -0.001108
# 5 0.000875 -0.001787 0.003137 0.000000 0.022351 0.000000
# 6 0.000000 0.000000 0.000000 -0.001108 0.000000 0.040346
#
#
# Mechanical properties :
#
#
# Convention : Reuss Voigt Hill
#
# Bulk Modulus (GPa) = 70.99845 72.53998 71.76921
# Shear Modulus (GPa) = 31.60870 34.08146 32.84508
#
# Velocity S-wave (km/s) = 3.58016 3.71757 3.64951
# Velocity P-wave (km/s) = 6.77352 6.91683 6.84555
#
# Compressibility (1/GPa) = 0.01408481
#
# Stress axis : x y z
#
# Youngs Moduli (GPa) = 99.10520 86.63916 64.45101
#
# Poissons Ratio (x) = 0.16857 0.24522
# Poissons Ratio (y) = 0.19283 0.37260
# Poissons Ratio (z) = 0.37708 0.50087
#
# Static dielectric constant tensor:
#      x y z
#    x 4.401520 0.000000 -0.182800 
#    y 0.000000 4.496830 0.000000 
#    z -0.182800 0.000000 4.531870 
# 
# 
# High freq. dielectric constant tensor:
#      x y z
#    x 1.972250 0.000000 -0.005030 
#    y 0.000000 1.988360 0.000000 
#    z -0.005030 0.000000 1.992800 
# 
# From -- ./inp_files/13999.got.cif
#   From: 2010.06.25/outbox.cif.g09.slc.cpg/sg9_7_cif.got.tgz:13999.got - 2010.06.27 21:40:51.
