data_PCOD8056881
_publ_section_title
;
Structure prediction by ZEFSAII (Michael W. Deem and Ramdas Pophale) SiO2 
 PCOD8056881
Probable space group: P 2/M
;
_chemical_formula_sum "Si O2"
_cell_formula_units_Z 18
_cell_length_a 22.816705
_cell_length_b 8.112398
_cell_length_c 5.277353
_cell_angle_alpha 90.000000
_cell_angle_beta 110.300076
_cell_angle_gamma 90.000000
_cell_volume 916.156191
_symmetry_space_group_name_H-M "P 2/M"
_symmetry_group_IT_number 10
_symmetry_cell_setting 'monoclinic'
loop_
_space_group_symop_operation_xyz
x,y,z
-x,y,-z
-x,-y,-z
x,-y,z
loop_
_atom_site_type_symbol
_atom_site_label
_atom_site_fract_x
_atom_site_fract_y
_atom_site_fract_z
Si Si1 0.541232 0.500000 0.311848
Si Si2 0.929911 0.195703 0.894898
Si Si3 0.339013 0.317051 0.508509
Si Si4 0.858010 0.804165 0.287050
Si Si5 0.717965 0.692302 0.076958
O O1 0.500000 0.500000 0.500000
O O2 0.585299 0.336039 0.377949
O O3 0.500000 0.500000 0.000000
O O4 0.894673 0.258077 0.590656
O O5 0.932772 0.000000 0.899168
O O6 0.894689 0.258067 0.093494
O O7 0.000000 0.268633 0.000000
O O8 0.307906 0.500000 0.461843
O O9 0.313837 0.223982 0.722281
O O10 0.313840 0.223982 0.219207
O O11 0.791393 0.718549 0.187086
O O12 0.849758 0.000000 0.274671
O O13 0.700335 0.500000 0.050517
#
# Coordination Sequence:
#
# PCOD8056881 Si02
#       5
#     2   4   4   4   4
#     4  10  16  26  44  68  98 120 145 186 219 250
#     4   9  17  30  46  65  88 113 145 192 238 268
#     4   8  17  27  42  64  90 124 143 176 215 269
#     4  10  19  29  47  70  87 112 154 190 220 270
#     4  10  17  31  45  62  93 125 145 175 224 276
#
# _framework density 19.647307000000001
#
# number of rings (size 3 to 8) (size 9 to 14) (size 15 to 20)
#    0.667    2.000    0.000    3.333    0.000    2.667 
#    0.000    0.000    0.000    4.000    0.000    0.000 
#    0.000   17.778    0.000    0.000    0.000    0.000 
#
# Total GULP energy -223064.710805 kJ/mol
# GULP energy per Si atom -12392.483934 kJ/mol
# Density = 1.960259 g / cm^3
# Si number density = 19.647307 Si / 1000 Ang^3
#
#
#
# Elastic Constant Matrix: (Units=GPa)
#
#
# Indices 1 2 3 4 5 6 
#
# 1 191.4513 -0.3796 110.0045 0.0000 -15.2437 0.0000
# 2 -0.3796 6.9749 3.1899 0.0000 -2.6438 0.0000
# 3 110.0045 3.1899 232.2610 0.0000 -14.9253 0.0000
# 4 0.0000 0.0000 0.0000 -322.4841 0.0000 -615.7179
# 5 -15.2437 -2.6438 -14.9253 0.0000 50.7962 0.0000
# 6 0.0000 0.0000 0.0000 -615.7179 0.0000-1154.0491
#
#
#
# Elastic Compliance Matrix: (Units=1/GPa)
#
#
# Indices 1 2 3 4 5 6 
#
# 1 0.007287 0.002450 -0.003400 0.000000 0.001315 0.000000
# 2 0.002450 0.147629 -0.002698 0.000000 0.007626 0.000000
# 3 -0.003400 -0.002698 0.005992 0.000000 0.000600 0.000000
# 4 0.000000 0.000000 0.000000 0.166145 0.000000 -0.088643
# 5 0.001315 0.007626 0.000600 0.000000 0.020654 0.000000
# 6 0.000000 0.000000 0.000000 -0.088643 0.000000 0.046427
#
#
# Mechanical properties :
#
#
# Convention : Reuss Voigt Hill
#
# Bulk Modulus (GPa) = 6.50994 72.92408 39.71701
# Shear Modulus (GPa) = 11.04645 -263.95592 -126.45473
#
# Velocity S-wave (km/s) = 2.37373 -11.60340 -8.03132
# Velocity P-wave (km/s) = 3.29141 11.92985 8.10826
#
# Compressibility (1/GPa) = 0.15361133
#
# Stress axis : x y z
#
# Youngs Moduli (GPa) = 137.23940 6.77372 166.90262
#
# Poissons Ratio (x) = -0.01660 0.56751
# Poissons Ratio (y) = -0.33625 0.45029
# Poissons Ratio (z) = 0.46664 0.01827
#
# Static dielectric constant tensor:
#      x y z
#    x 3.637730 0.000000 -0.258680 
#    y 0.000000 2.820780 0.000000 
#    z -0.258680 0.000000 3.987260 
# 
# 
# High freq. dielectric constant tensor:
#      x y z
#    x 1.774840 0.000000 -0.012670 
#    y 0.000000 1.686200 0.000000 
#    z -0.012670 0.000000 1.791960 
# 
# From -- ./inp_files/11871.got.cif
#   From: 2010.06.25/outbox.cif.g09.slc.cpg/sg10_6_cif.got.tgz:11871.got - 2010.06.27 22:07:45.
