data_PCOD8056795
_publ_section_title
;
Structure prediction by ZEFSAII (Michael W. Deem and Ramdas Pophale) SiO2 
 PCOD8056795
Probable space group: C C
;
_chemical_formula_sum "Si O2"
_cell_formula_units_Z 32
_cell_length_a 22.713515
_cell_length_b 8.479823
_cell_length_c 15.210899
_cell_angle_alpha 90.000000
_cell_angle_beta 27.826631
_cell_angle_gamma 90.000000
_cell_volume 1367.586373
_symmetry_space_group_name_H-M "C C"
_symmetry_group_IT_number 9
_symmetry_cell_setting 'monoclinic'
loop_
_space_group_symop_operation_xyz
x,y,z
x,-y,1/2+z
1/2+x,1/2+y,z
1/2+x,1/2-y,1/2+z
loop_
_atom_site_type_symbol
_atom_site_label
_atom_site_fract_x
_atom_site_fract_y
_atom_site_fract_z
Si Si1 0.494650 0.994179 0.148030
Si Si2 0.539071 0.494179 0.116921
Si Si3 0.185886 0.706574 0.468181
Si Si4 0.608392 0.651257 0.700784
Si Si5 0.925329 0.348743 0.064167
Si Si6 0.254988 0.147332 0.052046
Si Si7 0.278734 0.852668 0.712905
Si Si8 0.847835 0.206574 0.796770
O O1 0.506726 0.926171 0.034021
O O2 0.391631 0.897114 0.337540
O O3 0.454518 0.176109 0.196930
O O4 0.630651 0.968246 0.017859
O O5 0.526995 0.426170 0.230930
O O6 0.403071 0.468246 0.247092
O O7 0.579203 0.676109 0.068021
O O8 0.642091 0.397114 0.927411
O O9 0.318011 0.735417 0.246032
O O10 0.193687 0.731509 0.562998
O O11 0.671067 0.510192 0.673554
O O12 0.715710 0.764583 0.518919
O O13 0.516861 0.750000 0.882475
O O14 0.862655 0.489808 0.091397
O O15 0.266861 0.228340 0.132476
O O16 0.340035 0.731510 0.701953
#
# Coordination Sequence:
#
# PCOD8056795 Si02
#       8
#     4   4   4   4   4   4   4   4
#     4   9  19  35  57  82 117 147 191 235 283 334
#     4   9  19  35  57  82 117 147 191 235 283 334
#     4   9  19  37  57  87 113 151 187 239 285 333
#     4   9  19  32  56  86 107 148 201 234 271 327
#     4   9  19  32  56  86 107 148 201 234 271 327
#     4   9  19  35  56  82 115 153 185 229 293 338
#     4   9  19  35  56  82 115 153 185 229 293 338
#     4   9  19  37  57  87 113 151 187 239 285 333
#
# _framework density 23.398889
#
# number of rings (size 3 to 8) (size 9 to 14) (size 15 to 20)
#    0.000    3.000    0.000    3.000    7.000    1.000 
#    0.000    5.000   11.000    0.000    0.000    0.000 
#    0.000    0.000    0.000    0.000    0.000    0.000 
#
# Total GULP energy -198320.725148 kJ/mol
# GULP energy per Si atom -12395.045322 kJ/mol
# Density = 2.334563 g / cm^3
# Si number density = 23.398889 Si / 1000 Ang^3
#
#
#
# Elastic Constant Matrix: (Units=GPa)
#
#
# Indices 1 2 3 4 5 6 
#
# 1 116.4481 17.3558 43.3973 -0.0001 16.8063 0.0000
# 2 17.3558 46.9469 35.6759 0.0000 3.4637 -0.0001
# 3 43.3973 35.6759 103.8295 -0.0001 14.5400 0.0000
# 4 -0.0001 0.0000 -0.0001 42.5466 0.0000 -10.6979
# 5 16.8063 3.4637 14.5400 0.0000 32.6043 0.0000
# 6 0.0000 -0.0001 0.0000 -10.6979 0.0000 33.5633
#
#
#
# Elastic Compliance Matrix: (Units=1/GPa)
#
#
# Indices 1 2 3 4 5 6 
#
# 1 0.010606 -0.000914 -0.003591 0.000000 -0.003768 0.000000
# 2 -0.000914 0.028971 -0.009821 0.000000 0.001773 0.000000
# 3 -0.003591 -0.009821 0.015041 0.000000 -0.003813 0.000000
# 4 0.000000 0.000000 0.000000 0.025551 0.000000 0.008144
# 5 -0.003768 0.001773 -0.003813 0.000000 0.034125 0.000000
# 6 0.000000 0.000000 0.000000 0.008144 0.000000 0.032390
#
#
# Mechanical properties :
#
#
# Convention : Reuss Voigt Hill
#
# Bulk Modulus (GPa) = 38.51242 51.12027 44.81634
# Shear Modulus (GPa) = 27.17528 33.12921 30.15224
#
# Velocity S-wave (km/s) = 3.41162 3.76685 3.59363
# Velocity P-wave (km/s) = 5.65806 6.38856 6.03437
#
# Compressibility (1/GPa) = 0.02596565
#
# Stress axis : x y z
#
# Youngs Moduli (GPa) = 94.28681 34.51771 66.48707
#
# Poissons Ratio (x) = 0.03154 0.23877
# Poissons Ratio (y) = 0.08616 0.65295
# Poissons Ratio (z) = 0.33860 0.33899
#
# Static dielectric constant tensor:
#      x y z
#    x 4.483050 0.000000 -0.073690 
#    y 0.000000 4.112310 0.000000 
#    z -0.073690 0.000000 3.923060 
# 
# 
# High freq. dielectric constant tensor:
#      x y z
#    x 1.937400 0.000000 -0.004330 
#    y 0.000000 1.905110 0.000000 
#    z -0.004330 0.000000 1.915530 
# 
# From -- ./inp_files/25722.got.cif
#   From: 2010.06.25/outbox.cif.g09.slc.cpg/sg9_13_cif.got.tgz:25722.got - 2010.06.27 21:40:51.
