data_PCOD8056114
_publ_section_title
;
Structure prediction by ZEFSAII (Michael W. Deem and Ramdas Pophale) SiO2 
 PCOD8056114
Probable space group: C C
;
_chemical_formula_sum "Si O2"
_cell_formula_units_Z 20
_cell_length_a 8.876586
_cell_length_b 11.156542
_cell_length_c 7.478289
_cell_angle_alpha 90.000000
_cell_angle_beta 68.616529
_cell_angle_gamma 90.000000
_cell_volume 689.608507
_symmetry_space_group_name_H-M "C C"
_symmetry_group_IT_number 9
_symmetry_cell_setting 'monoclinic'
loop_
_space_group_symop_operation_xyz
x,y,z
x,-y,1/2+z
1/2+x,1/2+y,z
1/2+x,1/2-y,1/2+z
loop_
_atom_site_type_symbol
_atom_site_label
_atom_site_fract_x
_atom_site_fract_y
_atom_site_fract_z
Si Si1 0.761970 0.126536 0.932060
Si Si2 0.324594 0.988750 0.358223
Si Si3 0.068333 0.997744 0.719367
Si Si4 0.541540 0.235758 0.751885
Si Si5 0.619230 0.120635 0.362838
O O1 0.690330 0.224337 0.827943
O O2 0.672928 0.000521 0.938285
O O3 0.739799 0.162253 0.150889
O O4 0.953687 0.110978 0.809878
O O5 0.123978 0.000026 0.486284
O O6 0.401947 0.858466 0.360519
O O7 0.269892 0.995820 0.172356
O O8 0.442987 0.099424 0.349199
O O9 0.976580 0.871735 0.800069
O O10 0.608544 0.220412 0.520612
#
# Coordination Sequence:
#
# PCOD8056114 Si02
#       5
#     4   4   4   4   4
#     4  11  23  46  76 105 148 193 242 309 367 437
#     4  11  23  48  72 104 148 189 244 307 363 438
#     4  12  27  47  74 111 147 188 253 313 359 440
#     4  11  26  49  76 104 151 198 244 299 381 443
#     4  11  21  48  76  98 150 200 231 302 380 430
#
# _framework density 29.001963
#
# number of rings (size 3 to 8) (size 9 to 14) (size 15 to 20)
#    0.000    0.800    6.000    2.400    2.800    0.000 
#   10.800    0.000    0.000    0.000    0.000    0.000 
#    0.000    0.000    0.000    0.000    0.000    0.000 
#
# Total GULP energy -123927.256803 kJ/mol
# GULP energy per Si atom -12392.725680 kJ/mol
# Density = 2.893595 g / cm^3
# Si number density = 29.001963 Si / 1000 Ang^3
#
#
#
# Elastic Constant Matrix: (Units=GPa)
#
#
# Indices 1 2 3 4 5 6 
#
# 1 109.0438 -1.8074 31.7170 0.0000 2.9001 0.0000
# 2 -1.8074 53.3289 21.8192 0.0000 -0.5608 0.0000
# 3 31.7170 21.8192 174.4997 0.0000 -29.3791 0.0000
# 4 0.0000 0.0000 0.0000 30.6164 0.0000 -10.2628
# 5 2.9001 -0.5608 -29.3791 0.0000 45.7635 0.0000
# 6 0.0000 0.0000 0.0000 -10.2628 0.0000 36.2521
#
#
#
# Elastic Compliance Matrix: (Units=1/GPa)
#
#
# Indices 1 2 3 4 5 6 
#
# 1 0.009920 0.001261 -0.002314 0.000000 -0.002099 0.000000
# 2 0.001261 0.020016 -0.003032 0.000000 -0.001781 0.000000
# 3 -0.002314 -0.003032 0.007342 0.000000 0.004823 0.000000
# 4 0.000000 0.000000 0.000000 0.036087 0.000000 0.010216
# 5 -0.002099 -0.001781 0.004823 0.000000 0.025059 0.000000
# 6 0.000000 0.000000 0.000000 0.010216 0.000000 0.030477
#
#
# Mechanical properties :
#
#
# Convention : Reuss Voigt Hill
#
# Bulk Modulus (GPa) = 34.35379 48.92554 41.63967
# Shear Modulus (GPa) = 34.06590 41.53598 37.80094
#
# Velocity S-wave (km/s) = 3.43097 3.78852 3.61417
# Velocity P-wave (km/s) = 5.25038 6.00363 5.63959
#
# Compressibility (1/GPa) = 0.02910887
#
# Stress axis : x y z
#
# Youngs Moduli (GPa) = 100.80176 49.96003 136.19477
#
# Poissons Ratio (x) = -0.06300 0.31518
# Poissons Ratio (y) = -0.12711 0.41292
# Poissons Ratio (z) = 0.23327 0.15147
#
# Static dielectric constant tensor:
#      x y z
#    x 5.610060 0.000000 0.536260 
#    y 0.000000 4.536380 0.000000 
#    z 0.536260 0.000000 5.700530 
# 
# 
# High freq. dielectric constant tensor:
#      x y z
#    x 2.214550 0.000000 0.025130 
#    y 0.000000 2.143200 0.000000 
#    z 0.025130 0.000000 2.216430 
# 
# From -- ./inp_files/4746.got.cif
#   From: 2010.06.25/outbox.cif.g09.slc.cpg/sg9_3_cif.got.tgz:4746.got - 2010.06.27 21:40:51.
