data_PCOD8056832
_publ_section_title
;
Structure prediction by ZEFSAII (Michael W. Deem and Ramdas Pophale) SiO2 
 PCOD8056832
Probable space group: P 2/M
;
_chemical_formula_sum "Si O2"
_cell_formula_units_Z 26
_cell_length_a 30.633084
_cell_length_b 8.758038
_cell_length_c 30.633097
_cell_angle_alpha 90.000000
_cell_angle_beta 9.840627
_cell_angle_gamma 90.000000
_cell_volume 1404.595632
_symmetry_space_group_name_H-M "P 2/M"
_symmetry_group_IT_number 10
_symmetry_cell_setting 'monoclinic'
loop_
_space_group_symop_operation_xyz
x,y,z
-x,y,-z
-x,-y,-z
x,-y,z
loop_
_atom_site_type_symbol
_atom_site_label
_atom_site_fract_x
_atom_site_fract_y
_atom_site_fract_z
Si Si1 0.806656 0.169217 0.306594
Si Si2 0.475353 0.681446 0.975402
Si Si3 0.622465 0.181084 0.122426
Si Si4 0.764571 0.000000 0.264567
Si Si5 0.672157 0.182855 0.172228
Si Si6 0.049780 0.681432 0.549720
Si Si7 0.097649 0.818491 0.597610
O O1 0.561843 0.253049 0.568913
O O2 0.817556 0.000000 0.317487
O O3 0.780077 0.151411 0.280058
O O4 0.068989 0.253042 0.061762
O O5 0.476116 0.500000 0.976087
O O6 0.211999 0.741470 0.214002
O O7 0.500000 0.747940 0.000000
O O8 0.713891 0.741483 0.712096
O O9 0.647261 0.241500 0.147303
O O10 0.359365 0.243366 0.361129
O O11 0.622467 0.000000 0.122428
O O12 0.861211 0.243362 0.859295
O O13 0.500000 0.000000 0.500000
O O14 0.000000 0.000000 0.000000
O O15 0.674213 0.000000 0.174315
O O16 0.051637 0.500000 0.551577
O O17 0.073547 0.751646 0.573624
O O18 0.096366 0.000000 0.596308
#
# Coordination Sequence:
#
# PCOD8056832 Si02
#       7
#     4   4   4   2   4   4   4
#     4   8  15  20  30  42  59  85 118 161 207 249
#     4   9  17  30  49  71  88 107 140 177 206 237
#     4   9  17  26  42  58  79 105 133 170 210 258
#     4  10  16  22  28  40  62  90 124 164 220 264
#     4   9  13  23  33  48  64  85 121 161 204 244
#     4  10  19  31  49  68  89 114 139 170 207 250
#     4  10  19  31  43  64  87 113 139 166 213 258
#
# _framework density 18.510664999999999
#
# number of rings (size 3 to 8) (size 9 to 14) (size 15 to 20)
#    0.462    2.308    0.000    3.231    0.000    5.538 
#    0.000    0.000    0.000    2.769    0.000    0.000 
#    0.000    0.000    0.000    0.000    0.000    0.000 
#
# Total GULP energy -322259.023979 kJ/mol
# GULP energy per Si atom -12394.577845 kJ/mol
# Density = 1.846853 g / cm^3
# Si number density = 18.510665 Si / 1000 Ang^3
#
#
#
# Elastic Constant Matrix: (Units=GPa)
#
#
# Indices 1 2 3 4 5 6 
#
# 1 194.8497 8.3898 117.8795 0.0000 -1.8638 0.0000
# 2 8.3898 4.3677 9.4748 0.0000 -0.0968 0.0000
# 3 117.8795 9.4748 229.4966 0.0000 -1.1825 0.0000
# 4 0.0000 0.0000 0.0000 4.3120 0.0000 -2.5076
# 5 -1.8638 -0.0968 -1.1825 0.0000 49.0135 0.0000
# 6 0.0000 0.0000 0.0000 -2.5076 0.0000 -24.0905
#
#
#
# Elastic Compliance Matrix: (Units=1/GPa)
#
#
# Indices 1 2 3 4 5 6 
#
# 1 0.007625 -0.006753 -0.003637 0.000000 0.000189 0.000000
# 2 -0.006753 0.257463 -0.007160 0.000000 0.000079 0.000000
# 3 -0.003637 -0.007160 0.006521 0.000000 0.000005 0.000000
# 4 0.000000 0.000000 0.000000 0.218675 0.000000 -0.022762
# 5 0.000189 0.000079 0.000005 0.000000 0.020410 0.000000
# 6 0.000000 0.000000 0.000000 -0.022762 0.000000 -0.039141
#
#
# Mechanical properties :
#
#
# Convention : Reuss Voigt Hill
#
# Bulk Modulus (GPa) = 4.22818 77.80022 41.01420
# Shear Modulus (GPa) = 8.53986 25.37833 16.95910
#
# Velocity S-wave (km/s) = 2.15023 3.70673 3.03013
# Velocity P-wave (km/s) = 2.90754 7.77438 5.86919
#
# Compressibility (1/GPa) = 0.23650834
#
# Stress axis : x y z
#
# Youngs Moduli (GPa) = 131.15019 3.88406 153.35172
#
# Poissons Ratio (x) = 0.02623 0.55769
# Poissons Ratio (y) = 0.88568 1.09804
# Poissons Ratio (z) = 0.47695 0.02781
#
# Static dielectric constant tensor:
#      x y z
#    x 3.466270 0.000000 -0.040370 
#    y 0.000000 2.578050 0.000000 
#    z -0.040370 0.000000 3.924550 
# 
# 
# High freq. dielectric constant tensor:
#      x y z
#    x 1.729730 0.000000 -0.001600 
#    y 0.000000 1.624710 0.000000 
#    z -0.001600 0.000000 1.747910 
# 
# From -- ./inp_files/95958.got.cif
#   From: 2010.06.25/outbox.cif.g09.slc.cpg/sg10_48_cif.got.tgz:95958.got - 2010.06.27 22:07:45.
