data_PCOD8056929
_publ_section_title
;
Structure prediction by ZEFSAII (Michael W. Deem and Ramdas Pophale) SiO2 
 PCOD8056929
Probable space group: P 2/M
;
_chemical_formula_sum "Si O2"
_cell_formula_units_Z 16
_cell_length_a 11.229680
_cell_length_b 7.611272
_cell_length_c 10.707972
_cell_angle_alpha 90.000000
_cell_angle_beta 70.081172
_cell_angle_gamma 90.000000
_cell_volume 860.480661
_symmetry_space_group_name_H-M "P 2/M"
_symmetry_group_IT_number 10
_symmetry_cell_setting 'monoclinic'
loop_
_space_group_symop_operation_xyz
x,y,z
-x,y,-z
-x,-y,-z
x,-y,z
loop_
_atom_site_type_symbol
_atom_site_label
_atom_site_fract_x
_atom_site_fract_y
_atom_site_fract_z
Si Si1 0.132633 0.795932 0.589991
Si Si2 0.436979 0.000000 0.826863
Si Si3 0.615884 0.194968 0.387626
Si Si4 0.700985 0.000000 0.867325
Si Si5 0.144470 0.302397 0.303091
O O1 0.247808 0.716619 0.633163
O O2 0.168814 0.766739 0.433423
O O3 0.005389 0.694146 0.672920
O O4 0.106343 0.000000 0.625212
O O5 0.411190 0.174898 0.751296
O O6 0.580927 0.000000 0.819232
O O7 0.339650 0.000000 0.974667
O O8 0.500000 0.295361 0.500000
O O9 0.625814 0.000000 0.447259
O O10 0.782330 0.175427 0.817668
O O11 0.196931 0.500000 0.268099
#
# Coordination Sequence:
#
# PCOD8056929 Si02
#       5
#     4   2   4   2   4
#     4  10  16  31  55  81 106 135 175 218 267 309
#     4   9  19  33  55  84 100 138 184 217 258 323
#     4   8  15  28  53  84 103 129 174 219 263 313
#     4  11  20  36  57  77 104 146 180 209 269 316
#     4  11  21  33  53  82 111 139 177 220 260 313
#
# _framework density 18.594259000000001
#
# number of rings (size 3 to 8) (size 9 to 14) (size 15 to 20)
#    0.750    1.500    2.500    3.750    0.000    0.000 
#    0.000    5.000    0.000   18.000    0.000    0.000 
#    0.000    0.000    0.000    0.000    0.000    0.000 
#
# Total GULP energy -198276.515058 kJ/mol
# GULP energy per Si atom -12392.282191 kJ/mol
# Density = 1.855194 g / cm^3
# Si number density = 18.594259 Si / 1000 Ang^3
#
#
#
# Elastic Constant Matrix: (Units=GPa)
#
#
# Indices 1 2 3 4 5 6 
#
# 1 129.3048 6.6321 59.8055 0.0000 4.8512 0.0000
# 2 6.6321 68.7593 21.7854 0.0000 -7.1706 0.0000
# 3 59.8055 21.7854 121.6541 0.0000 -4.2229 0.0000
# 4 0.0000 0.0000 0.0000 -0.6098 0.0000 0.3221
# 5 4.8512 -7.1706 -4.2229 0.0000 24.2451 0.0000
# 6 0.0000 0.0000 0.0000 0.3221 0.0000 0.0738
#
#
#
# Elastic Compliance Matrix: (Units=1/GPa)
#
#
# Indices 1 2 3 4 5 6 
#
# 1 0.010221 0.000362 -0.005188 0.000000 -0.002842 0.000000
# 2 0.000362 0.015848 -0.002873 0.000000 0.004114 0.000000
# 3 -0.005188 -0.002873 0.011360 0.000000 0.002167 0.000000
# 4 0.000000 0.000000 0.000000 -0.496000 0.000000 2.165560
# 5 -0.002842 0.004114 0.002167 0.000000 0.043408 0.000000
# 6 0.000000 0.000000 0.000000 2.165560 0.000000 4.099900
#
#
# Mechanical properties :
#
#
# Convention : Reuss Voigt Hill
#
# Bulk Modulus (GPa) = 45.39189 55.12936 50.26062
# Shear Modulus (GPa) = 1.34862 20.17482 10.76172
#
# Velocity S-wave (km/s) = 0.85256 3.29751 2.40837
# Velocity P-wave (km/s) = 5.04321 6.64914 5.90106
#
# Compressibility (1/GPa) = 0.02203037
#
# Stress axis : x y z
#
# Youngs Moduli (GPa) = 97.83405 63.09979 88.02593
#
# Poissons Ratio (x) = -0.02282 0.45670
# Poissons Ratio (y) = -0.03537 0.25289
# Poissons Ratio (z) = 0.50759 0.18128
#
# Static dielectric constant tensor:
#      x y z
#    x 3.676680 0.000000 -0.115320 
#    y 0.000000 3.048940 0.000000 
#    z -0.115320 0.000000 3.104910 
# 
# 
# High freq. dielectric constant tensor:
#      x y z
#    x 1.738370 0.000000 -0.013920 
#    y 0.000000 1.687900 0.000000 
#    z -0.013920 0.000000 1.690530 
# 
# From -- ./inp_files/44163.got.cif
#   From: 2010.06.25/outbox.cif.g09.slc.cpg/sg10_23_cif.got.tgz:44163.got - 2010.06.27 22:07:45.
