data_PCOD8056400
_publ_section_title
;
Structure prediction by ZEFSAII (Michael W. Deem and Ramdas Pophale) SiO2 
 PCOD8056400
Probable space group: C C
;
_chemical_formula_sum "Si O2"
_cell_formula_units_Z 32
_cell_length_a 23.557029
_cell_length_b 9.049923
_cell_length_c 8.379676
_cell_angle_alpha 90.000000
_cell_angle_beta 135.405420
_cell_angle_gamma 90.000000
_cell_volume 1254.246078
_symmetry_space_group_name_H-M "C C"
_symmetry_group_IT_number 9
_symmetry_cell_setting 'monoclinic'
loop_
_space_group_symop_operation_xyz
x,y,z
x,-y,1/2+z
1/2+x,1/2+y,z
1/2+x,1/2-y,1/2+z
loop_
_atom_site_type_symbol
_atom_site_label
_atom_site_fract_x
_atom_site_fract_y
_atom_site_fract_z
Si Si1 0.521580 0.659575 0.209540
Si Si2 0.028000 0.474540 0.114353
Si Si3 0.271857 0.864474 0.339717
Si Si4 0.848304 0.858281 0.440325
Si Si5 0.115936 0.956641 0.603116
Si Si6 0.759422 0.058681 0.457924
Si Si7 0.860104 0.584947 0.696450
Si Si8 0.123520 0.636451 0.535351
O O1 0.522479 0.837191 0.228133
O O2 0.547873 0.577389 0.423593
O O3 0.589526 0.601292 0.223398
O O4 0.428108 0.615668 0.992766
O O5 0.108289 0.567925 0.328667
O O6 0.040935 0.405907 0.965164
O O7 0.949224 0.580550 0.953548
O O8 0.243006 0.698780 0.313428
O O9 0.293441 0.874133 0.196315
O O10 0.203147 0.972509 0.266744
O O11 0.346942 0.918903 0.599835
O O12 0.850381 0.697473 0.527732
O O13 0.843565 0.982463 0.569113
O O14 0.769892 0.885181 0.163560
O O15 0.125686 0.811707 0.511836
O O16 0.695028 0.929169 0.289115
#
# Coordination Sequence:
#
# PCOD8056400 Si02
#       8
#     4   4   4   4   4   4   4   4
#     4  11  24  45  69 102 140 184 239 298 365 434
#     4  11  24  44  70 101 140 185 237 296 365 438
#     4  12  25  44  69 103 144 192 248 306 372 442
#     4  12  26  46  73 106 144 191 246 309 375 445
#     4  11  26  44  68 100 140 186 241 302 360 433
#     4  12  26  45  70 104 145 192 250 308 370 444
#     4  12  26  46  73 106 146 193 246 309 376 447
#     4  11  25  44  68 100 139 187 239 298 363 431
#
# _framework density 25.513332999999999
#
# number of rings (size 3 to 8) (size 9 to 14) (size 15 to 20)
#    0.000    0.500    0.000    8.250    0.000   12.000 
#    0.000    0.000    0.000    0.000    0.000    0.000 
#    0.000    0.000    0.000    0.000    0.000    0.000 
#
# Total GULP energy -198313.734920 kJ/mol
# GULP energy per Si atom -12394.608433 kJ/mol
# Density = 2.545526 g / cm^3
# Si number density = 25.513333 Si / 1000 Ang^3
#
#
#
# Elastic Constant Matrix: (Units=GPa)
#
#
# Indices 1 2 3 4 5 6 
#
# 1 87.2777 11.0523 6.1746 0.0000 2.3159 0.0000
# 2 11.0523 134.1721 30.9299 0.0000 2.2595 0.0000
# 3 6.1746 30.9299 108.7780 0.0000 12.0865 0.0000
# 4 0.0000 0.0000 0.0000 46.9036 0.0000 -2.5199
# 5 2.3159 2.2595 12.0865 0.0000 26.3229 0.0000
# 6 0.0000 0.0000 0.0000 -2.5199 0.0000 35.7236
#
#
#
# Elastic Compliance Matrix: (Units=1/GPa)
#
#
# Indices 1 2 3 4 5 6 
#
# 1 0.011612 -0.000868 -0.000323 0.000000 -0.000799 0.000000
# 2 -0.000868 0.008044 -0.002286 0.000000 0.000436 0.000000
# 3 -0.000323 -0.002286 0.010365 0.000000 -0.004535 0.000000
# 4 0.000000 0.000000 0.000000 0.021401 0.000000 0.001510
# 5 -0.000799 0.000436 -0.004535 0.000000 0.040105 0.000000
# 6 0.000000 0.000000 0.000000 0.001510 0.000000 0.028099
#
#
# Mechanical properties :
#
#
# Convention : Reuss Voigt Hill
#
# Bulk Modulus (GPa) = 43.35628 47.39350 45.37489
# Shear Modulus (GPa) = 37.23790 40.59476 38.91633
#
# Velocity S-wave (km/s) = 3.82455 3.99321 3.90979
# Velocity P-wave (km/s) = 6.04428 6.31485 6.18104
#
# Compressibility (1/GPa) = 0.02306471
#
# Stress axis : x y z
#
# Youngs Moduli (GPa) = 86.11981 124.30999 96.47497
#
# Poissons Ratio (x) = 0.10796 0.03120
# Poissons Ratio (y) = 0.07479 0.22059
# Poissons Ratio (z) = 0.02786 0.28423
#
# Static dielectric constant tensor:
#      x y z
#    x 4.824860 0.000000 0.073870 
#    y 0.000000 4.714020 0.000000 
#    z 0.073870 0.000000 4.329000 
# 
# 
# High freq. dielectric constant tensor:
#      x y z
#    x 2.038900 0.000000 0.005860 
#    y 0.000000 2.023590 0.000000 
#    z 0.005860 0.000000 2.008320 
# 
# From -- ./inp_files/12450.got.cif
#   From: 2010.06.25/outbox.cif.g09.slc.cpg/sg9_7_cif.got.tgz:12450.got - 2010.06.27 21:40:51.
