data_PCOD8056393
_publ_section_title
;
Structure prediction by ZEFSAII (Michael W. Deem and Ramdas Pophale) SiO2 
 PCOD8056393
Probable space group: C C
;
_chemical_formula_sum "Si O2"
_cell_formula_units_Z 28
_cell_length_a 20.033429
_cell_length_b 11.365536
_cell_length_c 9.194010
_cell_angle_alpha 90.000000
_cell_angle_beta 38.282927
_cell_angle_gamma 90.000000
_cell_volume 1296.949754
_symmetry_space_group_name_H-M "C C"
_symmetry_group_IT_number 9
_symmetry_cell_setting 'monoclinic'
loop_
_space_group_symop_operation_xyz
x,y,z
x,-y,1/2+z
1/2+x,1/2+y,z
1/2+x,1/2-y,1/2+z
loop_
_atom_site_type_symbol
_atom_site_label
_atom_site_fract_x
_atom_site_fract_y
_atom_site_fract_z
Si Si1 0.751300 0.857542 0.534370
Si Si2 0.076675 0.400315 0.063052
Si Si3 0.922357 0.079950 0.525479
Si Si4 0.861901 0.264745 0.387331
Si Si5 0.086311 0.663813 0.099326
Si Si6 0.899894 0.819914 0.516396
Si Si7 0.125286 0.225599 0.234937
O O1 0.844444 0.937159 0.299274
O O2 0.695129 0.791441 0.494804
O O3 0.811104 0.774907 0.550541
O O4 0.656402 0.922388 0.788862
O O5 0.070462 0.524884 0.154933
O O6 0.126630 0.301230 0.084123
O O7 0.955662 0.363050 0.223097
O O8 0.873133 0.181402 0.507481
O O9 0.043772 0.115596 0.363543
O O10 0.928275 0.955976 0.431223
O O11 0.742876 0.324508 0.581095
O O12 0.862588 0.181960 0.245516
O O13 0.997460 0.732763 0.338713
O O14 0.083086 0.689526 0.934619
#
# Coordination Sequence:
#
# PCOD8056393 Si02
#       7
#     4   4   4   4   4   4   4
#     4  12  22  42  70 100 128 172 220 272 318 386
#     4  11  25  42  68 101 131 174 219 269 329 388
#     4  11  25  42  68 101 131 174 219 269 329 388
#     4  11  24  44  66  96 137 172 217 272 327 389
#     4  12  25  43  66 100 134 171 222 268 326 391
#     4  12  25  43  66 100 134 171 222 268 326 391
#     4  11  24  44  66  96 137 172 217 272 327 389
#
# _framework density 21.589116000000001
#
# number of rings (size 3 to 8) (size 9 to 14) (size 15 to 20)
#    0.000    0.571    5.714    2.571    4.000    0.000 
#    2.571    1.429    0.000    0.000    0.000    0.000 
#    0.000    0.000    0.000    0.000    0.000    0.000 
#
# Total GULP energy -173450.505387 kJ/mol
# GULP energy per Si atom -12389.321813 kJ/mol
# Density = 2.153998 g / cm^3
# Si number density = 21.589116 Si / 1000 Ang^3
#
#
#
# Elastic Constant Matrix: (Units=GPa)
#
#
# Indices 1 2 3 4 5 6 
#
# 1 144.6730 29.6189 35.5976 0.0000 -18.2602 0.0000
# 2 29.6189 67.0851 45.4299 0.0000 -13.2934 0.0000
# 3 35.5976 45.4299 118.8493 0.0000 -13.6624 0.0000
# 4 0.0000 0.0000 0.0000 13.2449 0.0000 5.9829
# 5 -18.2602 -13.2934 -13.6624 0.0000 48.2975 0.0000
# 6 0.0000 0.0000 0.0000 5.9829 0.0000 18.0177
#
#
#
# Elastic Compliance Matrix: (Units=1/GPa)
#
#
# Indices 1 2 3 4 5 6 
#
# 1 0.007942 -0.002229 -0.001294 0.000000 0.002023 0.000000
# 2 -0.002229 0.021319 -0.007136 0.000000 0.003006 0.000000
# 3 -0.001294 -0.007136 0.011625 0.000000 0.000835 0.000000
# 4 0.000000 0.000000 0.000000 0.088824 0.000000 -0.029495
# 5 0.002023 0.003006 0.000835 0.000000 0.022534 0.000000
# 6 0.000000 0.000000 0.000000 -0.029495 0.000000 0.065295
#
#
# Mechanical properties :
#
#
# Convention : Reuss Voigt Hill
#
# Bulk Modulus (GPa) = 51.10402 61.32222 56.21312
# Shear Modulus (GPa) = 20.37654 30.57608 25.47631
#
# Velocity S-wave (km/s) = 3.07552 3.76742 3.43892
# Velocity P-wave (km/s) = 6.02780 6.88408 6.47012
#
# Compressibility (1/GPa) = 0.01956793
#
# Stress axis : x y z
#
# Youngs Moduli (GPa) = 125.90754 46.90710 86.01960
#
# Poissons Ratio (x) = 0.10457 0.11132
# Poissons Ratio (y) = 0.28069 0.61381
# Poissons Ratio (z) = 0.16294 0.33472
#
# Static dielectric constant tensor:
#      x y z
#    x 4.265120 0.000000 -0.077190 
#    y 0.000000 3.317810 0.000000 
#    z -0.077190 0.000000 4.101730 
# 
# 
# High freq. dielectric constant tensor:
#      x y z
#    x 1.879270 0.000000 0.006390 
#    y 0.000000 1.795130 0.000000 
#    z 0.006390 0.000000 1.863650 
# 
# From -- ./inp_files/7008.got.cif
#   From: 2010.06.25/outbox.cif.g09.slc.cpg/sg9_4_cif.got.tgz:7008.got - 2010.06.27 21:40:51.
