data_PCOD8056425
_publ_section_title
;
Structure prediction by ZEFSAII (Michael W. Deem and Ramdas Pophale) SiO2 
 PCOD8056425
Probable space group: C C
;
_chemical_formula_sum "Si O2"
_cell_formula_units_Z 32
_cell_length_a 16.496634
_cell_length_b 16.191095
_cell_length_c 9.814838
_cell_angle_alpha 90.000000
_cell_angle_beta 146.088381
_cell_angle_gamma 90.000000
_cell_volume 1462.586297
_symmetry_space_group_name_H-M "C C"
_symmetry_group_IT_number 9
_symmetry_cell_setting 'monoclinic'
loop_
_space_group_symop_operation_xyz
x,y,z
x,-y,1/2+z
1/2+x,1/2+y,z
1/2+x,1/2-y,1/2+z
loop_
_atom_site_type_symbol
_atom_site_label
_atom_site_fract_x
_atom_site_fract_y
_atom_site_fract_z
Si Si1 0.831770 0.582868 0.397110
Si Si2 0.677094 0.500093 0.931583
Si Si3 0.354582 0.263312 0.348198
Si Si4 0.155466 0.544382 0.796524
Si Si5 0.451395 0.630230 0.215973
Si Si6 0.090056 0.828724 0.186119
Si Si7 0.414006 0.780611 0.646071
Si Si8 0.636349 0.907547 0.973336
O O1 0.768261 0.555260 0.453455
O O2 0.783603 0.677033 0.299575
O O3 0.006246 0.579472 0.650401
O O4 0.777523 0.524172 0.199326
O O5 0.539341 0.450396 0.794851
O O6 0.610277 0.578280 0.762958
O O7 0.458584 0.302279 0.606432
O O8 0.454749 0.247316 0.356151
O O9 0.227470 0.325070 0.126193
O O10 0.192493 0.456919 0.919667
O O11 0.142380 0.533412 0.614647
O O12 0.284383 0.607126 0.013088
O O13 0.518761 0.674016 0.439563
O O14 0.241484 0.780803 0.387062
O O15 0.982066 0.782182 0.135493
O O16 0.473065 0.875019 0.713105
#
# Coordination Sequence:
#
# PCOD8056425 Si02
#       8
#     4   4   4   4   4   4   4   4
#     4  12  24  48  77 102 147 189 245 297 360 441
#     4  12  26  46  75 108 143 191 243 306 365 432
#     4  11  26  47  74 105 141 196 239 296 365 431
#     4  11  25  45  71 104 141 184 238 297 357 427
#     4  11  30  45  69 110 149 182 247 302 371 422
#     4  12  27  47  70 108 144 191 244 305 365 430
#     4  12  24  47  74 100 143 192 247 292 364 439
#     4  11  24  45  72 105 138 185 243 293 357 432
#
# _framework density 21.879051
#
# number of rings (size 3 to 8) (size 9 to 14) (size 15 to 20)
#    0.000    0.500    5.000    1.500    8.750    2.000 
#    2.250    0.000    0.000    0.000    0.000    0.000 
#    0.000    0.000    0.000    0.000    0.000    0.000 
#
# Total GULP energy -198467.669797 kJ/mol
# GULP energy per Si atom -12404.229362 kJ/mol
# Density = 2.182925 g / cm^3
# Si number density = 21.879051 Si / 1000 Ang^3
#
#
#
# Elastic Constant Matrix: (Units=GPa)
#
#
# Indices 1 2 3 4 5 6 
#
# 1 120.1911 66.7344 53.5607 0.0000 -3.7821 0.0000
# 2 66.7344 125.3584 48.7707 0.0000 -8.7724 0.0000
# 3 53.5607 48.7707 110.5273 0.0000 -12.1859 0.0000
# 4 0.0000 0.0000 0.0000 33.5411 0.0000 -5.3382
# 5 -3.7821 -8.7724 -12.1859 0.0000 30.4582 0.0000
# 6 0.0000 0.0000 0.0000 -5.3382 0.0000 44.4673
#
#
#
# Elastic Compliance Matrix: (Units=1/GPa)
#
#
# Indices 1 2 3 4 5 6 
#
# 1 0.013172 -0.005520 -0.004124 0.000000 -0.001604 0.000000
# 2 -0.005520 0.011980 -0.002413 0.000000 0.001800 0.000000
# 3 -0.004124 -0.002413 0.012531 0.000000 0.003806 0.000000
# 4 0.000000 0.000000 0.000000 0.030395 0.000000 0.003649
# 5 -0.001604 0.001800 0.003806 0.000000 0.034674 0.000000
# 6 0.000000 0.000000 0.000000 0.003649 0.000000 0.022926
#
#
# Mechanical properties :
#
#
# Convention : Reuss Voigt Hill
#
# Bulk Modulus (GPa) = 73.69987 77.13427 75.41707
# Shear Modulus (GPa) = 32.40094 34.16072 33.28083
#
# Velocity S-wave (km/s) = 3.85244 3.95567 3.90439
# Velocity P-wave (km/s) = 7.31756 7.49630 7.40747
#
# Compressibility (1/GPa) = 0.01356854
#
# Stress axis : x y z
#
# Youngs Moduli (GPa) = 75.91589 83.46945 79.80452
#
# Poissons Ratio (x) = 0.46075 0.32915
# Poissons Ratio (y) = 0.41906 0.19257
# Poissons Ratio (z) = 0.31311 0.20142
#
# Static dielectric constant tensor:
#      x y z
#    x 4.130020 0.000000 -0.073270 
#    y 0.000000 3.966150 0.000000 
#    z -0.073270 0.000000 4.111630 
# 
# 
# High freq. dielectric constant tensor:
#      x y z
#    x 1.870250 0.000000 -0.001480 
#    y 0.000000 1.861320 0.000000 
#    z -0.001480 0.000000 1.869280 
# 
# From -- ./inp_files/9971.got.cif
#   From: 2010.06.25/outbox.cif.g09.slc.cpg/sg9_5_cif.got.tgz:9971.got - 2010.06.27 21:40:51.
