data_PCOD8056480
_publ_section_title
;
Structure prediction by ZEFSAII (Michael W. Deem and Ramdas Pophale) SiO2 
 PCOD8056480
Probable space group: C C
;
_chemical_formula_sum "Si O2"
_cell_formula_units_Z 28
_cell_length_a 14.286836
_cell_length_b 9.930860
_cell_length_c 12.720525
_cell_angle_alpha 90.000000
_cell_angle_beta 43.593021
_cell_angle_gamma 90.000000
_cell_volume 1244.462913
_symmetry_space_group_name_H-M "C C"
_symmetry_group_IT_number 9
_symmetry_cell_setting 'monoclinic'
loop_
_space_group_symop_operation_xyz
x,y,z
x,-y,1/2+z
1/2+x,1/2+y,z
1/2+x,1/2-y,1/2+z
loop_
_atom_site_type_symbol
_atom_site_label
_atom_site_fract_x
_atom_site_fract_y
_atom_site_fract_z
Si Si1 0.987950 0.351879 0.642180
Si Si2 0.800696 0.015700 0.166499
Si Si3 0.032783 0.661208 0.564051
Si Si4 0.198972 0.753033 0.806683
Si Si5 0.591278 0.776948 0.778730
Si Si6 0.330198 0.351580 0.848060
Si Si7 0.537496 0.479305 0.840088
O O1 0.840100 0.296215 0.740408
O O2 0.000556 0.505125 0.598666
O O3 0.093768 0.265107 0.487607
O O4 0.005632 0.338214 0.753008
O O5 0.716941 0.877475 0.216324
O O6 0.734884 0.144018 0.160251
O O7 0.794406 0.029243 0.296909
O O8 0.960125 0.012134 0.011158
O O9 0.023487 0.699462 0.448038
O O10 0.178190 0.702846 0.499663
O O11 0.915128 0.735089 0.723536
O O12 0.151653 0.868502 0.764388
O O13 0.608038 0.616479 0.741619
O O14 0.411718 0.420958 0.874976
#
# Coordination Sequence:
#
# PCOD8056480 Si02
#       7
#     4   4   4   4   4   4   4
#     4  12  27  47  74 105 145 187 237 293 359 417
#     4  11  24  48  70 102 146 184 241 291 349 420
#     4  11  26  47  73 108 145 182 243 294 348 424
#     4  12  27  48  71 107 146 186 235 299 348 424
#     4  11  26  44  77 101 141 189 234 291 358 415
#     4  11  25  45  75 100 147 186 235 292 355 411
#     4  12  27  45  76 105 142 188 241 288 357 421
#
# _framework density 22.499666000000001
#
# number of rings (size 3 to 8) (size 9 to 14) (size 15 to 20)
#    0.000    0.571    5.714    1.714   10.000    0.000 
#    0.000    0.000    0.000    0.000    0.000    0.000 
#    0.000    0.000    0.000    0.000    0.000    0.000 
#
# Total GULP energy -173541.654357 kJ/mol
# GULP energy per Si atom -12395.832454 kJ/mol
# Density = 2.244846 g / cm^3
# Si number density = 22.499666 Si / 1000 Ang^3
#
#
#
# Elastic Constant Matrix: (Units=GPa)
#
#
# Indices 1 2 3 4 5 6 
#
# 1 117.6770 44.0121 22.5848 0.0000 -13.5361 0.0000
# 2 44.0121 136.5606 42.7568 0.0000 -8.6850 0.0000
# 3 22.5848 42.7568 64.9295 0.0000 -26.8663 0.0000
# 4 0.0000 0.0000 0.0000 37.9981 0.0000 -9.0682
# 5 -13.5361 -8.6850 -26.8663 0.0000 34.8189 0.0000
# 6 0.0000 0.0000 0.0000 -9.0682 0.0000 29.3506
#
#
#
# Elastic Compliance Matrix: (Units=1/GPa)
#
#
# Indices 1 2 3 4 5 6 
#
# 1 0.009992 -0.002925 -0.000358 0.000000 0.002878 0.000000
# 2 -0.002925 0.010382 -0.007665 0.000000 -0.004462 0.000000
# 3 -0.000358 -0.007665 0.028976 0.000000 0.020307 0.000000
# 4 0.000000 0.000000 0.000000 0.028412 0.000000 0.008778
# 5 0.002878 -0.004462 0.020307 0.000000 0.044395 0.000000
# 6 0.000000 0.000000 0.000000 0.008778 0.000000 0.036783
#
#
# Mechanical properties :
#
#
# Convention : Reuss Voigt Hill
#
# Bulk Modulus (GPa) = 36.42722 59.76381 48.09552
# Shear Modulus (GPa) = 26.31757 34.42110 30.36934
#
# Velocity S-wave (km/s) = 3.42378 3.91557 3.67791
# Velocity P-wave (km/s) = 5.64402 6.86018 6.28160
#
# Compressibility (1/GPa) = 0.02745200
#
# Stress axis : x y z
#
# Youngs Moduli (GPa) = 100.08362 96.32374 34.51111
#
# Poissons Ratio (x) = 0.28174 0.01237
# Poissons Ratio (y) = 0.29274 0.26454
# Poissons Ratio (z) = 0.03587 0.73836
#
# Static dielectric constant tensor:
#      x y z
#    x 4.126680 0.000000 -0.098910 
#    y 0.000000 4.294280 0.000000 
#    z -0.098910 0.000000 4.174920 
# 
# 
# High freq. dielectric constant tensor:
#      x y z
#    x 1.886700 0.000000 -0.005420 
#    y 0.000000 1.901640 0.000000 
#    z -0.005420 0.000000 1.887250 
# 
# From -- ./inp_files/17863.got.cif
#   From: 2010.06.25/outbox.cif.g09.slc.cpg/sg9_9_cif.got.tgz:17863.got - 2010.06.27 21:40:51.
