data_PCOD8056763
_publ_section_title
;
Structure prediction by ZEFSAII (Michael W. Deem and Ramdas Pophale) SiO2 
 PCOD8056763
Probable space group: C C
;
_chemical_formula_sum "Si O2"
_cell_formula_units_Z 28
_cell_length_a 14.845981
_cell_length_b 13.545464
_cell_length_c 9.307171
_cell_angle_alpha 90.000000
_cell_angle_beta 142.512601
_cell_angle_gamma 90.000000
_cell_volume 1139.050826
_symmetry_space_group_name_H-M "C C"
_symmetry_group_IT_number 9
_symmetry_cell_setting 'monoclinic'
loop_
_space_group_symop_operation_xyz
x,y,z
x,-y,1/2+z
1/2+x,1/2+y,z
1/2+x,1/2-y,1/2+z
loop_
_atom_site_type_symbol
_atom_site_label
_atom_site_fract_x
_atom_site_fract_y
_atom_site_fract_z
Si Si1 0.833910 0.198315 0.547730
Si Si2 0.979560 0.004105 0.752367
Si Si3 0.239648 0.655347 0.937954
Si Si4 0.974832 0.456478 0.245948
Si Si5 0.806246 0.677967 0.736162
Si Si6 0.178598 0.005670 0.743007
Si Si7 0.084669 0.673588 0.446344
O O1 0.857119 0.082341 0.548634
O O2 0.860503 0.248068 0.427112
O O3 0.672259 0.207245 0.413347
O O4 0.954960 0.247041 0.807454
O O5 0.125384 0.011029 0.838709
O O6 0.900568 0.896922 0.654284
O O7 0.044622 0.045663 0.986547
O O8 0.200530 0.675214 0.723313
O O9 0.119428 0.584066 0.854351
O O10 0.237511 0.760085 0.017371
O O11 0.938611 0.389956 0.340467
O O12 0.005180 0.568076 0.331212
O O13 0.839145 0.453684 0.958106
O O14 0.686199 0.609096 0.664238
#
# Coordination Sequence:
#
# PCOD8056763 Si02
#       7
#     4   4   4   4   4   4   4
#     4  12  28  49  80 117 160 211 269 328 404 485
#     4  12  27  50  78 117 163 205 268 332 409 471
#     4  12  31  49  84 118 164 209 271 339 406 479
#     4  12  28  53  81 117 164 213 274 332 413 486
#     4  12  29  49  83 117 157 213 271 328 402 489
#     4  12  26  51  80 113 160 210 261 335 405 487
#     4  12  29  51  80 119 162 211 268 340 405 483
#
# _framework density 24.581871
#
# number of rings (size 3 to 8) (size 9 to 14) (size 15 to 20)
#    0.000    0.000    4.286    3.429   12.000    0.000 
#    0.000    0.000    0.000    0.000    0.000    0.000 
#    0.000    0.000    0.000    0.000    0.000    0.000 
#
# Total GULP energy -173581.279816 kJ/mol
# GULP energy per Si atom -12398.662844 kJ/mol
# Density = 2.452592 g / cm^3
# Si number density = 24.581871 Si / 1000 Ang^3
#
#
#
# Elastic Constant Matrix: (Units=GPa)
#
#
# Indices 1 2 3 4 5 6 
#
# 1 107.3779 36.2641 32.7591 0.0000 4.0812 0.0000
# 2 36.2641 97.0973 16.6166 0.0000 3.1855 0.0000
# 3 32.7591 16.6166 118.7088 0.0000 -8.9901 0.0000
# 4 0.0000 0.0000 0.0000 37.3908 0.0000 1.4542
# 5 4.0812 3.1855 -8.9901 0.0000 39.2255 0.0000
# 6 0.0000 0.0000 0.0000 1.4542 0.0000 50.9912
#
#
#
# Elastic Compliance Matrix: (Units=1/GPa)
#
#
# Indices 1 2 3 4 5 6 
#
# 1 0.011484 -0.003767 -0.002757 0.000000 -0.001521 0.000000
# 2 -0.003767 0.011845 -0.000673 0.000000 -0.000724 0.000000
# 3 -0.002757 -0.000673 0.009469 0.000000 0.002512 0.000000
# 4 0.000000 0.000000 0.000000 0.026774 0.000000 -0.000764
# 5 -0.001521 -0.000724 0.002512 0.000000 0.026286 0.000000
# 6 0.000000 0.000000 0.000000 -0.000764 0.000000 0.019633
#
#
# Mechanical properties :
#
#
# Convention : Reuss Voigt Hill
#
# Bulk Modulus (GPa) = 54.33863 54.94040 54.63952
# Shear Modulus (GPa) = 39.67571 41.35778 40.51674
#
# Velocity S-wave (km/s) = 4.02185 4.10622 4.06425
# Velocity P-wave (km/s) = 6.61212 6.69924 6.65583
#
# Compressibility (1/GPa) = 0.01840311
#
# Stress axis : x y z
#
# Youngs Moduli (GPa) = 87.07637 84.42396 105.60486
#
# Poissons Ratio (x) = 0.31806 0.29115
# Poissons Ratio (y) = 0.32805 0.07109
# Poissons Ratio (z) = 0.24007 0.05684
#
# Static dielectric constant tensor:
#      x y z
#    x 4.421420 0.000000 -0.118400 
#    y 0.000000 4.535810 0.000000 
#    z -0.118400 0.000000 4.487810 
# 
# 
# High freq. dielectric constant tensor:
#      x y z
#    x 1.986140 0.000000 0.000780 
#    y 0.000000 1.981310 0.000000 
#    z 0.000780 0.000000 1.984030 
# 
# From -- ./inp_files/7537.got.cif
#   From: 2010.06.25/outbox.cif.g09.slc.cpg/sg9_4_cif.got.tgz:7537.got - 2010.06.27 21:40:51.
