data_PCOD8056905
_publ_section_title
;
Structure prediction by ZEFSAII (Michael W. Deem and Ramdas Pophale) SiO2 
 PCOD8056905
Probable space group: P 2/M
;
_chemical_formula_sum "Si O2"
_cell_formula_units_Z 28
_cell_length_a 14.401219
_cell_length_b 8.762113
_cell_length_c 14.739004
_cell_angle_alpha 90.000000
_cell_angle_beta 120.753912
_cell_angle_gamma 90.000000
_cell_volume 1598.295909
_symmetry_space_group_name_H-M "P 2/M"
_symmetry_group_IT_number 10
_symmetry_cell_setting 'monoclinic'
loop_
_space_group_symop_operation_xyz
x,y,z
-x,y,-z
-x,-y,-z
x,-y,z
loop_
_atom_site_type_symbol
_atom_site_label
_atom_site_fract_x
_atom_site_fract_y
_atom_site_fract_z
Si Si1 0.328212 0.171311 0.152397
Si Si2 0.395920 0.182231 0.890701
Si Si3 0.575506 0.170030 0.294414
Si Si4 0.981680 0.820567 0.094984
Si Si5 0.235769 0.321915 0.941127
Si Si6 0.788390 0.179848 0.731401
Si Si7 0.609989 0.183012 0.506750
O O1 0.448388 0.164425 0.248762
O O2 0.254388 0.242932 0.194142
O O3 0.289388 0.000000 0.104797
O O4 0.319356 0.282509 0.062687
O O5 0.399484 0.251015 0.789542
O O6 0.282867 0.239931 0.875361
O O7 0.399654 0.000000 0.890540
O O8 0.500000 0.241826 0.000000
O O9 0.621839 0.249056 0.409356
O O10 0.623546 0.000000 0.311795
O O11 0.085048 0.777848 0.209821
O O12 0.882611 0.736126 0.092199
O O13 0.959016 0.000000 0.084323
O O14 0.000000 0.766270 0.000000
O O15 0.231399 0.500000 0.920441
O O16 0.716264 0.245837 0.612877
O O17 0.770291 0.000000 0.723972
O O18 0.500000 0.242788 0.500000
O O19 0.606265 0.000000 0.500900
#
# Coordination Sequence:
#
# PCOD8056905 Si02
#       7
#     4   4   4   4   4   4   4
#     4  10  16  29  50  74 103 135 168 193 235 302
#     4  10  19  33  53  73  98 133 171 204 243 299
#     4   9  16  26  46  75 105 134 160 196 242 295
#     4  10  19  33  53  73  98 133 171 204 243 299
#     4  12  24  34  47  72 104 134 167 211 256 292
#     4   9  16  26  46  75 105 134 160 196 242 295
#     4   9  14  22  42  77 112 129 149 194 252 297
#
# _framework density 17.518659
#
# number of rings (size 3 to 8) (size 9 to 14) (size 15 to 20)
#    0.000    2.143    4.286    1.286    0.000    0.571 
#    0.000    0.000    0.000    0.857    0.000   11.000 
#    0.000    0.000    0.000    0.000    0.000    0.000 
#
# Total GULP energy -346951.934944 kJ/mol
# GULP energy per Si atom -12391.140534 kJ/mol
# Density = 1.747879 g / cm^3
# Si number density = 17.518659 Si / 1000 Ang^3
#
#
#
# Elastic Constant Matrix: (Units=GPa)
#
#
# Indices 1 2 3 4 5 6 
#
# 1 102.1904 16.4144 53.5818 0.0000 -11.5473 0.0000
# 2 16.4144 20.4143 15.6103 0.0000 -2.8953 0.0000
# 3 53.5818 15.6103 129.8976 0.0000 -7.0779 0.0000
# 4 0.0000 0.0000 0.0000 1.8252 0.0000 -0.4814
# 5 -11.5473 -2.8953 -7.0779 0.0000 31.5863 0.0000
# 6 0.0000 0.0000 0.0000 -0.4814 0.0000 5.0187
#
#
#
# Elastic Compliance Matrix: (Units=1/GPa)
#
#
# Indices 1 2 3 4 5 6 
#
# 1 0.013719 -0.007014 -0.004634 0.000000 0.003334 0.000000
# 2 -0.007014 0.057921 -0.003966 0.000000 0.001856 0.000000
# 3 -0.004634 -0.003966 0.010098 0.000000 0.000205 0.000000
# 4 0.000000 0.000000 0.000000 0.562098 0.000000 0.053915
# 5 0.003334 0.001856 0.000205 0.000000 0.033094 0.000000
# 6 0.000000 0.000000 0.000000 0.053915 0.000000 0.204428
#
#
# Mechanical properties :
#
#
# Convention : Reuss Voigt Hill
#
# Bulk Modulus (GPa) = 19.79868 47.07948 33.43908
# Shear Modulus (GPa) = 5.37968 18.81242 12.09605
#
# Velocity S-wave (km/s) = 1.75428 3.28052 2.63052
# Velocity P-wave (km/s) = 3.92802 6.42506 5.32497
#
# Compressibility (1/GPa) = 0.05050842
#
# Stress axis : x y z
#
# Youngs Moduli (GPa) = 72.89146 17.26482 99.03128
#
# Poissons Ratio (x) = 0.12110 0.45895
# Poissons Ratio (y) = 0.51128 0.39277
# Poissons Ratio (z) = 0.33781 0.06847
#
# Static dielectric constant tensor:
#      x y z
#    x 3.253900 0.000000 -0.073460 
#    y 0.000000 2.732180 0.000000 
#    z -0.073460 0.000000 3.510260 
# 
# 
# High freq. dielectric constant tensor:
#      x y z
#    x 1.671420 0.000000 -0.004360 
#    y 0.000000 1.618300 0.000000 
#    z -0.004360 0.000000 1.675130 
# 
# From -- ./inp_files/66243.got.cif
#   From: 2010.06.25/outbox.cif.g09.slc.cpg/sg10_34_cif.got.tgz:66243.got - 2010.06.27 22:07:45.
