data_PCOD8056927
_publ_section_title
;
Structure prediction by ZEFSAII (Michael W. Deem and Ramdas Pophale) SiO2 
 PCOD8056927
Probable space group: P 2/M
;
_chemical_formula_sum "Si O2"
_cell_formula_units_Z 32
_cell_length_a 18.771429
_cell_length_b 14.638780
_cell_length_c 19.048495
_cell_angle_alpha 90.000000
_cell_angle_beta 22.553302
_cell_angle_gamma 90.000000
_cell_volume 2007.597575
_symmetry_space_group_name_H-M "P 2/M"
_symmetry_group_IT_number 10
_symmetry_cell_setting 'monoclinic'
loop_
_space_group_symop_operation_xyz
x,y,z
-x,y,-z
-x,-y,-z
x,-y,z
loop_
_atom_site_type_symbol
_atom_site_label
_atom_site_fract_x
_atom_site_fract_y
_atom_site_fract_z
Si Si1 0.861712 0.891453 0.825918
Si Si2 0.116353 0.203043 0.048011
Si Si3 0.602316 0.102051 0.299626
Si Si4 0.903691 0.892021 0.518257
Si Si5 0.707209 0.633359 0.298217
Si Si6 0.076128 0.400725 0.039914
Si Si7 0.503126 0.892008 0.918700
Si Si8 0.253612 0.164161 0.694045
O O1 0.913951 0.837401 0.847892
O O2 0.005795 0.857765 0.635877
O O3 0.869482 0.000000 0.832846
O O4 0.662413 0.857252 0.979657
O O5 0.954881 0.164738 0.144424
O O6 0.111410 0.313709 0.058288
O O7 0.308653 0.168045 0.839959
O O8 0.394160 0.139011 0.503302
O O9 0.721165 0.094852 0.263823
O O10 0.590935 0.000000 0.278159
O O11 0.690642 0.861340 0.709780
O O12 0.000000 0.849206 0.500000
O O13 0.927076 0.000000 0.501475
O O14 0.500000 0.591325 0.500000
O O15 0.691975 0.741257 0.319082
O O16 0.859646 0.596773 0.214376
O O17 0.780644 0.607876 0.154689
O O18 0.114606 0.500000 0.041437
O O19 0.485780 0.000000 0.942268
O O20 0.500000 0.849457 0.000000
#
# Coordination Sequence:
#
# PCOD8056927 Si02
#       8
#     4   4   4   4   4   4   4   4
#     4  10  20  30  43  68  95 127 160 185 228 277
#     4  11  22  35  48  65  99 129 159 205 248 287
#     4  11  21  33  49  67  90 130 176 204 231 277
#     4   9  15  26  45  66  90 120 153 185 218 265
#     4  10  16  31  53  73  93 111 147 204 259 298
#     4  10  21  33  49  72  92 117 156 202 255 307
#     4   9  15  26  45  66  91 122 154 187 219 261
#     4  10  19  33  49  67  91 125 165 207 242 278
#
# _framework density 15.939448000000001
#
# number of rings (size 3 to 8) (size 9 to 14) (size 15 to 20)
#    0.000    2.000    3.750    2.250    0.000    4.500 
#    0.000    1.250    0.000    0.000    0.000    0.000 
#    0.000    1.000    0.000    0.000    0.000    0.250 
#
# Total GULP energy -396590.308484 kJ/mol
# GULP energy per Si atom -12393.447140 kJ/mol
# Density = 1.590317 g / cm^3
# Si number density = 15.939448 Si / 1000 Ang^3
#
#
#
# Elastic Constant Matrix: (Units=GPa)
#
#
# Indices 1 2 3 4 5 6 
#
# 1 45.0003 18.4084 18.4777 0.0000 12.6316 0.0000
# 2 18.4084 86.5897 20.9809 0.0000 5.4681 0.0000
# 3 18.4777 20.9809 106.2879 0.0000 6.4219 0.0000
# 4 0.0000 0.0000 0.0000 17.6320 0.0000 8.9859
# 5 12.6316 5.4681 6.4219 0.0000 23.4078 0.0000
# 6 0.0000 0.0000 0.0000 8.9859 0.0000 10.0273
#
#
#
# Elastic Compliance Matrix: (Units=1/GPa)
#
#
# Indices 1 2 3 4 5 6 
#
# 1 0.029355 -0.004550 -0.003368 0.000000 -0.013854 0.000000
# 2 -0.004550 0.012948 -0.001760 0.000000 -0.000087 0.000000
# 3 -0.003368 -0.001760 0.010379 0.000000 -0.000619 0.000000
# 4 0.000000 0.000000 0.000000 0.104390 0.000000 -0.093548
# 5 -0.013854 -0.000087 -0.000619 0.000000 0.050387 0.000000
# 6 0.000000 0.000000 0.000000 -0.093548 0.000000 0.183559
#
#
# Mechanical properties :
#
#
# Convention : Reuss Voigt Hill
#
# Bulk Modulus (GPa) = 30.00606 39.29022 34.64814
# Shear Modulus (GPa) = 11.86293 22.21415 17.03854
#
# Velocity S-wave (km/s) = 2.73105 3.73722 3.27303
# Velocity P-wave (km/s) = 5.36757 6.58222 6.00568
#
# Compressibility (1/GPa) = 0.03332660
#
# Stress axis : x y z
#
# Youngs Moduli (GPa) = 34.06562 77.23310 96.35141
#
# Poissons Ratio (x) = 0.35139 0.32452
# Poissons Ratio (y) = 0.15499 0.16955
# Poissons Ratio (z) = 0.11474 0.13591
#
# Static dielectric constant tensor:
#      x y z
#    x 2.793140 0.000000 -0.052830 
#    y 0.000000 2.866380 0.000000 
#    z -0.052830 0.000000 3.287520 
# 
# 
# High freq. dielectric constant tensor:
#      x y z
#    x 1.577560 0.000000 -0.003850 
#    y 0.000000 1.573690 0.000000 
#    z -0.003850 0.000000 1.633860 
# 
# From -- ./inp_files/86334.got.cif
#   From: 2010.06.25/outbox.cif.g09.slc.cpg/sg10_44_cif.got.tgz:86334.got - 2010.06.27 22:07:45.
