data_PCOD8056109
_publ_section_title
;
Structure prediction by ZEFSAII (Michael W. Deem and Ramdas Pophale) SiO2 
 PCOD8056109
Probable space group: C C
;
_chemical_formula_sum "Si O2"
_cell_formula_units_Z 28
_cell_length_a 12.649930
_cell_length_b 6.705090
_cell_length_c 15.944287
_cell_angle_alpha 90.000000
_cell_angle_beta 116.287372
_cell_angle_gamma 90.000000
_cell_volume 1212.519834
_symmetry_space_group_name_H-M "C C"
_symmetry_group_IT_number 9
_symmetry_cell_setting 'monoclinic'
loop_
_space_group_symop_operation_xyz
x,y,z
x,-y,1/2+z
1/2+x,1/2+y,z
1/2+x,1/2-y,1/2+z
loop_
_atom_site_type_symbol
_atom_site_label
_atom_site_fract_x
_atom_site_fract_y
_atom_site_fract_z
Si Si1 0.103210 0.757655 0.526110
Si Si2 0.204951 0.438677 0.680494
Si Si3 0.541333 0.438614 0.147650
Si Si4 0.896711 0.636414 0.753855
Si Si5 0.643080 0.242485 0.802097
Si Si6 0.873194 0.426180 0.914131
Si Si7 0.849625 0.636007 0.074501
O O1 0.164621 0.561796 0.585892
O O2 0.208695 0.853192 0.508639
O O3 0.989439 0.701132 0.430381
O O4 0.050724 0.913281 0.573255
O O5 0.123276 0.249775 0.663880
O O6 0.338329 0.353819 0.717677
O O7 0.195052 0.586260 0.754835
O O8 0.581952 0.561444 0.242369
O O9 0.408073 0.353359 0.110723
O O10 0.839058 0.549256 0.818611
O O11 0.873204 0.500217 0.664178
O O12 0.037616 0.647422 0.819732
O O13 0.757010 0.298627 0.897779
O O14 0.907284 0.548958 0.009725
#
# Coordination Sequence:
#
# PCOD8056109 Si02
#       7
#     4   4   4   4   4   4   4
#     4  11  25  44  71 105 143 186 234 299 359 414
#     4  11  21  46  76 101 137 185 243 289 347 434
#     4  11  21  46  76 101 137 185 243 289 347 434
#     4  12  25  46  76 100 141 193 236 290 362 419
#     4  11  25  44  71 105 143 186 234 299 359 414
#     4  12  28  44  66 114 142 178 246 286 350 438
#     4  12  25  46  76 100 141 193 236 290 362 419
#
# _framework density 23.092406
#
# number of rings (size 3 to 8) (size 9 to 14) (size 15 to 20)
#    0.000    0.571    5.714    2.571    0.000    8.000 
#    0.000    0.000    0.000    0.000    0.000    0.000 
#    0.000    0.000    0.000    0.000    0.000    0.000 
#
# Total GULP energy -173535.070249 kJ/mol
# GULP energy per Si atom -12395.362161 kJ/mol
# Density = 2.303985 g / cm^3
# Si number density = 23.092406 Si / 1000 Ang^3
#
#
#
# Elastic Constant Matrix: (Units=GPa)
#
#
# Indices 1 2 3 4 5 6 
#
# 1 144.3037 33.5207 39.2737 0.0000 36.5726 0.0000
# 2 33.5207 106.0079 36.8221 0.0000 10.7849 0.0000
# 3 39.2737 36.8221 87.1665 0.0000 3.5079 0.0000
# 4 0.0000 0.0000 0.0000 21.0745 0.0000 16.6661
# 5 36.5726 10.7849 3.5079 0.0000 48.4214 0.0000
# 6 0.0000 0.0000 0.0000 16.6661 0.0000 47.9580
#
#
#
# Elastic Compliance Matrix: (Units=1/GPa)
#
#
# Indices 1 2 3 4 5 6 
#
# 1 0.009992 -0.001148 -0.003735 0.000000 -0.007021 0.000000
# 2 -0.001148 0.011411 -0.004248 0.000000 -0.001367 0.000000
# 3 -0.003735 -0.004248 0.014841 0.000000 0.002692 0.000000
# 4 0.000000 0.000000 0.000000 0.065433 0.000000 -0.022739
# 5 -0.007021 -0.001367 0.002692 0.000000 0.026064 0.000000
# 6 0.000000 0.000000 0.000000 -0.022739 0.000000 0.028754
#
#
# Mechanical properties :
#
#
# Convention : Reuss Voigt Hill
#
# Bulk Modulus (GPa) = 55.60865 61.85680 58.73272
# Shear Modulus (GPa) = 27.66236 38.68155 33.17196
#
# Velocity S-wave (km/s) = 3.46482 4.09721 3.79421
# Velocity P-wave (km/s) = 6.33560 7.01624 6.68459
#
# Compressibility (1/GPa) = 0.01798281
#
# Stress axis : x y z
#
# Youngs Moduli (GPa) = 100.07665 87.63526 67.38021
#
# Poissons Ratio (x) = 0.10062 0.25164
# Poissons Ratio (y) = 0.11491 0.28623
# Poissons Ratio (z) = 0.37374 0.37228
#
# Static dielectric constant tensor:
#      x y z
#    x 5.536840 0.000000 0.242400 
#    y 0.000000 4.972590 0.000000 
#    z 0.242400 0.000000 3.810300 
# 
# 
# High freq. dielectric constant tensor:
#      x y z
#    x 1.936580 0.000000 0.019740 
#    y 0.000000 1.919420 0.000000 
#    z 0.019740 0.000000 1.888310 
# 
# From -- ./inp_files/30488.got.cif
#   From: 2010.06.25/outbox.cif.g09.slc.cpg/sg9_16_cif.got.tgz:30488.got - 2010.06.27 21:40:51.
