data_PCOD8056070
_publ_section_title
;
Structure prediction by ZEFSAII (Michael W. Deem and Ramdas Pophale) SiO2 
 PCOD8056070
Probable space group: C C
;
_chemical_formula_sum "Si O2"
_cell_formula_units_Z 32
_cell_length_a 14.290534
_cell_length_b 21.268325
_cell_length_c 8.463799
_cell_angle_alpha 90.000000
_cell_angle_beta 144.723586
_cell_angle_gamma 90.000000
_cell_volume 1485.645959
_symmetry_space_group_name_H-M "C C"
_symmetry_group_IT_number 9
_symmetry_cell_setting 'monoclinic'
loop_
_space_group_symop_operation_xyz
x,y,z
x,-y,1/2+z
1/2+x,1/2+y,z
1/2+x,1/2-y,1/2+z
loop_
_atom_site_type_symbol
_atom_site_label
_atom_site_fract_x
_atom_site_fract_y
_atom_site_fract_z
Si Si1 0.531610 0.916593 0.509350
Si Si2 0.658662 0.401381 0.312041
Si Si3 0.425280 0.122579 0.405478
Si Si4 0.353752 0.445229 0.067507
Si Si5 0.368870 0.802063 0.136687
Si Si6 0.038409 0.825883 0.841482
Si Si7 0.793206 0.919288 0.348038
Si Si8 0.376307 0.004007 0.524226
O O1 0.454939 0.849306 0.375963
O O2 0.477153 0.967974 0.307103
O O3 0.480345 0.944685 0.607210
O O4 0.724323 0.909270 0.777292
O O5 0.518871 0.410884 0.247886
O O6 0.703941 0.473864 0.331895
O O7 0.604691 0.364436 0.081922
O O8 0.812757 0.362842 0.598124
O O9 0.405101 0.178001 0.505576
O O10 0.613092 0.108745 0.628166
O O11 0.342267 0.058323 0.352309
O O12 0.321573 0.434472 0.205912
O O13 0.332124 0.519614 0.007015
O O14 0.440612 0.733945 0.270745
O O15 0.179513 0.803279 0.917222
O O16 0.918623 0.866514 0.571591
#
# Coordination Sequence:
#
# PCOD8056070 Si02
#       8
#     4   4   4   4   4   4   4   4
#     4  11  22  42  70 103 141 183 226 291 351 435
#     4  12  26  42  72 108 145 180 245 293 362 421
#     4  11  25  46  72 101 146 189 236 294 362 429
#     4  12  26  40  70 113 149 179 238 291 370 423
#     4  11  27  48  75  97 144 191 247 282 367 417
#     4  12  28  50  73 104 141 196 242 301 350 430
#     4  12  27  45  72 105 151 190 236 298 359 432
#     4  11  21  39  68 103 137 182 222 284 365 415
#
# _framework density 21.539451
#
# number of rings (size 3 to 8) (size 9 to 14) (size 15 to 20)
#    0.000    0.500    3.750    3.750   14.000    0.000 
#    2.250    1.250    0.000    0.000    0.000    0.000 
#    0.000    0.000    0.000    0.000    0.000    0.000 
#
# Total GULP energy -198372.616978 kJ/mol
# GULP energy per Si atom -12398.288561 kJ/mol
# Density = 2.149043 g / cm^3
# Si number density = 21.539451 Si / 1000 Ang^3
#
#
#
# Elastic Constant Matrix: (Units=GPa)
#
#
# Indices 1 2 3 4 5 6 
#
# 1 134.4397 43.3005 63.2338 0.0000 7.7377 0.0000
# 2 43.3005 96.8690 76.0778 0.0000 -6.9459 0.0000
# 3 63.2338 76.0778 145.2359 0.0000 10.4556 0.0000
# 4 0.0000 0.0000 0.0000 25.9273 0.0000 8.8398
# 5 7.7377 -6.9459 10.4556 0.0000 31.4537 0.0000
# 6 0.0000 0.0000 0.0000 8.8398 0.0000 29.3289
#
#
#
# Elastic Compliance Matrix: (Units=1/GPa)
#
#
# Indices 1 2 3 4 5 6 
#
# 1 0.009611 -0.002120 -0.002941 0.000000 -0.001855 0.000000
# 2 -0.002120 0.019702 -0.009987 0.000000 0.008192 0.000000
# 3 -0.002941 -0.009987 0.013835 0.000000 -0.006081 0.000000
# 4 0.000000 0.000000 0.000000 0.042987 0.000000 -0.012956
# 5 -0.001855 0.008192 -0.006081 0.000000 0.036079 0.000000
# 6 0.000000 0.000000 0.000000 -0.012956 0.000000 0.038001
#
#
# Mechanical properties :
#
#
# Convention : Reuss Voigt Hill
#
# Bulk Modulus (GPa) = 76.61188 82.41874 79.51531
# Shear Modulus (GPa) = 25.68584 30.27082 27.97833
#
# Velocity S-wave (km/s) = 3.45701 3.75289 3.60798
# Velocity P-wave (km/s) = 7.18192 7.55818 7.37245
#
# Compressibility (1/GPa) = 0.01305281
#
# Stress axis : x y z
#
# Youngs Moduli (GPa) = 104.04917 50.75748 72.28136
#
# Poissons Ratio (x) = 0.10759 0.21255
# Poissons Ratio (y) = 0.22054 0.72187
# Poissons Ratio (z) = 0.30597 0.50691
#
# Static dielectric constant tensor:
#      x y z
#    x 4.243440 0.000000 0.045810 
#    y 0.000000 3.898200 0.000000 
#    z 0.045810 0.000000 4.161770 
# 
# 
# High freq. dielectric constant tensor:
#      x y z
#    x 1.862220 0.000000 0.003230 
#    y 0.000000 1.825690 0.000000 
#    z 0.003230 0.000000 1.863830 
# 
# From -- ./inp_files/10103.got.cif
#   From: 2010.06.25/outbox.cif.g09.slc.cpg/sg9_6_cif.got.tgz:10103.got - 2010.06.27 21:40:51.
