data_PCOD8056430
_publ_section_title
;
Structure prediction by ZEFSAII (Michael W. Deem and Ramdas Pophale) SiO2 
 PCOD8056430
Probable space group: C C
;
_chemical_formula_sum "Si O2"
_cell_formula_units_Z 32
_cell_length_a 8.248672
_cell_length_b 21.186537
_cell_length_c 11.378080
_cell_angle_alpha 90.000000
_cell_angle_beta 138.692999
_cell_angle_gamma 90.000000
_cell_volume 1312.557759
_symmetry_space_group_name_H-M "C C"
_symmetry_group_IT_number 9
_symmetry_cell_setting 'monoclinic'
loop_
_space_group_symop_operation_xyz
x,y,z
x,-y,1/2+z
1/2+x,1/2+y,z
1/2+x,1/2-y,1/2+z
loop_
_atom_site_type_symbol
_atom_site_label
_atom_site_fract_x
_atom_site_fract_y
_atom_site_fract_z
Si Si1 0.051120 0.923078 0.909060
Si Si2 0.761701 0.340821 0.630176
Si Si3 0.217846 0.258760 0.925277
Si Si4 0.003712 0.812522 0.721342
Si Si5 0.483468 0.200976 0.868239
Si Si6 0.833182 0.517562 0.204239
Si Si7 0.017123 0.868990 0.128859
Si Si8 0.864746 0.006303 0.613105
O O1 0.140900 0.863234 0.879831
O O2 0.906269 0.897229 0.945409
O O3 0.861749 0.966498 0.731809
O O4 0.286236 0.965730 0.076117
O O5 0.679892 0.310690 0.460696
O O6 0.554391 0.328312 0.613620
O O7 0.839838 0.412668 0.652163
O O8 0.982923 0.301484 0.803834
O O9 0.337320 0.254244 0.862277
O O10 0.412336 0.300497 0.109480
O O11 0.062392 0.739850 0.792943
O O12 0.711204 0.823197 0.568440
O O13 0.308366 0.139603 0.757365
O O14 0.591931 0.518524 0.156892
O O15 0.092098 0.501379 0.408235
O O16 0.939410 0.920710 0.183806
#
# Coordination Sequence:
#
# PCOD8056430 Si02
#       8
#     4   4   4   4   4   4   4   4
#     4  11  26  45  72 106 143 203 248 305 364 448
#     4  12  26  45  68 110 150 183 241 316 377 435
#     4  12  23  43  71 105 143 188 239 302 375 437
#     4  12  24  46  71 110 149 192 247 308 378 448
#     4  12  24  45  77 108 146 198 247 305 374 466
#     4  11  27  48  73 107 150 193 259 300 375 451
#     4  11  24  45  73 107 138 191 256 297 359 460
#     4  11  26  49  71 107 149 198 249 315 366 443
#
# _framework density 24.37988
#
# number of rings (size 3 to 8) (size 9 to 14) (size 15 to 20)
#    0.000    0.500    6.250    0.750    5.250    2.000 
#    0.000    0.000    0.000    0.000    0.000    0.000 
#    0.000    0.000    0.000    0.000    0.000    0.000 
#
# Total GULP energy -198252.191514 kJ/mol
# GULP energy per Si atom -12390.761970 kJ/mol
# Density = 2.432439 g / cm^3
# Si number density = 24.379880 Si / 1000 Ang^3
#
#
#
# Elastic Constant Matrix: (Units=GPa)
#
#
# Indices 1 2 3 4 5 6 
#
# 1 51.7933 23.8533 20.0076 0.0000 7.9678 0.0000
# 2 23.8533 131.0253 44.9292 0.0000 9.8277 0.0000
# 3 20.0076 44.9292 115.0568 0.0000 25.8496 0.0000
# 4 0.0000 0.0000 0.0000 50.9493 0.0000 -7.8891
# 5 7.9678 9.8277 25.8496 0.0000 33.2619 0.0000
# 6 0.0000 0.0000 0.0000 -7.8891 0.0000 35.4995
#
#
#
# Elastic Compliance Matrix: (Units=1/GPa)
#
#
# Indices 1 2 3 4 5 6 
#
# 1 0.021931 -0.003106 -0.001971 0.000000 -0.002804 0.000000
# 2 -0.003106 0.009252 -0.003181 0.000000 0.000483 0.000000
# 3 -0.001971 -0.003181 0.012066 0.000000 -0.007965 0.000000
# 4 0.000000 0.000000 0.000000 0.020327 0.000000 0.004517
# 5 -0.002804 0.000483 -0.007965 0.000000 0.036784 0.000000
# 6 0.000000 0.000000 0.000000 0.004517 0.000000 0.029173
#
#
# Mechanical properties :
#
#
# Convention : Reuss Voigt Hill
#
# Bulk Modulus (GPa) = 37.40786 52.82839 45.11813
# Shear Modulus (GPa) = 32.26644 37.88117 35.07380
#
# Velocity S-wave (km/s) = 3.64192 3.94609 3.79705
# Velocity P-wave (km/s) = 5.74994 6.51752 6.14573
#
# Compressibility (1/GPa) = 0.02673235
#
# Stress axis : x y z
#
# Youngs Moduli (GPa) = 45.59796 108.08111 82.87927
#
# Poissons Ratio (x) = 0.33575 0.16331
# Poissons Ratio (y) = 0.14165 0.26366
# Poissons Ratio (z) = 0.08985 0.34383
#
# Static dielectric constant tensor:
#      x y z
#    x 4.144740 0.000000 0.048930 
#    y 0.000000 4.784030 0.000000 
#    z 0.048930 0.000000 4.493540 
# 
# 
# High freq. dielectric constant tensor:
#      x y z
#    x 1.940180 0.000000 0.002690 
#    y 0.000000 1.990070 0.000000 
#    z 0.002690 0.000000 1.973600 
# 
# From -- ./inp_files/15647.got.cif
#   From: 2010.06.25/outbox.cif.g09.slc.cpg/sg9_8_cif.got.tgz:15647.got - 2010.06.27 21:40:51.
