data_PCOD8056269
_publ_section_title
;
Structure prediction by ZEFSAII (Michael W. Deem and Ramdas Pophale) SiO2 
 PCOD8056269
Probable space group: C C
;
_chemical_formula_sum "Si O2"
_cell_formula_units_Z 32
_cell_length_a 10.223213
_cell_length_b 11.231892
_cell_length_c 21.228038
_cell_angle_alpha 90.000000
_cell_angle_beta 144.137962
_cell_angle_gamma 90.000000
_cell_volume 1427.992375
_symmetry_space_group_name_H-M "C C"
_symmetry_group_IT_number 9
_symmetry_cell_setting 'monoclinic'
loop_
_space_group_symop_operation_xyz
x,y,z
x,-y,1/2+z
1/2+x,1/2+y,z
1/2+x,1/2-y,1/2+z
loop_
_atom_site_type_symbol
_atom_site_label
_atom_site_fract_x
_atom_site_fract_y
_atom_site_fract_z
Si Si1 0.935660 0.745311 0.486780
Si Si2 0.654951 0.748255 0.251272
Si Si3 0.342299 0.698119 0.563837
Si Si4 0.511233 0.450609 0.607895
Si Si5 0.697403 0.817994 0.773655
Si Si6 0.162769 0.061081 0.444886
Si Si7 0.867055 0.528449 0.653258
Si Si8 0.087421 0.181744 0.854055
O O1 0.771974 0.738054 0.363925
O O2 0.883156 0.634107 0.511548
O O3 0.192261 0.738687 0.564879
O O4 0.898086 0.866102 0.511294
O O5 0.567153 0.620462 0.193667
O O6 0.446667 0.836188 0.177143
O O7 0.826876 0.792476 0.264851
O O8 0.342611 0.554960 0.561541
O O9 0.586902 0.757479 0.668691
O O10 0.244705 0.741721 0.460421
O O11 0.729529 0.513197 0.663659
O O12 0.658473 0.719314 0.812230
O O13 0.957644 0.845470 0.865883
O O14 0.580762 0.943692 0.742168
O O15 0.207943 0.999935 0.530613
O O16 0.122117 0.958722 0.377679
#
# Coordination Sequence:
#
# PCOD8056269 Si02
#       8
#     4   4   4   4   4   4   4   4
#     4  11  26  47  68 103 148 186 233 302 358 426
#     4  11  24  43  71 102 136 190 238 282 370 418
#     4  11  26  46  70 104 143 188 238 292 366 424
#     4  12  25  47  72 101 145 186 235 295 351 430
#     4  12  25  44  73 105 140 187 240 293 357 422
#     4  12  26  45  71 108 143 186 247 295 351 433
#     4  12  23  46  74 100 140 192 235 294 356 423
#     4  11  23  44  71 101 137 187 236 295 353 426
#
# _framework density 22.409084
#
# number of rings (size 3 to 8) (size 9 to 14) (size 15 to 20)
#    0.000    0.500    6.250    1.500    5.250    1.000 
#    2.250    0.000    0.000    0.000    0.000    0.000 
#    0.000    0.000    0.000    0.000    0.000    0.000 
#
# Total GULP energy -198486.671880 kJ/mol
# GULP energy per Si atom -12405.416993 kJ/mol
# Density = 2.235808 g / cm^3
# Si number density = 22.409084 Si / 1000 Ang^3
#
#
#
# Elastic Constant Matrix: (Units=GPa)
#
#
# Indices 1 2 3 4 5 6 
#
# 1 42.9872 30.5529 25.8328 0.0000 -3.1538 0.0000
# 2 30.5529 123.8475 23.9325 0.0000 1.4253 0.0000
# 3 25.8328 23.9325 82.0669 0.0000 -6.1754 0.0000
# 4 0.0000 0.0000 0.0000 42.6845 0.0000 1.5665
# 5 -3.1538 1.4253 -6.1754 0.0000 22.3621 0.0000
# 6 0.0000 0.0000 0.0000 1.5665 0.0000 44.6055
#
#
#
# Elastic Compliance Matrix: (Units=1/GPa)
#
#
# Indices 1 2 3 4 5 6 
#
# 1 0.033151 -0.006607 -0.008297 0.000000 0.002805 0.000000
# 2 -0.006607 0.009908 -0.000947 0.000000 -0.001825 0.000000
# 3 -0.008297 -0.000947 0.015308 0.000000 0.003117 0.000000
# 4 0.000000 0.000000 0.000000 0.023458 0.000000 -0.000824
# 5 0.002805 -0.001825 0.003117 0.000000 0.046091 0.000000
# 6 0.000000 0.000000 0.000000 -0.000824 0.000000 0.022448
#
#
# Mechanical properties :
#
#
# Convention : Reuss Voigt Hill
#
# Bulk Modulus (GPa) = 37.50373 45.50423 41.50398
# Shear Modulus (GPa) = 26.18424 33.16933 29.67679
#
# Velocity S-wave (km/s) = 3.42199 3.85148 3.64307
# Velocity P-wave (km/s) = 5.69084 6.33472 6.02139
#
# Compressibility (1/GPa) = 0.02666402
#
# Stress axis : x y z
#
# Youngs Moduli (GPa) = 30.16529 100.92424 65.32642
#
# Poissons Ratio (x) = 0.66682 0.54203
# Poissons Ratio (y) = 0.19931 0.06187
# Poissons Ratio (z) = 0.25029 0.09558
#
# Static dielectric constant tensor:
#      x y z
#    x 3.960280 0.000000 -0.035540 
#    y 0.000000 4.040320 0.000000 
#    z -0.035540 0.000000 4.044530 
# 
# 
# High freq. dielectric constant tensor:
#      x y z
#    x 1.872250 0.000000 -0.007260 
#    y 0.000000 1.893260 0.000000 
#    z -0.007260 0.000000 1.889450 
# 
# From -- ./inp_files/16476.got.cif
#   From: 2010.06.25/outbox.cif.g09.slc.cpg/sg9_9_cif.got.tgz:16476.got - 2010.06.27 21:40:51.
