data_PCOD8056293
_publ_section_title
;
Structure prediction by ZEFSAII (Michael W. Deem and Ramdas Pophale) SiO2 
 PCOD8056293
Probable space group: C C
;
_chemical_formula_sum "Si O2"
_cell_formula_units_Z 28
_cell_length_a 10.784461
_cell_length_b 11.671781
_cell_length_c 21.279139
_cell_angle_alpha 90.000000
_cell_angle_beta 151.800942
_cell_angle_gamma 90.000000
_cell_volume 1265.682512
_symmetry_space_group_name_H-M "C C"
_symmetry_group_IT_number 9
_symmetry_cell_setting 'monoclinic'
loop_
_space_group_symop_operation_xyz
x,y,z
x,-y,1/2+z
1/2+x,1/2+y,z
1/2+x,1/2-y,1/2+z
loop_
_atom_site_type_symbol
_atom_site_label
_atom_site_fract_x
_atom_site_fract_y
_atom_site_fract_z
Si Si1 0.157620 0.016506 0.222980
Si Si2 0.180775 0.211728 0.944136
Si Si3 0.186025 0.381869 0.725218
Si Si4 0.808099 0.309707 0.370763
Si Si5 0.237631 0.534881 0.438442
Si Si6 0.881405 0.189077 0.181144
Si Si7 0.226683 0.607384 0.810659
O O1 0.423369 0.041631 0.304086
O O2 0.112050 0.108165 0.257643
O O3 0.195420 0.889484 0.266041
O O4 0.900588 0.029983 0.064880
O O5 0.130055 0.158971 0.852235
O O6 0.316713 0.332238 0.983215
O O7 0.925627 0.206468 0.874424
O O8 0.385061 0.141405 0.076367
O O9 0.273073 0.319277 0.828809
O O10 0.366989 0.340910 0.748445
O O11 0.197010 0.518668 0.740063
O O12 0.110644 0.333283 0.523602
O O13 0.319459 0.468136 0.411702
O O14 0.962770 0.322996 0.210131
#
# Coordination Sequence:
#
# PCOD8056293 Si02
#       7
#     4   4   4   4   4   4   4
#     4  12  24  48  70 107 143 193 239 299 361 435
#     4  11  25  45  67 105 138 190 242 291 366 429
#     4  11  25  43  71 100 143 186 235 304 355 428
#     4  11  23  45  71  98 148 186 235 302 359 428
#     4  12  26  44  75 102 147 189 244 296 361 430
#     4  11  26  45  68 108 145 187 242 295 369 427
#     4  12  27  46  72 106 142 187 245 299 359 435
#
# _framework density 22.122451000000002
#
# number of rings (size 3 to 8) (size 9 to 14) (size 15 to 20)
#    0.000    0.571    5.714    1.714    6.000    0.000 
#    0.000    0.000    0.000    0.000    0.000    0.000 
#    0.000    0.000    0.000    0.000    0.000    0.000 
#
# Total GULP energy -173498.241593 kJ/mol
# GULP energy per Si atom -12392.731542 kJ/mol
# Density = 2.207210 g / cm^3
# Si number density = 22.122451 Si / 1000 Ang^3
#
#
#
# Elastic Constant Matrix: (Units=GPa)
#
#
# Indices 1 2 3 4 5 6 
#
# 1 134.4421 41.5908 46.9366 0.0009 -4.1849 -0.0001
# 2 41.5908 101.2895 24.7384 0.0012 -6.2778 -0.0003
# 3 46.9366 24.7384 89.7224 0.0056 -12.4126 0.0004
# 4 0.0009 0.0012 0.0056 27.0230 0.0015 -1.1733
# 5 -4.1849 -6.2778 -12.4126 0.0015 24.4881 0.0000
# 6 -0.0001 -0.0003 0.0004 -1.1733 0.0000 47.0992
#
#
#
# Elastic Compliance Matrix: (Units=1/GPa)
#
#
# Indices 1 2 3 4 5 6 
#
# 1 0.009925 -0.003052 -0.004543 0.000001 -0.001389 0.000000
# 2 -0.003052 0.011564 -0.001349 0.000000 0.001760 0.000000
# 3 -0.004543 -0.001349 0.014775 -0.000003 0.006367 0.000000
# 4 0.000001 0.000000 -0.000003 0.037046 -0.000004 0.000923
# 5 -0.001389 0.001760 0.006367 -0.000004 0.044277 0.000000
# 6 0.000000 0.000000 0.000000 0.000923 0.000000 0.021255
#
#
# Mechanical properties :
#
#
# Convention : Reuss Voigt Hill
#
# Bulk Modulus (GPa) = 54.41457 61.33175 57.87316
# Shear Modulus (GPa) = 30.70241 33.86793 32.28517
#
# Velocity S-wave (km/s) = 3.72941 3.91696 3.82433
# Velocity P-wave (km/s) = 6.57230 6.94555 6.76150
#
# Compressibility (1/GPa) = 0.01837743
#
# Stress axis : x y z
#
# Youngs Moduli (GPa) = 100.75545 86.47330 67.68378
#
# Poissons Ratio (x) = 0.26391 0.30747
# Poissons Ratio (y) = 0.30750 0.09127
# Poissons Ratio (z) = 0.45771 0.11661
#
# Static dielectric constant tensor:
#      x y z
#    x 4.025190 0.000000 -0.099800 
#    y 0.000000 4.048850 0.000000 
#    z -0.099800 0.000000 3.789180 
# 
# 
# High freq. dielectric constant tensor:
#      x y z
#    x 1.881730 0.000000 -0.007200 
#    y 0.000000 1.878430 0.000000 
#    z -0.007200 0.000000 1.859860 
# 
# From -- ./inp_files/16019.got.cif
#   From: 2010.06.25/outbox.cif.g09.slc.cpg/sg9_9_cif.got.tgz:16019.got - 2010.06.27 21:40:51.
