data_PCOD8056583
_publ_section_title
;
Structure prediction by ZEFSAII (Michael W. Deem and Ramdas Pophale) SiO2 
 PCOD8056583
Probable space group: C C
;
_chemical_formula_sum "Si O2"
_cell_formula_units_Z 32
_cell_length_a 9.442664
_cell_length_b 27.280464
_cell_length_c 9.760421
_cell_angle_alpha 90.000000
_cell_angle_beta 31.920292
_cell_angle_gamma 90.000000
_cell_volume 1329.401501
_symmetry_space_group_name_H-M "C C"
_symmetry_group_IT_number 9
_symmetry_cell_setting 'monoclinic'
loop_
_space_group_symop_operation_xyz
x,y,z
x,-y,1/2+z
1/2+x,1/2+y,z
1/2+x,1/2-y,1/2+z
loop_
_atom_site_type_symbol
_atom_site_label
_atom_site_fract_x
_atom_site_fract_y
_atom_site_fract_z
Si Si1 0.547070 0.853474 0.425970
Si Si2 0.356730 0.917860 0.800781
Si Si3 0.659872 0.990524 0.970226
Si Si4 0.435487 0.895031 0.032569
Si Si5 0.970399 0.164625 0.021460
Si Si6 0.843519 0.058709 0.578585
Si Si7 0.331097 0.718423 0.860385
Si Si8 0.659696 0.720034 0.119774
O O1 0.548098 0.877057 0.577904
O O2 0.624822 0.897202 0.256274
O O3 0.775180 0.812350 0.266398
O O4 0.268315 0.829365 0.603930
O O5 0.280894 0.901116 0.014999
O O6 0.482804 0.971880 0.703646
O O7 0.120236 0.915655 0.884805
O O8 0.862655 0.966387 0.913963
O O9 0.476010 0.948982 0.057463
O O10 0.808769 0.018240 0.725975
O O11 0.714221 0.866029 0.784590
O O12 0.235036 0.869042 0.301527
O O13 0.038474 0.208009 0.070439
O O14 0.937180 0.186471 0.898766
O O15 0.552581 0.757785 0.637868
O O16 0.911022 0.757258 0.906870
#
# Coordination Sequence:
#
# PCOD8056583 Si02
#       8
#     4   4   4   4   4   4   4   4
#     4  11  26  45  67 107 138 194 241 300 370 430
#     4  11  26  44  71 103 150 190 249 302 357 444
#     4  11  26  45  68 112 142 205 238 304 364 432
#     4  12  26  47  76 106 152 190 242 301 362 441
#     4  12  26  47  74 108 143 189 242 299 372 432
#     4  11  26  44  74  99 156 189 254 299 365 440
#     4  12  25  44  73 103 140 184 242 302 366 436
#     4  12  27  48  75 104 147 187 242 303 368 445
#
# _framework density 24.070982000000001
#
# number of rings (size 3 to 8) (size 9 to 14) (size 15 to 20)
#    0.000    0.500    2.500    4.500   10.500    0.000 
#    0.000    0.000    0.000    0.000    0.000    0.000 
#    0.000    0.000    0.000    0.000    0.000    0.000 
#
# Total GULP energy -198377.370961 kJ/mol
# GULP energy per Si atom -12398.585685 kJ/mol
# Density = 2.401620 g / cm^3
# Si number density = 24.070982 Si / 1000 Ang^3
#
#
#
# Elastic Constant Matrix: (Units=GPa)
#
#
# Indices 1 2 3 4 5 6 
#
# 1 109.3597 33.7572 17.3946 0.0000 -3.0688 0.0000
# 2 33.7572 104.6195 24.4643 0.0000 -4.3712 0.0000
# 3 17.3946 24.4643 73.9338 0.0000 -14.9688 0.0000
# 4 0.0000 0.0000 0.0000 14.1906 0.0000 -2.9144
# 5 -3.0688 -4.3712 -14.9688 0.0000 33.7684 0.0000
# 6 0.0000 0.0000 0.0000 -2.9144 0.0000 50.0894
#
#
#
# Elastic Compliance Matrix: (Units=1/GPa)
#
#
# Indices 1 2 3 4 5 6 
#
# 1 0.010294 -0.002986 -0.001453 0.000000 -0.000095 0.000000
# 2 -0.002986 0.011227 -0.003047 0.000000 -0.000169 0.000000
# 3 -0.001453 -0.003047 0.016225 0.000000 0.006666 0.000000
# 4 0.000000 0.000000 0.000000 0.071321 0.000000 0.004150
# 5 -0.000095 -0.000169 0.006666 0.000000 0.032538 0.000000
# 6 0.000000 0.000000 0.000000 0.004150 0.000000 0.020206
#
#
# Mechanical properties :
#
#
# Convention : Reuss Voigt Hill
#
# Bulk Modulus (GPa) = 43.90715 48.79390 46.35052
# Shear Modulus (GPa) = 27.11866 33.76281 30.44074
#
# Velocity S-wave (km/s) = 3.36015 3.74924 3.56001
# Velocity P-wave (km/s) = 5.77360 6.24958 6.01630
#
# Compressibility (1/GPa) = 0.02277533
#
# Stress axis : x y z
#
# Youngs Moduli (GPa) = 97.14147 89.06899 61.63239
#
# Poissons Ratio (x) = 0.26594 0.08957
# Poissons Ratio (y) = 0.29004 0.18777
# Poissons Ratio (z) = 0.14117 0.27137
#
# Static dielectric constant tensor:
#      x y z
#    x 4.353130 0.000000 0.005570 
#    y 0.000000 4.522640 0.000000 
#    z 0.005570 0.000000 4.189410 
# 
# 
# High freq. dielectric constant tensor:
#      x y z
#    x 1.968560 0.000000 0.003400 
#    y 0.000000 1.975780 0.000000 
#    z 0.003400 0.000000 1.943200 
# 
# From -- ./inp_files/6439.got.cif
#   From: 2010.06.25/outbox.cif.g09.slc.cpg/sg9_4_cif.got.tgz:6439.got - 2010.06.27 21:40:51.
