data_PCOD8056801
_publ_section_title
;
Structure prediction by ZEFSAII (Michael W. Deem and Ramdas Pophale) SiO2 
 PCOD8056801
Probable space group: P 2/M
;
_chemical_formula_sum "Si O2"
_cell_formula_units_Z 32
_cell_length_a 12.287431
_cell_length_b 22.436003
_cell_length_c 8.194721
_cell_angle_alpha 90.000000
_cell_angle_beta 52.262011
_cell_angle_gamma 90.000000
_cell_volume 1786.558504
_symmetry_space_group_name_H-M "P 2/M"
_symmetry_group_IT_number 10
_symmetry_cell_setting 'monoclinic'
loop_
_space_group_symop_operation_xyz
x,y,z
-x,y,-z
-x,-y,-z
x,-y,z
loop_
_atom_site_type_symbol
_atom_site_label
_atom_site_fract_x
_atom_site_fract_y
_atom_site_fract_z
Si Si1 0.664065 0.376953 0.695446
Si Si2 0.545613 0.844225 0.633873
Si Si3 0.646509 0.245785 0.788013
Si Si4 0.960822 0.067911 0.849513
Si Si5 0.252486 0.068511 0.436189
Si Si6 0.634384 0.569744 0.044289
Si Si7 0.722375 0.137986 0.912382
Si Si8 0.336153 0.566740 0.632988
O O1 0.712440 0.309336 0.685087
O O2 0.500371 0.388300 0.835217
O O3 0.725449 0.394505 0.460688
O O4 0.720757 0.415321 0.799693
O O5 0.500000 0.821937 0.500000
O O6 0.626919 0.789364 0.637844
O O7 0.652569 0.898815 0.516973
O O8 0.417718 0.865787 0.858692
O O9 0.740384 0.205641 0.825163
O O10 0.500000 0.258901 0.000000
O O11 0.848729 0.117872 0.908824
O O12 0.091951 0.080149 0.615668
O O13 0.906391 0.000000 0.870724
O O14 0.000000 0.077028 0.000000
O O15 0.292200 0.091974 0.221984
O O16 0.289316 0.000000 0.416243
O O17 0.590518 0.500000 0.086794
O O18 0.719989 0.584608 0.133111
O O19 0.500000 0.572155 0.500000
O O20 0.291471 0.500000 0.630839
#
# Coordination Sequence:
#
# PCOD8056801 Si02
#       8
#     4   4   4   4   4   4   4   4
#     4  10  14  23  37  50  76 113 154 200 229 272
#     4  10  21  34  48  68  98 129 160 202 239 288
#     4   9  18  31  41  59  84 121 166 196 226 283
#     4  10  20  34  55  80  99 117 154 203 252 302
#     4  10  20  34  53  75  96 123 157 194 243 299
#     4   9  15  21  34  55  78 109 153 201 242 278
#     4  10  20  34  50  68  98 128 159 201 238 295
#     4   8  14  21  30  51  77 103 146 197 240 279
#
# _framework density 17.911532000000001
#
# number of rings (size 3 to 8) (size 9 to 14) (size 15 to 20)
#    0.000    2.500    1.250    4.875    0.000    4.250 
#    0.000    0.000    0.000    0.000    0.000    0.000 
#    0.000    0.000    0.000    0.000    0.000   95.625 
#
# Total GULP energy -396475.185032 kJ/mol
# GULP energy per Si atom -12389.849532 kJ/mol
# Density = 1.787076 g / cm^3
# Si number density = 17.911532 Si / 1000 Ang^3
#
#
#
# Elastic Constant Matrix: (Units=GPa)
#
#
# Indices 1 2 3 4 5 6 
#
# 1 78.2768 48.9353 33.6317 0.0000 24.7967 0.0000
# 2 48.9353 117.7810 28.3121 0.0000 8.5007 0.0000
# 3 33.6317 28.3121 58.6001 0.0000 27.4106 0.0000
# 4 0.0000 0.0000 0.0000 8.0992 0.0000 9.1077
# 5 24.7967 8.5007 27.4106 0.0000 31.6992 0.0000
# 6 0.0000 0.0000 0.0000 9.1077 0.0000 19.4487
#
#
#
# Elastic Compliance Matrix: (Units=1/GPa)
#
#
# Indices 1 2 3 4 5 6 
#
# 1 0.023396 -0.007949 -0.003398 0.000000 -0.013232 0.000000
# 2 -0.007949 0.012418 -0.004682 0.000000 0.006937 0.000000
# 3 -0.003398 -0.004682 0.032654 0.000000 -0.024323 0.000000
# 4 0.000000 0.000000 0.000000 0.260819 0.000000 -0.122140
# 5 -0.013232 0.006937 -0.024323 0.000000 0.061069 0.000000
# 6 0.000000 0.000000 0.000000 -0.122140 0.000000 0.108615
#
#
# Mechanical properties :
#
#
# Convention : Reuss Voigt Hill
#
# Bulk Modulus (GPa) = 27.46468 52.93509 40.19989
# Shear Modulus (GPa) = 9.20531 21.43467 15.31999
#
# Velocity S-wave (km/s) = 2.26947 3.46308 2.92775
# Velocity P-wave (km/s) = 4.71531 6.75340 5.82420
#
# Compressibility (1/GPa) = 0.03641040
#
# Stress axis : x y z
#
# Youngs Moduli (GPa) = 42.74285 80.53023 30.62393
#
# Poissons Ratio (x) = 0.64011 0.10405
# Poissons Ratio (y) = 0.33975 0.14339
# Poissons Ratio (z) = 0.14523 0.37706
#
# Static dielectric constant tensor:
#      x y z
#    x 3.326500 0.000000 0.513080 
#    y 0.000000 3.342220 0.000000 
#    z 0.513080 0.000000 3.439050 
# 
# 
# High freq. dielectric constant tensor:
#      x y z
#    x 1.664960 0.000000 0.049360 
#    y 0.000000 1.688010 0.000000 
#    z 0.049360 0.000000 1.674430 
# 
# From -- ./inp_files/26041.got.cif
#   From: 2010.06.25/outbox.cif.g09.slc.cpg/sg10_14_cif.got.tgz:26041.got - 2010.06.27 22:07:45.
