data_PCOD8056098
_publ_section_title
;
Structure prediction by ZEFSAII (Michael W. Deem and Ramdas Pophale) SiO2 
 PCOD8056098
Probable space group: C C
;
_chemical_formula_sum "Si O2"
_cell_formula_units_Z 32
_cell_length_a 16.378936
_cell_length_b 11.598930
_cell_length_c 13.971564
_cell_angle_alpha 90.000000
_cell_angle_beta 147.687825
_cell_angle_gamma 90.000000
_cell_volume 1418.803682
_symmetry_space_group_name_H-M "C C"
_symmetry_group_IT_number 9
_symmetry_cell_setting 'monoclinic'
loop_
_space_group_symop_operation_xyz
x,y,z
x,-y,1/2+z
1/2+x,1/2+y,z
1/2+x,1/2-y,1/2+z
loop_
_atom_site_type_symbol
_atom_site_label
_atom_site_fract_x
_atom_site_fract_y
_atom_site_fract_z
Si Si1 0.358360 0.535383 0.849070
Si Si2 0.844392 0.333361 0.050618
Si Si3 0.515131 0.980508 0.078924
Si Si4 0.997629 0.892601 0.675608
Si Si5 0.370552 0.107205 0.780626
Si Si6 0.582533 0.195560 0.262927
Si Si7 0.890962 0.122724 0.668990
Si Si8 0.053856 0.814691 0.042908
O O1 0.189823 0.535593 0.724855
O O2 0.361749 0.602001 0.751913
O O3 0.467633 0.599014 0.032488
O O4 0.414196 0.403866 0.896501
O O5 0.890292 0.411805 0.187252
O O6 0.951918 0.368346 0.069003
O O7 0.880804 0.198959 0.107896
O O8 0.668363 0.347592 0.853187
O O9 0.487883 0.090523 0.121967
O O10 0.412492 0.992397 0.881060
O O11 0.977142 0.013335 0.709427
O O12 0.195756 0.140980 0.622913
O O13 0.495835 0.198517 0.938359
O O14 0.736283 0.142663 0.457412
O O15 0.490954 0.260870 0.256466
O O16 0.610517 0.291656 0.207656
#
# Coordination Sequence:
#
# PCOD8056098 Si02
#       8
#     4   4   4   4   4   4   4   4
#     4  12  25  46  71 107 150 191 248 309 373 446
#     4  12  27  46  72 102 149 193 248 302 381 450
#     4  11  25  44  73 105 147 196 245 308 373 457
#     4  12  27  48  71 105 147 197 246 313 376 450
#     4  11  23  40  71 106 134 186 247 298 363 446
#     4  11  23  45  73 108 149 194 246 304 380 446
#     4  12  27  45  78 110 148 195 250 312 378 450
#     4  11  21  44  71 105 142 188 242 310 362 445
#
# _framework density 22.554213000000001
#
# number of rings (size 3 to 8) (size 9 to 14) (size 15 to 20)
#    0.000    0.500    2.500    6.750    3.500    2.000 
#    0.000    0.000    0.000    0.000    0.000    0.000 
#    0.000    0.000    0.000    0.000    0.000    0.000 
#
# Total GULP energy -198458.888848 kJ/mol
# GULP energy per Si atom -12403.680553 kJ/mol
# Density = 2.250288 g / cm^3
# Si number density = 22.554213 Si / 1000 Ang^3
#
#
#
# Elastic Constant Matrix: (Units=GPa)
#
#
# Indices 1 2 3 4 5 6 
#
# 1 105.0287 27.8729 55.4275 0.0000 -19.8474 0.0000
# 2 27.8729 67.1539 22.1697 0.0000 -0.2852 0.0000
# 3 55.4275 22.1697 121.0486 0.0000 5.0216 0.0000
# 4 0.0000 0.0000 0.0000 34.2077 0.0000 3.6863
# 5 -19.8474 -0.2852 5.0216 0.0000 40.1838 0.0000
# 6 0.0000 0.0000 0.0000 3.6863 0.0000 37.8886
#
#
#
# Elastic Compliance Matrix: (Units=1/GPa)
#
#
# Indices 1 2 3 4 5 6 
#
# 1 0.015932 -0.004309 -0.006867 0.000000 0.008697 0.000000
# 2 -0.004309 0.017024 -0.001067 0.000000 -0.001874 0.000000
# 3 -0.006867 -0.001067 0.011803 0.000000 -0.004874 0.000000
# 4 0.000000 0.000000 0.000000 0.029543 0.000000 -0.002874
# 5 0.008697 -0.001874 -0.004874 0.000000 0.029777 0.000000
# 6 0.000000 0.000000 0.000000 -0.002874 0.000000 0.026673
#
#
# Mechanical properties :
#
#
# Convention : Reuss Voigt Hill
#
# Bulk Modulus (GPa) = 49.32569 56.01904 52.67236
# Shear Modulus (GPa) = 30.86519 34.97342 32.91930
#
# Velocity S-wave (km/s) = 3.70332 3.94209 3.82457
# Velocity P-wave (km/s) = 6.34062 6.75363 6.55038
#
# Compressibility (1/GPa) = 0.02027341
#
# Stress axis : x y z
#
# Youngs Moduli (GPa) = 62.76703 58.74086 84.72399
#
# Poissons Ratio (x) = 0.25311 0.58178
# Poissons Ratio (y) = 0.27045 0.09041
# Poissons Ratio (z) = 0.43101 0.06268
#
# Static dielectric constant tensor:
#      x y z
#    x 4.165790 0.000000 -0.241310 
#    y 0.000000 4.109030 0.000000 
#    z -0.241310 0.000000 4.201950 
# 
# 
# High freq. dielectric constant tensor:
#      x y z
#    x 1.892400 0.000000 -0.004680 
#    y 0.000000 1.881950 0.000000 
#    z -0.004680 0.000000 1.903180 
# 
# From -- ./inp_files/9090.got.cif
#   From: 2010.06.25/outbox.cif.g09.slc.cpg/sg9_5_cif.got.tgz:9090.got - 2010.06.27 21:40:51.
