data_PCOD8056083
_publ_section_title
;
Structure prediction by ZEFSAII (Michael W. Deem and Ramdas Pophale) SiO2 
 PCOD8056083
Probable space group: C C
;
_chemical_formula_sum "Si O2"
_cell_formula_units_Z 32
_cell_length_a 10.781525
_cell_length_b 11.580042
_cell_length_c 14.670193
_cell_angle_alpha 90.000000
_cell_angle_beta 132.524998
_cell_angle_gamma 90.000000
_cell_volume 1349.843242
_symmetry_space_group_name_H-M "C C"
_symmetry_group_IT_number 9
_symmetry_cell_setting 'monoclinic'
loop_
_space_group_symop_operation_xyz
x,y,z
x,-y,1/2+z
1/2+x,1/2+y,z
1/2+x,1/2-y,1/2+z
loop_
_atom_site_type_symbol
_atom_site_label
_atom_site_fract_x
_atom_site_fract_y
_atom_site_fract_z
Si Si1 0.121830 0.088163 0.035770
Si Si2 0.976062 0.315666 0.774395
Si Si3 0.821868 0.070169 0.712572
Si Si4 0.010072 0.721651 0.040212
Si Si5 0.263956 0.979225 0.422676
Si Si6 0.989497 0.332509 0.981978
Si Si7 0.288914 0.654472 0.295674
Si Si8 0.015202 0.062642 0.647601
O O1 0.311260 0.127095 0.149819
O O2 0.048059 0.994429 0.067256
O O3 0.128706 0.032014 0.937548
O O4 0.990630 0.193672 0.982361
O O5 0.951964 0.178602 0.783035
O O6 0.010544 0.376655 0.888764
O O7 0.143038 0.337829 0.798918
O O8 0.634961 0.118395 0.618752
O O9 0.872280 0.005523 0.641756
O O10 0.840390 0.979982 0.805620
O O11 0.929028 0.598021 0.020629
O O12 0.953377 0.774111 0.913540
O O13 0.212291 0.704418 0.160554
O O14 0.949375 0.807874 0.091288
O O15 0.188516 0.935135 0.289841
O O16 0.317454 0.114116 0.438545
#
# Coordination Sequence:
#
# PCOD8056083 Si02
#       8
#     4   4   4   4   4   4   4   4
#     4  11  24  41  69  99 139 184 228 286 358 419
#     4  11  21  42  68 100 133 179 236 290 345 424
#     4  11  23  42  69  99 138 181 237 288 349 428
#     4  12  23  43  69 101 134 177 235 289 344 418
#     4  12  23  47  72 100 139 182 234 295 354 422
#     4  11  23  43  70 100 135 180 238 290 348 422
#     4  12  24  42  73 102 136 185 238 288 357 419
#     4  12  25  44  66 103 142 182 230 292 357 418
#
# _framework density 23.706458999999999
#
# number of rings (size 3 to 8) (size 9 to 14) (size 15 to 20)
#    0.000    0.500    6.250    3.000    3.500    0.000 
#    2.250    0.000    2.750    0.000    0.000    0.000 
#    0.000    0.000    0.000    0.000    0.000    0.000 
#
# Total GULP energy -198235.816296 kJ/mol
# GULP energy per Si atom -12389.738519 kJ/mol
# Density = 2.365250 g / cm^3
# Si number density = 23.706459 Si / 1000 Ang^3
#
#
#
# Elastic Constant Matrix: (Units=GPa)
#
#
# Indices 1 2 3 4 5 6 
#
# 1 76.7515 53.6974 12.1492 0.0000 -14.3303 0.0000
# 2 53.6974 103.8279 15.3171 0.0000 -13.5468 0.0000
# 3 12.1492 15.3171 102.7087 0.0000 -11.9227 0.0000
# 4 0.0000 0.0000 0.0000 34.4544 0.0000 -2.4604
# 5 -14.3303 -13.5468 -11.9227 0.0000 31.8590 0.0000
# 6 0.0000 0.0000 0.0000 -2.4604 0.0000 41.1456
#
#
#
# Elastic Compliance Matrix: (Units=1/GPa)
#
#
# Indices 1 2 3 4 5 6 
#
# 1 0.021203 -0.010251 -0.000395 0.000000 0.005030 0.000000
# 2 -0.010251 0.015265 -0.000884 0.000000 0.001549 0.000000
# 3 -0.000395 -0.000884 0.010298 0.000000 0.003300 0.000000
# 4 0.000000 0.000000 0.000000 0.029148 0.000000 0.001743
# 5 0.005030 0.001549 0.003300 0.000000 0.035545 0.000000
# 6 0.000000 0.000000 0.000000 0.001743 0.000000 0.024408
#
#
# Mechanical properties :
#
#
# Convention : Reuss Voigt Hill
#
# Bulk Modulus (GPa) = 42.18477 49.51284 45.84881
# Shear Modulus (GPa) = 29.97070 34.96677 32.46873
#
# Velocity S-wave (km/s) = 3.55948 3.84473 3.70485
# Velocity P-wave (km/s) = 5.89291 6.37498 6.13868
#
# Compressibility (1/GPa) = 0.02370524
#
# Stress axis : x y z
#
# Youngs Moduli (GPa) = 47.16397 65.50762 97.10649
#
# Poissons Ratio (x) = 0.67151 0.03839
# Poissons Ratio (y) = 0.48347 0.08586
# Poissons Ratio (z) = 0.01865 0.05792
#
# Static dielectric constant tensor:
#      x y z
#    x 4.000830 0.000000 -0.044670 
#    y 0.000000 4.318680 0.000000 
#    z -0.044670 0.000000 4.843150 
# 
# 
# High freq. dielectric constant tensor:
#      x y z
#    x 1.902900 0.000000 0.004280 
#    y 0.000000 1.930530 0.000000 
#    z 0.004280 0.000000 1.974970 
# 
# From -- ./inp_files/20959.got.cif
#   From: 2010.06.25/outbox.cif.g09.slc.cpg/sg9_11_cif.got.tgz:20959.got - 2010.06.27 21:40:51.
