data_PCOD8056992
_publ_section_title
;
Structure prediction by ZEFSAII (Michael W. Deem and Ramdas Pophale) SiO2 
 PCOD8056992
Probable space group: P 2/M
;
_chemical_formula_sum "Si O2"
_cell_formula_units_Z 28
_cell_length_a 29.129861
_cell_length_b 9.116605
_cell_length_c 9.139968
_cell_angle_alpha 90.000000
_cell_angle_beta 141.184091
_cell_angle_gamma 90.000000
_cell_volume 1521.455298
_symmetry_space_group_name_H-M "P 2/M"
_symmetry_group_IT_number 10
_symmetry_cell_setting 'monoclinic'
loop_
_space_group_symop_operation_xyz
x,y,z
-x,y,-z
-x,-y,-z
x,-y,z
loop_
_atom_site_type_symbol
_atom_site_label
_atom_site_fract_x
_atom_site_fract_y
_atom_site_fract_z
Si Si1 0.803643 0.333557 0.432036
Si Si2 0.511154 0.662695 0.353458
Si Si3 0.355576 0.331199 0.995945
Si Si4 0.070668 0.172449 0.092434
Si Si5 0.205292 0.327976 0.931029
Si Si6 0.350094 0.172341 0.282488
Si Si7 0.924769 0.170242 0.232237
O O1 0.829752 0.500000 0.519222
O O2 0.719774 0.311654 0.282071
O O3 0.854821 0.230729 0.653585
O O4 0.807375 0.289914 0.270669
O O5 0.500000 0.673127 0.500000
O O6 0.535905 0.500000 0.368160
O O7 0.574084 0.772991 0.452634
O O8 0.429605 0.698321 0.084142
O O9 0.357662 0.500000 0.063366
O O10 0.354171 0.215658 0.123510
O O11 0.072040 0.000000 0.116482
O O12 0.065401 0.217770 0.910909
O O13 0.000000 0.239311 0.000000
O O14 0.214221 0.500000 0.978320
O O15 0.137253 0.270138 0.852981
O O16 0.278553 0.249269 0.174128
O O17 0.343099 0.000000 0.286001
O O18 0.000000 0.204845 0.500000
O O19 0.902896 0.000000 0.193846
#
# Coordination Sequence:
#
# PCOD8056992 Si02
#       7
#     4   4   4   4   4   4   4
#     4   9  18  32  50  73 100 131 168 207 245 289
#     4   8  13  23  38  57  89 130 165 200 244 291
#     4   8  15  27  41  61  93 131 167 203 245 292
#     4  10  21  36  54  76 101 130 162 197 244 299
#     4  10  20  34  51  72 100 134 171 207 247 295
#     4  10  17  24  39  65  96 128 164 206 249 292
#     4  10  21  37  56  77 101 129 163 203 246 294
#
# _framework density 18.403433
#
# number of rings (size 3 to 8) (size 9 to 14) (size 15 to 20)
#    0.000    2.714    0.000    4.286    0.000    7.714 
#    0.000    0.000    0.000    0.000    0.000    1.000 
#    0.000    8.000    0.000    0.000    0.000    0.000 
#
# Total GULP energy -347003.727637 kJ/mol
# GULP energy per Si atom -12392.990273 kJ/mol
# Density = 1.836155 g / cm^3
# Si number density = 18.403433 Si / 1000 Ang^3
#
#
#
# Elastic Constant Matrix: (Units=GPa)
#
#
# Indices 1 2 3 4 5 6 
#
# 1 85.3594 55.9537 70.9433 0.0000 22.0085 0.0000
# 2 55.9537 89.1533 48.8676 0.0000 18.0833 0.0000
# 3 70.9433 48.8676 123.6947 0.0000 30.4056 0.0000
# 4 0.0000 0.0000 0.0000 29.2987 0.0000 8.7424
# 5 22.0085 18.0833 30.4056 0.0000 29.9816 0.0000
# 6 0.0000 0.0000 0.0000 8.7424 0.0000 25.7244
#
#
#
# Elastic Compliance Matrix: (Units=1/GPa)
#
#
# Indices 1 2 3 4 5 6 
#
# 1 0.030033 -0.011753 -0.011862 0.000000 -0.002928 0.000000
# 2 -0.011753 0.019260 -0.000178 0.000000 -0.002809 0.000000
# 3 -0.011862 -0.000178 0.017039 0.000000 -0.008465 0.000000
# 4 0.000000 0.000000 0.000000 0.037983 0.000000 -0.012908
# 5 -0.002928 -0.002809 -0.008465 0.000000 0.045782 0.000000
# 6 0.000000 0.000000 0.000000 -0.012908 0.000000 0.043261
#
#
# Mechanical properties :
#
#
# Convention : Reuss Voigt Hill
#
# Bulk Modulus (GPa) = 53.34505 72.19294 62.76900
# Shear Modulus (GPa) = 20.22718 25.16379 22.69549
#
# Velocity S-wave (km/s) = 3.31886 3.70177 3.51553
# Velocity P-wave (km/s) = 6.61331 7.58841 7.11758
#
# Compressibility (1/GPa) = 0.01874588
#
# Stress axis : x y z
#
# Youngs Moduli (GPa) = 33.29656 51.92017 58.68993
#
# Poissons Ratio (x) = 0.61024 0.69618
# Poissons Ratio (y) = 0.39135 0.01043
# Poissons Ratio (z) = 0.39497 0.00923
#
# Static dielectric constant tensor:
#      x y z
#    x 3.317950 0.000000 0.529360 
#    y 0.000000 3.258520 0.000000 
#    z 0.529360 0.000000 3.589070 
# 
# 
# High freq. dielectric constant tensor:
#      x y z
#    x 1.683730 0.000000 0.046260 
#    y 0.000000 1.707450 0.000000 
#    z 0.046260 0.000000 1.709720 
# 
# From -- ./inp_files/37331.got.cif
#   From: 2010.06.25/outbox.cif.g09.slc.cpg/sg10_19_cif.got.tgz:37331.got - 2010.06.27 22:07:45.
