data_PCOD8056369
_publ_section_title
;
Structure prediction by ZEFSAII (Michael W. Deem and Ramdas Pophale) SiO2 
 PCOD8056369
Probable space group: C C
;
_chemical_formula_sum "Si O2"
_cell_formula_units_Z 28
_cell_length_a 9.808128
_cell_length_b 20.069867
_cell_length_c 8.243630
_cell_angle_alpha 90.000000
_cell_angle_beta 131.168107
_cell_angle_gamma 90.000000
_cell_volume 1221.569035
_symmetry_space_group_name_H-M "C C"
_symmetry_group_IT_number 9
_symmetry_cell_setting 'monoclinic'
loop_
_space_group_symop_operation_xyz
x,y,z
x,-y,1/2+z
1/2+x,1/2+y,z
1/2+x,1/2-y,1/2+z
loop_
_atom_site_type_symbol
_atom_site_label
_atom_site_fract_x
_atom_site_fract_y
_atom_site_fract_z
Si Si1 0.075070 0.538034 0.532610
Si Si2 0.081610 0.901703 0.782151
Si Si3 0.277467 0.115573 0.124314
Si Si4 0.429744 0.915095 0.252782
Si Si5 0.880457 0.160204 0.389349
Si Si6 0.981911 0.304675 0.536770
Si Si7 0.966596 0.043655 0.697859
O O1 0.288369 0.539569 0.669254
O O2 0.968403 0.581553 0.316884
O O3 0.986004 0.463977 0.446602
O O4 0.056108 0.566688 0.698997
O O5 0.180068 0.860479 0.714968
O O6 0.922622 0.856177 0.733242
O O7 0.001786 0.970769 0.649223
O O8 0.221604 0.920339 0.036242
O O9 0.321994 0.176603 0.038829
O O10 0.143859 0.063387 0.936611
O O11 0.454840 0.840212 0.340946
O O12 0.993043 0.225439 0.526690
O O13 0.672062 0.173319 0.259364
O O14 0.940738 0.095993 0.535427
#
# Coordination Sequence:
#
# PCOD8056369 Si02
#       7
#     4   4   4   4   4   4   4
#     4  11  24  41  69 110 140 190 233 307 353 425
#     4  11  25  43  74 111 143 187 240 304 366 426
#     4  11  24  45  68 105 144 184 241 299 355 430
#     4  11  24  43  70 104 150 184 241 296 363 425
#     4  12  27  48  75 103 145 200 242 298 370 438
#     4  12  26  51  70 103 149 196 248 295 365 446
#     4  12  24  43  72 106 145 185 239 295 368 430
#
# _framework density 22.921341000000002
#
# number of rings (size 3 to 8) (size 9 to 14) (size 15 to 20)
#    0.000    0.571    2.857    5.143   10.000    0.000 
#    2.571    2.857    0.000    0.000    0.000    0.000 
#    0.000    0.000    0.000    0.000    0.000    0.000 
#
# Total GULP energy -173599.115848 kJ/mol
# GULP energy per Si atom -12399.936846 kJ/mol
# Density = 2.286917 g / cm^3
# Si number density = 22.921341 Si / 1000 Ang^3
#
#
#
# Elastic Constant Matrix: (Units=GPa)
#
#
# Indices 1 2 3 4 5 6 
#
# 1 143.8883 52.5515 36.2701 0.0000 -2.9007 0.0000
# 2 52.5515 124.0215 29.9607 0.0000 -9.7637 0.0000
# 3 36.2701 29.9607 83.0843 0.0000 -5.5418 0.0000
# 4 0.0000 0.0000 0.0000 35.9117 0.0000 -0.0843
# 5 -2.9007 -9.7637 -5.5418 0.0000 30.4168 0.0000
# 6 0.0000 0.0000 0.0000 -0.0843 0.0000 27.0917
#
#
#
# Elastic Compliance Matrix: (Units=1/GPa)
#
#
# Indices 1 2 3 4 5 6 
#
# 1 0.008762 -0.003100 -0.002751 0.000000 -0.000661 0.000000
# 2 -0.003100 0.010089 -0.002114 0.000000 0.002558 0.000000
# 3 -0.002751 -0.002114 0.014108 0.000000 0.001629 0.000000
# 4 0.000000 0.000000 0.000000 0.027846 0.000000 0.000087
# 5 -0.000661 0.002558 0.001629 0.000000 0.033931 0.000000
# 6 0.000000 0.000000 0.000000 0.000087 0.000000 0.036912
#
#
# Mechanical properties :
#
#
# Convention : Reuss Voigt Hill
#
# Bulk Modulus (GPa) = 58.72671 65.39539 62.06105
# Shear Modulus (GPa) = 32.62512 34.16482 33.39497
#
# Velocity S-wave (km/s) = 3.77683 3.86492 3.82113
# Velocity P-wave (km/s) = 6.68549 6.96485 6.82660
#
# Compressibility (1/GPa) = 0.01702803
#
# Stress axis : x y z
#
# Youngs Moduli (GPa) = 114.12523 99.11936 70.88145
#
# Poissons Ratio (x) = 0.30729 0.19501
# Poissons Ratio (y) = 0.35381 0.14985
# Poissons Ratio (z) = 0.31399 0.20955
#
# Static dielectric constant tensor:
#      x y z
#    x 4.348340 0.000000 0.072260 
#    y 0.000000 4.018570 0.000000 
#    z 0.072260 0.000000 4.154240 
# 
# 
# High freq. dielectric constant tensor:
#      x y z
#    x 1.921630 0.000000 0.009640 
#    y 0.000000 1.881000 0.000000 
#    z 0.009640 0.000000 1.912860 
# 
# From -- ./inp_files/5837.got.cif
#   From: 2010.06.25/outbox.cif.g09.slc.cpg/sg9_3_cif.got.tgz:5837.got - 2010.06.27 21:40:51.
