data_PCOD8056668
_publ_section_title
;
Structure prediction by ZEFSAII (Michael W. Deem and Ramdas Pophale) SiO2 
 PCOD8056668
Probable space group: C C
;
_chemical_formula_sum "Si O2"
_cell_formula_units_Z 24
_cell_length_a 5.315829
_cell_length_b 34.208852
_cell_length_c 5.165691
_cell_angle_alpha 90.000000
_cell_angle_beta 87.778941
_cell_angle_gamma 90.000000
_cell_volume 938.666969
_symmetry_space_group_name_H-M "C C"
_symmetry_group_IT_number 9
_symmetry_cell_setting 'monoclinic'
loop_
_space_group_symop_operation_xyz
x,y,z
x,-y,1/2+z
1/2+x,1/2+y,z
1/2+x,1/2-y,1/2+z
loop_
_atom_site_type_symbol
_atom_site_label
_atom_site_fract_x
_atom_site_fract_y
_atom_site_fract_z
Si Si1 0.426040 0.623905 0.191930
Si Si2 0.638230 0.706108 0.121121
Si Si3 0.431791 0.790891 0.110479
Si Si4 0.753864 0.425210 0.369512
Si Si5 0.263545 0.474767 0.365923
Si Si6 0.131228 0.628981 0.690517
O O1 0.462546 0.670424 0.207224
O O2 0.299456 0.609504 0.460653
O O3 0.678313 0.597789 0.139922
O O4 0.239381 0.614876 0.960745
O O5 0.512095 0.747508 0.183243
O O6 0.873799 0.704791 0.308939
O O7 0.702518 0.700859 0.816772
O O8 0.637886 0.823922 0.166576
O O9 0.504080 0.447681 0.286851
O O10 0.992649 0.453805 0.371431
O O11 0.846588 0.389076 0.178968
O O12 0.280598 0.490902 0.655771
#
# Coordination Sequence:
#
# PCOD8056668 Si02
#       6
#     4   4   4   4   4   4
#     4  12  27  47  76 113 155 203 264 321 389 456
#     4  12  24  43  68 103 153 205 266 326 384 452
#     4  12  24  43  68 103 153 205 266 326 384 452
#     4  12  28  54  84 118 163 202 261 324 386 480
#     4  12  30  54  84 118 157 204 253 318 402 478
#     4  12  27  47  76 113 155 203 264 321 389 456
#
# _framework density 25.568176000000001
#
# number of rings (size 3 to 8) (size 9 to 14) (size 15 to 20)
#    0.000    0.000    3.333    6.000    2.333    2.667 
#    0.000    0.000    0.000    0.000    0.000    0.000 
#    0.000    0.000    0.000    0.000    0.000    0.000 
#
# Total GULP energy -148706.029708 kJ/mol
# GULP energy per Si atom -12392.169142 kJ/mol
# Density = 2.550998 g / cm^3
# Si number density = 25.568176 Si / 1000 Ang^3
#
#
#
# Elastic Constant Matrix: (Units=GPa)
#
#
# Indices 1 2 3 4 5 6 
#
# 1 130.9536 43.0294 24.4458 0.0000 -19.3823 0.0000
# 2 43.0294 110.8127 10.6697 0.0000 -5.4158 0.0000
# 3 24.4458 10.6697 110.7141 0.0000 -15.6669 0.0000
# 4 0.0000 0.0000 0.0000 28.8642 0.0000 -3.1617
# 5 -19.3823 -5.4158 -15.6669 0.0000 44.3925 0.0000
# 6 0.0000 0.0000 0.0000 -3.1617 0.0000 51.1580
#
#
#
# Elastic Compliance Matrix: (Units=1/GPa)
#
#
# Indices 1 2 3 4 5 6 
#
# 1 0.009478 -0.003396 -0.001304 0.000000 0.003264 0.000000
# 2 -0.003396 0.010355 -0.000294 0.000000 -0.000323 0.000000
# 3 -0.001304 -0.000294 0.009750 0.000000 0.002836 0.000000
# 4 0.000000 0.000000 0.000000 0.034881 0.000000 0.002156
# 5 0.003264 -0.000323 0.002836 0.000000 0.024913 0.000000
# 6 0.000000 0.000000 0.000000 0.002156 0.000000 0.019681
#
#
# Mechanical properties :
#
#
# Convention : Reuss Voigt Hill
#
# Bulk Modulus (GPa) = 51.02780 56.53002 53.77891
# Shear Modulus (GPa) = 39.81630 43.17197 41.49413
#
# Velocity S-wave (km/s) = 3.95049 4.11360 4.03287
# Velocity P-wave (km/s) = 6.38822 6.68729 6.53946
#
# Compressibility (1/GPa) = 0.01959716
#
# Stress axis : x y z
#
# Youngs Moduli (GPa) = 105.50199 96.56928 102.56673
#
# Poissons Ratio (x) = 0.32790 0.13372
# Poissons Ratio (y) = 0.35823 0.03015
# Poissons Ratio (z) = 0.13755 0.02838
#
# Static dielectric constant tensor:
#      x y z
#    x 4.662100 0.000000 -0.245970 
#    y 0.000000 5.107900 0.000000 
#    z -0.245970 0.000000 4.632680 
# 
# 
# High freq. dielectric constant tensor:
#      x y z
#    x 2.019490 0.000000 -0.018700 
#    y 0.000000 2.045800 0.000000 
#    z -0.018700 0.000000 2.021110 
# 
# From -- ./inp_files/375.got.cif
#   From: 2010.06.25/outbox.cif.g09.slc.cpg/sg9_1_cif.got.tgz:375.got - 2010.06.27 21:40:51.
