data_PCOD8056591
_publ_section_title
;
Structure prediction by ZEFSAII (Michael W. Deem and Ramdas Pophale) SiO2 
 PCOD8056591
Probable space group: C C
;
_chemical_formula_sum "Si O2"
_cell_formula_units_Z 24
_cell_length_a 13.654465
_cell_length_b 6.982471
_cell_length_c 16.934356
_cell_angle_alpha 90.000000
_cell_angle_beta 36.262317
_cell_angle_gamma 90.000000
_cell_volume 954.981108
_symmetry_space_group_name_H-M "C C"
_symmetry_group_IT_number 9
_symmetry_cell_setting 'monoclinic'
loop_
_space_group_symop_operation_xyz
x,y,z
x,-y,1/2+z
1/2+x,1/2+y,z
1/2+x,1/2-y,1/2+z
loop_
_atom_site_type_symbol
_atom_site_label
_atom_site_fract_x
_atom_site_fract_y
_atom_site_fract_z
Si Si1 0.096270 0.341870 0.121130
Si Si2 0.987039 0.923703 0.154436
Si Si3 0.314200 0.341870 0.121130
Si Si4 0.856821 0.423703 0.154435
Si Si5 0.501791 0.333874 0.432345
Si Si6 0.786250 0.833874 0.432345
O O1 0.139783 0.373336 0.186582
O O2 0.928319 0.446428 0.198085
O O3 0.242686 0.440805 0.974341
O O4 0.082075 0.117836 0.112934
O O5 0.828242 0.946428 0.198085
O O6 0.918006 0.820579 0.276782
O O7 0.119577 0.786290 0.024510
O O8 0.344787 0.117836 0.112934
O O9 0.461363 0.440805 0.974341
O O10 0.681159 0.320579 0.276782
O O11 0.984133 0.286290 0.024510
O O12 0.371049 0.245903 0.455316
#
# Coordination Sequence:
#
# PCOD8056591 Si02
#       6
#     4   4   4   4   4   4
#     4  11  26  46  72 106 148 193 242 296 362 434
#     4  12  26  48  76 106 153 192 242 305 366 432
#     4  11  26  46  72 106 148 193 242 296 362 434
#     4  12  26  48  76 106 153 192 242 305 366 432
#     4  11  26  48  76 112 147 193 246 301 368 438
#     4  11  26  48  76 112 147 193 246 301 368 438
#
# _framework density 25.131385999999999
#
# number of rings (size 3 to 8) (size 9 to 14) (size 15 to 20)
#    0.000    0.667    3.333    3.000    4.667    2.667 
#    0.000    3.333    0.000    0.000    0.000    0.000 
#    0.000    0.000    0.000    0.000    0.000    0.000 
#
# Total GULP energy -148669.146502 kJ/mol
# GULP energy per Si atom -12389.095542 kJ/mol
# Density = 2.507419 g / cm^3
# Si number density = 25.131386 Si / 1000 Ang^3
#
#
#
# Elastic Constant Matrix: (Units=GPa)
#
#
# Indices 1 2 3 4 5 6 
#
# 1 198.2571 19.0485 6.2377 0.0000 -4.0416 0.0000
# 2 19.0485 73.4453 10.8697 -0.0001 -0.2409 0.0000
# 3 6.2377 10.8697 78.8051 -0.0001 0.5246 0.0000
# 4 0.0000 -0.0001 -0.0001 32.2179 0.0000 -0.3167
# 5 -4.0416 -0.2409 0.5246 0.0000 27.5095 0.0000
# 6 0.0000 0.0000 0.0000 -0.3167 0.0000 42.9725
#
#
#
# Elastic Compliance Matrix: (Units=1/GPa)
#
#
# Indices 1 2 3 4 5 6 
#
# 1 0.005193 -0.001309 -0.000235 0.000000 0.000756 0.000000
# 2 -0.001309 0.014230 -0.001859 0.000000 -0.000032 0.000000
# 3 -0.000235 -0.001859 0.012967 0.000000 -0.000298 0.000000
# 4 0.000000 0.000000 0.000000 0.031041 0.000000 0.000229
# 5 0.000756 -0.000032 -0.000298 0.000000 0.036468 0.000000
# 6 0.000000 0.000000 0.000000 0.000229 0.000000 0.023272
#
#
# Mechanical properties :
#
#
# Convention : Reuss Voigt Hill
#
# Bulk Modulus (GPa) = 39.09032 46.97993 43.03513
# Shear Modulus (GPa) = 36.09979 41.49675 38.79827
#
# Velocity S-wave (km/s) = 3.79415 4.06789 3.93341
# Velocity P-wave (km/s) = 5.89765 6.38733 6.14737
#
# Compressibility (1/GPa) = 0.02558178
#
# Stress axis : x y z
#
# Youngs Moduli (GPa) = 192.58248 70.27314 77.12148
#
# Poissons Ratio (x) = 0.09202 0.01816
# Poissons Ratio (y) = 0.25217 0.14336
# Poissons Ratio (z) = 0.04534 0.13063
#
# Static dielectric constant tensor:
#      x y z
#    x 5.041120 0.000000 -0.032250 
#    y 0.000000 4.475980 0.000000 
#    z -0.032250 0.000000 3.945680 
# 
# 
# High freq. dielectric constant tensor:
#      x y z
#    x 2.034940 0.000000 -0.002280 
#    y 0.000000 2.007600 0.000000 
#    z -0.002280 0.000000 1.957590 
# 
# From -- ./inp_files/30600.got.cif
#   From: 2010.06.25/outbox.cif.g09.slc.cpg/sg9_16_cif.got.tgz:30600.got - 2010.06.27 21:40:51.
