data_PCOD8056946
_publ_section_title
;
Structure prediction by ZEFSAII (Michael W. Deem and Ramdas Pophale) SiO2 
 PCOD8056946
Probable space group: P 2/M
;
_chemical_formula_sum "Si O2"
_cell_formula_units_Z 32
_cell_length_a 12.102270
_cell_length_b 8.752212
_cell_length_c 23.915307
_cell_angle_alpha 90.000000
_cell_angle_beta 50.128191
_cell_angle_gamma 90.000000
_cell_volume 1944.142401
_symmetry_space_group_name_H-M "P 2/M"
_symmetry_group_IT_number 10
_symmetry_cell_setting 'monoclinic'
loop_
_space_group_symop_operation_xyz
x,y,z
-x,y,-z
-x,-y,-z
x,-y,z
loop_
_atom_site_type_symbol
_atom_site_label
_atom_site_fract_x
_atom_site_fract_y
_atom_site_fract_z
Si Si1 0.150629 0.819656 0.510495
Si Si2 0.585952 0.824244 0.741532
Si Si3 0.587978 0.172787 0.315758
Si Si4 0.107103 0.830119 0.017766
Si Si5 0.166931 0.176885 0.839200
Si Si6 0.428437 0.322798 0.464973
Si Si7 0.338809 0.675744 0.880116
Si Si8 0.853151 0.319732 0.608705
O O1 0.284455 0.777014 0.506166
O O2 0.185364 0.763969 0.436730
O O3 0.008275 0.736698 0.580230
O O4 0.125974 0.000000 0.518263
O O5 0.501532 0.795645 0.711305
O O6 0.488413 0.768258 0.825260
O O7 0.732944 0.726503 0.692933
O O8 0.625595 0.000000 0.737585
O O9 0.757858 0.199707 0.245831
O O10 0.541808 0.288367 0.378938
O O11 0.560807 0.000000 0.345614
O O12 0.005971 0.789106 0.104766
O O13 0.169380 0.000000 0.003484
O O14 0.246920 0.722501 0.965297
O O15 0.000000 0.817228 0.000000
O O16 0.240133 0.291839 0.858685
O O17 0.194015 0.000000 0.850157
O O18 0.500000 0.276893 0.500000
O O19 0.386718 0.500000 0.476175
O O20 0.378993 0.500000 0.871153
O O21 0.855635 0.500000 0.598011
#
# Coordination Sequence:
#
# PCOD8056946 Si02
#       8
#     4   4   4   4   4   4   4   4
#     4  11  21  34  50  68  89 116 148 182 222 272
#     4  10  18  29  43  61  85 115 147 181 218 262
#     4   9  17  29  45  62  81 107 145 187 223 268
#     4   8  13  23  35  47  69 104 139 172 210 254
#     4   8  15  26  38  51  72 103 139 177 217 257
#     4  11  23  36  49  66  90 118 149 190 235 273
#     4  10  17  22  32  53  79 107 140 177 212 252
#     4  11  20  31  49  70  92 115 143 185 228 266
#
# _framework density 16.459700000000002
#
# number of rings (size 3 to 8) (size 9 to 14) (size 15 to 20)
#    0.000    2.250    1.250    6.375    0.000    5.250 
#    0.000    0.000    0.000    0.000    0.000    0.000 
#    0.000    0.000    0.000    1.125    0.000   21.875 
#
# Total GULP energy -396606.515493 kJ/mol
# GULP energy per Si atom -12393.953609 kJ/mol
# Density = 1.642224 g / cm^3
# Si number density = 16.459700 Si / 1000 Ang^3
#
#
#
# Elastic Constant Matrix: (Units=GPa)
#
#
# Indices 1 2 3 4 5 6 
#
# 1 45.8197 21.8592 33.2485 0.0000 -11.2198 0.0000
# 2 21.8592 84.9371 28.3421 0.0000 -10.4251 0.0000
# 3 33.2485 28.3421 105.7853 0.0000 -35.2048 0.0000
# 4 0.0000 0.0000 0.0000 24.5908 0.0000 -6.4882
# 5 -11.2198 -10.4251 -35.2048 0.0000 20.8290 0.0000
# 6 0.0000 0.0000 0.0000 -6.4882 0.0000 14.7541
#
#
#
# Elastic Compliance Matrix: (Units=1/GPa)
#
#
# Indices 1 2 3 4 5 6 
#
# 1 0.030120 -0.005044 -0.008128 0.000000 -0.000038 0.000000
# 2 -0.005044 0.013792 -0.001638 0.000000 0.001417 0.000000
# 3 -0.008128 -0.001638 0.024494 0.000000 0.036202 0.000000
# 4 0.000000 0.000000 0.000000 0.046003 0.000000 0.020230
# 5 -0.000038 0.001417 0.036202 0.000000 0.109886 0.000000
# 6 0.000000 0.000000 0.000000 0.020230 0.000000 0.076674
#
#
# Mechanical properties :
#
#
# Convention : Reuss Voigt Hill
#
# Bulk Modulus (GPa) = 25.78246 44.82684 35.30465
# Shear Modulus (GPa) = 14.55526 22.24094 18.39810
#
# Velocity S-wave (km/s) = 2.97694 3.67990 3.34693
# Velocity P-wave (km/s) = 5.24540 6.73417 6.03586
#
# Compressibility (1/GPa) = 0.03878605
#
# Stress axis : x y z
#
# Youngs Moduli (GPa) = 33.20092 72.50509 40.82577
#
# Poissons Ratio (x) = 0.36572 0.33182
# Poissons Ratio (y) = 0.16747 0.06688
# Poissons Ratio (z) = 0.26985 0.11878
#
# Static dielectric constant tensor:
#      x y z
#    x 2.599250 0.000000 -0.439460 
#    y 0.000000 3.104600 0.000000 
#    z -0.439460 0.000000 3.596280 
# 
# 
# High freq. dielectric constant tensor:
#      x y z
#    x 1.554300 0.000000 -0.045600 
#    y 0.000000 1.642470 0.000000 
#    z -0.045600 0.000000 1.644340 
# 
# From -- ./inp_files/88530.got.cif
#   From: 2010.06.25/outbox.cif.g09.slc.cpg/sg10_45_cif.got.tgz:88530.got - 2010.06.27 22:07:45.
