data_PCOD8056207
_publ_section_title
;
Structure prediction by ZEFSAII (Michael W. Deem and Ramdas Pophale) SiO2 
 PCOD8056207
Probable space group: C C
;
_chemical_formula_sum "Si O2"
_cell_formula_units_Z 32
_cell_length_a 18.753986
_cell_length_b 11.864350
_cell_length_c 12.138934
_cell_angle_alpha 90.000000
_cell_angle_beta 151.715949
_cell_angle_gamma 90.000000
_cell_volume 1279.831065
_symmetry_space_group_name_H-M "C C"
_symmetry_group_IT_number 9
_symmetry_cell_setting 'monoclinic'
loop_
_space_group_symop_operation_xyz
x,y,z
x,-y,1/2+z
1/2+x,1/2+y,z
1/2+x,1/2-y,1/2+z
loop_
_atom_site_type_symbol
_atom_site_label
_atom_site_fract_x
_atom_site_fract_y
_atom_site_fract_z
Si Si1 0.467710 0.859072 0.386740
Si Si2 0.521721 0.989735 0.157969
Si Si3 0.862295 0.220362 0.594219
Si Si4 0.513092 0.523895 0.268374
Si Si5 0.658425 0.852859 0.003659
Si Si6 0.757355 0.569295 0.427060
Si Si7 0.701170 0.316203 0.161694
Si Si8 0.236520 0.328484 0.349477
O O1 0.576907 0.777398 0.470513
O O2 0.330620 0.786620 0.250728
O O3 0.553364 0.923232 0.601516
O O4 0.396853 0.943284 0.201639
O O5 0.585416 0.869458 0.207188
O O6 0.624724 0.027928 0.400310
O O7 0.338501 0.993559 0.932406
O O8 0.757996 0.223714 0.558921
O O9 0.770581 0.293095 0.377588
O O10 0.005555 0.290202 0.823109
O O11 0.922904 0.093761 0.651522
O O12 0.607997 0.518377 0.280951
O O13 0.624856 0.560101 0.523780
O O14 0.390177 0.622616 0.106758
O O15 0.741935 0.872492 0.231506
O O16 0.727625 0.695197 0.347397
#
# Coordination Sequence:
#
# PCOD8056207 Si02
#       8
#     4   4   4   4   4   4   4   4
#     4  11  23  44  72 109 147 194 255 316 378 470
#     4  12  25  49  73 107 146 206 253 316 401 468
#     4  12  26  53  75 114 157 199 264 322 394 473
#     4  11  26  49  78 116 148 204 260 321 390 472
#     4  12  29  48  74 108 156 204 250 332 397 470
#     4  11  27  44  76 108 150 198 254 321 389 472
#     4  11  22  46  77 107 147 196 252 312 379 454
#     4  12  26  51  73 105 155 197 260 322 400 473
#
# _framework density 25.003298999999998
#
# number of rings (size 3 to 8) (size 9 to 14) (size 15 to 20)
#    0.000    0.500    5.000    1.500    7.000    3.000 
#    6.750    0.000    0.000    0.000    0.000    0.000 
#    0.000    0.000    0.000    0.000    0.000    0.000 
#
# Total GULP energy -198223.389632 kJ/mol
# GULP energy per Si atom -12388.961852 kJ/mol
# Density = 2.494639 g / cm^3
# Si number density = 25.003299 Si / 1000 Ang^3
#
#
#
# Elastic Constant Matrix: (Units=GPa)
#
#
# Indices 1 2 3 4 5 6 
#
# 1 109.6284 20.0416 33.6124 0.0000 9.3111 0.0000
# 2 20.0416 81.0566 19.5427 0.0000 -15.8426 0.0000
# 3 33.6124 19.5427 104.4964 0.0000 -4.8349 0.0000
# 4 0.0000 0.0000 0.0000 31.1955 0.0000 10.8667
# 5 9.3111 -15.8426 -4.8349 0.0000 43.0177 0.0000
# 6 0.0000 0.0000 0.0000 10.8667 0.0000 34.5088
#
#
#
# Elastic Compliance Matrix: (Units=1/GPa)
#
#
# Indices 1 2 3 4 5 6 
#
# 1 0.010894 -0.002648 -0.003180 0.000000 -0.003691 0.000000
# 2 -0.002648 0.014497 -0.001594 0.000000 0.005733 0.000000
# 3 -0.003180 -0.001594 0.010952 0.000000 0.001332 0.000000
# 4 0.000000 0.000000 0.000000 0.036005 0.000000 -0.011338
# 5 -0.003691 0.005733 0.001332 0.000000 0.026306 0.000000
# 6 0.000000 0.000000 0.000000 -0.011338 0.000000 0.032548
#
#
# Mechanical properties :
#
#
# Convention : Reuss Voigt Hill
#
# Bulk Modulus (GPa) = 46.51385 49.06388 47.78887
# Shear Modulus (GPa) = 32.63415 36.54339 34.58877
#
# Velocity S-wave (km/s) = 3.61667 3.82716 3.72340
# Velocity P-wave (km/s) = 6.00698 6.26060 6.13510
#
# Compressibility (1/GPa) = 0.02149897
#
# Stress axis : x y z
#
# Youngs Moduli (GPa) = 91.79144 68.98119 91.30543
#
# Poissons Ratio (x) = 0.18269 0.29033
# Poissons Ratio (y) = 0.24310 0.14554
# Poissons Ratio (z) = 0.29187 0.10996
#
# Static dielectric constant tensor:
#      x y z
#    x 4.983720 0.000000 0.089210 
#    y 0.000000 4.379750 0.000000 
#    z 0.089210 0.000000 4.738590 
# 
# 
# High freq. dielectric constant tensor:
#      x y z
#    x 2.011610 0.000000 0.011610 
#    y 0.000000 1.987900 0.000000 
#    z 0.011610 0.000000 2.008020 
# 
# From -- ./inp_files/19401.got.cif
#   From: 2010.06.25/outbox.cif.g09.slc.cpg/sg9_10_cif.got.tgz:19401.got - 2010.06.27 21:40:51.
