data_PCOD8056883
_publ_section_title
;
Structure prediction by ZEFSAII (Michael W. Deem and Ramdas Pophale) SiO2 
 PCOD8056883
Probable space group: P 2/M
;
_chemical_formula_sum "Si O2"
_cell_formula_units_Z 28
_cell_length_a 25.701617
_cell_length_b 7.938422
_cell_length_c 20.281309
_cell_angle_alpha 90.000000
_cell_angle_beta 157.558769
_cell_angle_gamma 90.000000
_cell_volume 1579.622353
_symmetry_space_group_name_H-M "P 2/M"
_symmetry_group_IT_number 10
_symmetry_cell_setting 'monoclinic'
loop_
_space_group_symop_operation_xyz
x,y,z
-x,y,-z
-x,-y,-z
x,-y,z
loop_
_atom_site_type_symbol
_atom_site_label
_atom_site_fract_x
_atom_site_fract_y
_atom_site_fract_z
Si Si1 0.776265 0.683926 0.437161
Si Si2 0.520963 0.687428 0.848565
Si Si3 0.892847 0.808231 0.702397
Si Si4 0.389172 0.800140 0.421466
Si Si5 0.589739 0.000000 0.005672
Si Si6 0.912688 0.200744 0.958576
Si Si7 0.710263 0.000000 0.284425
Si Si8 0.624706 0.306688 0.450274
O O1 0.804006 0.500000 0.437031
O O2 0.624927 0.690113 0.287856
O O3 0.879889 0.703946 0.619758
O O4 0.793401 0.832724 0.403695
O O5 0.586846 0.500000 0.934347
O O6 0.498435 0.731819 0.745071
O O7 0.614992 0.831512 0.991630
O O8 0.757304 0.803593 0.588900
O O9 0.917719 0.000000 0.710803
O O10 0.019623 0.737054 0.893585
O O11 0.500000 0.728922 0.500000
O O12 0.241077 0.730144 0.226590
O O13 0.429992 0.734491 0.541328
O O14 0.389202 0.000000 0.421993
O O15 0.437660 0.000000 0.855815
O O16 0.699356 0.000000 0.192732
O O17 0.916140 0.000000 0.960264
O O18 0.000000 0.274530 0.000000
O O19 0.669122 0.500000 0.495253
#
# Coordination Sequence:
#
# PCOD8056883 Si02
#       8
#     4   4   4   4   2   4   2   4
#     4   9  16  26  38  57  85 115 150 188 231 278
#     4   8  16  26  37  58  82 109 148 192 227 265
#     4  10  16  26  46  63  85 115 154 200 238 275
#     4  10  20  33  48  66  89 122 160 195 240 290
#     4   9  16  24  40  56  80 115 152 185 221 281
#     4   9  16  28  45  68  90 114 152 201 243 272
#     4   9  16  26  36  58  82 116 152 180 231 275
#     4  10  19  29  43  63  87 116 152 194 240 280
#
# _framework density 17.725756000000001
#
# number of rings (size 3 to 8) (size 9 to 14) (size 15 to 20)
#    0.000    2.714    2.143    1.714    4.000    0.857 
#    0.000    5.000    0.000    0.000    0.000    0.000 
#    0.000    0.000    0.000    2.571    0.000    8.429 
#
# Total GULP energy -347063.142969 kJ/mol
# GULP energy per Si atom -12395.112249 kJ/mol
# Density = 1.768541 g / cm^3
# Si number density = 17.725756 Si / 1000 Ang^3
#
#
#
# Elastic Constant Matrix: (Units=GPa)
#
#
# Indices 1 2 3 4 5 6 
#
# 1 76.3082 39.1409 59.1718 0.0000 -26.3690 0.0000
# 2 39.1409 100.0100 43.0702 0.0000 -26.0459 0.0000
# 3 59.1718 43.0702 83.0595 0.0000 -25.2456 0.0000
# 4 0.0000 0.0000 0.0000 7.6993 0.0000 -7.2074
# 5 -26.3690 -26.0459 -25.2456 0.0000 33.1214 0.0000
# 6 0.0000 0.0000 0.0000 -7.2074 0.0000 14.5438
#
#
#
# Elastic Compliance Matrix: (Units=1/GPa)
#
#
# Indices 1 2 3 4 5 6 
#
# 1 0.032108 -0.001892 -0.018970 0.000000 0.009615 0.000000
# 2 -0.001892 0.014180 -0.004000 0.000000 0.006595 0.000000
# 3 -0.018970 -0.004000 0.028740 0.000000 0.003658 0.000000
# 4 0.000000 0.000000 0.000000 0.242276 0.000000 0.120063
# 5 0.009615 0.006595 0.003658 0.000000 0.045821 0.000000
# 6 0.000000 0.000000 0.000000 0.120063 0.000000 0.128257
#
#
# Mechanical properties :
#
#
# Convention : Reuss Voigt Hill
#
# Bulk Modulus (GPa) = 39.52217 60.23816 49.88017
# Shear Modulus (GPa) = 9.09851 18.93923 14.01887
#
# Velocity S-wave (km/s) = 2.26806 3.27227 2.81530
# Velocity P-wave (km/s) = 5.40404 6.95228 6.22647
#
# Compressibility (1/GPa) = 0.02530225
#
# Stress axis : x y z
#
# Youngs Moduli (GPa) = 31.14501 70.52208 34.79484
#
# Poissons Ratio (x) = 0.13346 0.66006
# Poissons Ratio (y) = 0.05894 0.13919
# Poissons Ratio (z) = 0.59082 0.28211
#
# Static dielectric constant tensor:
#      x y z
#    x 3.055180 0.000000 -0.383380 
#    y 0.000000 3.393820 0.000000 
#    z -0.383380 0.000000 3.166050 
# 
# 
# High freq. dielectric constant tensor:
#      x y z
#    x 1.640840 0.000000 -0.047930 
#    y 0.000000 1.690740 0.000000 
#    z -0.047930 0.000000 1.650540 
# 
# From -- ./inp_files/79878.got.cif
#   From: 2010.06.25/outbox.cif.g09.slc.cpg/sg10_40_cif.got.tgz:79878.got - 2010.06.27 22:07:45.
