data_PCOD8056540
_publ_section_title
;
Structure prediction by ZEFSAII (Michael W. Deem and Ramdas Pophale) SiO2 
 PCOD8056540
Probable space group: C C
;
_chemical_formula_sum "Si O2"
_cell_formula_units_Z 24
_cell_length_a 23.918283
_cell_length_b 7.748601
_cell_length_c 11.181924
_cell_angle_alpha 90.000000
_cell_angle_beta 149.839720
_cell_angle_gamma 90.000000
_cell_volume 1041.207612
_symmetry_space_group_name_H-M "C C"
_symmetry_group_IT_number 9
_symmetry_cell_setting 'monoclinic'
loop_
_space_group_symop_operation_xyz
x,y,z
x,-y,1/2+z
1/2+x,1/2+y,z
1/2+x,1/2-y,1/2+z
loop_
_atom_site_type_symbol
_atom_site_label
_atom_site_fract_x
_atom_site_fract_y
_atom_site_fract_z
Si Si1 0.692470 0.313430 0.486690
Si Si2 0.866001 0.811503 0.138438
Si Si3 0.108839 0.695224 0.570566
Si Si4 0.314744 0.304731 0.587193
Si Si5 0.057570 0.311476 0.519306
Si Si6 0.731079 0.686563 0.671005
O O1 0.814062 0.252521 0.667701
O O2 0.640248 0.185218 0.488940
O O3 0.605570 0.306850 0.215433
O O4 0.711801 0.499988 0.578899
O O5 0.998855 0.807665 0.388285
O O6 0.831019 0.009332 0.056663
O O7 0.817966 0.693216 0.942246
O O8 0.092684 0.509254 0.601314
O O9 0.211793 0.788386 0.828865
O O10 0.283278 0.314777 0.668701
O O11 0.424708 0.192201 0.769491
O O12 0.109466 0.247394 0.489953
#
# Coordination Sequence:
#
# PCOD8056540 Si02
#       6
#     4   4   4   4   4   4
#     4  11  25  47  73 104 145 187 236 290 354 418
#     4  11  26  47  70 106 143 185 241 288 352 423
#     4  12  26  46  75 103 145 185 237 291 353 415
#     4  12  26  46  75 103 145 185 237 291 353 415
#     4  11  26  47  70 106 143 185 241 288 352 423
#     4  11  25  47  73 104 145 187 236 290 354 418
#
# _framework density 23.050159000000001
#
# number of rings (size 3 to 8) (size 9 to 14) (size 15 to 20)
#    0.000    0.667    3.333    4.000    9.333    1.333 
#    0.000    0.000    0.000    0.000    0.000    0.000 
#    0.000    0.000    0.000    0.000    0.000    0.000 
#
# Total GULP energy -148806.074335 kJ/mol
# GULP energy per Si atom -12400.506195 kJ/mol
# Density = 2.299770 g / cm^3
# Si number density = 23.050159 Si / 1000 Ang^3
#
#
#
# Elastic Constant Matrix: (Units=GPa)
#
#
# Indices 1 2 3 4 5 6 
#
# 1 165.1596 25.9032 79.3724 0.0000 32.7831 0.0000
# 2 25.9032 76.2408 39.7533 0.0000 -9.0021 0.0000
# 3 79.3724 39.7533 180.5746 0.0000 38.4342 0.0000
# 4 0.0000 0.0000 0.0000 23.2481 0.0000 -2.3696
# 5 32.7831 -9.0021 38.4342 0.0000 33.2579 0.0000
# 6 0.0000 0.0000 0.0000 -2.3696 0.0000 43.4389
#
#
#
# Elastic Compliance Matrix: (Units=1/GPa)
#
#
# Indices 1 2 3 4 5 6 
#
# 1 0.008823 -0.003109 -0.001543 0.000000 -0.007755 0.000000
# 2 -0.003109 0.019169 -0.006114 0.000000 0.015319 0.000000
# 3 -0.001543 -0.006114 0.010067 0.000000 -0.011767 0.000000
# 4 0.000000 0.000000 0.000000 0.043255 0.000000 0.002360
# 5 -0.007755 0.015319 -0.011767 0.000000 0.055458 0.000000
# 6 0.000000 0.000000 0.000000 0.002360 0.000000 0.023150
#
#
# Mechanical properties :
#
#
# Convention : Reuss Voigt Hill
#
# Bulk Modulus (GPa) = 60.50644 79.11475 69.81060
# Shear Modulus (GPa) = 26.74315 38.45205 32.59760
#
# Velocity S-wave (km/s) = 3.40989 4.08878 3.76467
# Velocity P-wave (km/s) = 6.46607 7.52916 7.01777
#
# Compressibility (1/GPa) = 0.01652717
#
# Stress axis : x y z
#
# Youngs Moduli (GPa) = 113.33496 52.16652 99.33577
#
# Poissons Ratio (x) = 0.16218 0.15330
# Poissons Ratio (y) = 0.35234 0.60735
# Poissons Ratio (z) = 0.17490 0.31895
#
# Static dielectric constant tensor:
#      x y z
#    x 4.589190 0.000000 0.340680 
#    y 0.000000 3.908450 0.000000 
#    z 0.340680 0.000000 4.444730 
# 
# 
# High freq. dielectric constant tensor:
#      x y z
#    x 1.929530 0.000000 0.013750 
#    y 0.000000 1.905080 0.000000 
#    z 0.013750 0.000000 1.910070 
# 
# From -- ./inp_files/6731.got.cif
#   From: 2010.06.25/outbox.cif.g09.slc.cpg/sg9_4_cif.got.tgz:6731.got - 2010.06.27 21:40:51.
