data_PCOD8056559
_publ_section_title
;
Structure prediction by ZEFSAII (Michael W. Deem and Ramdas Pophale) SiO2 
 PCOD8056559
Probable space group: C C
;
_chemical_formula_sum "Si O2"
_cell_formula_units_Z 28
_cell_length_a 10.795168
_cell_length_b 8.673650
_cell_length_c 12.062243
_cell_angle_alpha 90.000000
_cell_angle_beta 98.404435
_cell_angle_gamma 90.000000
_cell_volume 1117.301213
_symmetry_space_group_name_H-M "C C"
_symmetry_group_IT_number 9
_symmetry_cell_setting 'monoclinic'
loop_
_space_group_symop_operation_xyz
x,y,z
x,-y,1/2+z
1/2+x,1/2+y,z
1/2+x,1/2-y,1/2+z
loop_
_atom_site_type_symbol
_atom_site_label
_atom_site_fract_x
_atom_site_fract_y
_atom_site_fract_z
Si Si1 0.592010 0.331828 0.041230
Si Si2 0.231120 0.570645 0.631446
Si Si3 0.465583 0.942733 0.116935
Si Si4 0.746215 0.749280 0.354235
Si Si5 0.442048 0.377354 0.535457
Si Si6 0.827683 0.686091 0.994161
Si Si7 0.774451 0.422262 0.260149
O O1 0.553078 0.510179 0.008560
O O2 0.686890 0.337491 0.158352
O O3 0.648480 0.241899 0.943266
O O4 0.460803 0.251920 0.053711
O O5 0.232083 0.617598 0.760504
O O6 0.342232 0.462627 0.603296
O O7 0.225375 0.725602 0.554380
O O8 0.098768 0.475852 0.604213
O O9 0.497168 0.761515 0.114588
O O10 0.413768 0.965359 0.234311
O O11 0.347300 0.002668 0.024753
O O12 0.881864 0.792559 0.421249
O O13 0.721410 0.582756 0.297274
O O14 0.791147 0.702692 0.861193
#
# Coordination Sequence:
#
# PCOD8056559 Si02
#       7
#     4   4   4   4   4   4   4
#     4  11  26  48  76 111 153 201 255 312 379 454
#     4  11  27  47  74 111 149 195 251 312 377 448
#     4  12  24  46  72 106 152 193 249 309 370 449
#     4  12  24  49  75 108 155 196 250 311 380 449
#     4  11  26  47  74 111 149 193 256 308 371 449
#     4  11  25  49  71 114 152 197 256 309 378 452
#     4  12  24  46  78 107 156 203 247 313 383 449
#
# _framework density 25.060386999999999
#
# number of rings (size 3 to 8) (size 9 to 14) (size 15 to 20)
#    0.000    0.571    4.286    2.571    2.000    5.714 
#    2.571    0.000    0.000    0.000    0.000    0.000 
#    0.000    0.000    0.000    0.000    0.000    0.000 
#
# Total GULP energy -173459.539933 kJ/mol
# GULP energy per Si atom -12389.967138 kJ/mol
# Density = 2.500335 g / cm^3
# Si number density = 25.060387 Si / 1000 Ang^3
#
#
#
# Elastic Constant Matrix: (Units=GPa)
#
#
# Indices 1 2 3 4 5 6 
#
# 1 79.4673 -6.6630 36.2125 0.0000 -2.1476 0.0000
# 2 -6.6630 47.8815 17.3061 0.0000 6.2617 0.0000
# 3 36.2125 17.3061 146.1585 0.0000 -4.5745 0.0000
# 4 0.0000 0.0000 0.0000 34.8674 0.0000 0.5063
# 5 -2.1476 6.2617 -4.5745 0.0000 28.1196 0.0000
# 6 0.0000 0.0000 0.0000 0.5063 0.0000 44.5204
#
#
#
# Elastic Compliance Matrix: (Units=1/GPa)
#
#
# Indices 1 2 3 4 5 6 
#
# 1 0.014735 0.003570 -0.004084 0.000000 -0.000334 0.000000
# 2 0.003570 0.023501 -0.003842 0.000000 -0.005586 0.000000
# 3 -0.004084 -0.003842 0.008368 0.000000 0.001905 0.000000
# 4 0.000000 0.000000 0.000000 0.028685 0.000000 -0.000326
# 5 -0.000334 -0.005586 0.001905 0.000000 0.037091 0.000000
# 6 0.000000 0.000000 0.000000 -0.000326 0.000000 0.022465
#
#
# Mechanical properties :
#
#
# Convention : Reuss Voigt Hill
#
# Bulk Modulus (GPa) = 26.39026 40.80205 33.59616
# Shear Modulus (GPa) = 32.01280 36.61159 34.31220
#
# Velocity S-wave (km/s) = 3.57799 3.82636 3.70426
# Velocity P-wave (km/s) = 5.25575 5.98651 5.63299
#
# Compressibility (1/GPa) = 0.03789276
#
# Stress axis : x y z
#
# Youngs Moduli (GPa) = 67.86481 42.55170 119.49867
#
# Poissons Ratio (x) = -0.15192 0.48803
# Poissons Ratio (y) = -0.24230 0.45912
# Poissons Ratio (z) = 0.27716 0.16349
#
# Static dielectric constant tensor:
#      x y z
#    x 4.501530 0.000000 -0.092180 
#    y 0.000000 4.928430 0.000000 
#    z -0.092180 0.000000 4.416300 
# 
# 
# High freq. dielectric constant tensor:
#      x y z
#    x 2.006490 0.000000 -0.008370 
#    y 0.000000 2.016130 0.000000 
#    z -0.008370 0.000000 1.989840 
# 
# From -- ./inp_files/15940.got.cif
#   From: 2010.06.25/outbox.cif.g09.slc.cpg/sg9_8_cif.got.tgz:15940.got - 2010.06.27 21:40:51.
