data_PCOD8056566
_publ_section_title
;
Structure prediction by ZEFSAII (Michael W. Deem and Ramdas Pophale) SiO2 
 PCOD8056566
Probable space group: C C
;
_chemical_formula_sum "Si O2"
_cell_formula_units_Z 20
_cell_length_a 25.092078
_cell_length_b 7.162996
_cell_length_c 9.421321
_cell_angle_alpha 90.000000
_cell_angle_beta 151.291563
_cell_angle_gamma 90.000000
_cell_volume 813.398438
_symmetry_space_group_name_H-M "C C"
_symmetry_group_IT_number 9
_symmetry_cell_setting 'monoclinic'
loop_
_space_group_symop_operation_xyz
x,y,z
x,-y,1/2+z
1/2+x,1/2+y,z
1/2+x,1/2-y,1/2+z
loop_
_atom_site_type_symbol
_atom_site_label
_atom_site_fract_x
_atom_site_fract_y
_atom_site_fract_z
Si Si1 0.937340 0.103522 0.035890
Si Si2 0.672997 0.358882 0.026741
Si Si3 0.208155 0.282977 0.075684
Si Si4 0.126004 0.417835 0.177287
Si Si5 0.403750 0.728800 0.653795
O O1 0.059819 0.194006 0.349383
O O2 0.926075 0.892588 0.065560
O O3 0.842227 0.232287 0.883458
O O4 0.918131 0.093039 0.821756
O O5 0.658070 0.577995 0.961487
O O6 0.781521 0.318733 0.372900
O O7 0.680041 0.251569 0.893861
O O8 0.174902 0.409455 0.133021
O O9 0.160436 0.385658 0.825325
O O10 0.992621 0.397131 0.864092
#
# Coordination Sequence:
#
# PCOD8056566 Si02
#       5
#     4   4   4   4   4
#     4  11  25  49  78 108 155 196 250 315 366 453
#     4  11  27  50  78 109 152 201 252 306 381 446
#     4  12  26  50  79 108 157 196 250 319 367 450
#     4  11  27  50  78 116 149 202 256 303 386 448
#     4  11  25  51  75 115 151 199 256 305 382 449
#
# _framework density 24.588197000000001
#
# number of rings (size 3 to 8) (size 9 to 14) (size 15 to 20)
#    0.000    0.800    4.000    1.200    2.800    3.200 
#   14.400    0.000    0.000    0.000    0.000    0.000 
#    0.000    0.000    0.000    0.000    0.000    0.000 
#
# Total GULP energy -124040.169454 kJ/mol
# GULP energy per Si atom -12404.016945 kJ/mol
# Density = 2.453223 g / cm^3
# Si number density = 24.588197 Si / 1000 Ang^3
#
#
#
# Elastic Constant Matrix: (Units=GPa)
#
#
# Indices 1 2 3 4 5 6 
#
# 1 127.7348 21.1717 66.3889 0.0000 17.7054 0.0000
# 2 21.1717 49.6454 30.1099 0.0000 -6.1938 0.0000
# 3 66.3889 30.1099 181.4406 0.0000 37.0253 0.0000
# 4 0.0000 0.0000 0.0000 32.3261 0.0000 3.3895
# 5 17.7054 -6.1938 37.0253 0.0000 45.1205 0.0000
# 6 0.0000 0.0000 0.0000 3.3895 0.0000 28.4941
#
#
#
# Elastic Compliance Matrix: (Units=1/GPa)
#
#
# Indices 1 2 3 4 5 6 
#
# 1 0.010029 -0.002846 -0.002780 0.000000 -0.002045 0.000000
# 2 -0.002846 0.025440 -0.004950 0.000000 0.008671 0.000000
# 3 -0.002780 -0.004950 0.008728 0.000000 -0.006750 0.000000
# 4 0.000000 0.000000 0.000000 0.031325 0.000000 -0.003726
# 5 -0.002045 0.008671 -0.006750 0.000000 0.029695 0.000000
# 6 0.000000 0.000000 0.000000 -0.003726 0.000000 0.035538
#
#
# Mechanical properties :
#
#
# Convention : Reuss Voigt Hill
#
# Bulk Modulus (GPa) = 43.39302 66.01797 54.70550
# Shear Modulus (GPa) = 29.48316 37.26483 33.37399
#
# Velocity S-wave (km/s) = 3.46653 3.89724 3.68818
# Velocity P-wave (km/s) = 5.80591 6.86724 6.35876
#
# Compressibility (1/GPa) = 0.02304518
#
# Stress axis : x y z
#
# Youngs Moduli (GPa) = 99.71381 39.30752 114.57963
#
# Poissons Ratio (x) = 0.11186 0.31853
# Poissons Ratio (y) = 0.28377 0.56716
# Poissons Ratio (z) = 0.27720 0.19457
#
# Static dielectric constant tensor:
#      x y z
#    x 4.493260 0.000000 0.269620 
#    y 0.000000 4.088920 0.000000 
#    z 0.269620 0.000000 4.772170 
# 
# 
# High freq. dielectric constant tensor:
#      x y z
#    x 1.984580 0.000000 0.013090 
#    y 0.000000 1.960860 0.000000 
#    z 0.013090 0.000000 1.995390 
# 
# From -- ./inp_files/6677.got.cif
#   From: 2010.06.25/outbox.cif.g09.slc.cpg/sg9_4_cif.got.tgz:6677.got - 2010.06.27 21:40:51.
