data_PCOD8056567
_publ_section_title
;
Structure prediction by ZEFSAII (Michael W. Deem and Ramdas Pophale) SiO2 
 PCOD8056567
Probable space group: C C
;
_chemical_formula_sum "Si O2"
_cell_formula_units_Z 16
_cell_length_a 7.004306
_cell_length_b 11.811355
_cell_length_c 12.368885
_cell_angle_alpha 90.000000
_cell_angle_beta 145.535015
_cell_angle_gamma 90.000000
_cell_volume 579.077895
_symmetry_space_group_name_H-M "C C"
_symmetry_group_IT_number 9
_symmetry_cell_setting 'monoclinic'
loop_
_space_group_symop_operation_xyz
x,y,z
x,-y,1/2+z
1/2+x,1/2+y,z
1/2+x,1/2-y,1/2+z
loop_
_atom_site_type_symbol
_atom_site_label
_atom_site_fract_x
_atom_site_fract_y
_atom_site_fract_z
Si Si1 0.511590 0.568318 0.539200
Si Si2 0.712452 0.849561 0.334886
Si Si3 0.127145 0.111600 0.829773
Si Si4 0.363894 0.367201 0.752386
O O1 0.433412 0.433813 0.515456
O O2 0.508696 0.637570 0.650967
O O3 0.267091 0.629192 0.336239
O O4 0.878257 0.577566 0.654463
O O5 0.625450 0.734211 0.354373
O O6 0.900005 0.820324 0.309629
O O7 0.521700 0.144046 0.023401
O O8 0.075203 0.978735 0.823064
#
# Coordination Sequence:
#
# PCOD8056567 Si02
#       4
#     4   4   4   4
#     4  11  25  49  79 118 161 204 272 328 388 493
#     4  11  26  52  83 118 162 212 266 333 406 469
#     4  11  25  53  80 116 163 210 268 334 391 488
#     4  11  26  52  82 120 162 210 268 333 405 470
#
# _framework density 27.630130999999999
#
# number of rings (size 3 to 8) (size 9 to 14) (size 15 to 20)
#    0.000    1.000    0.000    7.500    7.000    0.000 
#   13.500    7.500    0.000    0.000    0.000    0.000 
#    0.000    0.000    0.000    0.000    0.000    0.000 
#
# Total GULP energy -99179.680890 kJ/mol
# GULP energy per Si atom -12397.460111 kJ/mol
# Density = 2.756724 g / cm^3
# Si number density = 27.630131 Si / 1000 Ang^3
#
#
#
# Elastic Constant Matrix: (Units=GPa)
#
#
# Indices 1 2 3 4 5 6 
#
# 1 168.2530 53.4600 53.9485 0.0089 -25.6132 0.0021
# 2 53.4600 122.2786 35.7849 -0.0394 -2.2221 -0.0056
# 3 53.9485 35.7849 102.7436 -0.0840 -31.3947 -0.0060
# 4 0.0089 -0.0394 -0.0840 47.0558 -0.0268 11.5401
# 5 -25.6132 -2.2221 -31.3947 -0.0268 63.2945 0.0009
# 6 0.0021 -0.0056 -0.0060 11.5401 0.0009 44.5661
#
#
#
# Elastic Compliance Matrix: (Units=1/GPa)
#
#
# Indices 1 2 3 4 5 6 
#
# 1 0.007917 -0.002640 -0.002695 -0.000008 0.001774 0.000001
# 2 -0.002640 0.010105 -0.002771 0.000003 -0.002088 0.000000
# 3 -0.002695 -0.002771 0.013850 0.000028 0.005682 -0.000006
# 4 -0.000008 0.000003 0.000028 0.022693 0.000020 -0.005876
# 5 0.001774 -0.002088 0.005682 0.000020 0.019262 -0.000005
# 6 0.000001 0.000000 -0.000006 -0.005876 -0.000005 0.023960
#
#
# Mechanical properties :
#
#
# Convention : Reuss Voigt Hill
#
# Bulk Modulus (GPa) = 63.86545 75.51798 69.69172
# Shear Modulus (GPa) = 41.93965 47.65540 44.79753
#
# Velocity S-wave (km/s) = 3.90024 4.15753 4.03094
# Velocity P-wave (km/s) = 6.59144 7.10196 6.85146
#
# Compressibility (1/GPa) = 0.01565792
#
# Stress axis : x y z
#
# Youngs Moduli (GPa) = 126.31788 98.95676 72.20451
#
# Poissons Ratio (x) = 0.26126 0.19461
# Poissons Ratio (y) = 0.33349 0.20011
# Poissons Ratio (z) = 0.34045 0.27426
#
# Static dielectric constant tensor:
#      x y z
#    x 5.250210 0.000000 -0.276890 
#    y 0.000000 4.985240 0.000000 
#    z -0.276890 0.000000 5.208240 
# 
# 
# High freq. dielectric constant tensor:
#      x y z
#    x 2.117320 0.000000 -0.012480 
#    y 0.000000 2.118720 0.000000 
#    z -0.012480 0.000000 2.115210 
# 
# From -- ./inp_files/22503.got.cif
#   From: 2010.06.25/outbox.cif.g09.slc.cpg/sg9_12_cif.got.tgz:22503.got - 2010.06.27 21:40:51.
