data_PCOD8056714
_publ_section_title
;
Structure prediction by ZEFSAII (Michael W. Deem and Ramdas Pophale) SiO2 
 PCOD8056714
Probable space group: C C
;
_chemical_formula_sum "Si O2"
_cell_formula_units_Z 32
_cell_length_a 12.838754
_cell_length_b 11.258862
_cell_length_c 9.367340
_cell_angle_alpha 90.000000
_cell_angle_beta 79.605921
_cell_angle_gamma 90.000000
_cell_volume 1331.827001
_symmetry_space_group_name_H-M "C C"
_symmetry_group_IT_number 9
_symmetry_cell_setting 'monoclinic'
loop_
_space_group_symop_operation_xyz
x,y,z
x,-y,1/2+z
1/2+x,1/2+y,z
1/2+x,1/2-y,1/2+z
loop_
_atom_site_type_symbol
_atom_site_label
_atom_site_fract_x
_atom_site_fract_y
_atom_site_fract_z
Si Si1 0.516530 0.220123 0.534380
Si Si2 0.081508 0.779005 0.993893
Si Si3 0.455467 0.511282 0.057874
Si Si4 0.693576 0.804504 0.206829
Si Si5 0.368112 0.859105 0.544045
Si Si6 0.834434 0.414993 0.233943
Si Si7 0.173123 0.274266 0.759623
Si Si8 0.808081 0.988986 0.833527
O O1 0.510130 0.361501 0.539949
O O2 0.603702 0.159572 0.615931
O O3 0.404921 0.163011 0.604741
O O4 0.559965 0.196439 0.362929
O O5 0.984653 0.689744 0.031305
O O6 0.160227 0.724644 0.092751
O O7 0.140579 0.787504 0.828414
O O8 0.046105 0.914824 0.014401
O O9 0.346649 0.497891 0.988861
O O10 0.418792 0.489607 0.227884
O O11 0.788242 0.750709 0.088267
O O12 0.723989 0.913561 0.302516
O O13 0.373070 0.918333 0.387111
O O14 0.335139 0.952647 0.673354
O O15 0.717089 0.359180 0.275290
O O16 0.263395 0.360867 0.799528
#
# Coordination Sequence:
#
# PCOD8056714 Si02
#       8
#     4   4   4   4   4   4   4   4
#     4  12  27  46  76 106 147 198 247 304 375 439
#     4  12  28  46  74 112 150 194 250 303 374 443
#     4  12  25  48  74 103 147 195 248 306 360 437
#     4  12  27  46  76 106 147 198 247 304 375 439
#     4  12  29  51  73 108 154 193 245 311 374 448
#     4  12  29  51  73 108 154 193 245 311 374 448
#     4  12  28  46  74 112 150 194 250 303 374 443
#     4  12  25  48  74 103 147 195 248 306 360 437
#
# _framework density 24.027144
#
# number of rings (size 3 to 8) (size 9 to 14) (size 15 to 20)
#    0.000    0.000    5.000    3.750   10.500    0.000 
#    0.000    0.000    0.000    0.000    0.000    0.000 
#    0.000    0.000    0.000    0.000    0.000    0.000 
#
# Total GULP energy -198298.367526 kJ/mol
# GULP energy per Si atom -12393.647970 kJ/mol
# Density = 2.397246 g / cm^3
# Si number density = 24.027144 Si / 1000 Ang^3
#
#
#
# Elastic Constant Matrix: (Units=GPa)
#
#
# Indices 1 2 3 4 5 6 
#
# 1 65.6088 2.1530 3.5098 0.0000 2.6236 0.0000
# 2 2.1530 69.7841 8.6884 0.0000 2.0257 0.0000
# 3 3.5098 8.6884 74.8344 0.0000 -8.1563 0.0000
# 4 0.0000 0.0000 0.0000 36.1306 0.0000 2.6624
# 5 2.6236 2.0257 -8.1563 0.0000 36.6934 0.0000
# 6 0.0000 0.0000 0.0000 2.6624 0.0000 24.2933
#
#
#
# Elastic Compliance Matrix: (Units=1/GPa)
#
#
# Indices 1 2 3 4 5 6 
#
# 1 0.015347 -0.000335 -0.000818 0.000000 -0.001261 0.000000
# 2 -0.000335 0.014600 -0.001808 0.000000 -0.001184 0.000000
# 3 -0.000818 -0.001808 0.013967 0.000000 0.003263 0.000000
# 4 0.000000 0.000000 0.000000 0.027903 0.000000 -0.003058
# 5 -0.001261 -0.001184 0.003263 0.000000 0.028134 0.000000
# 6 0.000000 0.000000 0.000000 -0.003058 0.000000 0.041499
#
#
# Mechanical properties :
#
#
# Convention : Reuss Voigt Hill
#
# Bulk Modulus (GPa) = 26.32258 26.54775 26.43516
# Shear Modulus (GPa) = 31.24307 32.48188 31.86247
#
# Velocity S-wave (km/s) = 3.60991 3.68078 3.64552
# Velocity P-wave (km/s) = 5.32489 5.39790 5.36152
#
# Compressibility (1/GPa) = 0.03799020
#
# Stress axis : x y z
#
# Youngs Moduli (GPa) = 65.15918 68.49421 71.59834
#
# Poissons Ratio (x) = 0.02295 0.05859
# Poissons Ratio (y) = 0.02183 0.12948
# Poissons Ratio (z) = 0.05332 0.12386
#
# Static dielectric constant tensor:
#      x y z
#    x 4.294710 0.000000 -0.086280 
#    y 0.000000 4.259090 0.000000 
#    z -0.086280 0.000000 4.621910 
# 
# 
# High freq. dielectric constant tensor:
#      x y z
#    x 1.950720 0.000000 -0.006860 
#    y 0.000000 1.951360 0.000000 
#    z -0.006860 0.000000 1.975920 
# 
# From -- ./inp_files/9085.got.cif
#   From: 2010.06.25/outbox.cif.g09.slc.cpg/sg9_5_cif.got.tgz:9085.got - 2010.06.27 21:40:51.
