data_PCOD8056958
_publ_section_title
;
Structure prediction by ZEFSAII (Michael W. Deem and Ramdas Pophale) SiO2 
 PCOD8056958
Probable space group: P 2/M
;
_chemical_formula_sum "Si O2"
_cell_formula_units_Z 28
_cell_length_a 22.487167
_cell_length_b 8.895918
_cell_length_c 12.326923
_cell_angle_alpha 90.000000
_cell_angle_beta 135.584281
_cell_angle_gamma 90.000000
_cell_volume 1725.801949
_symmetry_space_group_name_H-M "P 2/M"
_symmetry_group_IT_number 10
_symmetry_cell_setting 'monoclinic'
loop_
_space_group_symop_operation_xyz
x,y,z
-x,y,-z
-x,-y,-z
x,-y,z
loop_
_atom_site_type_symbol
_atom_site_label
_atom_site_fract_x
_atom_site_fract_y
_atom_site_fract_z
Si Si1 0.988542 0.677919 0.158950
Si Si2 0.294544 0.325588 0.506881
Si Si3 0.958237 0.823475 0.556422
Si Si4 0.130945 0.677842 0.181097
Si Si5 0.547952 0.822510 0.212760
Si Si6 0.216556 0.329468 0.640371
Si Si7 0.603910 0.324614 0.062401
O O1 0.992396 0.500000 0.179136
O O2 0.988285 0.752254 0.276006
O O3 0.069253 0.739031 0.195775
O O4 0.903082 0.727096 0.981864
O O5 0.317871 0.500000 0.523997
O O6 0.227997 0.268883 0.327843
O O7 0.382071 0.231950 0.608127
O O8 0.249454 0.295629 0.562773
O O9 0.859341 0.780269 0.428062
O O10 0.000000 0.764311 0.500000
O O11 0.965997 0.000000 0.577061
O O12 0.126568 0.500000 0.184973
O O13 0.580910 0.768221 0.139614
O O14 0.537690 0.000000 0.205072
O O15 0.454934 0.744355 0.110872
O O16 0.182655 0.500000 0.603170
O O17 0.295149 0.303745 0.827112
O O18 0.583130 0.500000 0.053713
#
# Coordination Sequence:
#
# PCOD8056958 Si02
#       7
#     4   4   4   4   4   4   4
#     4   9  16  30  49  66  82 108 147 185 219 258
#     4   9  15  26  42  61  86 114 141 171 212 258
#     4  11  23  34  43  60  89 120 148 182 223 261
#     4   8  14  26  47  68  86 108 141 183 221 258
#     4  10  17  23  34  57  85 113 142 170 203 247
#     4   9  17  29  46  62  77 107 150 185 216 255
#     4   9  16  27  40  54  76 108 143 177 214 254
#
# _framework density 16.224342
#
# number of rings (size 3 to 8) (size 9 to 14) (size 15 to 20)
#    0.000    2.714    1.429    4.714    0.000    4.000 
#    0.000    2.143    0.000    0.000    0.000    0.000 
#    0.000    1.143    0.000   12.857    0.000    6.714 
#
# Total GULP energy -346923.492097 kJ/mol
# GULP energy per Si atom -12390.124718 kJ/mol
# Density = 1.618741 g / cm^3
# Si number density = 16.224342 Si / 1000 Ang^3
#
#
#
# Elastic Constant Matrix: (Units=GPa)
#
#
# Indices 1 2 3 4 5 6 
#
# 1 32.6394 18.6175 43.8100 0.0000 -1.8284 0.0000
# 2 18.6175 56.9924 44.5376 0.0000 3.4010 0.0000
# 3 43.8100 44.5376 161.0586 0.0000 20.2599 0.0000
# 4 0.0000 0.0000 0.0000 12.9289 0.0000 2.4192
# 5 -1.8284 3.4010 20.2599 0.0000 23.0237 0.0000
# 6 0.0000 0.0000 0.0000 2.4192 0.0000 16.1879
#
#
#
# Elastic Compliance Matrix: (Units=1/GPa)
#
#
# Indices 1 2 3 4 5 6 
#
# 1 0.057613 -0.007407 -0.016121 0.000000 0.019855 0.000000
# 2 -0.007407 0.023455 -0.004454 0.000000 -0.000133 0.000000
# 3 -0.016121 -0.004454 0.013386 0.000000 -0.012401 0.000000
# 4 0.000000 0.000000 0.000000 0.079571 0.000000 -0.011892
# 5 0.019855 -0.000133 -0.012401 0.000000 0.055943 0.000000
# 6 0.000000 0.000000 0.000000 -0.011892 0.000000 0.063552
#
#
# Mechanical properties :
#
#
# Convention : Reuss Voigt Hill
#
# Bulk Modulus (GPa) = 25.98157 51.62450 38.80304
# Shear Modulus (GPa) = 13.80021 20.00980 16.90501
#
# Velocity S-wave (km/s) = 2.91965 3.51568 3.23143
# Velocity P-wave (km/s) = 5.23588 6.95473 6.15559
#
# Compressibility (1/GPa) = 0.03848882
#
# Stress axis : x y z
#
# Youngs Moduli (GPa) = 17.35714 42.63534 74.70656
#
# Poissons Ratio (x) = 0.31581 1.20433
# Poissons Ratio (y) = 0.12857 0.33276
# Poissons Ratio (z) = 0.27981 0.18991
#
# Static dielectric constant tensor:
#      x y z
#    x 2.738190 0.000000 0.520310 
#    y 0.000000 2.895300 0.000000 
#    z 0.520310 0.000000 3.922130 
# 
# 
# High freq. dielectric constant tensor:
#      x y z
#    x 1.553900 0.000000 0.036140 
#    y 0.000000 1.613280 0.000000 
#    z 0.036140 0.000000 1.641590 
# 
# From -- ./inp_files/54964.got.cif
#   From: 2010.06.25/outbox.cif.g09.slc.cpg/sg10_28_cif.got.tgz:54964.got - 2010.06.27 22:07:45.
