data_PCOD8056426
_publ_section_title
;
Structure prediction by ZEFSAII (Michael W. Deem and Ramdas Pophale) SiO2 
 PCOD8056426
Probable space group: C C
;
_chemical_formula_sum "Si O2"
_cell_formula_units_Z 32
_cell_length_a 18.143025
_cell_length_b 14.652521
_cell_length_c 11.991851
_cell_angle_alpha 90.000000
_cell_angle_beta 27.640020
_cell_angle_gamma 90.000000
_cell_volume 1478.926578
_symmetry_space_group_name_H-M "C C"
_symmetry_group_IT_number 9
_symmetry_cell_setting 'monoclinic'
loop_
_space_group_symop_operation_xyz
x,y,z
x,-y,1/2+z
1/2+x,1/2+y,z
1/2+x,1/2-y,1/2+z
loop_
_atom_site_type_symbol
_atom_site_label
_atom_site_fract_x
_atom_site_fract_y
_atom_site_fract_z
Si Si1 0.781290 0.599728 0.093230
Si Si2 0.439261 0.414954 0.362286
Si Si3 0.283818 0.663198 0.862772
Si Si4 0.731837 0.147988 0.331985
Si Si5 0.780994 0.372934 0.853669
Si Si6 0.956650 0.103972 0.419058
Si Si7 0.433387 0.738041 0.257001
Si Si8 0.030240 0.472848 0.659191
O O1 0.772665 0.627892 0.232360
O O2 0.608482 0.568788 0.284562
O O3 0.825484 0.685701 0.958301
O O4 0.908206 0.518365 0.909633
O O5 0.407217 0.384645 0.279486
O O6 0.353280 0.348572 0.565868
O O7 0.374487 0.516501 0.472185
O O8 0.629547 0.416925 0.117648
O O9 0.283574 0.769211 0.893343
O O10 0.332810 0.650886 0.668483
O O11 0.113721 0.613484 0.107903
O O12 0.587115 0.215464 0.494265
O O13 0.827533 0.181343 0.312268
O O14 0.663574 0.046063 0.443142
O O15 0.934464 0.432014 0.682301
O O16 0.002880 0.172917 0.259372
#
# Coordination Sequence:
#
# PCOD8056426 Si02
#       8
#     4   4   4   4   4   4   4   4
#     4  11  24  45  72 107 137 186 243 292 356 428
#     4  12  27  46  66 105 148 186 230 292 368 426
#     4  12  26  46  71 107 142 190 239 300 361 423
#     4  11  26  46  70 110 145 190 239 294 370 423
#     4  12  26  47  74 104 145 186 241 298 362 429
#     4  12  23  46  73 102 141 186 243 291 352 428
#     4  11  24  46  77 102 142 190 244 295 347 439
#     4  11  26  46  69 107 142 188 239 300 362 426
#
# _framework density 21.637312999999999
#
# number of rings (size 3 to 8) (size 9 to 14) (size 15 to 20)
#    0.000    0.500    6.250    1.500    3.500    2.000 
#    0.000    0.000    0.000    0.000    0.000    0.000 
#    0.000    0.000    0.000    0.000    0.000    0.000 
#
# Total GULP energy -198428.119748 kJ/mol
# GULP energy per Si atom -12401.757484 kJ/mol
# Density = 2.158807 g / cm^3
# Si number density = 21.637313 Si / 1000 Ang^3
#
#
#
# Elastic Constant Matrix: (Units=GPa)
#
#
# Indices 1 2 3 4 5 6 
#
# 1 95.7311 46.8653 23.2996 0.0000 -9.4652 0.0000
# 2 46.8653 109.5551 27.5614 0.0001 -0.1946 -0.0001
# 3 23.2996 27.5614 87.4790 -0.0001 -0.4248 0.0000
# 4 0.0000 0.0001 -0.0001 30.6835 -0.0001 -4.2077
# 5 -9.4652 -0.1946 -0.4248 -0.0001 33.2105 0.0001
# 6 0.0000 -0.0001 0.0000 -4.2077 0.0001 41.6500
#
#
#
# Elastic Compliance Matrix: (Units=1/GPa)
#
#
# Indices 1 2 3 4 5 6 
#
# 1 0.014002 -0.005484 -0.001982 0.000000 0.003933 0.000000
# 2 -0.005484 0.012061 -0.002347 0.000000 -0.001522 0.000000
# 3 -0.001982 -0.002347 0.012697 0.000000 -0.000416 0.000000
# 4 0.000000 0.000000 0.000000 0.033049 0.000000 0.003339
# 5 0.003933 -0.001522 -0.000416 0.000000 0.031218 0.000000
# 6 0.000000 0.000000 0.000000 0.003339 0.000000 0.024347
#
#
# Mechanical properties :
#
#
# Convention : Reuss Voigt Hill
#
# Bulk Modulus (GPa) = 52.26434 54.24643 53.25538
# Shear Modulus (GPa) = 32.59917 34.11138 33.35527
#
# Velocity S-wave (km/s) = 3.88573 3.97483 3.93053
# Velocity P-wave (km/s) = 6.65875 6.79639 6.72792
#
# Compressibility (1/GPa) = 0.01913351
#
# Stress axis : x y z
#
# Youngs Moduli (GPa) = 71.41821 82.90851 78.76045
#
# Poissons Ratio (x) = 0.45467 0.15614
# Poissons Ratio (y) = 0.39166 0.18484
# Poissons Ratio (z) = 0.14158 0.19458
#
# Static dielectric constant tensor:
#      x y z
#    x 3.750440 0.000000 -0.120770 
#    y 0.000000 4.019280 0.000000 
#    z -0.120770 0.000000 3.902890 
# 
# 
# High freq. dielectric constant tensor:
#      x y z
#    x 1.848040 0.000000 -0.007600 
#    y 0.000000 1.859330 0.000000 
#    z -0.007600 0.000000 1.854510 
# 
# From -- ./inp_files/7410.got.cif
#   From: 2010.06.25/outbox.cif.g09.slc.cpg/sg9_4_cif.got.tgz:7410.got - 2010.06.27 21:40:51.
