data_PCOD8056679
_publ_section_title
;
Structure prediction by ZEFSAII (Michael W. Deem and Ramdas Pophale) SiO2 
 PCOD8056679
Probable space group: C C
;
_chemical_formula_sum "Si O2"
_cell_formula_units_Z 24
_cell_length_a 14.525791
_cell_length_b 9.516383
_cell_length_c 8.331047
_cell_angle_alpha 90.000000
_cell_angle_beta 114.066658
_cell_angle_gamma 90.000000
_cell_volume 1051.516623
_symmetry_space_group_name_H-M "C C"
_symmetry_group_IT_number 9
_symmetry_cell_setting 'monoclinic'
loop_
_space_group_symop_operation_xyz
x,y,z
x,-y,1/2+z
1/2+x,1/2+y,z
1/2+x,1/2-y,1/2+z
loop_
_atom_site_type_symbol
_atom_site_label
_atom_site_fract_x
_atom_site_fract_y
_atom_site_fract_z
Si Si1 0.173630 0.173120 0.052550
Si Si2 0.385921 0.431877 0.771905
Si Si3 0.885860 0.782377 0.120669
Si Si4 0.602379 0.594962 0.340724
Si Si5 0.074731 0.404995 0.818936
Si Si6 0.667780 0.147502 0.057289
O O1 0.286234 0.190573 0.069627
O O2 0.167069 0.123049 0.229193
O O3 0.115497 0.320628 0.002070
O O4 0.115559 0.067217 0.893972
O O5 0.392763 0.603436 0.770608
O O6 0.482687 0.373961 0.741222
O O7 0.284611 0.389052 0.603777
O O8 0.391433 0.368737 0.956360
O O9 0.967413 0.656030 0.188323
O O10 0.650583 0.688052 0.516476
O O11 0.153901 0.386285 0.732829
O O12 0.084983 0.566254 0.885769
#
# Coordination Sequence:
#
# PCOD8056679 Si02
#       6
#     4   4   4   4   4   4
#     4  12  26  45  72 107 142 188 246 301 356 436
#     4  12  24  46  75 103 140 199 235 294 367 440
#     4  12  27  45  76 106 148 189 250 297 369 438
#     4  12  27  45  75 105 146 189 241 306 363 434
#     4  12  25  46  71 108 144 187 245 303 357 435
#     4  12  25  45  75 107 146 190 243 303 366 431
#
# _framework density 22.824176000000001
#
# number of rings (size 3 to 8) (size 9 to 14) (size 15 to 20)
#    0.000    0.000    6.667    3.000    2.333    2.667 
#    0.000    0.000    0.000    0.000    0.000    0.000 
#    0.000    0.000    0.000    0.000    0.000    0.000 
#
# Total GULP energy -148750.439885 kJ/mol
# GULP energy per Si atom -12395.869990 kJ/mol
# Density = 2.277223 g / cm^3
# Si number density = 22.824176 Si / 1000 Ang^3
#
#
#
# Elastic Constant Matrix: (Units=GPa)
#
#
# Indices 1 2 3 4 5 6 
#
# 1 150.0540 45.2556 25.1952 0.0000 17.6516 0.0000
# 2 45.2556 62.4780 20.7578 0.0000 5.7726 0.0000
# 3 25.1952 20.7578 79.6640 0.0000 -3.7116 0.0000
# 4 0.0000 0.0000 0.0000 29.9230 0.0000 3.0212
# 5 17.6516 5.7726 -3.7116 0.0000 40.8651 0.0000
# 6 0.0000 0.0000 0.0000 3.0212 0.0000 37.3035
#
#
#
# Elastic Compliance Matrix: (Units=1/GPa)
#
#
# Indices 1 2 3 4 5 6 
#
# 1 0.009028 -0.005740 -0.001510 0.000000 -0.003226 0.000000
# 2 -0.005740 0.021521 -0.003835 0.000000 -0.000909 0.000000
# 3 -0.001510 -0.003835 0.014145 0.000000 0.002479 0.000000
# 4 0.000000 0.000000 0.000000 0.033695 0.000000 -0.002729
# 5 -0.003226 -0.000909 0.002479 0.000000 0.026218 0.000000
# 6 0.000000 0.000000 0.000000 -0.002729 0.000000 0.027028
#
#
# Mechanical properties :
#
#
# Convention : Reuss Voigt Hill
#
# Bulk Modulus (GPa) = 44.39450 52.73480 48.56465
# Shear Modulus (GPa) = 30.99556 35.01748 33.00652
#
# Velocity S-wave (km/s) = 3.68912 3.92117 3.80692
# Velocity P-wave (km/s) = 6.13507 6.60725 6.37553
#
# Compressibility (1/GPa) = 0.02252531
#
# Stress axis : x y z
#
# Youngs Moduli (GPa) = 110.76078 46.46547 70.69636
#
# Poissons Ratio (x) = 0.26671 0.10676
# Poissons Ratio (y) = 0.63576 0.27110
# Poissons Ratio (z) = 0.16726 0.17818
#
# Static dielectric constant tensor:
#      x y z
#    x 4.256980 0.000000 0.012850 
#    y 0.000000 4.312120 0.000000 
#    z 0.012850 0.000000 3.880090 
# 
# 
# High freq. dielectric constant tensor:
#      x y z
#    x 1.913060 0.000000 -0.000010 
#    y 0.000000 1.905170 0.000000 
#    z -0.000010 0.000000 1.894060 
# 
# From -- ./inp_files/8764.got.cif
#   From: 2010.06.25/outbox.cif.g09.slc.cpg/sg9_5_cif.got.tgz:8764.got - 2010.06.27 21:40:51.
