data_PCOD8056063
_publ_section_title
;
Structure prediction by ZEFSAII (Michael W. Deem and Ramdas Pophale) SiO2 
 PCOD8056063
Probable space group: C C
;
_chemical_formula_sum "Si O2"
_cell_formula_units_Z 32
_cell_length_a 26.467554
_cell_length_b 8.106239
_cell_length_c 14.271759
_cell_angle_alpha 90.000000
_cell_angle_beta 29.932334
_cell_angle_gamma 90.000000
_cell_volume 1527.886659
_symmetry_space_group_name_H-M "C C"
_symmetry_group_IT_number 9
_symmetry_cell_setting 'monoclinic'
loop_
_space_group_symop_operation_xyz
x,y,z
x,-y,1/2+z
1/2+x,1/2+y,z
1/2+x,1/2-y,1/2+z
loop_
_atom_site_type_symbol
_atom_site_label
_atom_site_fract_x
_atom_site_fract_y
_atom_site_fract_z
Si Si1 0.034890 0.172015 0.214680
Si Si2 0.348945 0.868262 0.207499
Si Si3 0.285971 0.385279 0.378793
Si Si4 0.164609 0.684302 0.817107
Si Si5 0.714009 0.130715 0.344225
Si Si6 0.973912 0.680803 0.002211
Si Si7 0.169406 0.887456 0.000017
Si Si8 0.340483 0.331254 0.906578
O O1 0.036244 0.259072 0.312856
O O2 0.923806 0.186737 0.352139
O O3 0.113234 0.259031 0.017802
O O4 0.061040 0.976353 0.185831
O O5 0.315692 0.747413 0.173843
O O6 0.376907 0.765648 0.255790
O O7 0.248631 0.968853 0.390911
O O8 0.440353 0.991506 0.035635
O O9 0.231794 0.531436 0.410629
O O10 0.196001 0.249471 0.537272
O O11 0.325785 0.471941 0.409082
O O12 0.377687 0.297933 0.175255
O O13 0.199406 0.495506 0.782422
O O14 0.178947 0.802448 0.882922
O O15 0.237635 0.745270 0.615855
O O16 0.047922 0.687082 0.972835
#
# Coordination Sequence:
#
# PCOD8056063 Si02
#       8
#     4   4   4   4   4   4   4   4
#     4  11  21  37  60  85 114 153 193 239 290 344
#     4   9  19  37  58  82 112 148 189 236 286 342
#     4   9  19  37  56  81 115 147 188 240 286 339
#     4  11  21  37  58  84 116 152 190 239 290 343
#     4   9  19  37  56  81 115 147 188 240 286 339
#     4  11  21  37  60  85 114 153 193 239 290 344
#     4   9  19  37  58  82 112 148 189 236 286 342
#     4  11  21  37  58  84 116 152 190 239 290 343
#
# _framework density 20.943961999999999
#
# number of rings (size 3 to 8) (size 9 to 14) (size 15 to 20)
#    0.000    2.000    0.000    6.000    0.000    0.000 
#    0.000   23.750    0.000    0.000    0.000    0.000 
#    0.000    0.000    0.000    0.000    0.000    0.000 
#
# Total GULP energy -198243.158705 kJ/mol
# GULP energy per Si atom -12390.197419 kJ/mol
# Density = 2.089629 g / cm^3
# Si number density = 20.943962 Si / 1000 Ang^3
#
#
#
# Elastic Constant Matrix: (Units=GPa)
#
#
# Indices 1 2 3 4 5 6 
#
# 1 90.8676 36.1160 17.9540 0.0000 -14.4346 0.0000
# 2 36.1160 111.7207 27.9365 -0.0004 -3.7803 0.0000
# 3 17.9540 27.9365 67.4769 -0.0001 -4.7653 0.0000
# 4 0.0000 -0.0004 -0.0001 30.4131 0.0000 -7.5254
# 5 -14.4346 -3.7803 -4.7653 0.0000 34.7668 0.0000
# 6 0.0000 0.0000 0.0000 -7.5254 0.0000 40.0219
#
#
#
# Elastic Compliance Matrix: (Units=1/GPa)
#
#
# Indices 1 2 3 4 5 6 
#
# 1 0.013657 -0.003820 -0.001697 0.000000 0.005022 0.000000
# 2 -0.003820 0.011063 -0.003626 0.000000 -0.000880 0.000000
# 3 -0.001697 -0.003626 0.016858 0.000000 0.001212 0.000000
# 4 0.000000 0.000000 0.000000 0.034485 0.000000 0.006484
# 5 0.005022 -0.000880 0.001212 0.000000 0.030918 0.000000
# 6 0.000000 0.000000 0.000000 0.006484 0.000000 0.026206
#
#
# Mechanical properties :
#
#
# Convention : Reuss Voigt Hill
#
# Bulk Modulus (GPa) = 42.93596 48.23090 45.58343
# Shear Modulus (GPa) = 31.39966 33.57759 32.48862
#
# Velocity S-wave (km/s) = 3.87618 4.00836 3.94282
# Velocity P-wave (km/s) = 6.37008 6.67091 6.52223
#
# Compressibility (1/GPa) = 0.02329050
#
# Stress axis : x y z
#
# Youngs Moduli (GPa) = 73.22477 90.39306 59.31821
#
# Poissons Ratio (x) = 0.34534 0.10068
# Poissons Ratio (y) = 0.27975 0.21508
# Poissons Ratio (z) = 0.12429 0.32775
#
# Static dielectric constant tensor:
#      x y z
#    x 3.837080 0.000000 -0.341890 
#    y 0.000000 4.347450 0.000000 
#    z -0.341890 0.000000 3.406410 
# 
# 
# High freq. dielectric constant tensor:
#      x y z
#    x 1.824220 0.000000 -0.029290 
#    y 0.000000 1.833800 0.000000 
#    z -0.029290 0.000000 1.789720 
# 
# From -- ./inp_files/24208.got.cif
#   From: 2010.06.25/outbox.cif.g09.slc.cpg/sg9_13_cif.got.tgz:24208.got - 2010.06.27 21:40:51.
