data_PCOD8056447
_publ_section_title
;
Structure prediction by ZEFSAII (Michael W. Deem and Ramdas Pophale) SiO2 
 PCOD8056447
Probable space group: C C
;
_chemical_formula_sum "Si O2"
_cell_formula_units_Z 32
_cell_length_a 27.940547
_cell_length_b 9.671463
_cell_length_c 8.875417
_cell_angle_alpha 90.000000
_cell_angle_beta 143.786246
_cell_angle_gamma 90.000000
_cell_volume 1416.954369
_symmetry_space_group_name_H-M "C C"
_symmetry_group_IT_number 9
_symmetry_cell_setting 'monoclinic'
loop_
_space_group_symop_operation_xyz
x,y,z
x,-y,1/2+z
1/2+x,1/2+y,z
1/2+x,1/2-y,1/2+z
loop_
_atom_site_type_symbol
_atom_site_label
_atom_site_fract_x
_atom_site_fract_y
_atom_site_fract_z
Si Si1 0.630010 0.095120 0.485670
Si Si2 0.863124 0.446571 0.095956
Si Si3 0.708003 0.857860 0.504006
Si Si4 0.428748 0.332898 0.686951
Si Si5 0.189315 0.927347 0.116080
Si Si6 0.447786 0.139447 0.105524
Si Si7 0.113710 0.156034 0.737862
Si Si8 0.886485 0.924558 0.892063
O O1 0.677688 0.131452 0.757133
O O2 0.651420 0.209420 0.414167
O O3 0.653902 0.945834 0.482123
O O4 0.535548 0.087062 0.283294
O O5 0.769348 0.480883 0.839653
O O6 0.920249 0.574823 0.193973
O O7 0.886268 0.314811 0.049466
O O8 0.880909 0.408679 0.313605
O O9 0.705469 0.698617 0.544966
O O10 0.798977 0.912426 0.744932
O O11 0.381113 0.413616 0.698391
O O12 0.423812 0.425747 0.525336
O O13 0.520732 0.309367 0.970152
O O14 0.161762 0.871006 0.206978
O O15 0.120666 0.024312 0.866836
O O16 0.445922 0.305906 0.110618
#
# Coordination Sequence:
#
# PCOD8056447 Si02
#       8
#     4   4   4   4   4   4   4   4
#     4  12  26  48  75 105 150 186 239 303 355 437
#     4  11  24  47  69 103 141 187 238 291 353 433
#     4  12  27  46  74 108 144 191 239 296 365 427
#     4  11  26  46  72 102 145 186 244 291 356 427
#     4  12  27  44  74 106 145 188 242 299 365 426
#     4  11  24  46  71 101 143 187 237 289 357 425
#     4  12  26  46  72 107 142 192 242 296 366 424
#     4  11  24  47  69 102 144 183 239 291 355 427
#
# _framework density 22.583649999999999
#
# number of rings (size 3 to 8) (size 9 to 14) (size 15 to 20)
#    0.000    0.500    3.750    4.500   10.500    1.000 
#    2.250    0.000    0.000    0.000    0.000    0.000 
#    0.000    0.000    0.000    0.000    0.000    0.000 
#
# Total GULP energy -198507.641233 kJ/mol
# GULP energy per Si atom -12406.727577 kJ/mol
# Density = 2.253225 g / cm^3
# Si number density = 22.583650 Si / 1000 Ang^3
#
#
#
# Elastic Constant Matrix: (Units=GPa)
#
#
# Indices 1 2 3 4 5 6 
#
# 1 92.6192 18.9237 25.9629 0.0000 13.4410 0.0000
# 2 18.9237 100.7860 45.3582 0.0000 2.4305 0.0000
# 3 25.9629 45.3582 80.6798 0.0000 9.8391 0.0000
# 4 0.0000 0.0000 0.0000 41.4270 0.0000 -3.5028
# 5 13.4410 2.4305 9.8391 0.0000 39.6011 0.0000
# 6 0.0000 0.0000 0.0000 -3.5028 0.0000 48.3129
#
#
#
# Elastic Compliance Matrix: (Units=1/GPa)
#
#
# Indices 1 2 3 4 5 6 
#
# 1 0.012321 -0.000847 -0.003079 0.000000 -0.003365 0.000000
# 2 -0.000847 0.013385 -0.007412 0.000000 0.001307 0.000000
# 3 -0.003079 -0.007412 0.017912 0.000000 -0.002951 0.000000
# 4 0.000000 0.000000 0.000000 0.024288 0.000000 0.001761
# 5 -0.003365 0.001307 -0.002951 0.000000 0.027047 0.000000
# 6 0.000000 0.000000 0.000000 0.001761 0.000000 0.020826
#
#
# Mechanical properties :
#
#
# Convention : Reuss Voigt Hill
#
# Bulk Modulus (GPa) = 47.74681 50.50828 49.12754
# Shear Modulus (GPa) = 34.37946 38.12421 36.25184
#
# Velocity S-wave (km/s) = 3.90592 4.11315 4.01087
# Velocity P-wave (km/s) = 6.44436 6.70603 6.57649
#
# Compressibility (1/GPa) = 0.02094381
#
# Stress axis : x y z
#
# Youngs Moduli (GPa) = 81.16072 74.70898 55.82760
#
# Poissons Ratio (x) = 0.06327 0.17187
# Poissons Ratio (y) = 0.06873 0.41380
# Poissons Ratio (z) = 0.24986 0.55375
#
# Static dielectric constant tensor:
#      x y z
#    x 4.147040 0.000000 -0.029190 
#    y 0.000000 4.256940 0.000000 
#    z -0.029190 0.000000 4.051750 
# 
# 
# High freq. dielectric constant tensor:
#      x y z
#    x 1.899420 0.000000 0.004490 
#    y 0.000000 1.901550 0.000000 
#    z 0.004490 0.000000 1.889420 
# 
# From -- ./inp_files/12700.got.cif
#   From: 2010.06.25/outbox.cif.g09.slc.cpg/sg9_7_cif.got.tgz:12700.got - 2010.06.27 21:40:51.
