data_PCOD8056609
_publ_section_title
;
Structure prediction by ZEFSAII (Michael W. Deem and Ramdas Pophale) SiO2 
 PCOD8056609
Probable space group: C C
;
_chemical_formula_sum "Si O2"
_cell_formula_units_Z 24
_cell_length_a 4.997741
_cell_length_b 13.355673
_cell_length_c 18.829654
_cell_angle_alpha 90.000000
_cell_angle_beta 131.107282
_cell_angle_gamma 90.000000
_cell_volume 947.007674
_symmetry_space_group_name_H-M "C C"
_symmetry_group_IT_number 9
_symmetry_cell_setting 'monoclinic'
loop_
_space_group_symop_operation_xyz
x,y,z
x,-y,1/2+z
1/2+x,1/2+y,z
1/2+x,1/2-y,1/2+z
loop_
_atom_site_type_symbol
_atom_site_label
_atom_site_fract_x
_atom_site_fract_y
_atom_site_fract_z
Si Si1 0.331270 0.238235 0.161770
Si Si2 0.592294 0.039642 0.276129
Si Si3 0.834283 0.789764 0.449078
Si Si4 0.293384 0.134881 0.644115
Si Si5 0.239624 0.912156 0.402645
Si Si6 0.127849 0.589308 0.446033
O O1 0.526780 0.149404 0.235607
O O2 0.636727 0.278882 0.165258
O O3 0.181294 0.324417 0.188508
O O4 0.997669 0.202584 0.056218
O O5 0.575830 0.049812 0.357608
O O6 0.298012 0.965672 0.191698
O O7 0.960041 0.986961 0.314425
O O8 0.420712 0.826044 0.383781
O O9 0.049803 0.864228 0.436478
O O10 0.853592 0.678331 0.419467
O O11 0.034580 0.121732 0.530711
O O12 0.545457 0.991276 0.480507
#
# Coordination Sequence:
#
# PCOD8056609 Si02
#       6
#     4   4   4   4   4   4
#     4  11  28  51  74 109 151 203 248 312 371 458
#     4  12  30  46  80 114 154 196 257 311 385 451
#     4  11  26  49  78 104 150 201 256 306 383 449
#     4  11  29  51  74 110 154 196 255 312 375 448
#     4  12  27  45  76 113 145 197 248 321 374 456
#     4  11  28  50  78 108 152 205 250 316 378 460
#
# _framework density 25.342984000000001
#
# number of rings (size 3 to 8) (size 9 to 14) (size 15 to 20)
#    0.000    0.667    1.667    3.000   14.000    0.000 
#    0.000    0.000    0.000    0.000    0.000    0.000 
#    0.000    0.000    0.000    0.000    0.000    0.000 
#
# Total GULP energy -148749.798301 kJ/mol
# GULP energy per Si atom -12395.816525 kJ/mol
# Density = 2.528530 g / cm^3
# Si number density = 25.342984 Si / 1000 Ang^3
#
#
#
# Elastic Constant Matrix: (Units=GPa)
#
#
# Indices 1 2 3 4 5 6 
#
# 1 132.9936 41.2703 40.1049 0.0012 -4.5407 0.0017
# 2 41.2703 136.6849 46.7205 0.0011 -15.5109 0.0014
# 3 40.1049 46.7205 77.8484 0.0027 -15.6465 0.0032
# 4 0.0012 0.0011 0.0027 40.6961 0.0014 -4.6180
# 5 -4.5407 -15.5109 -15.6465 0.0014 32.3520 0.0018
# 6 0.0017 0.0014 0.0032 -4.6180 0.0018 36.4061
#
#
#
# Elastic Compliance Matrix: (Units=1/GPa)
#
#
# Indices 1 2 3 4 5 6 
#
# 1 0.009182 -0.001534 -0.004096 0.000000 -0.001428 0.000000
# 2 -0.001534 0.009571 -0.004513 0.000000 0.002191 0.000000
# 3 -0.004096 -0.004513 0.018957 -0.000001 0.006429 -0.000002
# 4 0.000000 0.000000 -0.000001 0.024931 -0.000002 0.003162
# 5 -0.001428 0.002191 0.006429 -0.000002 0.034869 -0.000003
# 6 0.000000 0.000000 -0.000002 0.003162 -0.000003 0.027869
#
#
# Mechanical properties :
#
#
# Convention : Reuss Voigt Hill
#
# Bulk Modulus (GPa) = 57.40053 67.07982 62.24017
# Shear Modulus (GPa) = 33.00917 36.51956 34.76436
#
# Velocity S-wave (km/s) = 3.61293 3.80019 3.70774
# Velocity P-wave (km/s) = 6.33269 6.76620 6.55303
#
# Compressibility (1/GPa) = 0.01742144
#
# Stress axis : x y z
#
# Youngs Moduli (GPa) = 108.91126 104.48728 52.75213
#
# Poissons Ratio (x) = 0.16030 0.21610
# Poissons Ratio (y) = 0.16709 0.23808
# Poissons Ratio (z) = 0.44615 0.47156
#
# Static dielectric constant tensor:
#      x y z
#    x 4.533150 0.000000 0.193250 
#    y 0.000000 5.192990 0.000010 
#    z 0.193250 0.000010 4.731770 
# 
# 
# High freq. dielectric constant tensor:
#      x y z
#    x 2.015970 0.000000 0.010020 
#    y 0.000000 2.038810 0.000000 
#    z 0.010020 0.000000 2.000210 
# 
# From -- ./inp_files/32196.got.cif
#   From: 2010.06.25/outbox.cif.g09.slc.cpg/sg9_17_cif.got.tgz:32196.got - 2010.06.27 21:40:51.
