data_PCOD8056867
_publ_section_title
;
Structure prediction by ZEFSAII (Michael W. Deem and Ramdas Pophale) SiO2 
 PCOD8056867
Probable space group: P 2/M
;
_chemical_formula_sum "Si O2"
_cell_formula_units_Z 28
_cell_length_a 30.178998
_cell_length_b 7.916482
_cell_length_c 14.322704
_cell_angle_alpha 90.000000
_cell_angle_beta 30.173816
_cell_angle_gamma 90.000000
_cell_volume 1719.911424
_symmetry_space_group_name_H-M "P 2/M"
_symmetry_group_IT_number 10
_symmetry_cell_setting 'monoclinic'
loop_
_space_group_symop_operation_xyz
x,y,z
-x,y,-z
-x,-y,-z
x,-y,z
loop_
_atom_site_type_symbol
_atom_site_label
_atom_site_fract_x
_atom_site_fract_y
_atom_site_fract_z
Si Si1 0.239262 0.689801 0.055164
Si Si2 0.842339 0.689499 0.596902
Si Si3 0.520976 0.801344 0.175571
Si Si4 0.585731 0.694956 0.789633
Si Si5 0.951063 0.000000 0.445899
Si Si6 0.868128 0.000000 0.800574
Si Si7 0.309124 0.806805 0.243982
Si Si8 0.565861 0.198862 0.298218
O O1 0.209384 0.500000 0.080105
O O2 0.343397 0.704067 0.850992
O O3 0.217146 0.724058 0.203582
O O4 0.189988 0.829830 0.081603
O O5 0.883324 0.500000 0.523913
O O6 0.919656 0.829280 0.450407
O O7 0.778887 0.705401 0.622697
O O8 0.431366 0.733011 0.288842
O O9 0.521246 0.742304 0.282388
O O10 0.520218 0.000000 0.168375
O O11 0.608493 0.730006 0.964795
O O12 0.601525 0.500000 0.778152
O O13 0.670239 0.787903 0.682402
O O14 0.500000 0.764654 0.000000
O O15 0.913892 0.000000 0.617376
O O16 0.057375 0.000000 0.254767
O O17 0.292222 0.000000 0.247593
O O18 0.500000 0.251541 0.500000
O O19 0.585842 0.000000 0.260671
#
# Coordination Sequence:
#
# PCOD8056867 Si02
#       8
#     4   4   4   4   2   2   4   4
#     4  10  19  30  47  64  83 116 150 185 226 263
#     4  10  18  27  43  65  88 115 149 181 217 263
#     4   9  17  27  41  57  80 113 150 187 221 259
#     4   9  17  26  36  55  81 108 145 184 217 254
#     4   9  18  30  44  64  84 116 139 182 226 262
#     4   9  18  32  47  60  87 109 147 183 222 271
#     4  10  16  25  42  59  82 115 149 180 215 258
#     4  10  19  31  47  65  87 117 155 196 230 259
#
# _framework density 16.279907000000001
#
# number of rings (size 3 to 8) (size 9 to 14) (size 15 to 20)
#    0.000    2.429    2.857    0.857    0.000    3.714 
#    0.000    2.857    0.000    0.000    0.000    0.000 
#    0.000    0.000    0.000    2.571    0.000    6.571 
#
# Total GULP energy -347080.083307 kJ/mol
# GULP energy per Si atom -12395.717261 kJ/mol
# Density = 1.624285 g / cm^3
# Si number density = 16.279907 Si / 1000 Ang^3
#
#
#
# Elastic Constant Matrix: (Units=GPa)
#
#
# Indices 1 2 3 4 5 6 
#
# 1 115.1288 43.6511 38.4406 0.0000 -21.7907 0.0000
# 2 43.6511 93.6409 26.4923 0.0000 -17.7875 0.0000
# 3 38.4406 26.4923 35.7312 0.0000 -9.9341 0.0000
# 4 0.0000 0.0000 0.0000 10.9295 0.0000 -2.8575
# 5 -21.7907 -17.7875 -9.9341 0.0000 22.1654 0.0000
# 6 0.0000 0.0000 0.0000 -2.8575 0.0000 16.9393
#
#
#
# Elastic Compliance Matrix: (Units=1/GPa)
#
#
# Indices 1 2 3 4 5 6 
#
# 1 0.015109 -0.002029 -0.012649 0.000000 0.007556 0.000000
# 2 -0.002029 0.014892 -0.006958 0.000000 0.006838 0.000000
# 3 -0.012649 -0.006958 0.047686 0.000000 0.003353 0.000000
# 4 0.000000 0.000000 0.000000 0.095717 0.000000 0.016147
# 5 0.007556 0.006838 0.003353 0.000000 0.059534 0.000000
# 6 0.000000 0.000000 0.000000 0.016147 0.000000 0.061758
#
#
# Mechanical properties :
#
#
# Convention : Reuss Voigt Hill
#
# Bulk Modulus (GPa) = 29.05703 51.29655 40.17679
# Shear Modulus (GPa) = 14.30859 19.06796 16.68827
#
# Velocity S-wave (km/s) = 2.96786 3.42608 3.20517
# Velocity P-wave (km/s) = 5.44347 6.87228 6.19918
#
# Compressibility (1/GPa) = 0.03441508
#
# Stress axis : x y z
#
# Youngs Moduli (GPa) = 66.18592 67.14912 20.97047
#
# Poissons Ratio (x) = 0.13625 0.26526
# Poissons Ratio (y) = 0.13430 0.14590
# Poissons Ratio (z) = 0.83721 0.46719
#
# Static dielectric constant tensor:
#      x y z
#    x 3.221210 0.000000 -0.187790 
#    y 0.000000 3.116380 0.000000 
#    z -0.187790 0.000000 2.563920 
# 
# 
# High freq. dielectric constant tensor:
#      x y z
#    x 1.623130 0.000000 -0.026690 
#    y 0.000000 1.639280 0.000000 
#    z -0.026690 0.000000 1.546920 
# 
# From -- ./inp_files/72468.got.cif
#   From: 2010.06.25/outbox.cif.g09.slc.cpg/sg10_37_cif.got.tgz:72468.got - 2010.06.27 22:07:45.
