data_PCOD8056713
_publ_section_title
;
Structure prediction by ZEFSAII (Michael W. Deem and Ramdas Pophale) SiO2 
 PCOD8056713
Probable space group: C C
;
_chemical_formula_sum "Si O2"
_cell_formula_units_Z 32
_cell_length_a 9.411351
_cell_length_b 11.354560
_cell_length_c 14.470115
_cell_angle_alpha 90.000000
_cell_angle_beta 64.145749
_cell_angle_gamma 90.000000
_cell_volume 1391.526684
_symmetry_space_group_name_H-M "C C"
_symmetry_group_IT_number 9
_symmetry_cell_setting 'monoclinic'
loop_
_space_group_symop_operation_xyz
x,y,z
x,-y,1/2+z
1/2+x,1/2+y,z
1/2+x,1/2-y,1/2+z
loop_
_atom_site_type_symbol
_atom_site_label
_atom_site_fract_x
_atom_site_fract_y
_atom_site_fract_z
Si Si1 0.752140 0.884386 0.562410
Si Si2 0.732490 0.771001 0.125044
Si Si3 0.085498 0.149355 0.535608
Si Si4 0.584010 0.040732 0.466831
Si Si5 0.750751 0.500479 0.842450
Si Si6 0.102902 0.517747 0.761454
Si Si7 0.238945 0.998659 0.641811
Si Si8 0.599479 0.292015 0.471962
O O1 0.658462 0.768659 0.556689
O O2 0.937507 0.862079 0.502062
O O3 0.704083 0.996186 0.511991
O O4 0.718570 0.923767 0.677851
O O5 0.629882 0.848445 0.223165
O O6 0.752766 0.639890 0.155475
O O7 0.902606 0.832614 0.064509
O O8 0.624921 0.762825 0.065409
O O9 0.164138 0.109781 0.416289
O O10 0.107953 0.044732 0.605867
O O11 0.610971 0.170187 0.412610
O O12 0.615085 0.962792 0.367949
O O13 0.406852 0.043278 0.556979
O O14 0.687939 0.540471 0.758934
O O15 0.738030 0.617142 0.909640
O O16 0.932712 0.468009 0.781083
#
# Coordination Sequence:
#
# PCOD8056713 Si02
#       8
#     4   4   4   4   4   4   4   4
#     4  12  26  49  76 107 150 196 253 312 380 453
#     4  12  26  48  76 107 151 193 251 317 374 453
#     4  12  26  49  76 107 150 196 253 312 380 453
#     4  12  25  48  72 108 152 197 250 315 370 452
#     4  12  26  46  74 108 149 198 245 310 388 442
#     4  12  26  46  74 108 149 198 245 310 388 442
#     4  12  25  48  72 108 152 197 250 315 370 452
#     4  12  26  48  76 107 151 193 251 317 374 453
#
# _framework density 22.996324999999999
#
# number of rings (size 3 to 8) (size 9 to 14) (size 15 to 20)
#    0.000    0.000    7.500    0.750    3.500    1.000 
#    0.000    0.000    0.000    0.000    0.000    0.000 
#    0.000    0.000    0.000    0.000    0.000    0.000 
#
# Total GULP energy -198326.203503 kJ/mol
# GULP energy per Si atom -12395.387719 kJ/mol
# Density = 2.294398 g / cm^3
# Si number density = 22.996325 Si / 1000 Ang^3
#
#
#
# Elastic Constant Matrix: (Units=GPa)
#
#
# Indices 1 2 3 4 5 6 
#
# 1 103.6046 18.1321 14.0467 0.0000 -0.7043 0.0000
# 2 18.1321 121.5807 26.9996 0.0000 -15.4549 0.0000
# 3 14.0467 26.9996 99.2438 0.0000 8.6123 0.0000
# 4 0.0000 0.0000 0.0000 37.8330 0.0000 -0.0097
# 5 -0.7043 -15.4549 8.6123 0.0000 24.1099 0.0000
# 6 0.0000 0.0000 0.0000 -0.0097 0.0000 41.0039
#
#
#
# Elastic Compliance Matrix: (Units=1/GPa)
#
#
# Indices 1 2 3 4 5 6 
#
# 1 0.010018 -0.001278 -0.001057 0.000000 -0.000149 0.000000
# 2 -0.001278 0.010096 -0.003224 0.000000 0.007586 0.000000
# 3 -0.001057 -0.003224 0.011646 0.000000 -0.006258 0.000000
# 4 0.000000 0.000000 0.000000 0.026432 0.000000 0.000006
# 5 -0.000149 0.007586 -0.006258 0.000000 0.048570 0.000000
# 6 0.000000 0.000000 0.000000 0.000006 0.000000 0.024388
#
#
# Mechanical properties :
#
#
# Convention : Reuss Voigt Hill
#
# Bulk Modulus (GPa) = 48.44730 49.19845 48.82287
# Shear Modulus (GPa) = 33.52337 38.27272 35.89805
#
# Velocity S-wave (km/s) = 3.82222 4.08401 3.95528
# Velocity P-wave (km/s) = 6.37121 6.60903 6.49121
#
# Compressibility (1/GPa) = 0.02064098
#
# Stress axis : x y z
#
# Youngs Moduli (GPa) = 99.81916 99.05025 85.86654
#
# Poissons Ratio (x) = 0.12661 0.09078
# Poissons Ratio (y) = 0.12759 0.27683
# Poissons Ratio (z) = 0.10553 0.31934
#
# Static dielectric constant tensor:
#      x y z
#    x 4.157640 0.000000 0.105170 
#    y 0.000000 4.718230 0.000000 
#    z 0.105170 0.000000 4.218590 
# 
# 
# High freq. dielectric constant tensor:
#      x y z
#    x 1.907830 0.000000 0.008570 
#    y 0.000000 1.929440 0.000000 
#    z 0.008570 0.000000 1.907450 
# 
# From -- ./inp_files/22861.got.cif
#   From: 2010.06.25/outbox.cif.g09.slc.cpg/sg9_12_cif.got.tgz:22861.got - 2010.06.27 21:40:51.
