data_PCOD8056272
_publ_section_title
;
Structure prediction by ZEFSAII (Michael W. Deem and Ramdas Pophale) SiO2 
 PCOD8056272
Probable space group: C C
;
_chemical_formula_sum "Si O2"
_cell_formula_units_Z 32
_cell_length_a 32.580395
_cell_length_b 8.433934
_cell_length_c 8.789934
_cell_angle_alpha 90.000000
_cell_angle_beta 35.964892
_cell_angle_gamma 90.000000
_cell_volume 1418.483643
_symmetry_space_group_name_H-M "C C"
_symmetry_group_IT_number 9
_symmetry_cell_setting 'monoclinic'
loop_
_space_group_symop_operation_xyz
x,y,z
x,-y,1/2+z
1/2+x,1/2+y,z
1/2+x,1/2-y,1/2+z
loop_
_atom_site_type_symbol
_atom_site_label
_atom_site_fract_x
_atom_site_fract_y
_atom_site_fract_z
Si Si1 0.792030 0.343461 0.545660
Si Si2 0.020341 0.271472 0.679442
Si Si3 0.128740 0.228528 0.854246
Si Si4 0.357052 0.156540 0.350596
Si Si5 0.778193 0.151509 0.866751
Si Si6 0.136937 0.913625 0.993558
Si Si7 0.870889 0.151508 0.088664
Si Si8 0.512144 0.913626 0.367938
O O1 0.824541 0.500000 0.529190
O O2 0.791489 0.186558 0.650833
O O3 0.714590 0.365536 0.714756
O O4 0.842881 0.308229 0.254279
O O5 0.086950 0.165357 0.518026
O O6 0.028848 0.363219 0.492220
O O7 0.015971 0.396861 0.831667
O O8 0.954121 0.148589 0.874820
O O9 0.194961 0.351411 0.652303
O O10 0.120234 0.136782 0.718062
O O11 0.133110 0.103139 0.980249
O O12 0.062132 0.334644 0.092481
O O13 0.306201 0.191770 0.364318
O O14 0.357591 0.313442 0.452529
O O15 0.434492 0.134465 0.055052
O O16 0.824541 0.000001 0.776277
#
# Coordination Sequence:
#
# PCOD8056272 Si02
#       8
#     4   4   4   4   4   4   4   4
#     4  11  23  44  71  98 139 187 231 287 352 425
#     4  11  25  46  69 103 143 186 238 290 354 424
#     4  11  25  46  69 103 143 186 238 290 354 424
#     4  11  23  44  71  98 139 187 231 287 352 425
#     4  11  25  43  69 104 139 183 232 295 352 417
#     4  11  25  44  69 103 137 191 233 291 354 418
#     4  11  25  43  69 104 139 183 232 295 352 417
#     4  11  25  44  69 103 137 191 233 291 354 418
#
# _framework density 22.5593
#
# number of rings (size 3 to 8) (size 9 to 14) (size 15 to 20)
#    0.000    1.000    2.500    3.000    7.000    2.000 
#    0.000    0.000    0.000    0.000    0.000    0.000 
#    0.000    0.000    0.000    0.000    0.000    0.000 
#
# Total GULP energy -198275.179556 kJ/mol
# GULP energy per Si atom -12392.198722 kJ/mol
# Density = 2.250795 g / cm^3
# Si number density = 22.559300 Si / 1000 Ang^3
#
#
#
# Elastic Constant Matrix: (Units=GPa)
#
#
# Indices 1 2 3 4 5 6 
#
# 1 95.4673 35.4803 52.3050 0.0000 -23.6166 0.0000
# 2 35.4803 100.6958 39.8185 0.0000 -5.4225 0.0000
# 3 52.3050 39.8185 128.6059 0.0000 -17.8036 0.0000
# 4 0.0000 0.0000 0.0000 40.1468 0.0000 -1.6928
# 5 -23.6166 -5.4225 -17.8036 0.0000 23.7633 0.0000
# 6 0.0000 0.0000 0.0000 -1.6928 0.0000 38.7922
#
#
#
# Elastic Compliance Matrix: (Units=1/GPa)
#
#
# Indices 1 2 3 4 5 6 
#
# 1 0.017432 -0.003818 -0.004050 0.000000 0.013419 0.000000
# 2 -0.003818 0.012153 -0.002623 0.000000 -0.002987 0.000000
# 3 -0.004050 -0.002623 0.010705 0.000000 0.003397 0.000000
# 4 0.000000 0.000000 0.000000 0.024955 0.000000 0.001089
# 5 0.013419 -0.002987 0.003397 0.000000 0.057281 0.000000
# 6 0.000000 0.000000 0.000000 0.001089 0.000000 0.025826
#
#
# Mechanical properties :
#
#
# Convention : Reuss Voigt Hill
#
# Bulk Modulus (GPa) = 51.79350 64.44185 58.11767
# Shear Modulus (GPa) = 28.44610 33.68480 31.06545
#
# Velocity S-wave (km/s) = 3.55484 3.86834 3.71490
# Velocity P-wave (km/s) = 6.31330 6.96991 6.64972
#
# Compressibility (1/GPa) = 0.01930744
#
# Stress axis : x y z
#
# Youngs Moduli (GPa) = 57.36452 82.28600 93.41148
#
# Poissons Ratio (x) = 0.31418 0.37832
# Poissons Ratio (y) = 0.21903 0.24505
# Poissons Ratio (z) = 0.23233 0.21586
#
# Static dielectric constant tensor:
#      x y z
#    x 3.952890 0.000000 -0.120010 
#    y 0.000000 3.874230 0.000000 
#    z -0.120010 0.000000 4.048900 
# 
# 
# High freq. dielectric constant tensor:
#      x y z
#    x 1.892850 0.000000 -0.006200 
#    y 0.000000 1.887360 0.000000 
#    z -0.006200 0.000000 1.897810 
# 
# From -- ./inp_files/8284.got.cif
#   From: 2010.06.25/outbox.cif.g09.slc.cpg/sg9_5_cif.got.tgz:8284.got - 2010.06.27 21:40:51.
