data_PCOD8056747
_publ_section_title
;
Structure prediction by ZEFSAII (Michael W. Deem and Ramdas Pophale) SiO2 
 PCOD8056747
Probable space group: C C
;
_chemical_formula_sum "Si O2"
_cell_formula_units_Z 32
_cell_length_a 25.133334
_cell_length_b 12.808287
_cell_length_c 9.242393
_cell_angle_alpha 90.000000
_cell_angle_beta 28.637753
_cell_angle_gamma 90.000000
_cell_volume 1425.955832
_symmetry_space_group_name_H-M "C C"
_symmetry_group_IT_number 9
_symmetry_cell_setting 'monoclinic'
loop_
_space_group_symop_operation_xyz
x,y,z
x,-y,1/2+z
1/2+x,1/2+y,z
1/2+x,1/2-y,1/2+z
loop_
_atom_site_type_symbol
_atom_site_label
_atom_site_fract_x
_atom_site_fract_y
_atom_site_fract_z
Si Si1 0.764930 0.090310 0.286260
Si Si2 0.941087 0.747759 0.269117
Si Si3 0.313879 0.388576 0.994819
Si Si4 0.145808 0.797426 0.950728
Si Si5 0.732988 0.495135 0.138049
Si Si6 0.881491 0.456289 0.031580
Si Si7 0.024739 0.349814 0.290064
Si Si8 0.058503 0.179288 0.970859
O O1 0.815657 0.077182 0.323880
O O2 0.637737 0.125089 0.604852
O O3 0.762160 0.980260 0.212611
O O4 0.836727 0.174583 0.025625
O O5 0.936899 0.658086 0.404827
O O6 0.055765 0.803676 0.036862
O O7 0.944380 0.708448 0.095240
O O8 0.243480 0.283763 0.184385
O O9 0.439387 0.374065 0.745337
O O10 0.096469 0.775620 0.226344
O O11 0.192761 0.913957 0.840542
O O12 0.843912 0.455193 0.953118
O O13 0.643065 0.404617 0.335465
O O14 0.771238 0.540259 0.892554
O O15 0.968870 0.545813 0.860400
O O16 0.052495 0.278127 0.088512
#
# Coordination Sequence:
#
# PCOD8056747 Si02
#       8
#     4   4   4   4   4   4   4   4
#     4  12  28  49  75 112 151 197 249 310 382 453
#     4  12  26  49  76 108 152 197 249 310 376 449
#     4  12  28  49  75 112 151 197 249 310 382 453
#     4  12  26  49  76 108 152 197 249 310 376 449
#     4  12  26  47  75 107 148 195 253 305 372 447
#     4  12  26  47  75 107 148 195 253 305 372 447
#     4  12  29  46  76 111 148 200 250 311 375 445
#     4  12  29  46  76 111 148 200 250 311 375 445
#
# _framework density 22.441085999999999
#
# number of rings (size 3 to 8) (size 9 to 14) (size 15 to 20)
#    0.000    0.000    5.000    3.750    7.000    0.000 
#    0.000    0.000    0.000    0.000    0.000    0.000 
#    0.000    0.000    0.000    0.000    0.000    0.000 
#
# Total GULP energy -198479.818302 kJ/mol
# GULP energy per Si atom -12404.988644 kJ/mol
# Density = 2.239001 g / cm^3
# Si number density = 22.441086 Si / 1000 Ang^3
#
#
#
# Elastic Constant Matrix: (Units=GPa)
#
#
# Indices 1 2 3 4 5 6 
#
# 1 84.8608 21.5453 16.6606 0.0000 -8.1371 0.0000
# 2 21.5453 86.4327 20.2053 0.0000 -6.9752 0.0000
# 3 16.6606 20.2053 83.2694 0.0000 -7.4123 0.0000
# 4 0.0000 0.0000 0.0000 42.1739 0.0000 -1.7142
# 5 -8.1371 -6.9752 -7.4123 0.0000 43.8485 0.0000
# 6 0.0000 0.0000 0.0000 -1.7142 0.0000 34.1008
#
#
#
# Elastic Compliance Matrix: (Units=1/GPa)
#
#
# Indices 1 2 3 4 5 6 
#
# 1 0.012978 -0.002680 -0.001797 0.000000 0.001678 0.000000
# 2 -0.002680 0.012913 -0.002496 0.000000 0.001135 0.000000
# 3 -0.001797 -0.002496 0.013107 0.000000 0.001485 0.000000
# 4 0.000000 0.000000 0.000000 0.023760 0.000000 0.001194
# 5 0.001678 0.001135 0.001485 0.000000 0.023549 0.000000
# 6 0.000000 0.000000 0.000000 0.001194 0.000000 0.029385
#
#
# Mechanical properties :
#
#
# Convention : Reuss Voigt Hill
#
# Bulk Modulus (GPa) = 39.91701 41.26504 40.59102
# Shear Modulus (GPa) = 36.23525 37.10141 36.66833
#
# Velocity S-wave (km/s) = 4.02267 4.07047 4.04664
# Velocity P-wave (km/s) = 6.27710 6.36551 6.32146
#
# Compressibility (1/GPa) = 0.02505198
#
# Stress axis : x y z
#
# Youngs Moduli (GPa) = 77.05311 77.44288 76.29709
#
# Poissons Ratio (x) = 0.20751 0.13711
# Poissons Ratio (y) = 0.20647 0.19045
# Poissons Ratio (z) = 0.13847 0.19331
#
# Static dielectric constant tensor:
#      x y z
#    x 4.019840 0.000000 -0.038470 
#    y 0.000000 4.021530 0.000000 
#    z -0.038470 0.000000 4.097450 
# 
# 
# High freq. dielectric constant tensor:
#      x y z
#    x 1.896220 0.000000 -0.000440 
#    y 0.000000 1.894170 0.000000 
#    z -0.000440 0.000000 1.898430 
# 
# From -- ./inp_files/7662.got.cif
#   From: 2010.06.25/outbox.cif.g09.slc.cpg/sg9_4_cif.got.tgz:7662.got - 2010.06.27 21:40:51.
